REMARK SMILES O=C(OCCOC(=O)c1cc(N2C(=O)C[C@H](Nc3ccccc3O)C2=O)ccc1O)c1ccc(-c2c3nc(c(-c4cccc(S(=O)(=O)[O-])c4F)c4ccc([nH]4)c(-c4cccc(S(=O)(=O)[O-])c4F)c4nc(c(-c5cccc(S(=O)(=O)[O-])c5F)c5ccc2[nH]5)C=C4)C=C3)cc1
REMARK SMILES IDX 5 1 4 2 3 3 2 4 1 5 31 6 32 7 93 8 33 9 92 10 34 11 35 12
REMARK SMILES IDX 36 13 86 14 37 15 91 16 85 17 87 18 38 19 90 20 84 21 83 22
REMARK SMILES IDX 39 24 71 25 51 26 70 27 52 28 55 29 69 30 88 31 53 32 54 33
REMARK SMILES IDX 68 35 89 36 56 37 40 38 41 39 49 40 42 41 44 42 50 43 43 44
REMARK SMILES IDX 45 45 46 46 47 47 48 48 72 49 73 50 81 51 74 52 76 53 82 54
REMARK SMILES IDX 75 55 77 56 78 57 79 58 80 59 57 60 58 61 66 62 59 63 61 64
REMARK SMILES IDX 67 65 60 66 62 67 63 68 64 69 65 70 6 71 7 72 8 73 9 74
REMARK SMILES IDX 10 75 29 76 11 77 28 78 27 79 30 80 12 82 13 83 25 84 14 85
REMARK SMILES IDX 15 86 16 87 26 88 17 89 18 91 19 92 23 93 20 94 22 95 21 96
REMARK SMILES IDX 24 97
REMARK H PARENT 87 23 55 34 30 81 17 90 24 98
REMARK Flexibility Score: inf
ROOT
ATOM      1  C   UNL     1       3.744   1.230   1.870  1.00  0.00     0.275 C 
ENDROOT
BRANCH   1   2
ATOM      2  C   UNL     1       4.059   1.618   0.423  1.00  0.00     0.275 C 
BRANCH   2   3
ATOM      3  O   UNL     1       3.096   1.182  -0.547  1.00  0.00    -0.458 OA
BRANCH   3   4
ATOM      4  C   UNL     1       2.948  -0.025  -1.140  1.00  0.00     0.338 C 
ATOM      5  O   UNL     1       2.069  -0.141  -1.996  1.00  0.00    -0.246 OA
BRANCH   4   6
ATOM      6  C   UNL     1       3.716  -1.255  -0.751  1.00  0.00     0.060 A 
ATOM      7  C   UNL     1       4.957  -1.312  -0.112  1.00  0.00     0.016 A 
ATOM      8  C   UNL     1       3.091  -2.474  -1.046  1.00  0.00     0.016 A 
ATOM      9  C   UNL     1       5.513  -2.531   0.297  1.00  0.00     0.010 A 
ATOM     10  C   UNL     1       3.625  -3.692  -0.617  1.00  0.00     0.010 A 
ATOM     11  C   UNL     1       4.847  -3.728   0.053  1.00  0.00    -0.014 A 
BRANCH  11  12
ATOM     12  C   UNL     1       5.489  -5.024   0.358  1.00  0.00     0.031 A 
ATOM     13  C   UNL     1       6.010  -5.840  -0.787  1.00  0.00     0.074 A 
ATOM     14  C   UNL     1       5.603  -5.458   1.627  1.00  0.00     0.049 A 
ATOM     15  N   UNL     1       6.663  -6.969  -0.758  1.00  0.00    -0.248 NA
ATOM     16  C   UNL     1       5.790  -5.304  -2.142  1.00  0.00     0.031 C 
ATOM     17  C   UNL     1       5.160  -4.725   2.811  1.00  0.00     0.029 A 
ATOM     18  N   UNL     1       6.101  -6.630   2.134  1.00  0.00    -0.354 N 
ATOM     19  C   UNL     1       6.948  -7.267  -2.083  1.00  0.00     0.074 A 
ATOM     20  C   UNL     1       6.344  -6.239  -2.897  1.00  0.00     0.031 C 
ATOM     21  C   UNL     1       5.337  -5.492   3.901  1.00  0.00     0.029 A 
ATOM     22  C   UNL     1       5.928  -6.761   3.493  1.00  0.00     0.049 A 
ATOM     23  H   UNL     1       6.542  -7.314   1.579  1.00  0.00     0.167 HD
ATOM     24  C   UNL     1       7.690  -8.284  -2.574  1.00  0.00     0.034 A 
ATOM     25  C   UNL     1       6.221  -7.790   4.311  1.00  0.00     0.034 A 
ATOM     26  C   UNL     1       8.266  -9.307  -1.752  1.00  0.00     0.049 A 
ATOM     27  C   UNL     1       6.964  -8.963   3.730  1.00  0.00     0.074 A 
ATOM     28  C   UNL     1       9.059 -10.373  -2.129  1.00  0.00     0.029 A 
ATOM     29  N   UNL     1       8.081  -9.405  -0.380  1.00  0.00    -0.354 N 
ATOM     30  N   UNL     1       7.358  -9.154   2.494  1.00  0.00    -0.248 NA
ATOM     31  C   UNL     1       7.367 -10.026   4.661  1.00  0.00     0.031 C 
ATOM     32  C   UNL     1       9.320 -11.139  -0.988  1.00  0.00     0.029 A 
ATOM     33  C   UNL     1       8.726 -10.527   0.105  1.00  0.00     0.049 A 
ATOM     34  H   UNL     1       7.567  -8.768   0.167  1.00  0.00     0.167 HD
ATOM     35  C   UNL     1       8.109 -10.322   2.508  1.00  0.00     0.074 A 
ATOM     36  C   UNL     1       8.111 -10.795   3.879  1.00  0.00     0.031 C 
ATOM     37  C   UNL     1       8.744 -10.945   1.485  1.00  0.00     0.034 A 
BRANCH  24  38
ATOM     38  C   UNL     1       7.917  -8.306  -4.060  1.00  0.00     0.023 A 
ATOM     39  C   UNL     1       8.752  -7.333  -4.653  1.00  0.00     0.012 A 
ATOM     40  C   UNL     1       7.293  -9.270  -4.871  1.00  0.00     0.148 A 
ATOM     41  C   UNL     1       8.925  -7.293  -6.035  1.00  0.00     0.002 A 
ATOM     42  C   UNL     1       7.506  -9.251  -6.244  1.00  0.00     0.091 A 
ATOM     43  F   UNL     1       6.485 -10.167  -4.290  1.00  0.00    -0.205 F 
ATOM     44  C   UNL     1       8.307  -8.255  -6.829  1.00  0.00     0.022 A 
BRANCH  42  45
ATOM     45  S   UNL     1       6.806 -10.479  -7.349  1.00  0.00     0.127 S 
ATOM     46  O   UNL     1       5.878  -9.671  -8.140  1.00  0.00    -0.237 OA
ATOM     47  O   UNL     1       7.987 -10.939  -8.079  1.00  0.00    -0.237 OA
ATOM     48  O   UNL     1       6.184 -11.483  -6.497  1.00  0.00    -0.744 OA
ENDBRANCH  42  45
ENDBRANCH  24  38
BRANCH  25  49
ATOM     49  C   UNL     1       5.880  -7.728   5.761  1.00  0.00     0.023 A 
ATOM     50  C   UNL     1       6.903  -7.607   6.721  1.00  0.00     0.012 A 
ATOM     51  C   UNL     1       4.540  -7.787   6.194  1.00  0.00     0.148 A 
ATOM     52  C   UNL     1       6.603  -7.587   8.085  1.00  0.00     0.002 A 
ATOM     53  C   UNL     1       4.245  -7.724   7.551  1.00  0.00     0.091 A 
ATOM     54  F   UNL     1       3.579  -7.897   5.266  1.00  0.00    -0.205 F 
ATOM     55  C   UNL     1       5.275  -7.642   8.500  1.00  0.00     0.022 A 
BRANCH  53  56
ATOM     56  S   UNL     1       2.560  -7.676   8.172  1.00  0.00     0.127 S 
ATOM     57  O   UNL     1       2.447  -8.973   8.832  1.00  0.00    -0.237 OA
ATOM     58  O   UNL     1       2.607  -6.524   9.072  1.00  0.00    -0.237 OA
ATOM     59  O   UNL     1       1.719  -7.485   6.997  1.00  0.00    -0.744 OA
ENDBRANCH  53  56
ENDBRANCH  25  49
BRANCH  37  60
ATOM     60  C   UNL     1       9.538 -12.179   1.812  1.00  0.00     0.023 A 
ATOM     61  C   UNL     1       8.877 -13.381   2.127  1.00  0.00     0.012 A 
ATOM     62  C   UNL     1      10.944 -12.160   1.717  1.00  0.00     0.148 A 
ATOM     63  C   UNL     1       9.607 -14.543   2.371  1.00  0.00     0.002 A 
ATOM     64  C   UNL     1      11.659 -13.334   1.904  1.00  0.00     0.091 A 
ATOM     65  F   UNL     1      11.551 -10.998   1.436  1.00  0.00    -0.205 F 
ATOM     66  C   UNL     1      10.995 -14.523   2.245  1.00  0.00     0.022 A 
BRANCH  64  67
ATOM     67  S   UNL     1      13.434 -13.425   1.651  1.00  0.00     0.127 S 
ATOM     68  O   UNL     1      13.922 -13.580   3.020  1.00  0.00    -0.237 OA
ATOM     69  O   UNL     1      13.566 -14.620   0.816  1.00  0.00    -0.237 OA
ATOM     70  O   UNL     1      13.812 -12.182   0.991  1.00  0.00    -0.744 OA
ENDBRANCH  64  67
ENDBRANCH  37  60
ENDBRANCH  11  12
ENDBRANCH   4   6
ENDBRANCH   3   4
ENDBRANCH   2   3
ENDBRANCH   1   2
BRANCH   1  71
ATOM     71  O   UNL     1       3.327  -0.134   2.034  1.00  0.00    -0.458 OA
BRANCH  71  72
ATOM     72  C   UNL     1       1.985  -0.344   2.079  1.00  0.00     0.342 C 
ATOM     73  O   UNL     1       1.119   0.511   1.951  1.00  0.00    -0.246 OA
BRANCH  72  74
ATOM     74  C   UNL     1       1.676  -1.789   2.163  1.00  0.00     0.103 A 
ATOM     75  C   UNL     1       0.780  -2.332   1.220  1.00  0.00     0.046 A 
ATOM     76  C   UNL     1       2.190  -2.600   3.177  1.00  0.00     0.130 A 
ATOM     77  C   UNL     1       0.409  -3.682   1.292  1.00  0.00     0.053 A 
ATOM     78  C   UNL     1       1.823  -3.946   3.247  1.00  0.00     0.049 A 
ATOM     79  C   UNL     1       0.932  -4.481   2.313  1.00  0.00     0.031 A 
BRANCH  76  80
ATOM     80  O   UNL     1       3.035  -2.087   4.123  1.00  0.00    -0.507 OA
ATOM     81  H   UNL     1       3.288  -1.186   4.085  1.00  0.00     0.293 HD
ENDBRANCH  76  80
BRANCH  77  82
ATOM     82  N   UNL     1      -0.542  -4.216   0.396  1.00  0.00    -0.249 N 
ATOM     83  C   UNL     1      -1.728  -4.760   0.808  1.00  0.00     0.236 C 
ATOM     84  C   UNL     1      -0.304  -4.470  -0.932  1.00  0.00     0.256 C 
ATOM     85  O   UNL     1      -2.188  -4.785   1.942  1.00  0.00    -0.274 OA
ATOM     86  C   UNL     1      -2.436  -5.360  -0.368  1.00  0.00     0.136 C 
ATOM     87  C   UNL     1      -1.604  -4.940  -1.567  1.00  0.00     0.179 C 
ATOM     88  O   UNL     1       0.770  -4.425  -1.516  1.00  0.00    -0.272 OA
BRANCH  87  89
ATOM     89  N   UNL     1      -1.420  -6.088  -2.464  1.00  0.00    -0.370 N 
ATOM     90  H   UNL     1      -1.007  -6.921  -2.138  1.00  0.00     0.161 HD
BRANCH  89  91
ATOM     91  C   UNL     1      -1.845  -5.970  -3.792  1.00  0.00     0.077 A 
ATOM     92  C   UNL     1      -2.707  -6.943  -4.308  1.00  0.00     0.029 A 
ATOM     93  C   UNL     1      -1.302  -5.036  -4.687  1.00  0.00     0.138 A 
ATOM     94  C   UNL     1      -3.059  -6.949  -5.662  1.00  0.00     0.002 A 
ATOM     95  C   UNL     1      -1.633  -5.042  -6.043  1.00  0.00     0.048 A 
ATOM     96  C   UNL     1      -2.522  -5.999  -6.529  1.00  0.00     0.004 A 
BRANCH  93  97
ATOM     97  O   UNL     1      -0.412  -4.106  -4.224  1.00  0.00    -0.506 OA
ATOM     98  H   UNL     1      -0.181  -4.090  -3.316  1.00  0.00     0.293 HD
ENDBRANCH  93  97
ENDBRANCH  89  91
ENDBRANCH  87  89
ENDBRANCH  77  82
ENDBRANCH  72  74
ENDBRANCH  71  72
ENDBRANCH   1  71
TORSDOF 19
