REMARK SMILES C[C@H]([NH3+])C(=O)N1CCC[C@H]1C(=O)OCCOC(=O)c1ccc(-c2c3nc(c(-c4cccc(S(=O)(=O)[O-])c4F)c4ccc([nH]4)c(-c4cccc(S(=O)(=O)[O-])c4F)c4nc(c(-c5cccc(S(=O)(=O)[O-])c5F)c5ccc2[nH]5)C=C4)C=C3)cc1
REMARK SMILES IDX 14 1 13 2 11 3 12 4 10 5 6 6 7 7 8 8 9 9 4 10 5 11 2 12 1 13
REMARK SMILES IDX 3 14 15 18 16 19 17 20 18 21 19 22 20 23 81 24 21 25 80 26
REMARK SMILES IDX 22 27 23 28 24 29 74 30 25 31 79 32 73 33 75 34 26 35 78 36
REMARK SMILES IDX 72 37 71 38 27 40 59 41 39 42 58 43 40 44 43 45 57 46 76 47
REMARK SMILES IDX 41 48 42 49 56 51 77 52 44 53 28 54 29 55 37 56 30 57 32 58
REMARK SMILES IDX 38 59 31 60 33 61 34 62 35 63 36 64 60 65 61 66 69 67 62 68
REMARK SMILES IDX 64 69 70 70 63 71 65 72 66 73 67 74 68 75 45 76 46 77 54 78
REMARK SMILES IDX 47 79 49 80 55 81 48 82 50 83 51 84 52 85 53 86
REMARK H PARENT 3 15 3 16 3 17 75 39 43 50
REMARK Flexibility Score: inf
ROOT
ATOM      1  C   UNL     1      -5.995  -1.851   1.308  1.00  0.00     0.274 C 
ENDROOT
BRANCH   1   2
ATOM      2  O   UNL     1      -4.887  -1.478   2.151  1.00  0.00    -0.461 OA
BRANCH   2   3
ATOM      3  C   UNL     1      -3.751  -1.084   1.499  1.00  0.00     0.328 C 
ATOM      4  O   UNL     1      -3.637  -0.993   0.283  1.00  0.00    -0.250 OA
BRANCH   3   5
ATOM      5  C   UNL     1      -2.666  -0.695   2.518  1.00  0.00     0.195 C 
ATOM      6  N   UNL     1      -1.354  -0.514   1.884  1.00  0.00    -0.324 N 
ATOM      7  C   UNL     1      -0.974   0.884   1.863  1.00  0.00     0.121 C 
ATOM      8  C   UNL     1      -1.720   1.489   3.036  1.00  0.00     0.024 C 
ATOM      9  C   UNL     1      -2.988   0.653   3.171  1.00  0.00     0.039 C 
BRANCH   6  10
ATOM     10  C   UNL     1      -0.676  -1.618   1.418  1.00  0.00     0.281 C 
ATOM     11  O   UNL     1      -1.185  -2.741   1.530  1.00  0.00    -0.268 OA
BRANCH  10  12
ATOM     12  C   UNL     1       0.762  -1.503   0.869  1.00  0.00     0.268 C 
ATOM     13  C   UNL     1       1.749  -1.369   2.023  1.00  0.00     0.086 C 
BRANCH  12  14
ATOM     14  N   UNL     1       0.949  -0.458  -0.146  1.00  0.00    -0.348 N 
ATOM     15  H   UNL     1       0.780   0.457   0.272  1.00  0.00     0.345 HD
ATOM     16  H   UNL     1       0.293  -0.608  -0.913  1.00  0.00     0.345 HD
ATOM     17  H   UNL     1       1.904  -0.497  -0.503  1.00  0.00     0.345 HD
ENDBRANCH  12  14
ENDBRANCH  10  12
ENDBRANCH   6  10
ENDBRANCH   3   5
ENDBRANCH   2   3
ENDBRANCH   1   2
BRANCH   1  18
ATOM     18  C   UNL     1      -6.988  -0.700   1.169  1.00  0.00     0.275 C 
BRANCH  18  19
ATOM     19  O   UNL     1      -6.373   0.388   0.460  1.00  0.00    -0.458 OA
BRANCH  19  20
ATOM     20  C   UNL     1      -6.357   1.578   1.098  1.00  0.00     0.338 C 
ATOM     21  O   UNL     1      -6.848   1.850   2.179  1.00  0.00    -0.246 OA
BRANCH  20  22
ATOM     22  C   UNL     1      -5.596   2.548   0.294  1.00  0.00     0.060 A 
ATOM     23  C   UNL     1      -4.224   2.368   0.118  1.00  0.00     0.016 A 
ATOM     24  C   UNL     1      -6.224   3.697  -0.182  1.00  0.00     0.016 A 
ATOM     25  C   UNL     1      -3.458   3.371  -0.466  1.00  0.00     0.010 A 
ATOM     26  C   UNL     1      -5.465   4.666  -0.845  1.00  0.00     0.010 A 
ATOM     27  C   UNL     1      -4.070   4.529  -0.960  1.00  0.00    -0.014 A 
BRANCH  27  28
ATOM     28  C   UNL     1      -3.248   5.611  -1.558  1.00  0.00     0.031 A 
ATOM     29  C   UNL     1      -3.220   6.972  -0.917  1.00  0.00     0.074 A 
ATOM     30  C   UNL     1      -2.519   5.374  -2.667  1.00  0.00     0.049 A 
ATOM     31  N   UNL     1      -2.684   8.080  -1.356  1.00  0.00    -0.248 NA
ATOM     32  C   UNL     1      -3.887   7.104   0.389  1.00  0.00     0.031 C 
ATOM     33  C   UNL     1      -2.427   4.088  -3.361  1.00  0.00     0.029 A 
ATOM     34  N   UNL     1      -1.720   6.209  -3.407  1.00  0.00    -0.354 N 
ATOM     35  C   UNL     1      -3.003   9.053  -0.417  1.00  0.00     0.074 A 
ATOM     36  C   UNL     1      -3.771   8.403   0.622  1.00  0.00     0.031 C 
ATOM     37  C   UNL     1      -1.601   4.213  -4.410  1.00  0.00     0.029 A 
ATOM     38  C   UNL     1      -1.163   5.601  -4.509  1.00  0.00     0.049 A 
ATOM     39  H   UNL     1      -1.560   7.152  -3.173  1.00  0.00     0.167 HD
ATOM     40  C   UNL     1      -2.676  10.367  -0.415  1.00  0.00     0.034 A 
ATOM     41  C   UNL     1      -0.413   6.112  -5.505  1.00  0.00     0.034 A 
ATOM     42  C   UNL     1      -1.864  10.999  -1.419  1.00  0.00     0.049 A 
ATOM     43  C   UNL     1      -0.089   7.580  -5.494  1.00  0.00     0.074 A 
ATOM     44  C   UNL     1      -1.466  12.321  -1.500  1.00  0.00     0.029 A 
ATOM     45  N   UNL     1      -1.313  10.348  -2.512  1.00  0.00    -0.354 N 
ATOM     46  N   UNL     1      -0.377   8.481  -4.586  1.00  0.00    -0.248 NA
ATOM     47  C   UNL     1       0.666   8.100  -6.642  1.00  0.00     0.031 C 
ATOM     48  C   UNL     1      -0.675  12.470  -2.645  1.00  0.00     0.029 A 
ATOM     49  C   UNL     1      -0.576  11.239  -3.273  1.00  0.00     0.049 A 
ATOM     50  H   UNL     1      -1.429   9.392  -2.717  1.00  0.00     0.167 HD
ATOM     51  C   UNL     1       0.176   9.671  -5.044  1.00  0.00     0.074 A 
ATOM     52  C   UNL     1       0.838   9.369  -6.297  1.00  0.00     0.031 C 
ATOM     53  C   UNL     1       0.121  10.907  -4.490  1.00  0.00     0.034 A 
BRANCH  40  54
ATOM     54  C   UNL     1      -3.181  11.204   0.730  1.00  0.00     0.023 A 
ATOM     55  C   UNL     1      -2.559  11.107   1.990  1.00  0.00     0.012 A 
ATOM     56  C   UNL     1      -4.252  12.101   0.554  1.00  0.00     0.148 A 
ATOM     57  C   UNL     1      -3.013  11.869   3.066  1.00  0.00     0.002 A 
ATOM     58  C   UNL     1      -4.677  12.884   1.623  1.00  0.00     0.091 A 
ATOM     59  F   UNL     1      -4.854  12.157  -0.643  1.00  0.00    -0.205 F 
ATOM     60  C   UNL     1      -4.065  12.763   2.880  1.00  0.00     0.022 A 
BRANCH  58  61
ATOM     61  S   UNL     1      -5.984  14.104   1.445  1.00  0.00     0.127 S 
ATOM     62  O   UNL     1      -7.146  13.368   1.939  1.00  0.00    -0.237 OA
ATOM     63  O   UNL     1      -5.530  15.185   2.321  1.00  0.00    -0.237 OA
ATOM     64  O   UNL     1      -6.003  14.449   0.030  1.00  0.00    -0.744 OA
ENDBRANCH  58  61
ENDBRANCH  40  54
BRANCH  41  65
ATOM     65  C   UNL     1       0.103   5.217  -6.579  1.00  0.00     0.023 A 
ATOM     66  C   UNL     1       1.482   4.942  -6.638  1.00  0.00     0.012 A 
ATOM     67  C   UNL     1      -0.760   4.601  -7.505  1.00  0.00     0.148 A 
ATOM     68  C   UNL     1       1.995   4.079  -7.607  1.00  0.00     0.002 A 
ATOM     69  C   UNL     1      -0.251   3.699  -8.432  1.00  0.00     0.091 A 
ATOM     70  F   UNL     1      -2.067   4.896  -7.452  1.00  0.00    -0.205 F 
ATOM     71  C   UNL     1       1.127   3.446  -8.493  1.00  0.00     0.022 A 
BRANCH  69  72
ATOM     72  S   UNL     1      -1.316   2.740  -9.517  1.00  0.00     0.127 S 
ATOM     73  O   UNL     1      -1.119   3.411 -10.799  1.00  0.00    -0.237 OA
ATOM     74  O   UNL     1      -0.726   1.404  -9.423  1.00  0.00    -0.237 OA
ATOM     75  O   UNL     1      -2.650   2.845  -8.941  1.00  0.00    -0.744 OA
ENDBRANCH  69  72
ENDBRANCH  41  65
BRANCH  53  76
ATOM     76  C   UNL     1       0.809  12.026  -5.223  1.00  0.00     0.023 A 
ATOM     77  C   UNL     1       0.201  12.580  -6.366  1.00  0.00     0.012 A 
ATOM     78  C   UNL     1       2.013  12.574  -4.742  1.00  0.00     0.148 A 
ATOM     79  C   UNL     1       0.793  13.651  -7.033  1.00  0.00     0.002 A 
ATOM     80  C   UNL     1       2.577  13.667  -5.389  1.00  0.00     0.091 A 
ATOM     81  F   UNL     1       2.587  12.015  -3.667  1.00  0.00    -0.205 F 
ATOM     82  C   UNL     1       1.974  14.202  -6.539  1.00  0.00     0.022 A 
BRANCH  80  83
ATOM     83  S   UNL     1       4.050  14.487  -4.768  1.00  0.00     0.127 S 
ATOM     84  O   UNL     1       5.083  13.964  -5.659  1.00  0.00    -0.237 OA
ATOM     85  O   UNL     1       3.731  15.902  -4.968  1.00  0.00    -0.237 OA
ATOM     86  O   UNL     1       4.163  14.090  -3.370  1.00  0.00    -0.744 OA
ENDBRANCH  80  83
ENDBRANCH  53  76
ENDBRANCH  27  28
ENDBRANCH  20  22
ENDBRANCH  19  20
ENDBRANCH  18  19
ENDBRANCH   1  18
TORSDOF 17
