REMARK SMILES O=C(OCCOC(=O)c1noc(-c2ccccc2C(F)(F)F)n1)c1ccc(-c2c3nc(c(-c4cccc(S(=O)(=O)[O-])c4F)c4ccc([nH]4)c(-c4cccc(S(=O)(=O)[O-])c4F)c4nc(c(-c5cccc(S(=O)(=O)[O-])c5F)c5ccc2[nH]5)C=C4)C=C3)cc1
REMARK SMILES IDX 4 1 3 2 2 3 1 4 24 5 25 6 86 7 26 8 85 9 27 10 28 11 29 12
REMARK SMILES IDX 79 13 30 14 84 15 78 16 80 17 31 18 83 19 77 20 76 21 32 23
REMARK SMILES IDX 64 24 44 25 63 26 45 27 48 28 62 29 81 30 46 31 47 32 61 34
REMARK SMILES IDX 82 35 49 36 33 37 34 38 42 39 35 40 37 41 43 42 36 43 38 44
REMARK SMILES IDX 39 45 40 46 41 47 65 48 66 49 74 50 67 51 69 52 75 53 68 54
REMARK SMILES IDX 70 55 71 56 72 57 73 58 50 59 51 60 59 61 52 62 54 63 60 64
REMARK SMILES IDX 53 65 55 66 56 67 57 68 58 69 5 70 6 71 7 72 8 73 9 74 10 75
REMARK SMILES IDX 23 76 11 77 12 78 13 79 14 80 18 81 15 82 17 83 16 84 19 85
REMARK SMILES IDX 20 86 21 87 22 88
REMARK H PARENT 80 22 48 33
REMARK Flexibility Score: inf
ROOT
ATOM      1  C   UNL     1       4.167  -0.706  -1.545  1.00  0.00     0.275 C 
ENDROOT
BRANCH   1   2
ATOM      2  O   UNL     1       3.015  -1.014  -0.739  1.00  0.00    -0.458 OA
BRANCH   2   3
ATOM      3  C   UNL     1       2.861  -0.888   0.602  1.00  0.00     0.338 C 
ATOM      4  O   UNL     1       2.003  -1.556   1.175  1.00  0.00    -0.246 OA
BRANCH   3   5
ATOM      5  C   UNL     1       3.571   0.159   1.393  1.00  0.00     0.060 A 
ATOM      6  C   UNL     1       4.935   0.443   1.298  1.00  0.00     0.016 A 
ATOM      7  C   UNL     1       2.812   0.842   2.363  1.00  0.00     0.016 A 
ATOM      8  C   UNL     1       5.521   1.411   2.116  1.00  0.00     0.010 A 
ATOM      9  C   UNL     1       3.400   1.799   3.198  1.00  0.00     0.010 A 
ATOM     10  C   UNL     1       4.766   2.077   3.086  1.00  0.00    -0.014 A 
BRANCH  10  11
ATOM     11  C   UNL     1       5.473   2.928   4.068  1.00  0.00     0.031 A 
ATOM     12  C   UNL     1       5.902   2.314   5.370  1.00  0.00     0.074 A 
ATOM     13  C   UNL     1       5.803   4.197   3.768  1.00  0.00     0.049 A 
ATOM     14  N   UNL     1       6.710   2.793   6.278  1.00  0.00    -0.248 NA
ATOM     15  C   UNL     1       5.375   0.974   5.677  1.00  0.00     0.031 C 
ATOM     16  C   UNL     1       5.462   4.889   2.526  1.00  0.00     0.029 A 
ATOM     17  N   UNL     1       6.506   5.129   4.487  1.00  0.00    -0.354 N 
ATOM     18  C   UNL     1       6.809   1.806   7.251  1.00  0.00     0.074 A 
ATOM     19  C   UNL     1       5.946   0.719   6.845  1.00  0.00     0.031 C 
ATOM     20  C   UNL     1       5.928   6.149   2.583  1.00  0.00     0.029 A 
ATOM     21  C   UNL     1       6.631   6.340   3.849  1.00  0.00     0.049 A 
ATOM     22  H   UNL     1       6.886   4.947   5.377  1.00  0.00     0.167 HD
ATOM     23  C   UNL     1       7.578   1.791   8.364  1.00  0.00     0.034 A 
ATOM     24  C   UNL     1       7.269   7.463   4.234  1.00  0.00     0.034 A 
ATOM     25  C   UNL     1       8.423   2.880   8.768  1.00  0.00     0.049 A 
ATOM     26  C   UNL     1       8.072   7.440   5.509  1.00  0.00     0.074 A 
ATOM     27  C   UNL     1       9.257   2.963   9.867  1.00  0.00     0.029 A 
ATOM     28  N   UNL     1       8.523   4.087   8.093  1.00  0.00    -0.354 N 
ATOM     29  N   UNL     1       8.283   6.442   6.334  1.00  0.00    -0.248 NA
ATOM     30  C   UNL     1       8.772   8.680   5.875  1.00  0.00     0.031 C 
ATOM     31  C   UNL     1       9.847   4.233   9.868  1.00  0.00     0.029 A 
ATOM     32  C   UNL     1       9.392   4.931   8.760  1.00  0.00     0.049 A 
ATOM     33  H   UNL     1       8.046   4.310   7.262  1.00  0.00     0.167 HD
ATOM     34  C   UNL     1       9.184   6.915   7.282  1.00  0.00     0.074 A 
ATOM     35  C   UNL     1       9.478   8.289   6.927  1.00  0.00     0.031 C 
ATOM     36  C   UNL     1       9.717   6.274   8.351  1.00  0.00     0.034 A 
BRANCH  23  37
ATOM     37  C   UNL     1       7.557   0.538   9.194  1.00  0.00     0.023 A 
ATOM     38  C   UNL     1       8.251  -0.602   8.738  1.00  0.00     0.012 A 
ATOM     39  C   UNL     1       6.861   0.484  10.415  1.00  0.00     0.148 A 
ATOM     40  C   UNL     1       8.228  -1.787   9.472  1.00  0.00     0.002 A 
ATOM     41  C   UNL     1       6.868  -0.693  11.156  1.00  0.00     0.091 A 
ATOM     42  F   UNL     1       6.183   1.569  10.814  1.00  0.00    -0.205 F 
ATOM     43  C   UNL     1       7.542  -1.830  10.683  1.00  0.00     0.022 A 
BRANCH  41  44
ATOM     44  S   UNL     1       6.051  -0.830  12.750  1.00  0.00     0.127 S 
ATOM     45  O   UNL     1       4.873  -1.626  12.409  1.00  0.00    -0.237 OA
ATOM     46  O   UNL     1       7.053  -1.535  13.552  1.00  0.00    -0.237 OA
ATOM     47  O   UNL     1       5.786   0.535  13.180  1.00  0.00    -0.744 OA
ENDBRANCH  41  44
ENDBRANCH  23  37
BRANCH  24  48
ATOM     48  C   UNL     1       7.262   8.669   3.361  1.00  0.00     0.023 A 
ATOM     49  C   UNL     1       8.437   9.043   2.681  1.00  0.00     0.012 A 
ATOM     50  C   UNL     1       6.100   9.448   3.201  1.00  0.00     0.148 A 
ATOM     51  C   UNL     1       8.464  10.187   1.883  1.00  0.00     0.002 A 
ATOM     52  C   UNL     1       6.121  10.563   2.370  1.00  0.00     0.091 A 
ATOM     53  F   UNL     1       4.995   9.076   3.859  1.00  0.00    -0.205 F 
ATOM     54  C   UNL     1       7.306  10.944   1.724  1.00  0.00     0.022 A 
BRANCH  52  55
ATOM     55  S   UNL     1       4.659  11.557   2.052  1.00  0.00     0.127 S 
ATOM     56  O   UNL     1       5.163  12.916   2.238  1.00  0.00    -0.237 OA
ATOM     57  O   UNL     1       4.351  11.192   0.671  1.00  0.00    -0.237 OA
ATOM     58  O   UNL     1       3.670  11.136   3.035  1.00  0.00    -0.744 OA
ENDBRANCH  52  55
ENDBRANCH  24  48
BRANCH  36  59
ATOM     59  C   UNL     1      10.703   7.031   9.199  1.00  0.00     0.023 A 
ATOM     60  C   UNL     1      10.245   8.032  10.077  1.00  0.00     0.012 A 
ATOM     61  C   UNL     1      12.069   6.686   9.192  1.00  0.00     0.148 A 
ATOM     62  C   UNL     1      11.137   8.695  10.919  1.00  0.00     0.002 A 
ATOM     63  C   UNL     1      12.943   7.319  10.066  1.00  0.00     0.091 A 
ATOM     64  F   UNL     1      12.490   5.748   8.330  1.00  0.00    -0.205 F 
ATOM     65  C   UNL     1      12.482   8.331  10.924  1.00  0.00     0.022 A 
BRANCH  63  66
ATOM     66  S   UNL     1      14.667   6.830  10.200  1.00  0.00     0.127 S 
ATOM     67  O   UNL     1      15.330   7.840   9.378  1.00  0.00    -0.237 OA
ATOM     68  O   UNL     1      14.920   6.950  11.637  1.00  0.00    -0.237 OA
ATOM     69  O   UNL     1      14.726   5.464   9.696  1.00  0.00    -0.744 OA
ENDBRANCH  63  66
ENDBRANCH  36  59
ENDBRANCH  10  11
ENDBRANCH   3   5
ENDBRANCH   2   3
ENDBRANCH   1   2
BRANCH   1  70
ATOM     70  C   UNL     1       4.124   0.669  -2.216  1.00  0.00     0.275 C 
BRANCH  70  71
ATOM     71  O   UNL     1       3.680   1.710  -1.338  1.00  0.00    -0.456 OA
BRANCH  71  72
ATOM     72  C   UNL     1       2.322   1.918  -1.334  1.00  0.00     0.380 C 
ATOM     73  O   UNL     1       1.545   1.322  -2.077  1.00  0.00    -0.242 OA
BRANCH  72  74
ATOM     74  C   UNL     1       1.897   2.866  -0.303  1.00  0.00     0.281 A 
ATOM     75  N   UNL     1       0.689   2.771   0.283  1.00  0.00    -0.049 NA
ATOM     76  N   UNL     1       2.674   3.908   0.178  1.00  0.00    -0.181 NA
ATOM     77  O   UNL     1       0.680   3.822   1.194  1.00  0.00    -0.333 OA
ATOM     78  C   UNL     1       1.872   4.469   1.056  1.00  0.00     0.259 A 
BRANCH  78  79
ATOM     79  C   UNL     1       1.989   5.717   1.788  1.00  0.00     0.052 A 
ATOM     80  C   UNL     1       1.972   5.685   3.195  1.00  0.00     0.014 A 
ATOM     81  C   UNL     1       2.094   6.955   1.119  1.00  0.00     0.068 A 
ATOM     82  C   UNL     1       2.064   6.862   3.934  1.00  0.00     0.001 A 
ATOM     83  C   UNL     1       2.189   8.130   1.884  1.00  0.00     0.014 A 
ATOM     84  C   UNL     1       2.166   8.082   3.277  1.00  0.00     0.001 A 
BRANCH  81  85
ATOM     85  C   UNL     1       2.130   7.064  -0.385  1.00  0.00     0.417 C 
ATOM     86  F   UNL     1       1.596   8.228  -0.855  1.00  0.00    -0.166 F 
ATOM     87  F   UNL     1       3.391   6.993  -0.894  1.00  0.00    -0.166 F 
ATOM     88  F   UNL     1       1.418   6.090  -1.027  1.00  0.00    -0.166 F 
ENDBRANCH  81  85
ENDBRANCH  78  79
ENDBRANCH  72  74
ENDBRANCH  71  72
ENDBRANCH  70  71
ENDBRANCH   1  70
TORSDOF 16
