REMARK SMILES C[C@@H]1[C@@H](C(=O)OCCOC(=O)c2ccc(-c3c4nc(c(-c5cccc(S(=O)(=O)[O-])c5F)c5ccc([nH]5)c(-c5cccc(S(=O)(=O)[O-])c5F)c5nc(c(-c6cccc(S(=O)(=O)[O-])c6F)c6ccc3[nH]6)C=C5)C=C4)cc2)CCN1C(=O)[C@@H](C)OCc1ccccc1
REMARK SMILES IDX 7 1 6 2 4 3 5 4 3 5 1 6 2 7 77 8 75 9 76 10 78 11 79 12
REMARK SMILES IDX 80 13 81 14 82 15 83 16 84 17 85 18 89 19 86 20 88 21 87 22
REMARK SMILES IDX 8 23 9 24 10 25 11 26 12 27 13 28 74 29 14 30 73 31 15 32
REMARK SMILES IDX 16 33 17 34 67 35 18 36 72 37 66 38 68 39 19 40 71 41 65 42
REMARK SMILES IDX 64 43 20 45 52 46 32 47 51 48 33 49 36 50 50 51 69 52 34 53
REMARK SMILES IDX 35 54 49 56 70 57 37 58 21 59 22 60 30 61 23 62 25 63 31 64
REMARK SMILES IDX 24 65 26 66 27 67 28 68 29 69 53 70 54 71 62 72 55 73 57 74
REMARK SMILES IDX 63 75 56 76 58 77 59 78 60 79 61 80 38 81 39 82 47 83 40 84
REMARK SMILES IDX 42 85 48 86 41 87 43 88 44 89 45 90 46 91
REMARK H PARENT 68 44 36 55
REMARK Flexibility Score: inf
ROOT
ATOM      1  C   UNL     1      -2.598   2.095  -3.315  1.00  0.00     0.274 C 
ENDROOT
BRANCH   1   2
ATOM      2  O   UNL     1      -2.132   2.051  -1.953  1.00  0.00    -0.462 OA
BRANCH   2   3
ATOM      3  C   UNL     1      -1.385   0.963  -1.607  1.00  0.00     0.311 C 
ATOM      4  O   UNL     1      -1.147   0.023  -2.349  1.00  0.00    -0.252 OA
BRANCH   3   5
ATOM      5  C   UNL     1      -0.940   1.077  -0.158  1.00  0.00     0.123 C 
ATOM      6  C   UNL     1       0.830   0.438   1.522  1.00  0.00     0.032 C 
ATOM      7  C   UNL     1       0.067  -0.004   0.259  1.00  0.00     0.096 C 
ATOM      8  N   UNL     1      -0.749  -1.181   0.517  1.00  0.00    -0.337 N 
ATOM      9  C   UNL     1      -2.116   0.750   0.757  1.00  0.00     0.039 C 
ATOM     10  C   UNL     1      -2.121  -0.776   0.770  1.00  0.00     0.121 C 
BRANCH   8  11
ATOM     11  C   UNL     1      -0.497  -2.524   0.337  1.00  0.00     0.251 C 
ATOM     12  O   UNL     1      -1.381  -3.331   0.677  1.00  0.00    -0.272 OA
BRANCH  11  13
ATOM     13  C   UNL     1       0.739  -3.112  -0.442  1.00  0.00     0.204 C 
ATOM     14  C   UNL     1       0.256  -3.314  -1.901  1.00  0.00     0.049 C 
BRANCH  13  15
ATOM     15  O   UNL     1       2.142  -2.977  -0.321  1.00  0.00    -0.364 OA
BRANCH  15  16
ATOM     16  C   UNL     1       2.812  -1.743  -0.101  1.00  0.00     0.196 C 
BRANCH  16  17
ATOM     17  C   UNL     1       2.813  -0.846  -1.313  1.00  0.00    -0.022 A 
ATOM     18  C   UNL     1       2.370  -1.665  -2.833  1.00  0.00     0.006 A 
ATOM     19  C   UNL     1       3.430   0.819  -1.276  1.00  0.00     0.006 A 
ATOM     20  C   UNL     1       2.387  -0.938  -4.410  1.00  0.00     0.000 A 
ATOM     21  C   UNL     1       3.611   1.682  -2.858  1.00  0.00     0.000 A 
ATOM     22  C   UNL     1       3.029   0.712  -4.537  1.00  0.00     0.000 A 
ENDBRANCH  16  17
ENDBRANCH  15  16
ENDBRANCH  13  15
ENDBRANCH  11  13
ENDBRANCH   8  11
ENDBRANCH   3   5
ENDBRANCH   2   3
ENDBRANCH   1   2
BRANCH   1  23
ATOM     23  C   UNL     1      -1.762   3.059  -4.158  1.00  0.00     0.275 C 
BRANCH  23  24
ATOM     24  O   UNL     1      -0.440   2.543  -4.393  1.00  0.00    -0.458 OA
BRANCH  24  25
ATOM     25  C   UNL     1       0.470   2.863  -3.449  1.00  0.00     0.338 C 
ATOM     26  O   UNL     1       0.315   3.564  -2.464  1.00  0.00    -0.246 OA
BRANCH  25  27
ATOM     27  C   UNL     1       1.717   2.169  -3.726  1.00  0.00     0.060 A 
ATOM     28  C   UNL     1       2.058   0.601  -2.917  1.00  0.00     0.016 A 
ATOM     29  C   UNL     1       3.026   2.935  -4.639  1.00  0.00     0.016 A 
ATOM     30  C   UNL     1       3.916  -0.158  -3.104  1.00  0.00     0.010 A 
ATOM     31  C   UNL     1       4.658   2.207  -4.810  1.00  0.00     0.010 A 
ATOM     32  C   UNL     1       5.124   0.668  -4.085  1.00  0.00    -0.014 A 
BRANCH  32  33
ATOM     33  C   UNL     1       6.409  -0.067  -4.068  1.00  0.00     0.031 A 
ATOM     34  C   UNL     1       7.592   0.644  -3.555  1.00  0.00     0.074 A 
ATOM     35  C   UNL     1       6.433  -1.419  -4.209  1.00  0.00     0.049 A 
ATOM     36  N   UNL     1       8.810   0.204  -3.482  1.00  0.00    -0.248 NA
ATOM     37  C   UNL     1       7.401   2.024  -3.086  1.00  0.00     0.031 C 
ATOM     38  C   UNL     1       5.287  -2.235  -4.598  1.00  0.00     0.029 A 
ATOM     39  N   UNL     1       7.386  -2.379  -3.967  1.00  0.00    -0.354 N 
ATOM     40  C   UNL     1       9.557   1.290  -3.078  1.00  0.00     0.074 A 
ATOM     41  C   UNL     1       8.652   2.399  -2.880  1.00  0.00     0.031 C 
ATOM     42  C   UNL     1       5.504  -3.530  -4.353  1.00  0.00     0.029 A 
ATOM     43  C   UNL     1       6.921  -3.676  -4.129  1.00  0.00     0.049 A 
ATOM     44  H   UNL     1       8.311  -2.167  -3.703  1.00  0.00     0.167 HD
ATOM     45  C   UNL     1      10.895   1.333  -2.939  1.00  0.00     0.034 A 
ATOM     46  C   UNL     1       7.569  -4.850  -4.248  1.00  0.00     0.034 A 
ATOM     47  C   UNL     1      11.732   0.189  -3.160  1.00  0.00     0.049 A 
ATOM     48  C   UNL     1       9.058  -4.747  -4.217  1.00  0.00     0.074 A 
ATOM     49  C   UNL     1      13.108   0.115  -3.140  1.00  0.00     0.029 A 
ATOM     50  N   UNL     1      11.259  -1.085  -3.458  1.00  0.00    -0.354 N 
ATOM     51  N   UNL     1       9.785  -3.684  -3.969  1.00  0.00    -0.248 NA
ATOM     52  C   UNL     1       9.823  -5.961  -4.507  1.00  0.00     0.031 C 
ATOM     53  C   UNL     1      13.469  -1.191  -3.480  1.00  0.00     0.029 A 
ATOM     54  C   UNL     1      12.318  -1.953  -3.632  1.00  0.00     0.049 A 
ATOM     55  H   UNL     1      10.309  -1.332  -3.534  1.00  0.00     0.167 HD
ATOM     56  C   UNL     1      11.097  -4.099  -4.046  1.00  0.00     0.074 A 
ATOM     57  C   UNL     1      11.063  -5.523  -4.338  1.00  0.00     0.031 C 
ATOM     58  C   UNL     1      12.225  -3.368  -3.896  1.00  0.00     0.034 A 
BRANCH  45  59
ATOM     59  C   UNL     1      11.485   2.682  -2.680  1.00  0.00     0.023 A 
ATOM     60  C   UNL     1      11.277   3.344  -1.455  1.00  0.00     0.012 A 
ATOM     61  C   UNL     1      12.184   3.329  -3.715  1.00  0.00     0.148 A 
ATOM     62  C   UNL     1      11.716   4.655  -1.282  1.00  0.00     0.002 A 
ATOM     63  C   UNL     1      12.675   4.607  -3.513  1.00  0.00     0.091 A 
ATOM     64  F   UNL     1      12.320   2.695  -4.888  1.00  0.00    -0.205 F 
ATOM     65  C   UNL     1      12.424   5.281  -2.306  1.00  0.00     0.022 A 
BRANCH  63  66
ATOM     66  S   UNL     1      13.656   5.462  -4.745  1.00  0.00     0.127 S 
ATOM     67  O   UNL     1      12.839   6.648  -5.004  1.00  0.00    -0.237 OA
ATOM     68  O   UNL     1      14.894   5.721  -4.012  1.00  0.00    -0.237 OA
ATOM     69  O   UNL     1      13.786   4.548  -5.871  1.00  0.00    -0.744 OA
ENDBRANCH  63  66
ENDBRANCH  45  59
BRANCH  46  70
ATOM     70  C   UNL     1       6.867  -6.140  -4.560  1.00  0.00     0.023 A 
ATOM     71  C   UNL     1       7.003  -7.243  -3.694  1.00  0.00     0.012 A 
ATOM     72  C   UNL     1       6.084  -6.298  -5.727  1.00  0.00     0.148 A 
ATOM     73  C   UNL     1       6.405  -8.472  -3.996  1.00  0.00     0.002 A 
ATOM     74  C   UNL     1       5.438  -7.504  -5.989  1.00  0.00     0.091 A 
ATOM     75  F   UNL     1       5.979  -5.262  -6.571  1.00  0.00    -0.205 F 
ATOM     76  C   UNL     1       5.615  -8.600  -5.135  1.00  0.00     0.022 A 
BRANCH  74  77
ATOM     77  S   UNL     1       4.314  -7.722  -7.376  1.00  0.00     0.127 S 
ATOM     78  O   UNL     1       5.063  -8.645  -8.225  1.00  0.00    -0.237 OA
ATOM     79  O   UNL     1       3.139  -8.300  -6.726  1.00  0.00    -0.237 OA
ATOM     80  O   UNL     1       4.101  -6.390  -7.927  1.00  0.00    -0.744 OA
ENDBRANCH  74  77
ENDBRANCH  46  70
BRANCH  58  81
ATOM     81  C   UNL     1      13.507  -4.134  -3.944  1.00  0.00     0.023 A 
ATOM     82  C   UNL     1      13.990  -4.658  -5.157  1.00  0.00     0.012 A 
ATOM     83  C   UNL     1      14.251  -4.281  -2.761  1.00  0.00     0.148 A 
ATOM     84  C   UNL     1      15.191  -5.360  -5.179  1.00  0.00     0.002 A 
ATOM     85  C   UNL     1      15.478  -4.913  -2.806  1.00  0.00     0.091 A 
ATOM     86  F   UNL     1      13.743  -3.790  -1.621  1.00  0.00    -0.205 F 
ATOM     87  C   UNL     1      15.942  -5.472  -4.009  1.00  0.00     0.022 A 
BRANCH  85  88
ATOM     88  S   UNL     1      16.556  -4.994  -1.377  1.00  0.00     0.127 S 
ATOM     89  O   UNL     1      16.580  -6.430  -1.107  1.00  0.00    -0.237 OA
ATOM     90  O   UNL     1      17.804  -4.448  -1.909  1.00  0.00    -0.237 OA
ATOM     91  O   UNL     1      15.927  -4.181  -0.345  1.00  0.00    -0.744 OA
ENDBRANCH  85  88
ENDBRANCH  58  81
ENDBRANCH  32  33
ENDBRANCH  25  27
ENDBRANCH  24  25
ENDBRANCH  23  24
ENDBRANCH   1  23
TORSDOF 19
