REMARK SMILES O=C(OCCOC(=O)[C@@H]1CC[C@@H](CNC(=O)N2CC[NH2+]CC2)O1)c1ccc(-c2c3nc(c(-c4cccc(S(=O)(=O)[O-])c4F)c4ccc([nH]4)c(-c4cccc(S(=O)(=O)[O-])c4F)c4nc(c(-c5cccc(S(=O)(=O)[O-])c5F)c5ccc2[nH]5)C=C4)C=C3)cc1
REMARK SMILES IDX 4 1 3 2 2 3 1 4 24 5 25 6 86 7 26 8 85 9 27 10 28 11 29 12
REMARK SMILES IDX 79 13 30 14 84 15 78 16 80 17 31 18 83 19 77 20 76 21 32 23
REMARK SMILES IDX 64 24 44 25 63 26 45 27 48 28 62 29 81 30 46 31 47 32 61 34
REMARK SMILES IDX 82 35 49 36 33 37 34 38 42 39 35 40 37 41 43 42 36 43 38 44
REMARK SMILES IDX 39 45 40 46 41 47 65 48 66 49 74 50 67 51 69 52 75 53 68 54
REMARK SMILES IDX 70 55 71 56 72 57 73 58 50 59 51 60 59 61 52 62 54 63 60 64
REMARK SMILES IDX 53 65 55 66 56 67 57 68 58 69 5 70 6 71 7 72 8 73 9 74 10 75
REMARK SMILES IDX 23 76 11 77 12 78 13 79 14 80 15 81 16 83 17 84 18 85 22 86
REMARK SMILES IDX 19 87 21 88 20 89
REMARK H PARENT 80 22 48 33 14 82 20 90 20 91
REMARK Flexibility Score: inf
ROOT
ATOM      1  C   UNL     1       4.203  -1.560   0.036  1.00  0.00     0.275 C 
ENDROOT
BRANCH   1   2
ATOM      2  O   UNL     1       3.266  -0.790   0.794  1.00  0.00    -0.458 OA
BRANCH   2   3
ATOM      3  C   UNL     1       3.290   0.537   1.056  1.00  0.00     0.338 C 
ATOM      4  O   UNL     1       2.580   0.963   1.966  1.00  0.00    -0.246 OA
BRANCH   3   5
ATOM      5  C   UNL     1       4.048   1.537   0.231  1.00  0.00     0.060 A 
ATOM      6  C   UNL     1       5.230   1.327  -0.496  1.00  0.00     0.016 A 
ATOM      7  C   UNL     1       3.496   2.823   0.205  1.00  0.00     0.016 A 
ATOM      8  C   UNL     1       5.793   2.328  -1.304  1.00  0.00     0.010 A 
ATOM      9  C   UNL     1       4.060   3.826  -0.583  1.00  0.00     0.010 A 
ATOM     10  C   UNL     1       5.198   3.582  -1.375  1.00  0.00    -0.014 A 
BRANCH  10  11
ATOM     11  C   UNL     1       5.748   4.702  -2.183  1.00  0.00     0.031 A 
ATOM     12  C   UNL     1       6.148   5.939  -1.438  1.00  0.00     0.074 A 
ATOM     13  C   UNL     1       5.734   4.702  -3.533  1.00  0.00     0.049 A 
ATOM     14  N   UNL     1       6.401   7.134  -1.891  1.00  0.00    -0.248 NA
ATOM     15  C   UNL     1       6.217   5.814   0.030  1.00  0.00     0.031 C 
ATOM     16  C   UNL     1       5.382   3.572  -4.391  1.00  0.00     0.029 A 
ATOM     17  N   UNL     1       5.948   5.728  -4.425  1.00  0.00    -0.354 N 
ATOM     18  C   UNL     1       6.634   7.905  -0.762  1.00  0.00     0.074 A 
ATOM     19  C   UNL     1       6.364   7.077   0.390  1.00  0.00     0.031 C 
ATOM     20  C   UNL     1       5.288   3.991  -5.666  1.00  0.00     0.029 A 
ATOM     21  C   UNL     1       5.597   5.414  -5.722  1.00  0.00     0.049 A 
ATOM     22  H   UNL     1       6.317   6.602  -4.163  1.00  0.00     0.167 HD
ATOM     23  C   UNL     1       7.122   9.163  -0.683  1.00  0.00     0.034 A 
ATOM     24  C   UNL     1       5.527   6.191  -6.823  1.00  0.00     0.034 A 
ATOM     25  C   UNL     1       7.455   9.951  -1.830  1.00  0.00     0.049 A 
ATOM     26  C   UNL     1       6.018   7.614  -6.728  1.00  0.00     0.074 A 
ATOM     27  C   UNL     1       8.072  11.184  -1.883  1.00  0.00     0.029 A 
ATOM     28  N   UNL     1       7.191   9.570  -3.137  1.00  0.00    -0.354 N 
ATOM     29  N   UNL     1       6.419   8.273  -5.668  1.00  0.00    -0.248 NA
ATOM     30  C   UNL     1       6.139   8.368  -7.985  1.00  0.00     0.031 C 
ATOM     31  C   UNL     1       8.170  11.556  -3.229  1.00  0.00     0.029 A 
ATOM     32  C   UNL     1       7.635  10.542  -4.010  1.00  0.00     0.049 A 
ATOM     33  H   UNL     1       6.752   8.730  -3.403  1.00  0.00     0.167 HD
ATOM     34  C   UNL     1       6.936   9.474  -6.140  1.00  0.00     0.074 A 
ATOM     35  C   UNL     1       6.757   9.470  -7.578  1.00  0.00     0.031 C 
ATOM     36  C   UNL     1       7.529  10.475  -5.446  1.00  0.00     0.034 A 
BRANCH  23  37
ATOM     37  C   UNL     1       7.390   9.684   0.700  1.00  0.00     0.023 A 
ATOM     38  C   UNL     1       8.401   9.079   1.481  1.00  0.00     0.012 A 
ATOM     39  C   UNL     1       6.599  10.701   1.259  1.00  0.00     0.148 A 
ATOM     40  C   UNL     1       8.558   9.413   2.823  1.00  0.00     0.002 A 
ATOM     41  C   UNL     1       6.801  11.069   2.584  1.00  0.00     0.091 A 
ATOM     42  F   UNL     1       5.633  11.249   0.509  1.00  0.00    -0.205 F 
ATOM     43  C   UNL     1       7.760  10.410   3.373  1.00  0.00     0.022 A 
BRANCH  41  44
ATOM     44  S   UNL     1       5.876  12.395   3.362  1.00  0.00     0.127 S 
ATOM     45  O   UNL     1       4.989  11.647   4.257  1.00  0.00    -0.237 OA
ATOM     46  O   UNL     1       6.936  13.144   4.046  1.00  0.00    -0.237 OA
ATOM     47  O   UNL     1       5.224  13.114   2.286  1.00  0.00    -0.744 OA
ENDBRANCH  41  44
ENDBRANCH  23  37
BRANCH  24  48
ATOM     48  C   UNL     1       5.084   5.629  -8.133  1.00  0.00     0.023 A 
ATOM     49  C   UNL     1       6.050   5.333  -9.115  1.00  0.00     0.012 A 
ATOM     50  C   UNL     1       3.723   5.409  -8.421  1.00  0.00     0.148 A 
ATOM     51  C   UNL     1       5.668   4.868 -10.375  1.00  0.00     0.002 A 
ATOM     52  C   UNL     1       3.351   4.921  -9.672  1.00  0.00     0.091 A 
ATOM     53  F   UNL     1       2.822   5.682  -7.467  1.00  0.00    -0.205 F 
ATOM     54  C   UNL     1       4.321   4.663 -10.654  1.00  0.00     0.022 A 
BRANCH  52  55
ATOM     55  S   UNL     1       1.647   4.567 -10.122  1.00  0.00     0.127 S 
ATOM     56  O   UNL     1       1.455   5.440 -11.279  1.00  0.00    -0.237 OA
ATOM     57  O   UNL     1       1.717   3.139 -10.433  1.00  0.00    -0.237 OA
ATOM     58  O   UNL     1       0.855   4.904  -8.949  1.00  0.00    -0.744 OA
ENDBRANCH  52  55
ENDBRANCH  24  48
BRANCH  36  59
ATOM     59  C   UNL     1       8.148  11.610  -6.213  1.00  0.00     0.023 A 
ATOM     60  C   UNL     1       7.341  12.617  -6.770  1.00  0.00     0.012 A 
ATOM     61  C   UNL     1       9.551  11.747  -6.231  1.00  0.00     0.148 A 
ATOM     62  C   UNL     1       7.925  13.749  -7.337  1.00  0.00     0.002 A 
ATOM     63  C   UNL     1      10.122  12.902  -6.745  1.00  0.00     0.091 A 
ATOM     64  F   UNL     1      10.296  10.759  -5.715  1.00  0.00    -0.205 F 
ATOM     65  C   UNL     1       9.311  13.902  -7.306  1.00  0.00     0.022 A 
BRANCH  63  66
ATOM     66  S   UNL     1      11.883  13.236  -6.628  1.00  0.00     0.127 S 
ATOM     67  O   UNL     1      12.299  13.134  -8.026  1.00  0.00    -0.237 OA
ATOM     68  O   UNL     1      11.904  14.593  -6.082  1.00  0.00    -0.237 OA
ATOM     69  O   UNL     1      12.430  12.219  -5.741  1.00  0.00    -0.744 OA
ENDBRANCH  63  66
ENDBRANCH  36  59
ENDBRANCH  10  11
ENDBRANCH   3   5
ENDBRANCH   2   3
ENDBRANCH   1   2
BRANCH   1  70
ATOM     70  C   UNL     1       3.881  -1.650  -1.457  1.00  0.00     0.274 C 
BRANCH  70  71
ATOM     71  O   UNL     1       3.382  -0.428  -2.035  1.00  0.00    -0.460 OA
BRANCH  71  72
ATOM     72  C   UNL     1       2.032  -0.384  -2.247  1.00  0.00     0.335 C 
ATOM     73  O   UNL     1       1.262  -1.282  -1.917  1.00  0.00    -0.249 OA
BRANCH  72  74
ATOM     74  C   UNL     1       1.561   0.891  -2.974  1.00  0.00     0.228 C 
ATOM     75  C   UNL     1       2.364   1.239  -4.222  1.00  0.00     0.047 C 
ATOM     76  O   UNL     1       1.495   2.097  -2.196  1.00  0.00    -0.361 OA
ATOM     77  C   UNL     1       1.937   2.676  -4.446  1.00  0.00     0.037 C 
ATOM     78  C   UNL     1       1.988   3.180  -3.021  1.00  0.00     0.138 C 
BRANCH  78  79
ATOM     79  C   UNL     1       1.375   4.552  -2.695  1.00  0.00     0.149 C 
BRANCH  79  80
ATOM     80  N   UNL     1       0.161   4.867  -3.426  1.00  0.00    -0.335 N 
ATOM     81  C   UNL     1      -1.061   4.306  -3.257  1.00  0.00     0.317 C 
ATOM     82  H   UNL     1       0.233   5.564  -4.118  1.00  0.00     0.165 HD
ATOM     83  O   UNL     1      -1.836   4.229  -4.208  1.00  0.00    -0.249 OA
ATOM     84  N   UNL     1      -1.341   3.761  -2.039  1.00  0.00    -0.314 N 
ATOM     85  C   UNL     1      -2.153   2.558  -1.986  1.00  0.00     0.182 C 
ATOM     86  C   UNL     1      -1.315   4.547  -0.808  1.00  0.00     0.182 C 
ATOM     87  C   UNL     1      -1.787   1.714  -0.753  1.00  0.00     0.282 C 
ATOM     88  C   UNL     1      -0.980   3.663   0.406  1.00  0.00     0.282 C 
ATOM     89  N   UNL     1      -1.868   2.481   0.511  1.00  0.00    -0.343 N 
ATOM     90  H   UNL     1      -1.567   1.894   1.289  1.00  0.00     0.346 HD
ATOM     91  H   UNL     1      -2.829   2.781   0.675  1.00  0.00     0.346 HD
ENDBRANCH  79  80
ENDBRANCH  78  79
ENDBRANCH  72  74
ENDBRANCH  71  72
ENDBRANCH  70  71
ENDBRANCH   1  70
TORSDOF 16
