REMARK SMILES C[C@@H](C(=O)OCCOC(=O)c1ccc(-c2c3nc(c(-c4cccc(S(=O)(=O)[O-])c4F)c4ccc([nH]4)c(-c4cccc(S(=O)(=O)[O-])c4F)c4nc(c(-c5cccc(S(=O)(=O)[O-])c5F)c5ccc2[nH]5)C=C4)C=C3)cc1)c1ccc(C[C@H]2CCCC2=O)cc1I
REMARK SMILES IDX 6 1 5 2 3 3 4 4 2 5 1 6 74 7 75 8 86 9 76 10 85 11 87 12
REMARK SMILES IDX 77 13 78 14 79 15 80 16 83 17 81 18 82 19 84 20 7 21 8 22
REMARK SMILES IDX 9 23 10 24 11 25 12 26 73 27 13 28 72 29 14 30 15 31 16 32
REMARK SMILES IDX 66 33 17 34 71 35 65 36 67 37 18 38 70 39 64 40 63 41 19 43
REMARK SMILES IDX 51 44 31 45 50 46 32 47 35 48 49 49 68 50 33 51 34 52 48 54
REMARK SMILES IDX 69 55 36 56 20 57 21 58 29 59 22 60 24 61 30 62 23 63 25 64
REMARK SMILES IDX 26 65 27 66 28 67 52 68 53 69 61 70 54 71 56 72 62 73 55 74
REMARK SMILES IDX 57 75 58 76 59 77 60 78 37 79 38 80 46 81 39 82 41 83 47 84
REMARK SMILES IDX 40 85 42 86 43 87 44 88 45 89
REMARK H PARENT 67 42 35 53
REMARK Flexibility Score: inf
ROOT
ATOM      1  C   UNL     1       2.434   0.465   3.780  1.00  0.00     0.274 C 
ENDROOT
BRANCH   1   2
ATOM      2  O   UNL     1       2.115   0.134   2.412  1.00  0.00    -0.462 OA
BRANCH   2   3
ATOM      3  C   UNL     1       0.924  -0.504   2.208  1.00  0.00     0.313 C 
ATOM      4  O   UNL     1       0.117  -0.734   3.100  1.00  0.00    -0.252 OA
BRANCH   3   5
ATOM      5  C   UNL     1       0.787  -0.990   0.752  1.00  0.00     0.127 C 
ATOM      6  C   UNL     1       1.285   0.064  -0.245  1.00  0.00     0.025 C 
BRANCH   5   7
ATOM      7  C   UNL     1      -0.639  -1.482   0.478  1.00  0.00    -0.021 A 
ATOM      8  C   UNL     1      -1.617  -0.579   0.016  1.00  0.00     0.006 A 
ATOM      9  C   UNL     1      -1.072  -2.784   0.805  1.00  0.00     0.017 A 
ATOM     10  C   UNL     1      -2.975  -0.922  -0.016  1.00  0.00     0.004 A 
ATOM     11  C   UNL     1      -2.431  -3.132   0.746  1.00  0.00     0.018 A 
ATOM     12  I   UNL     1       0.213  -4.312   1.481  1.00  0.00    -0.044 I 
ATOM     13  C   UNL     1      -3.400  -2.189   0.398  1.00  0.00    -0.046 A 
BRANCH  13  14
ATOM     14  C   UNL     1      -4.875  -2.490   0.601  1.00  0.00     0.047 C 
BRANCH  14  15
ATOM     15  C   UNL     1      -5.393  -2.301   2.044  1.00  0.00     0.060 C 
ATOM     16  C   UNL     1      -4.808  -3.215   3.123  1.00  0.00     0.012 C 
ATOM     17  C   UNL     1      -4.990  -0.941   2.514  1.00  0.00     0.136 C 
ATOM     18  C   UNL     1      -3.930  -2.377   4.053  1.00  0.00     0.009 C 
ATOM     19  C   UNL     1      -3.819  -0.989   3.458  1.00  0.00     0.076 C 
ATOM     20  O   UNL     1      -5.462   0.071   2.012  1.00  0.00    -0.299 OA
ENDBRANCH  14  15
ENDBRANCH  13  14
ENDBRANCH   5   7
ENDBRANCH   3   5
ENDBRANCH   2   3
ENDBRANCH   1   2
BRANCH   1  21
ATOM     21  C   UNL     1       2.169   1.938   4.107  1.00  0.00     0.275 C 
BRANCH  21  22
ATOM     22  O   UNL     1       0.766   2.205   4.306  1.00  0.00    -0.458 OA
BRANCH  22  23
ATOM     23  C   UNL     1       0.141   2.823   3.275  1.00  0.00     0.338 C 
ATOM     24  O   UNL     1       0.657   3.188   2.231  1.00  0.00    -0.246 OA
BRANCH  23  25
ATOM     25  C   UNL     1      -1.322   2.838   3.489  1.00  0.00     0.060 A 
ATOM     26  C   UNL     1      -2.079   2.235   2.494  1.00  0.00     0.016 A 
ATOM     27  C   UNL     1      -1.968   3.461   4.564  1.00  0.00     0.016 A 
ATOM     28  C   UNL     1      -3.467   2.223   2.587  1.00  0.00     0.010 A 
ATOM     29  C   UNL     1      -3.381   3.431   4.659  1.00  0.00     0.010 A 
ATOM     30  C   UNL     1      -4.150   2.783   3.681  1.00  0.00    -0.014 A 
BRANCH  30  31
ATOM     31  C   UNL     1      -5.649   2.667   3.697  1.00  0.00     0.031 A 
ATOM     32  C   UNL     1      -6.450   3.357   2.623  1.00  0.00     0.074 A 
ATOM     33  C   UNL     1      -6.292   1.775   4.487  1.00  0.00     0.049 A 
ATOM     34  N   UNL     1      -7.717   3.229   2.314  1.00  0.00    -0.248 NA
ATOM     35  C   UNL     1      -5.724   4.331   1.792  1.00  0.00     0.031 C 
ATOM     36  C   UNL     1      -5.666   0.954   5.514  1.00  0.00     0.029 A 
ATOM     37  N   UNL     1      -7.594   1.306   4.444  1.00  0.00    -0.354 N 
ATOM     38  C   UNL     1      -7.954   4.149   1.304  1.00  0.00     0.074 A 
ATOM     39  C   UNL     1      -6.683   4.770   0.991  1.00  0.00     0.031 C 
ATOM     40  C   UNL     1      -6.509  -0.034   5.861  1.00  0.00     0.029 A 
ATOM     41  C   UNL     1      -7.782   0.137   5.159  1.00  0.00     0.049 A 
ATOM     42  H   UNL     1      -8.316   1.761   3.953  1.00  0.00     0.167 HD
ATOM     43  C   UNL     1      -9.129   4.500   0.731  1.00  0.00     0.034 A 
ATOM     44  C   UNL     1      -8.837  -0.709   5.219  1.00  0.00     0.034 A 
ATOM     45  C   UNL     1     -10.405   3.914   1.030  1.00  0.00     0.049 A 
ATOM     46  C   UNL     1     -10.133  -0.332   4.536  1.00  0.00     0.074 A 
ATOM     47  C   UNL     1     -11.661   4.325   0.615  1.00  0.00     0.029 A 
ATOM     48  N   UNL     1     -10.593   2.789   1.813  1.00  0.00    -0.354 N 
ATOM     49  N   UNL     1     -10.364   0.584   3.631  1.00  0.00    -0.248 NA
ATOM     50  C   UNL     1     -11.334  -1.096   4.927  1.00  0.00     0.031 C 
ATOM     51  C   UNL     1     -12.612   3.457   1.163  1.00  0.00     0.029 A 
ATOM     52  C   UNL     1     -11.944   2.492   1.896  1.00  0.00     0.049 A 
ATOM     53  H   UNL     1      -9.874   2.276   2.247  1.00  0.00     0.167 HD
ATOM     54  C   UNL     1     -11.734   0.537   3.380  1.00  0.00     0.074 A 
ATOM     55  C   UNL     1     -12.268  -0.562   4.152  1.00  0.00     0.031 C 
ATOM     56  C   UNL     1     -12.487   1.379   2.629  1.00  0.00     0.034 A 
BRANCH  43  57
ATOM     57  C   UNL     1      -9.091   5.680  -0.194  1.00  0.00     0.023 A 
ATOM     58  C   UNL     1      -8.670   5.536  -1.528  1.00  0.00     0.012 A 
ATOM     59  C   UNL     1      -9.470   6.947   0.289  1.00  0.00     0.148 A 
ATOM     60  C   UNL     1      -8.601   6.651  -2.363  1.00  0.00     0.002 A 
ATOM     61  C   UNL     1      -9.432   8.044  -0.557  1.00  0.00     0.091 A 
ATOM     62  F   UNL     1      -9.836   7.056   1.575  1.00  0.00    -0.205 F 
ATOM     63  C   UNL     1      -8.988   7.901  -1.881  1.00  0.00     0.022 A 
BRANCH  61  64
ATOM     64  S   UNL     1      -9.960   9.676  -0.031  1.00  0.00     0.127 S 
ATOM     65  O   UNL     1      -8.684  10.382   0.069  1.00  0.00    -0.237 OA
ATOM     66  O   UNL     1     -10.806  10.101  -1.147  1.00  0.00    -0.237 OA
ATOM     67  O   UNL     1     -10.669   9.485   1.227  1.00  0.00    -0.744 OA
ENDBRANCH  61  64
ENDBRANCH  43  57
BRANCH  44  68
ATOM     68  C   UNL     1      -8.759  -2.028   5.930  1.00  0.00     0.023 A 
ATOM     69  C   UNL     1      -9.042  -3.211   5.210  1.00  0.00     0.012 A 
ATOM     70  C   UNL     1      -8.459  -2.138   7.298  1.00  0.00     0.148 A 
ATOM     71  C   UNL     1      -9.057  -4.457   5.843  1.00  0.00     0.002 A 
ATOM     72  C   UNL     1      -8.381  -3.391   7.901  1.00  0.00     0.091 A 
ATOM     73  F   UNL     1      -8.271  -1.017   8.011  1.00  0.00    -0.205 F 
ATOM     74  C   UNL     1      -8.706  -4.551   7.186  1.00  0.00     0.022 A 
BRANCH  72  75
ATOM     75  S   UNL     1      -7.731  -3.564   9.566  1.00  0.00     0.127 S 
ATOM     76  O   UNL     1      -8.938  -3.470  10.380  1.00  0.00    -0.237 OA
ATOM     77  O   UNL     1      -7.113  -4.891   9.530  1.00  0.00    -0.237 OA
ATOM     78  O   UNL     1      -6.773  -2.471   9.692  1.00  0.00    -0.744 OA
ENDBRANCH  72  75
ENDBRANCH  44  68
BRANCH  56  79
ATOM     79  C   UNL     1     -13.986   1.203   2.644  1.00  0.00     0.023 A 
ATOM     80  C   UNL     1     -14.702   1.540   3.812  1.00  0.00     0.012 A 
ATOM     81  C   UNL     1     -14.698   0.809   1.493  1.00  0.00     0.148 A 
ATOM     82  C   UNL     1     -16.095   1.464   3.845  1.00  0.00     0.002 A 
ATOM     83  C   UNL     1     -16.090   0.773   1.521  1.00  0.00     0.091 A 
ATOM     84  F   UNL     1     -14.005   0.477   0.395  1.00  0.00    -0.205 F 
ATOM     85  C   UNL     1     -16.788   1.092   2.697  1.00  0.00     0.022 A 
BRANCH  83  86
ATOM     86  S   UNL     1     -17.080   0.388   0.070  1.00  0.00     0.127 S 
ATOM     87  O   UNL     1     -17.590  -0.941   0.402  1.00  0.00    -0.237 OA
ATOM     88  O   UNL     1     -18.087   1.449   0.089  1.00  0.00    -0.237 OA
ATOM     89  O   UNL     1     -16.167   0.442  -1.064  1.00  0.00    -0.744 OA
ENDBRANCH  83  86
ENDBRANCH  56  79
ENDBRANCH  30  31
ENDBRANCH  23  25
ENDBRANCH  22  23
ENDBRANCH  21  22
ENDBRANCH   1  21
TORSDOF 17
