REMARK SMILES CC[NH2+][C@@]1(C(=O)OCCOC(=O)c2ccc(-c3c4nc(c(-c5cccc(S(=O)(=O)[O-])c5F)c5ccc([nH]5)c(-c5cccc(S(=O)(=O)[O-])c5F)c5nc(c(-c6cccc(S(=O)(=O)[O-])c6F)c6ccc3[nH]6)C=C5)C=C4)cc2)CC[C@H](Sc2nccc(=O)[nH]2)C1
REMARK SMILES IDX 9 1 8 2 7 3 5 4 6 5 4 6 76 7 87 8 77 9 78 10 3 11 2 14 1 15
REMARK SMILES IDX 79 16 80 17 81 18 86 19 82 20 84 21 83 23 85 24 10 25 11 26
REMARK SMILES IDX 12 27 13 28 14 29 75 30 15 31 74 32 16 33 17 34 18 35 68 36
REMARK SMILES IDX 19 37 73 38 67 39 69 40 20 41 72 42 66 43 65 44 21 46 53 47
REMARK SMILES IDX 33 48 52 49 34 50 37 51 51 52 70 53 35 54 36 55 50 57 71 58
REMARK SMILES IDX 38 59 22 60 23 61 31 62 24 63 26 64 32 65 25 66 27 67 28 68
REMARK SMILES IDX 29 69 30 70 54 71 55 72 63 73 56 74 58 75 64 76 57 77 59 78
REMARK SMILES IDX 60 79 61 80 62 81 39 82 40 83 48 84 41 85 43 86 49 87 42 88
REMARK SMILES IDX 44 89 45 90 46 91 47 92
REMARK H PARENT 3 12 3 13 86 22 69 45 37 56
REMARK Flexibility Score: inf
ROOT
ATOM      1  C   UNL     1      -3.982  -3.709  -0.472  1.00  0.00     0.275 C 
ENDROOT
BRANCH   1   2
ATOM      2  C   UNL     1      -3.113  -3.870  -1.718  1.00  0.00     0.274 C 
BRANCH   2   3
ATOM      3  O   UNL     1      -1.754  -4.105  -1.315  1.00  0.00    -0.457 OA
BRANCH   3   4
ATOM      4  C   UNL     1      -0.785  -3.483  -2.029  1.00  0.00     0.368 C 
ATOM      5  O   UNL     1      -1.002  -2.827  -3.045  1.00  0.00    -0.245 OA
BRANCH   4   6
ATOM      6  C   UNL     1       0.645  -3.732  -1.452  1.00  0.00     0.195 C 
ATOM      7  C   UNL     1       1.519  -4.291  -2.582  1.00  0.00     0.082 C 
ATOM      8  C   UNL     1       0.735  -4.889  -0.430  1.00  0.00     0.096 C 
ATOM      9  C   UNL     1       1.040  -5.740  -2.697  1.00  0.00     0.022 C 
ATOM     10  C   UNL     1       0.784  -6.194  -1.251  1.00  0.00     0.062 C 
BRANCH   6  11
ATOM     11  N   UNL     1       1.200  -2.520  -0.806  1.00  0.00    -0.332 N 
ATOM     12  H   UNL     1       0.750  -2.417   0.104  1.00  0.00     0.347 HD
ATOM     13  H   UNL     1       2.208  -2.671  -0.758  1.00  0.00     0.347 HD
BRANCH  11  14
ATOM     14  C   UNL     1       1.024  -1.265  -1.537  1.00  0.00     0.257 C 
ATOM     15  C   UNL     1       1.829  -0.160  -0.865  1.00  0.00     0.071 C 
ENDBRANCH  11  14
ENDBRANCH   6  11
BRANCH  10  16
ATOM     16  S   UNL     1      -0.741  -7.140  -0.958  1.00  0.00    -0.084 SA
BRANCH  16  17
ATOM     17  C   UNL     1      -0.696  -8.401  -2.134  1.00  0.00     0.168 A 
ATOM     18  N   UNL     1       0.326  -8.683  -2.869  1.00  0.00    -0.233 NA
ATOM     19  N   UNL     1      -1.888  -9.051  -2.192  1.00  0.00    -0.301 N 
ATOM     20  C   UNL     1       0.152  -9.698  -3.775  1.00  0.00     0.120 A 
ATOM     21  C   UNL     1      -2.115 -10.065  -3.068  1.00  0.00     0.251 A 
ATOM     22  H   UNL     1      -2.610  -8.780  -1.580  1.00  0.00     0.172 HD
ATOM     23  C   UNL     1      -0.975 -10.398  -3.935  1.00  0.00     0.091 A 
ATOM     24  O   UNL     1      -3.179 -10.665  -3.151  1.00  0.00    -0.269 OA
ENDBRANCH  16  17
ENDBRANCH  10  16
ENDBRANCH   4   6
ENDBRANCH   3   4
ENDBRANCH   2   3
ENDBRANCH   1   2
BRANCH   1  25
ATOM     25  O   UNL     1      -3.473  -2.633   0.335  1.00  0.00    -0.458 OA
BRANCH  25  26
ATOM     26  C   UNL     1      -2.574  -3.014   1.276  1.00  0.00     0.338 C 
ATOM     27  O   UNL     1      -2.296  -4.164   1.597  1.00  0.00    -0.246 OA
BRANCH  26  28
ATOM     28  C   UNL     1      -1.864  -1.838   1.809  1.00  0.00     0.060 A 
ATOM     29  C   UNL     1      -0.499  -1.969   2.085  1.00  0.00     0.016 A 
ATOM     30  C   UNL     1      -2.529  -0.640   2.090  1.00  0.00     0.016 A 
ATOM     31  C   UNL     1       0.201  -0.914   2.663  1.00  0.00     0.010 A 
ATOM     32  C   UNL     1      -1.830   0.413   2.688  1.00  0.00     0.010 A 
ATOM     33  C   UNL     1      -0.468   0.269   2.997  1.00  0.00    -0.014 A 
BRANCH  33  34
ATOM     34  C   UNL     1       0.238   1.282   3.810  1.00  0.00     0.031 A 
ATOM     35  C   UNL     1       0.271   1.111   5.300  1.00  0.00     0.074 A 
ATOM     36  C   UNL     1       0.852   2.329   3.233  1.00  0.00     0.049 A 
ATOM     37  N   UNL     1       0.929   1.796   6.197  1.00  0.00    -0.248 NA
ATOM     38  C   UNL     1      -0.546   0.017   5.850  1.00  0.00     0.031 C 
ATOM     39  C   UNL     1       0.860   2.619   1.802  1.00  0.00     0.029 A 
ATOM     40  N   UNL     1       1.577   3.350   3.792  1.00  0.00    -0.354 N 
ATOM     41  C   UNL     1       0.613   1.216   7.418  1.00  0.00     0.074 A 
ATOM     42  C   UNL     1      -0.311   0.134   7.148  1.00  0.00     0.031 C 
ATOM     43  C   UNL     1       1.540   3.760   1.595  1.00  0.00     0.029 A 
ATOM     44  C   UNL     1       2.013   4.277   2.878  1.00  0.00     0.049 A 
ATOM     45  H   UNL     1       1.767   3.412   4.756  1.00  0.00     0.167 HD
ATOM     46  C   UNL     1       1.060   1.544   8.652  1.00  0.00     0.034 A 
ATOM     47  C   UNL     1       2.713   5.415   3.061  1.00  0.00     0.034 A 
ATOM     48  C   UNL     1       1.942   2.644   8.924  1.00  0.00     0.049 A 
ATOM     49  C   UNL     1       3.193   5.769   4.444  1.00  0.00     0.074 A 
ATOM     50  C   UNL     1       2.463   3.054  10.138  1.00  0.00     0.029 A 
ATOM     51  N   UNL     1       2.411   3.532   7.967  1.00  0.00    -0.354 N 
ATOM     52  N   UNL     1       3.027   5.116   5.570  1.00  0.00    -0.248 NA
ATOM     53  C   UNL     1       3.996   6.994   4.577  1.00  0.00     0.031 C 
ATOM     54  C   UNL     1       3.227   4.206   9.918  1.00  0.00     0.029 A 
ATOM     55  C   UNL     1       3.204   4.498   8.562  1.00  0.00     0.049 A 
ATOM     56  H   UNL     1       2.209   3.483   7.005  1.00  0.00     0.167 HD
ATOM     57  C   UNL     1       3.730   5.829   6.536  1.00  0.00     0.074 A 
ATOM     58  C   UNL     1       4.341   6.955   5.857  1.00  0.00     0.031 C 
ATOM     59  C   UNL     1       3.849   5.583   7.865  1.00  0.00     0.034 A 
BRANCH  46  60
ATOM     60  C   UNL     1       0.597   0.678   9.792  1.00  0.00     0.023 A 
ATOM     61  C   UNL     1       1.127  -0.622   9.932  1.00  0.00     0.012 A 
ATOM     62  C   UNL     1      -0.365   1.136  10.710  1.00  0.00     0.148 A 
ATOM     63  C   UNL     1       0.676  -1.467  10.945  1.00  0.00     0.002 A 
ATOM     64  C   UNL     1      -0.783   0.300  11.740  1.00  0.00     0.091 A 
ATOM     65  F   UNL     1      -0.883   2.361  10.541  1.00  0.00    -0.205 F 
ATOM     66  C   UNL     1      -0.273  -1.004  11.852  1.00  0.00     0.022 A 
BRANCH  64  67
ATOM     67  S   UNL     1      -1.960   0.837  12.985  1.00  0.00     0.127 S 
ATOM     68  O   UNL     1      -3.197   0.222  12.508  1.00  0.00    -0.237 OA
ATOM     69  O   UNL     1      -1.417   0.242  14.207  1.00  0.00    -0.237 OA
ATOM     70  O   UNL     1      -1.924   2.292  12.958  1.00  0.00    -0.744 OA
ENDBRANCH  64  67
ENDBRANCH  46  60
BRANCH  47  71
ATOM     71  C   UNL     1       3.051   6.266   1.886  1.00  0.00     0.023 A 
ATOM     72  C   UNL     1       4.382   6.331   1.432  1.00  0.00     0.012 A 
ATOM     73  C   UNL     1       2.052   6.976   1.193  1.00  0.00     0.148 A 
ATOM     74  C   UNL     1       4.717   7.108   0.323  1.00  0.00     0.002 A 
ATOM     75  C   UNL     1       2.384   7.707   0.058  1.00  0.00     0.091 A 
ATOM     76  F   UNL     1       0.794   6.909   1.649  1.00  0.00    -0.205 F 
ATOM     77  C   UNL     1       3.718   7.787  -0.370  1.00  0.00     0.022 A 
BRANCH  75  78
ATOM     78  S   UNL     1       1.149   8.511  -0.970  1.00  0.00     0.127 S 
ATOM     79  O   UNL     1       1.466   9.923  -0.768  1.00  0.00    -0.237 OA
ATOM     80  O   UNL     1       1.478   7.989  -2.296  1.00  0.00    -0.237 OA
ATOM     81  O   UNL     1      -0.141   8.075  -0.453  1.00  0.00    -0.744 OA
ENDBRANCH  75  78
ENDBRANCH  47  71
BRANCH  59  82
ATOM     82  C   UNL     1       4.694   6.528   8.681  1.00  0.00     0.023 A 
ATOM     83  C   UNL     1       4.218   7.822   8.972  1.00  0.00     0.012 A 
ATOM     84  C   UNL     1       5.922   6.106   9.227  1.00  0.00     0.148 A 
ATOM     85  C   UNL     1       4.965   8.691   9.767  1.00  0.00     0.002 A 
ATOM     86  C   UNL     1       6.639   6.961  10.058  1.00  0.00     0.091 A 
ATOM     87  F   UNL     1       6.373   4.880   8.922  1.00  0.00    -0.205 F 
ATOM     88  C   UNL     1       6.168   8.257  10.320  1.00  0.00     0.022 A 
BRANCH  86  89
ATOM     89  S   UNL     1       8.146   6.438  10.886  1.00  0.00     0.127 S 
ATOM     90  O   UNL     1       9.176   7.027  10.033  1.00  0.00    -0.237 OA
ATOM     91  O   UNL     1       8.015   7.062  12.204  1.00  0.00    -0.237 OA
ATOM     92  O   UNL     1       8.097   4.982  10.908  1.00  0.00    -0.744 OA
ENDBRANCH  86  89
ENDBRANCH  59  82
ENDBRANCH  33  34
ENDBRANCH  26  28
ENDBRANCH  25  26
ENDBRANCH   1  25
TORSDOF 18
