REMARK SMILES C/C(=C(/F)C(=O)OCCOC(=O)c1ccc(-c2c3nc(c(-c4cccc(S(=O)(=O)[O-])c4F)c4ccc([nH]4)c(-c4cccc(S(=O)(=O)[O-])c4F)c4nc(c(-c5cccc(S(=O)(=O)[O-])c5F)c5ccc2[nH]5)C=C4)C=C3)cc1)c1cccc(-n2cnnn2)c1
REMARK SMILES IDX 9 1 8 2 7 3 5 4 6 5 3 6 1 7 2 8 4 9 76 10 77 11 86 12 78 13
REMARK SMILES IDX 80 14 79 15 81 16 82 17 85 18 83 19 84 20 10 21 11 22 12 23
REMARK SMILES IDX 13 24 14 25 75 26 15 27 74 28 16 29 17 30 18 31 68 32 19 33
REMARK SMILES IDX 73 34 67 35 69 36 20 37 72 38 66 39 65 40 21 42 53 43 33 44
REMARK SMILES IDX 52 45 34 46 37 47 51 48 70 49 35 50 36 51 50 53 71 54 38 55
REMARK SMILES IDX 22 56 23 57 31 58 24 59 26 60 32 61 25 62 27 63 28 64 29 65
REMARK SMILES IDX 30 66 54 67 55 68 63 69 56 70 58 71 64 72 57 73 59 74 60 75
REMARK SMILES IDX 61 76 62 77 39 78 40 79 48 80 41 81 43 82 49 83 42 84 44 85
REMARK SMILES IDX 45 86 46 87 47 88
REMARK H PARENT 69 41 37 52
REMARK Flexibility Score: inf
ROOT
ATOM      1  C   UNL     1      -0.717   1.476   4.400  1.00  0.00     0.275 C 
ENDROOT
BRANCH   1   2
ATOM      2  C   UNL     1      -1.855   0.545   3.978  1.00  0.00     0.275 C 
BRANCH   2   3
ATOM      3  O   UNL     1      -1.349  -0.701   3.449  1.00  0.00    -0.457 OA
BRANCH   3   4
ATOM      4  C   UNL     1      -1.294  -0.769   2.092  1.00  0.00     0.367 C 
ATOM      5  O   UNL     1      -1.629   0.109   1.321  1.00  0.00    -0.243 OA
BRANCH   4   6
ATOM      6  C   UNL     1      -0.756  -2.086   1.646  1.00  0.00     0.211 C 
ATOM      7  C   UNL     1       0.797  -0.984   0.042  1.00  0.00     0.048 C 
ATOM      8  C   UNL     1       0.133  -2.192   0.640  1.00  0.00    -0.000 C 
ATOM      9  F   UNL     1      -1.293  -3.167   2.250  1.00  0.00    -0.199 F 
BRANCH   8  10
ATOM     10  C   UNL     1       0.513  -3.466  -0.002  1.00  0.00    -0.017 A 
ATOM     11  C   UNL     1      -0.476  -4.285  -0.559  1.00  0.00     0.008 A 
ATOM     12  C   UNL     1       1.864  -3.747  -0.275  1.00  0.00     0.037 A 
ATOM     13  C   UNL     1      -0.128  -5.325  -1.421  1.00  0.00     0.003 A 
ATOM     14  C   UNL     1       2.215  -4.759  -1.177  1.00  0.00     0.069 A 
ATOM     15  C   UNL     1       1.210  -5.550  -1.748  1.00  0.00     0.028 A 
BRANCH  14  16
ATOM     16  N   UNL     1       3.564  -4.944  -1.566  1.00  0.00    -0.201 N 
ATOM     17  C   UNL     1       4.699  -4.302  -1.135  1.00  0.00     0.252 A 
ATOM     18  N   UNL     1       3.931  -5.844  -2.508  1.00  0.00    -0.040 NA
ATOM     19  N   UNL     1       5.738  -4.770  -1.787  1.00  0.00    -0.117 NA
ATOM     20  N   UNL     1       5.243  -5.715  -2.644  1.00  0.00    -0.024 NA
ENDBRANCH  14  16
ENDBRANCH   8  10
ENDBRANCH   4   6
ENDBRANCH   3   4
ENDBRANCH   2   3
ENDBRANCH   1   2
BRANCH   1  21
ATOM     21  O   UNL     1      -0.028   1.969   3.237  1.00  0.00    -0.458 OA
BRANCH  21  22
ATOM     22  C   UNL     1       1.324   1.960   3.294  1.00  0.00     0.338 C 
ATOM     23  O   UNL     1       2.004   1.587   4.242  1.00  0.00    -0.246 OA
BRANCH  22  24
ATOM     24  C   UNL     1       1.917   2.413   2.014  1.00  0.00     0.060 A 
ATOM     25  C   UNL     1       1.275   2.175   0.802  1.00  0.00     0.016 A 
ATOM     26  C   UNL     1       3.211   2.939   2.004  1.00  0.00     0.016 A 
ATOM     27  C   UNL     1       1.994   2.262  -0.393  1.00  0.00     0.010 A 
ATOM     28  C   UNL     1       3.862   3.188   0.787  1.00  0.00     0.010 A 
ATOM     29  C   UNL     1       3.295   2.790  -0.436  1.00  0.00    -0.014 A 
BRANCH  29  30
ATOM     30  C   UNL     1       4.065   2.899  -1.722  1.00  0.00     0.031 A 
ATOM     31  C   UNL     1       5.515   2.464  -1.796  1.00  0.00     0.074 A 
ATOM     32  C   UNL     1       3.496   3.397  -2.843  1.00  0.00     0.049 A 
ATOM     33  N   UNL     1       6.420   2.748  -2.700  1.00  0.00    -0.248 NA
ATOM     34  C   UNL     1       6.023   1.623  -0.699  1.00  0.00     0.031 C 
ATOM     35  C   UNL     1       2.108   3.841  -2.971  1.00  0.00     0.029 A 
ATOM     36  N   UNL     1       4.022   3.619  -4.097  1.00  0.00    -0.354 N 
ATOM     37  C   UNL     1       7.620   2.229  -2.223  1.00  0.00     0.074 A 
ATOM     38  C   UNL     1       7.322   1.578  -0.965  1.00  0.00     0.031 C 
ATOM     39  C   UNL     1       1.872   4.213  -4.236  1.00  0.00     0.029 A 
ATOM     40  C   UNL     1       3.123   4.177  -4.980  1.00  0.00     0.049 A 
ATOM     41  H   UNL     1       4.950   3.399  -4.340  1.00  0.00     0.167 HD
ATOM     42  C   UNL     1       8.855   2.289  -2.778  1.00  0.00     0.034 A 
ATOM     43  C   UNL     1       3.282   4.677  -6.222  1.00  0.00     0.034 A 
ATOM     44  C   UNL     1       9.131   2.820  -4.088  1.00  0.00     0.049 A 
ATOM     45  C   UNL     1       4.650   4.697  -6.837  1.00  0.00     0.074 A 
ATOM     46  C   UNL     1      10.346   2.889  -4.750  1.00  0.00     0.029 A 
ATOM     47  N   UNL     1       8.178   3.334  -4.951  1.00  0.00    -0.354 N 
ATOM     48  N   UNL     1       5.777   4.240  -6.351  1.00  0.00    -0.248 NA
ATOM     49  C   UNL     1       4.772   5.315  -8.165  1.00  0.00     0.031 C 
ATOM     50  C   UNL     1      10.125   3.444  -6.016  1.00  0.00     0.029 A 
ATOM     51  C   UNL     1       8.773   3.712  -6.144  1.00  0.00     0.049 A 
ATOM     52  H   UNL     1       7.218   3.419  -4.747  1.00  0.00     0.167 HD
ATOM     53  C   UNL     1       6.742   4.509  -7.314  1.00  0.00     0.074 A 
ATOM     54  C   UNL     1       6.060   5.138  -8.427  1.00  0.00     0.031 C 
ATOM     55  C   UNL     1       8.077   4.285  -7.265  1.00  0.00     0.034 A 
BRANCH  42  56
ATOM     56  C   UNL     1      10.020   1.748  -1.985  1.00  0.00     0.023 A 
ATOM     57  C   UNL     1      10.220   0.359  -1.880  1.00  0.00     0.012 A 
ATOM     58  C   UNL     1      10.965   2.627  -1.414  1.00  0.00     0.148 A 
ATOM     59  C   UNL     1      11.326  -0.149  -1.197  1.00  0.00     0.002 A 
ATOM     60  C   UNL     1      12.086   2.114  -0.770  1.00  0.00     0.091 A 
ATOM     61  F   UNL     1      10.749   3.947  -1.504  1.00  0.00    -0.205 F 
ATOM     62  C   UNL     1      12.263   0.726  -0.653  1.00  0.00     0.022 A 
BRANCH  60  63
ATOM     63  S   UNL     1      13.384   3.170  -0.113  1.00  0.00     0.127 S 
ATOM     64  O   UNL     1      13.082   3.156   1.317  1.00  0.00    -0.237 OA
ATOM     65  O   UNL     1      14.599   2.445  -0.487  1.00  0.00    -0.237 OA
ATOM     66  O   UNL     1      13.222   4.455  -0.780  1.00  0.00    -0.744 OA
ENDBRANCH  60  63
ENDBRANCH  42  56
BRANCH  43  67
ATOM     67  C   UNL     1       2.098   5.215  -6.953  1.00  0.00     0.023 A 
ATOM     68  C   UNL     1       1.606   4.525  -8.077  1.00  0.00     0.012 A 
ATOM     69  C   UNL     1       1.407   6.353  -6.492  1.00  0.00     0.148 A 
ATOM     70  C   UNL     1       0.449   4.959  -8.726  1.00  0.00     0.002 A 
ATOM     71  C   UNL     1       0.213   6.732  -7.094  1.00  0.00     0.091 A 
ATOM     72  F   UNL     1       1.908   7.023  -5.444  1.00  0.00    -0.205 F 
ATOM     73  C   UNL     1      -0.260   6.047  -8.222  1.00  0.00     0.022 A 
BRANCH  71  74
ATOM     74  S   UNL     1      -0.844   7.995  -6.374  1.00  0.00     0.127 S 
ATOM     75  O   UNL     1      -0.538   9.155  -7.205  1.00  0.00    -0.237 OA
ATOM     76  O   UNL     1      -2.180   7.429  -6.570  1.00  0.00    -0.237 OA
ATOM     77  O   UNL     1      -0.439   8.079  -4.976  1.00  0.00    -0.744 OA
ENDBRANCH  71  74
ENDBRANCH  43  67
BRANCH  55  78
ATOM     78  C   UNL     1       8.893   4.701  -8.458  1.00  0.00     0.023 A 
ATOM     79  C   UNL     1       9.196   6.064  -8.648  1.00  0.00     0.012 A 
ATOM     80  C   UNL     1       9.409   3.744  -9.351  1.00  0.00     0.148 A 
ATOM     81  C   UNL     1       9.983   6.470  -9.724  1.00  0.00     0.002 A 
ATOM     82  C   UNL     1      10.224   4.152 -10.401  1.00  0.00     0.091 A 
ATOM     83  F   UNL     1       9.089   2.455  -9.164  1.00  0.00    -0.205 F 
ATOM     84  C   UNL     1      10.505   5.515 -10.594  1.00  0.00     0.022 A 
BRANCH  82  85
ATOM     85  S   UNL     1      11.000   2.986 -11.525  1.00  0.00     0.127 S 
ATOM     86  O   UNL     1      10.195   3.155 -12.733  1.00  0.00    -0.237 OA
ATOM     87  O   UNL     1      12.364   3.506 -11.624  1.00  0.00    -0.237 OA
ATOM     88  O   UNL     1      10.898   1.683 -10.880  1.00  0.00    -0.744 OA
ENDBRANCH  82  85
ENDBRANCH  55  78
ENDBRANCH  29  30
ENDBRANCH  22  24
ENDBRANCH  21  22
ENDBRANCH   1  21
TORSDOF 16
