REMARK SMILES O=C(OCCOC(=O)[C@@H](Cc1ccccc1)N1C(=O)/C(=C/c2ccc3ncccc3c2)SC1=S)c1ccc(-c2c3nc(c(-c4cccc(S(=O)(=O)[O-])c4F)c4ccc([nH]4)c(-c4cccc(S(=O)(=O)[O-])c4F)c4nc(c(-c5cccc(S(=O)(=O)[O-])c5F)c5ccc2[nH]5)C=C4)C=C3)cc1
REMARK SMILES IDX 4 1 3 2 2 3 1 4 35 5 36 6 97 7 37 8 96 9 38 10 39 11 40 12
REMARK SMILES IDX 90 13 41 14 95 15 89 16 91 17 42 18 94 19 88 20 87 21 43 23
REMARK SMILES IDX 75 24 55 25 74 26 56 27 59 28 73 29 92 30 57 31 58 32 72 34
REMARK SMILES IDX 93 35 60 36 44 37 45 38 53 39 46 40 48 41 54 42 47 43 49 44
REMARK SMILES IDX 50 45 51 46 52 47 76 48 77 49 85 50 78 51 80 52 86 53 79 54
REMARK SMILES IDX 81 55 82 56 83 57 84 58 61 59 62 60 70 61 63 62 65 63 71 64
REMARK SMILES IDX 64 65 66 66 67 67 68 68 69 69 5 70 6 71 7 72 8 73 9 74 10 75
REMARK SMILES IDX 11 76 12 77 16 78 13 79 15 80 14 81 17 82 18 83 33 84 19 85
REMARK SMILES IDX 20 86 32 87 34 88 21 89 22 90 23 91 31 92 24 93 30 94 25 95
REMARK SMILES IDX 29 96 26 97 28 98 27 99
REMARK H PARENT 91 22 59 33
REMARK Flexibility Score: inf
ROOT
ATOM      1  C   UNL     1       4.517   1.170   1.519  1.00  0.00     0.275 C 
ENDROOT
BRANCH   1   2
ATOM      2  O   UNL     1       3.608   1.608   0.510  1.00  0.00    -0.458 OA
BRANCH   2   3
ATOM      3  C   UNL     1       3.118   0.802  -0.442  1.00  0.00     0.338 C 
ATOM      4  O   UNL     1       2.068   1.106  -1.007  1.00  0.00    -0.246 OA
BRANCH   3   5
ATOM      5  C   UNL     1       3.764  -0.456  -0.913  1.00  0.00     0.060 A 
ATOM      6  C   UNL     1       4.639  -1.777   0.019  1.00  0.00     0.016 A 
ATOM      7  C   UNL     1       3.242  -0.793  -2.631  1.00  0.00     0.016 A 
ATOM      8  C   UNL     1       4.749  -3.469  -0.685  1.00  0.00     0.010 A 
ATOM      9  C   UNL     1       3.479  -2.406  -3.348  1.00  0.00     0.010 A 
ATOM     10  C   UNL     1       4.251  -3.745  -2.442  1.00  0.00    -0.014 A 
BRANCH  10  11
ATOM     11  C   UNL     1       4.807  -4.908  -3.209  1.00  0.00     0.031 A 
ATOM     12  C   UNL     1       5.697  -4.684  -4.421  1.00  0.00     0.074 A 
ATOM     13  C   UNL     1       4.760  -6.102  -2.597  1.00  0.00     0.049 A 
ATOM     14  N   UNL     1       6.512  -5.535  -4.992  1.00  0.00    -0.248 NA
ATOM     15  C   UNL     1       5.756  -3.344  -5.037  1.00  0.00     0.031 C 
ATOM     16  C   UNL     1       3.977  -6.354  -1.397  1.00  0.00     0.029 A 
ATOM     17  N   UNL     1       5.391  -7.292  -2.831  1.00  0.00    -0.354 N 
ATOM     18  C   UNL     1       7.131  -4.842  -6.031  1.00  0.00     0.074 A 
ATOM     19  C   UNL     1       6.647  -3.492  -6.002  1.00  0.00     0.031 C 
ATOM     20  C   UNL     1       4.239  -7.579  -0.937  1.00  0.00     0.029 A 
ATOM     21  C   UNL     1       5.060  -8.269  -1.915  1.00  0.00     0.049 A 
ATOM     22  H   UNL     1       6.019  -7.437  -3.576  1.00  0.00     0.167 HD
ATOM     23  C   UNL     1       8.019  -5.296  -6.940  1.00  0.00     0.034 A 
ATOM     24  C   UNL     1       5.315  -9.593  -1.910  1.00  0.00     0.034 A 
ATOM     25  C   UNL     1       8.484  -6.649  -6.961  1.00  0.00     0.049 A 
ATOM     26  C   UNL     1       6.257 -10.072  -2.980  1.00  0.00     0.074 A 
ATOM     27  C   UNL     1       9.321  -7.257  -7.875  1.00  0.00     0.029 A 
ATOM     28  N   UNL     1       8.107  -7.614  -6.040  1.00  0.00    -0.354 N 
ATOM     29  N   UNL     1       6.919  -9.359  -3.865  1.00  0.00    -0.248 NA
ATOM     30  C   UNL     1       6.531 -11.510  -3.044  1.00  0.00     0.031 C 
ATOM     31  C   UNL     1       9.387  -8.614  -7.549  1.00  0.00     0.029 A 
ATOM     32  C   UNL     1       8.642  -8.833  -6.398  1.00  0.00     0.049 A 
ATOM     33  H   UNL     1       7.542  -7.453  -5.250  1.00  0.00     0.167 HD
ATOM     34  C   UNL     1       7.680 -10.261  -4.589  1.00  0.00     0.074 A 
ATOM     35  C   UNL     1       7.479 -11.556  -3.967  1.00  0.00     0.031 C 
ATOM     36  C   UNL     1       8.430 -10.072  -5.703  1.00  0.00     0.034 A 
BRANCH  23  37
ATOM     37  C   UNL     1       8.441  -4.373  -8.052  1.00  0.00     0.023 A 
ATOM     38  C   UNL     1       9.421  -3.381  -7.857  1.00  0.00     0.012 A 
ATOM     39  C   UNL     1       7.883  -4.553  -9.334  1.00  0.00     0.148 A 
ATOM     40  C   UNL     1       9.839  -2.583  -8.926  1.00  0.00     0.002 A 
ATOM     41  C   UNL     1       8.334  -3.787 -10.399  1.00  0.00     0.091 A 
ATOM     42  F   UNL     1       6.925  -5.479  -9.483  1.00  0.00    -0.205 F 
ATOM     43  C   UNL     1       9.307  -2.796 -10.197  1.00  0.00     0.022 A 
BRANCH  41  44
ATOM     44  S   UNL     1       7.757  -4.040 -12.081  1.00  0.00     0.127 S 
ATOM     45  O   UNL     1       7.160  -2.741 -12.388  1.00  0.00    -0.237 OA
ATOM     46  O   UNL     1       9.006  -4.322 -12.788  1.00  0.00    -0.237 OA
ATOM     47  O   UNL     1       6.816  -5.150 -12.024  1.00  0.00    -0.744 OA
ENDBRANCH  41  44
ENDBRANCH  23  37
BRANCH  24  48
ATOM     48  C   UNL     1       4.649 -10.500  -0.910  1.00  0.00     0.023 A 
ATOM     49  C   UNL     1       5.385 -11.438  -0.168  1.00  0.00     0.012 A 
ATOM     50  C   UNL     1       3.259 -10.419  -0.655  1.00  0.00     0.148 A 
ATOM     51  C   UNL     1       4.775 -12.245   0.799  1.00  0.00     0.002 A 
ATOM     52  C   UNL     1       2.680 -11.134   0.387  1.00  0.00     0.091 A 
ATOM     53  F   UNL     1       2.514  -9.617  -1.430  1.00  0.00    -0.205 F 
ATOM     54  C   UNL     1       3.433 -12.064   1.107  1.00  0.00     0.022 A 
BRANCH  52  55
ATOM     55  S   UNL     1       0.992 -10.847   0.931  1.00  0.00     0.127 S 
ATOM     56  O   UNL     1       0.354 -12.117   0.596  1.00  0.00    -0.237 OA
ATOM     57  O   UNL     1       1.171 -10.604   2.362  1.00  0.00    -0.237 OA
ATOM     58  O   UNL     1       0.528  -9.690   0.178  1.00  0.00    -0.744 OA
ENDBRANCH  52  55
ENDBRANCH  24  48
BRANCH  36  59
ATOM     59  C   UNL     1       9.053 -11.301  -6.291  1.00  0.00     0.023 A 
ATOM     60  C   UNL     1       8.232 -12.268  -6.905  1.00  0.00     0.012 A 
ATOM     61  C   UNL     1      10.446 -11.479  -6.258  1.00  0.00     0.148 A 
ATOM     62  C   UNL     1       8.786 -13.434  -7.419  1.00  0.00     0.002 A 
ATOM     63  C   UNL     1      10.997 -12.614  -6.832  1.00  0.00     0.091 A 
ATOM     64  F   UNL     1      11.198 -10.542  -5.663  1.00  0.00    -0.205 F 
ATOM     65  C   UNL     1      10.168 -13.603  -7.390  1.00  0.00     0.022 A 
BRANCH  63  66
ATOM     66  S   UNL     1      12.768 -12.867  -6.937  1.00  0.00     0.127 S 
ATOM     67  O   UNL     1      12.957 -13.999  -6.031  1.00  0.00    -0.237 OA
ATOM     68  O   UNL     1      12.947 -13.180  -8.355  1.00  0.00    -0.237 OA
ATOM     69  O   UNL     1      13.382 -11.618  -6.507  1.00  0.00    -0.744 OA
ENDBRANCH  63  66
ENDBRANCH  36  59
ENDBRANCH  10  11
ENDBRANCH   3   5
ENDBRANCH   2   3
ENDBRANCH   1   2
BRANCH   1  70
ATOM     70  C   UNL     1       3.778   0.316   2.557  1.00  0.00     0.274 C 
BRANCH  70  71
ATOM     71  O   UNL     1       3.443  -0.928   1.927  1.00  0.00    -0.461 OA
BRANCH  71  72
ATOM     72  C   UNL     1       2.233  -1.377   1.538  1.00  0.00     0.329 C 
ATOM     73  O   UNL     1       1.184  -1.003   2.043  1.00  0.00    -0.250 OA
BRANCH  72  74
ATOM     74  C   UNL     1       2.379  -2.546   0.466  1.00  0.00     0.206 C 
BRANCH  74  75
ATOM     75  C   UNL     1       3.170  -2.372  -1.229  1.00  0.00     0.073 C 
BRANCH  75  76
ATOM     76  C   UNL     1       5.107  -1.804  -1.984  1.00  0.00    -0.045 A 
ATOM     77  C   UNL     1       6.439  -2.651  -1.994  1.00  0.00     0.004 A 
ATOM     78  C   UNL     1       5.679  -0.449  -2.337  1.00  0.00     0.004 A 
ATOM     79  C   UNL     1       7.794  -2.275  -2.089  1.00  0.00     0.000 A 
ATOM     80  C   UNL     1       7.064  -0.066  -2.397  1.00  0.00     0.000 A 
ATOM     81  C   UNL     1       8.107  -0.958  -2.225  1.00  0.00     0.000 A 
ENDBRANCH  75  76
ENDBRANCH  74  75
BRANCH  74  82
ATOM     82  N   UNL     1       2.476  -3.881   1.142  1.00  0.00    -0.278 N 
ATOM     83  C   UNL     1       3.513  -4.119   2.024  1.00  0.00     0.267 C 
ATOM     84  C   UNL     1       1.591  -4.938   0.987  1.00  0.00     0.149 C 
ATOM     85  O   UNL     1       4.296  -3.301   2.488  1.00  0.00    -0.268 OA
ATOM     86  C   UNL     1       3.591  -5.550   2.383  1.00  0.00     0.081 C 
ATOM     87  S   UNL     1       2.146  -6.331   1.935  1.00  0.00    -0.054 SA
ATOM     88  S   UNL     1       0.214  -4.989   0.045  1.00  0.00    -0.052 S 
ATOM     89  C   UNL     1       4.741  -6.016   2.885  1.00  0.00     0.029 C 
BRANCH  89  90
ATOM     90  C   UNL     1       5.109  -7.388   3.223  1.00  0.00    -0.024 A 
ATOM     91  C   UNL     1       4.665  -7.976   4.403  1.00  0.00     0.010 A 
ATOM     92  C   UNL     1       6.022  -8.076   2.418  1.00  0.00     0.018 A 
ATOM     93  C   UNL     1       5.113  -9.253   4.758  1.00  0.00     0.029 A 
ATOM     94  C   UNL     1       6.476  -9.355   2.787  1.00  0.00     0.001 A 
ATOM     95  C   UNL     1       6.004  -9.966   3.967  1.00  0.00     0.070 A 
ATOM     96  C   UNL     1       7.400 -10.062   2.006  1.00  0.00     0.012 A 
ATOM     97  N   UNL     1       6.391 -11.199   4.345  1.00  0.00    -0.256 NA
ATOM     98  C   UNL     1       7.779 -11.347   2.378  1.00  0.00     0.021 A 
ATOM     99  C   UNL     1       7.240 -11.870   3.537  1.00  0.00     0.112 A 
ENDBRANCH  89  90
ENDBRANCH  74  82
ENDBRANCH  72  74
ENDBRANCH  71  72
ENDBRANCH  70  71
ENDBRANCH   1  70
TORSDOF 18
