REMARK SMILES CC1=C(C(=O)Nc2ccccc2)[C@@H](c2ccc(C(=O)OCCOC(=O)c3ccc(-c4c5nc(c(-c6cccc(S(=O)(=O)[O-])c6F)c6ccc([nH]6)c(-c6cccc(S(=O)(=O)[O-])c6F)c6nc(c(-c7cccc(S(=O)(=O)[O-])c7F)c7ccc4[nH]7)C=C6)C=C5)cc3)cc2)n2ncnc2N1
REMARK SMILES IDX 21 1 20 2 18 3 19 4 17 5 14 6 15 7 90 8 16 9 89 10 13 11
REMARK SMILES IDX 1 12 2 13 3 14 96 15 95 16 91 18 94 19 92 20 93 21 4 22 5 23
REMARK SMILES IDX 6 24 7 26 8 27 12 28 9 29 11 30 10 31 22 32 23 33 24 34
REMARK SMILES IDX 25 35 26 36 27 37 88 38 28 39 87 40 29 41 30 42 31 43 81 44
REMARK SMILES IDX 32 45 86 46 80 47 82 48 33 49 85 50 79 51 78 52 34 54 66 55
REMARK SMILES IDX 46 56 65 57 47 58 50 59 64 60 83 61 48 62 49 63 63 65 84 66
REMARK SMILES IDX 51 67 35 68 36 69 44 70 37 71 39 72 45 73 38 74 40 75 41 76
REMARK SMILES IDX 42 77 43 78 67 79 68 80 76 81 69 82 71 83 77 84 70 85 72 86
REMARK SMILES IDX 73 87 74 88 75 89 52 90 53 91 61 92 54 93 56 94 62 95 55 96
REMARK SMILES IDX 57 97 58 98 59 99 60 100
REMARK H PARENT 96 17 6 25 82 53 50 64
REMARK Flexibility Score: inf
ROOT
ATOM      1  C   UNL     1      -7.523   3.225   5.497  1.00  0.00     0.275 C 
ENDROOT
BRANCH   1   2
ATOM      2  O   UNL     1      -6.211   2.650   5.388  1.00  0.00    -0.458 OA
BRANCH   2   3
ATOM      3  C   UNL     1      -6.128   1.488   4.688  1.00  0.00     0.338 C 
ATOM      4  O   UNL     1      -7.070   0.792   4.334  1.00  0.00    -0.246 OA
BRANCH   3   5
ATOM      5  C   UNL     1      -4.720   1.200   4.317  1.00  0.00     0.060 A 
ATOM      6  C   UNL     1      -2.080   0.492   3.651  1.00  0.00    -0.019 A 
ATOM      7  C   UNL     1      -3.150  -0.016   2.904  1.00  0.00     0.007 A 
ATOM      8  C   UNL     1      -2.349   1.421   4.678  1.00  0.00     0.007 A 
ATOM      9  C   UNL     1      -4.463   0.333   3.243  1.00  0.00     0.016 A 
ATOM     10  C   UNL     1      -3.654   1.775   5.009  1.00  0.00     0.016 A 
BRANCH   6  11
ATOM     11  C   UNL     1      -0.655  -0.028   3.514  1.00  0.00     0.179 C 
ATOM     12  C   UNL     1       2.287  -0.399   0.996  1.00  0.00     0.065 C 
ATOM     13  C   UNL     1       1.075  -0.676   1.850  1.00  0.00     0.026 C 
ATOM     14  C   UNL     1       0.128   0.233   2.214  1.00  0.00     0.065 C 
ATOM     15  N   UNL     1       1.070  -1.959   2.389  1.00  0.00    -0.328 N 
ATOM     16  C   UNL     1       0.254  -2.352   3.377  1.00  0.00     0.226 A 
ATOM     17  H   UNL     1       1.704  -2.618   2.022  1.00  0.00     0.169 HD
ATOM     18  N   UNL     1      -0.596  -1.439   3.931  1.00  0.00    -0.219 N 
ATOM     19  N   UNL     1       0.142  -3.499   3.998  1.00  0.00    -0.200 NA
ATOM     20  N   UNL     1      -1.214  -1.957   5.018  1.00  0.00    -0.157 NA
ATOM     21  C   UNL     1      -0.771  -3.217   4.979  1.00  0.00     0.248 A 
BRANCH  14  22
ATOM     22  C   UNL     1      -0.007   1.631   1.711  1.00  0.00     0.255 C 
ATOM     23  O   UNL     1      -0.126   2.536   2.543  1.00  0.00    -0.269 OA
ATOM     24  N   UNL     1       0.033   1.988   0.392  1.00  0.00    -0.322 N 
ATOM     25  H   UNL     1      -0.229   2.921   0.220  1.00  0.00     0.170 HD
BRANCH  24  26
ATOM     26  C   UNL     1       0.380   1.267  -0.758  1.00  0.00     0.041 A 
ATOM     27  C   UNL     1       1.382   1.839  -1.554  1.00  0.00     0.026 A 
ATOM     28  C   UNL     1      -0.123   0.008  -1.080  1.00  0.00     0.026 A 
ATOM     29  C   UNL     1       1.987   1.097  -2.567  1.00  0.00     0.002 A 
ATOM     30  C   UNL     1       0.452  -0.715  -2.133  1.00  0.00     0.002 A 
ATOM     31  C   UNL     1       1.531  -0.188  -2.847  1.00  0.00     0.000 A 
ENDBRANCH  24  26
ENDBRANCH  14  22
ENDBRANCH   6  11
ENDBRANCH   3   5
ENDBRANCH   2   3
ENDBRANCH   1   2
BRANCH   1  32
ATOM     32  C   UNL     1      -7.811   4.152   4.325  1.00  0.00     0.275 C 
BRANCH  32  33
ATOM     33  O   UNL     1      -7.927   3.422   3.107  1.00  0.00    -0.458 OA
BRANCH  33  34
ATOM     34  C   UNL     1      -6.800   3.384   2.362  1.00  0.00     0.338 C 
ATOM     35  O   UNL     1      -5.657   3.588   2.736  1.00  0.00    -0.246 OA
BRANCH  34  36
ATOM     36  C   UNL     1      -7.169   3.314   0.949  1.00  0.00     0.060 A 
ATOM     37  C   UNL     1      -6.140   3.124   0.021  1.00  0.00     0.016 A 
ATOM     38  C   UNL     1      -8.449   3.737   0.568  1.00  0.00     0.016 A 
ATOM     39  C   UNL     1      -6.357   3.507  -1.285  1.00  0.00     0.010 A 
ATOM     40  C   UNL     1      -8.655   4.142  -0.725  1.00  0.00     0.010 A 
ATOM     41  C   UNL     1      -7.589   4.080  -1.619  1.00  0.00    -0.014 A 
BRANCH  41  42
ATOM     42  C   UNL     1      -7.822   4.482  -2.990  1.00  0.00     0.031 A 
ATOM     43  C   UNL     1      -8.004   3.316  -3.882  1.00  0.00     0.074 A 
ATOM     44  C   UNL     1      -8.023   5.770  -3.328  1.00  0.00     0.049 A 
ATOM     45  N   UNL     1      -7.224   2.920  -4.832  1.00  0.00    -0.248 NA
ATOM     46  C   UNL     1      -9.065   2.352  -3.539  1.00  0.00     0.031 C 
ATOM     47  C   UNL     1      -8.145   6.910  -2.410  1.00  0.00     0.029 A 
ATOM     48  N   UNL     1      -8.318   6.316  -4.541  1.00  0.00    -0.354 N 
ATOM     49  C   UNL     1      -7.869   1.813  -5.381  1.00  0.00     0.074 A 
ATOM     50  C   UNL     1      -8.808   1.364  -4.395  1.00  0.00     0.031 C 
ATOM     51  C   UNL     1      -8.730   7.941  -3.059  1.00  0.00     0.029 A 
ATOM     52  C   UNL     1      -8.895   7.580  -4.456  1.00  0.00     0.049 A 
ATOM     53  H   UNL     1      -8.140   5.860  -5.395  1.00  0.00     0.167 HD
ATOM     54  C   UNL     1      -7.837   1.604  -6.726  1.00  0.00     0.034 A 
ATOM     55  C   UNL     1      -9.523   8.250  -5.451  1.00  0.00     0.034 A 
ATOM     56  C   UNL     1      -6.803   2.405  -7.333  1.00  0.00     0.049 A 
ATOM     57  C   UNL     1      -9.088   7.656  -6.732  1.00  0.00     0.074 A 
ATOM     58  C   UNL     1      -5.428   2.409  -7.378  1.00  0.00     0.029 A 
ATOM     59  N   UNL     1      -7.236   3.644  -7.728  1.00  0.00    -0.354 N 
ATOM     60  N   UNL     1      -7.874   7.764  -7.191  1.00  0.00    -0.248 NA
ATOM     61  C   UNL     1      -9.914   6.640  -7.375  1.00  0.00     0.031 C 
ATOM     62  C   UNL     1      -5.048   3.756  -7.647  1.00  0.00     0.029 A 
ATOM     63  C   UNL     1      -6.199   4.531  -7.789  1.00  0.00     0.049 A 
ATOM     64  H   UNL     1      -8.172   3.866  -7.939  1.00  0.00     0.167 HD
ATOM     65  C   UNL     1      -7.650   6.553  -7.819  1.00  0.00     0.074 A 
ATOM     66  C   UNL     1      -8.973   6.002  -8.078  1.00  0.00     0.031 C 
ATOM     67  C   UNL     1      -6.425   5.959  -7.758  1.00  0.00     0.034 A 
BRANCH  54  68
ATOM     68  C   UNL     1      -9.019   1.139  -7.571  1.00  0.00     0.023 A 
ATOM     69  C   UNL     1      -8.785   1.045  -8.964  1.00  0.00     0.012 A 
ATOM     70  C   UNL     1     -10.371   1.107  -7.157  1.00  0.00     0.148 A 
ATOM     71  C   UNL     1      -9.832   1.026  -9.892  1.00  0.00     0.002 A 
ATOM     72  C   UNL     1     -11.410   1.038  -8.081  1.00  0.00     0.091 A 
ATOM     73  F   UNL     1     -10.694   1.254  -5.874  1.00  0.00    -0.205 F 
ATOM     74  C   UNL     1     -11.147   1.032  -9.450  1.00  0.00     0.022 A 
BRANCH  72  75
ATOM     75  S   UNL     1     -13.135   1.032  -7.564  1.00  0.00     0.127 S 
ATOM     76  O   UNL     1     -13.571   2.356  -7.997  1.00  0.00    -0.237 OA
ATOM     77  O   UNL     1     -13.672  -0.086  -8.340  1.00  0.00    -0.237 OA
ATOM     78  O   UNL     1     -13.120   0.807  -6.124  1.00  0.00    -0.744 OA
ENDBRANCH  72  75
ENDBRANCH  54  68
BRANCH  55  79
ATOM     79  C   UNL     1     -10.597   9.266  -5.409  1.00  0.00     0.023 A 
ATOM     80  C   UNL     1     -10.746  10.161  -6.488  1.00  0.00     0.012 A 
ATOM     81  C   UNL     1     -11.642   9.172  -4.465  1.00  0.00     0.148 A 
ATOM     82  C   UNL     1     -11.921  10.901  -6.652  1.00  0.00     0.002 A 
ATOM     83  C   UNL     1     -12.810   9.909  -4.634  1.00  0.00     0.091 A 
ATOM     84  F   UNL     1     -11.523   8.294  -3.460  1.00  0.00    -0.205 F 
ATOM     85  C   UNL     1     -12.959  10.764  -5.734  1.00  0.00     0.022 A 
BRANCH  83  86
ATOM     86  S   UNL     1     -14.215   9.759  -3.521  1.00  0.00     0.127 S 
ATOM     87  O   UNL     1     -14.485  11.158  -3.187  1.00  0.00    -0.237 OA
ATOM     88  O   UNL     1     -15.214   9.132  -4.382  1.00  0.00    -0.237 OA
ATOM     89  O   UNL     1     -13.751   8.951  -2.401  1.00  0.00    -0.744 OA
ENDBRANCH  83  86
ENDBRANCH  55  79
BRANCH  67  90
ATOM     90  C   UNL     1      -5.251   6.838  -7.445  1.00  0.00     0.023 A 
ATOM     91  C   UNL     1      -5.063   7.447  -6.189  1.00  0.00     0.012 A 
ATOM     92  C   UNL     1      -4.255   6.963  -8.425  1.00  0.00     0.148 A 
ATOM     93  C   UNL     1      -3.907   8.187  -5.926  1.00  0.00     0.002 A 
ATOM     94  C   UNL     1      -3.087   7.654  -8.143  1.00  0.00     0.091 A 
ATOM     95  F   UNL     1      -4.462   6.382  -9.617  1.00  0.00    -0.205 F 
ATOM     96  C   UNL     1      -2.912   8.278  -6.899  1.00  0.00     0.022 A 
BRANCH  94  97
ATOM     97  S   UNL     1      -1.727   7.692  -9.311  1.00  0.00     0.127 S 
ATOM     98  O   UNL     1      -1.833   9.041  -9.862  1.00  0.00    -0.237 OA
ATOM     99  O   UNL     1      -0.566   7.472  -8.447  1.00  0.00    -0.237 OA
ATOM    100  O   UNL     1      -1.978   6.606 -10.251  1.00  0.00    -0.744 OA
ENDBRANCH  94  97
ENDBRANCH  67  90
ENDBRANCH  41  42
ENDBRANCH  34  36
ENDBRANCH  33  34
ENDBRANCH  32  33
ENDBRANCH   1  32
TORSDOF 17
