REMARK SMILES NC(=O)c1ccccc1NC(=O)[C@@H]1CC=CC[C@@H]1C(=O)OCCOC(=O)c1ccc(-c2c3nc(c(-c4cccc(S(=O)(=O)[O-])c4F)c4ccc([nH]4)c(-c4cccc(S(=O)(=O)[O-])c4F)c4nc(c(-c5cccc(S(=O)(=O)[O-])c5F)c5ccc2[nH]5)C=C4)C=C3)cc1
REMARK SMILES IDX 22 1 21 2 19 3 20 4 18 5 13 6 14 7 15 8 17 9 16 10 11 11
REMARK SMILES IDX 10 12 12 14 9 15 4 16 5 17 6 18 8 19 7 20 2 21 1 22 3 25
REMARK SMILES IDX 23 26 24 27 25 28 26 29 27 30 28 31 89 32 29 33 88 34 30 35
REMARK SMILES IDX 31 36 32 37 82 38 33 39 87 40 81 41 83 42 34 43 86 44 80 45
REMARK SMILES IDX 79 46 35 48 67 49 47 50 66 51 48 52 51 53 65 54 84 55 49 56
REMARK SMILES IDX 50 57 64 59 85 60 52 61 36 62 37 63 45 64 38 65 40 66 46 67
REMARK SMILES IDX 39 68 41 69 42 70 43 71 44 72 68 73 69 74 77 75 70 76 72 77
REMARK SMILES IDX 78 78 71 79 73 80 74 81 75 82 76 83 53 84 54 85 62 86 55 87
REMARK SMILES IDX 57 88 63 89 56 90 58 91 59 92 60 93 61 94
REMARK H PARENT 10 13 1 23 1 24 83 47 51 58
REMARK Flexibility Score: inf
ROOT
ATOM      1  C   UNL     1       7.242  -3.987   6.037  1.00  0.00     0.274 C 
ENDROOT
BRANCH   1   2
ATOM      2  O   UNL     1       6.624  -3.046   5.136  1.00  0.00    -0.462 OA
BRANCH   2   3
ATOM      3  C   UNL     1       5.587  -2.323   5.627  1.00  0.00     0.310 C 
ATOM      4  O   UNL     1       5.188  -2.386   6.784  1.00  0.00    -0.252 OA
BRANCH   3   5
ATOM      5  C   UNL     1       4.982  -1.365   4.601  1.00  0.00     0.116 C 
ATOM      6  C   UNL     1       4.500  -2.034   3.299  1.00  0.00     0.097 C 
ATOM      7  C   UNL     1       5.694  -2.512   2.451  1.00  0.00     0.041 C 
ATOM      8  C   UNL     1       6.744  -1.451   2.301  1.00  0.00    -0.030 C 
ATOM      9  C   UNL     1       5.897  -0.173   4.274  1.00  0.00     0.043 C 
ATOM     10  C   UNL     1       6.813  -0.382   3.105  1.00  0.00    -0.030 C 
BRANCH   6  11
ATOM     11  C   UNL     1       3.473  -3.123   3.562  1.00  0.00     0.228 C 
ATOM     12  N   UNL     1       2.810  -3.772   2.567  1.00  0.00    -0.325 N 
ATOM     13  H   UNL     1       2.220  -4.485   2.905  1.00  0.00     0.169 HD
ATOM     14  O   UNL     1       3.207  -3.494   4.708  1.00  0.00    -0.274 OA
BRANCH  12  15
ATOM     15  C   UNL     1       2.774  -3.657   1.163  1.00  0.00     0.053 A 
ATOM     16  C   UNL     1       2.419  -4.790   0.405  1.00  0.00     0.063 A 
ATOM     17  C   UNL     1       2.651  -4.820  -0.978  1.00  0.00     0.016 A 
ATOM     18  C   UNL     1       3.141  -3.692  -1.629  1.00  0.00     0.001 A 
ATOM     19  C   UNL     1       3.133  -2.498   0.471  1.00  0.00     0.027 A 
ATOM     20  C   UNL     1       3.340  -2.519  -0.911  1.00  0.00     0.002 A 
BRANCH  16  21
ATOM     21  C   UNL     1       1.828  -6.011   1.012  1.00  0.00     0.250 C 
ATOM     22  N   UNL     1       0.867  -5.803   1.969  1.00  0.00    -0.366 N 
ATOM     23  H   UNL     1       0.437  -6.571   2.409  1.00  0.00     0.159 HD
ATOM     24  H   UNL     1       0.608  -4.885   2.214  1.00  0.00     0.159 HD
ATOM     25  O   UNL     1       2.139  -7.132   0.649  1.00  0.00    -0.269 OA
ENDBRANCH  16  21
ENDBRANCH  12  15
ENDBRANCH   6  11
ENDBRANCH   3   5
ENDBRANCH   2   3
ENDBRANCH   1   2
BRANCH   1  26
ATOM     26  C   UNL     1       8.586  -3.457   6.526  1.00  0.00     0.275 C 
BRANCH  26  27
ATOM     27  O   UNL     1       8.372  -2.291   7.338  1.00  0.00    -0.458 OA
BRANCH  27  28
ATOM     28  C   UNL     1       8.806  -1.125   6.816  1.00  0.00     0.338 C 
ATOM     29  O   UNL     1       9.444  -0.957   5.788  1.00  0.00    -0.246 OA
BRANCH  28  30
ATOM     30  C   UNL     1       8.340  -0.013   7.654  1.00  0.00     0.060 A 
ATOM     31  C   UNL     1       6.986   0.318   7.644  1.00  0.00     0.016 A 
ATOM     32  C   UNL     1       9.255   0.787   8.331  1.00  0.00     0.016 A 
ATOM     33  C   UNL     1       6.553   1.508   8.206  1.00  0.00     0.010 A 
ATOM     34  C   UNL     1       8.797   1.922   9.006  1.00  0.00     0.010 A 
ATOM     35  C   UNL     1       7.448   2.312   8.919  1.00  0.00    -0.014 A 
BRANCH  35  36
ATOM     36  C   UNL     1       6.955   3.545   9.578  1.00  0.00     0.031 A 
ATOM     37  C   UNL     1       7.529   4.884   9.210  1.00  0.00     0.074 A 
ATOM     38  C   UNL     1       5.994   3.449  10.518  1.00  0.00     0.049 A 
ATOM     39  N   UNL     1       7.323   6.047   9.768  1.00  0.00    -0.248 NA
ATOM     40  C   UNL     1       8.470   4.922   8.077  1.00  0.00     0.031 C 
ATOM     41  C   UNL     1       5.362   2.200  10.957  1.00  0.00     0.029 A 
ATOM     42  N   UNL     1       5.391   4.410  11.288  1.00  0.00    -0.354 N 
ATOM     43  C   UNL     1       8.164   6.938   9.113  1.00  0.00     0.074 A 
ATOM     44  C   UNL     1       8.869   6.187   8.097  1.00  0.00     0.031 C 
ATOM     45  C   UNL     1       4.459   2.471  11.909  1.00  0.00     0.029 A 
ATOM     46  C   UNL     1       4.500   3.898  12.203  1.00  0.00     0.049 A 
ATOM     47  H   UNL     1       5.577   5.372  11.195  1.00  0.00     0.167 HD
ATOM     48  C   UNL     1       8.328   8.261   9.341  1.00  0.00     0.034 A 
ATOM     49  C   UNL     1       3.823   4.498  13.199  1.00  0.00     0.034 A 
ATOM     50  C   UNL     1       7.563   9.012  10.300  1.00  0.00     0.049 A 
ATOM     51  C   UNL     1       3.994   5.976  13.396  1.00  0.00     0.074 A 
ATOM     52  C   UNL     1       7.599  10.372  10.553  1.00  0.00     0.029 A 
ATOM     53  N   UNL     1       6.622   8.469  11.160  1.00  0.00    -0.354 N 
ATOM     54  N   UNL     1       4.728   6.818  12.708  1.00  0.00    -0.248 NA
ATOM     55  C   UNL     1       3.236   6.592  14.492  1.00  0.00     0.031 C 
ATOM     56  C   UNL     1       6.686  10.649  11.575  1.00  0.00     0.029 A 
ATOM     57  C   UNL     1       6.075   9.464  11.952  1.00  0.00     0.049 A 
ATOM     58  H   UNL     1       6.378   7.516  11.202  1.00  0.00     0.167 HD
ATOM     59  C   UNL     1       4.514   8.064  13.281  1.00  0.00     0.074 A 
ATOM     60  C   UNL     1       3.550   7.872  14.347  1.00  0.00     0.031 C 
ATOM     61  C   UNL     1       5.083   9.255  12.975  1.00  0.00     0.034 A 
BRANCH  48  62
ATOM     62  C   UNL     1       9.358   8.996   8.526  1.00  0.00     0.023 A 
ATOM     63  C   UNL     1       9.079   9.345   7.191  1.00  0.00     0.012 A 
ATOM     64  C   UNL     1      10.573   9.405   9.111  1.00  0.00     0.148 A 
ATOM     65  C   UNL     1      10.002  10.076   6.443  1.00  0.00     0.002 A 
ATOM     66  C   UNL     1      11.472  10.164   8.371  1.00  0.00     0.091 A 
ATOM     67  F   UNL     1      10.829   9.040  10.375  1.00  0.00    -0.205 F 
ATOM     68  C   UNL     1      11.191  10.495   7.035  1.00  0.00     0.022 A 
BRANCH  66  69
ATOM     69  S   UNL     1      12.999  10.808   9.066  1.00  0.00     0.127 S 
ATOM     70  O   UNL     1      14.001   9.983   8.392  1.00  0.00    -0.237 OA
ATOM     71  O   UNL     1      12.970  12.205   8.633  1.00  0.00    -0.237 OA
ATOM     72  O   UNL     1      12.897  10.617  10.506  1.00  0.00    -0.744 OA
ENDBRANCH  66  69
ENDBRANCH  48  62
BRANCH  49  73
ATOM     73  C   UNL     1       2.924   3.694  14.073  1.00  0.00     0.023 A 
ATOM     74  C   UNL     1       1.531   3.874  13.990  1.00  0.00     0.012 A 
ATOM     75  C   UNL     1       3.438   2.712  14.943  1.00  0.00     0.148 A 
ATOM     76  C   UNL     1       0.667   3.105  14.772  1.00  0.00     0.002 A 
ATOM     77  C   UNL     1       2.570   1.907  15.673  1.00  0.00     0.091 A 
ATOM     78  F   UNL     1       4.768   2.568  15.031  1.00  0.00    -0.205 F 
ATOM     79  C   UNL     1       1.185   2.112  15.601  1.00  0.00     0.022 A 
BRANCH  77  80
ATOM     80  S   UNL     1       3.167   0.513  16.636  1.00  0.00     0.127 S 
ATOM     81  O   UNL     1       3.242   1.084  17.978  1.00  0.00    -0.237 OA
ATOM     82  O   UNL     1       2.106  -0.477  16.447  1.00  0.00    -0.237 OA
ATOM     83  O   UNL     1       4.436   0.146  16.021  1.00  0.00    -0.744 OA
ENDBRANCH  77  80
ENDBRANCH  49  73
BRANCH  61  84
ATOM     84  C   UNL     1       4.675  10.442  13.802  1.00  0.00     0.023 A 
ATOM     85  C   UNL     1       5.170  10.572  15.114  1.00  0.00     0.012 A 
ATOM     86  C   UNL     1       3.853  11.451  13.266  1.00  0.00     0.148 A 
ATOM     87  C   UNL     1       4.830  11.677  15.892  1.00  0.00     0.002 A 
ATOM     88  C   UNL     1       3.553  12.571  14.033  1.00  0.00     0.091 A 
ATOM     89  F   UNL     1       3.372  11.296  12.024  1.00  0.00    -0.205 F 
ATOM     90  C   UNL     1       4.031  12.681  15.349  1.00  0.00     0.022 A 
BRANCH  88  91
ATOM     91  S   UNL     1       2.604  13.945  13.372  1.00  0.00     0.127 S 
ATOM     92  O   UNL     1       1.273  13.679  13.913  1.00  0.00    -0.237 OA
ATOM     93  O   UNL     1       3.279  15.106  13.955  1.00  0.00    -0.237 OA
ATOM     94  O   UNL     1       2.730  13.847  11.923  1.00  0.00    -0.744 OA
ENDBRANCH  88  91
ENDBRANCH  61  84
ENDBRANCH  35  36
ENDBRANCH  28  30
ENDBRANCH  27  28
ENDBRANCH  26  27
ENDBRANCH   1  26
TORSDOF 17
