REMARK SMILES O=C(OCCOC(=O)c1cccc(Oc2ncc([N+](=O)[O-])cc2Br)c1)c1ccc(-c2c3nc(c(-c4cccc(S(=O)(=O)[O-])c4F)c4ccc([nH]4)c(-c4cccc(S(=O)(=O)[O-])c4F)c4nc(c(-c5cccc(S(=O)(=O)[O-])c5F)c5ccc2[nH]5)C=C4)C=C3)cc1
REMARK SMILES IDX 4 1 3 2 2 3 1 4 26 5 27 6 88 7 28 8 87 9 29 10 30 11 31 12
REMARK SMILES IDX 81 13 32 14 86 15 80 16 82 17 33 18 85 19 79 20 78 21 34 23
REMARK SMILES IDX 66 24 46 25 65 26 47 27 50 28 64 29 83 30 48 31 49 32 63 34
REMARK SMILES IDX 84 35 51 36 35 37 36 38 44 39 37 40 39 41 45 42 38 43 40 44
REMARK SMILES IDX 41 45 42 46 43 47 67 48 68 49 76 50 69 51 71 52 77 53 70 54
REMARK SMILES IDX 72 55 73 56 74 57 75 58 52 59 53 60 61 61 54 62 56 63 62 64
REMARK SMILES IDX 55 65 57 66 58 67 59 68 60 69 5 70 6 71 7 72 8 73 9 74 10 75
REMARK SMILES IDX 25 76 11 77 13 78 12 79 14 80 15 81 16 82 23 83 17 84 22 85
REMARK SMILES IDX 24 86 18 87 19 88 20 89 21 90
REMARK H PARENT 82 22 50 33
REMARK Flexibility Score: inf
ROOT
ATOM      1  C   UNL     1       4.248   0.598  -1.247  1.00  0.00     0.275 C 
ENDROOT
BRANCH   1   2
ATOM      2  O   UNL     1       3.114  -0.272  -1.086  1.00  0.00    -0.458 OA
BRANCH   2   3
ATOM      3  C   UNL     1       2.768  -1.120  -0.089  1.00  0.00     0.338 C 
ATOM      4  O   UNL     1       1.746  -1.789  -0.245  1.00  0.00    -0.246 OA
BRANCH   3   5
ATOM      5  C   UNL     1       3.502  -1.280   1.217  1.00  0.00     0.060 A 
ATOM      6  C   UNL     1       4.734  -0.718   1.562  1.00  0.00     0.016 A 
ATOM      7  C   UNL     1       2.854  -2.058   2.202  1.00  0.00     0.016 A 
ATOM      8  C   UNL     1       5.295  -0.912   2.829  1.00  0.00     0.010 A 
ATOM      9  C   UNL     1       3.407  -2.253   3.473  1.00  0.00     0.010 A 
ATOM     10  C   UNL     1       4.645  -1.693   3.785  1.00  0.00    -0.014 A 
BRANCH  10  11
ATOM     11  C   UNL     1       5.347  -1.992   5.052  1.00  0.00     0.031 A 
ATOM     12  C   UNL     1       6.108  -3.263   5.171  1.00  0.00     0.074 A 
ATOM     13  C   UNL     1       5.309  -1.136   6.086  1.00  0.00     0.049 A 
ATOM     14  N   UNL     1       6.909  -3.641   6.126  1.00  0.00    -0.248 NA
ATOM     15  C   UNL     1       5.901  -4.257   4.108  1.00  0.00     0.031 C 
ATOM     16  C   UNL     1       4.433   0.017   6.130  1.00  0.00     0.029 A 
ATOM     17  N   UNL     1       5.988  -1.082   7.279  1.00  0.00    -0.354 N 
ATOM     18  C   UNL     1       7.245  -4.948   5.823  1.00  0.00     0.074 A 
ATOM     19  C   UNL     1       6.581  -5.288   4.583  1.00  0.00     0.031 C 
ATOM     20  C   UNL     1       4.657   0.698   7.262  1.00  0.00     0.029 A 
ATOM     21  C   UNL     1       5.746   0.078   7.989  1.00  0.00     0.049 A 
ATOM     22  H   UNL     1       6.585  -1.798   7.596  1.00  0.00     0.167 HD
ATOM     23  C   UNL     1       8.020  -5.790   6.541  1.00  0.00     0.034 A 
ATOM     24  C   UNL     1       6.379   0.604   9.059  1.00  0.00     0.034 A 
ATOM     25  C   UNL     1       8.626  -5.438   7.794  1.00  0.00     0.049 A 
ATOM     26  C   UNL     1       7.418  -0.262   9.715  1.00  0.00     0.074 A 
ATOM     27  C   UNL     1       9.411  -6.216   8.622  1.00  0.00     0.029 A 
ATOM     28  N   UNL     1       8.497  -4.200   8.412  1.00  0.00    -0.354 N 
ATOM     29  N   UNL     1       7.833  -1.452   9.351  1.00  0.00    -0.248 NA
ATOM     30  C   UNL     1       8.054   0.254  10.934  1.00  0.00     0.031 C 
ATOM     31  C   UNL     1       9.743  -5.455   9.749  1.00  0.00     0.029 A 
ATOM     32  C   UNL     1       9.203  -4.186   9.602  1.00  0.00     0.049 A 
ATOM     33  H   UNL     1       7.978  -3.443   8.055  1.00  0.00     0.167 HD
ATOM     34  C   UNL     1       8.742  -1.847  10.317  1.00  0.00     0.074 A 
ATOM     35  C   UNL     1       8.896  -0.728  11.227  1.00  0.00     0.031 C 
ATOM     36  C   UNL     1       9.345  -3.049  10.476  1.00  0.00     0.034 A 
BRANCH  23  37
ATOM     37  C   UNL     1       8.202  -7.169   5.978  1.00  0.00     0.023 A 
ATOM     38  C   UNL     1       8.960  -7.351   4.803  1.00  0.00     0.012 A 
ATOM     39  C   UNL     1       7.585  -8.278   6.586  1.00  0.00     0.148 A 
ATOM     40  C   UNL     1       9.060  -8.609   4.212  1.00  0.00     0.002 A 
ATOM     41  C   UNL     1       7.733  -9.537   6.021  1.00  0.00     0.091 A 
ATOM     42  F   UNL     1       6.844  -8.075   7.684  1.00  0.00    -0.205 F 
ATOM     43  C   UNL     1       8.453  -9.702   4.825  1.00  0.00     0.022 A 
BRANCH  41  44
ATOM     44  S   UNL     1       7.048 -11.019   6.764  1.00  0.00     0.127 S 
ATOM     45  O   UNL     1       6.098 -11.452   5.740  1.00  0.00    -0.237 OA
ATOM     46  O   UNL     1       8.234 -11.865   6.894  1.00  0.00    -0.237 OA
ATOM     47  O   UNL     1       6.450 -10.602   8.025  1.00  0.00    -0.744 OA
ENDBRANCH  41  44
ENDBRANCH  23  37
BRANCH  24  48
ATOM     48  C   UNL     1       6.152   2.018   9.507  1.00  0.00     0.023 A 
ATOM     49  C   UNL     1       7.240   2.922   9.495  1.00  0.00     0.012 A 
ATOM     50  C   UNL     1       4.896   2.501   9.919  1.00  0.00     0.148 A 
ATOM     51  C   UNL     1       7.094   4.246   9.919  1.00  0.00     0.002 A 
ATOM     52  C   UNL     1       4.736   3.845  10.253  1.00  0.00     0.091 A 
ATOM     53  F   UNL     1       3.870   1.641   9.993  1.00  0.00    -0.205 F 
ATOM     54  C   UNL     1       5.837   4.713  10.282  1.00  0.00     0.022 A 
BRANCH  52  55
ATOM     55  S   UNL     1       3.111   4.560  10.533  1.00  0.00     0.127 S 
ATOM     56  O   UNL     1       3.039   4.587  11.991  1.00  0.00    -0.237 OA
ATOM     57  O   UNL     1       3.238   5.873   9.898  1.00  0.00    -0.237 OA
ATOM     58  O   UNL     1       2.181   3.664   9.858  1.00  0.00    -0.744 OA
ENDBRANCH  52  55
ENDBRANCH  24  48
BRANCH  36  59
ATOM     59  C   UNL     1      10.211  -3.209  11.692  1.00  0.00     0.023 A 
ATOM     60  C   UNL     1       9.621  -3.283  12.970  1.00  0.00     0.012 A 
ATOM     61  C   UNL     1      11.604  -3.334  11.558  1.00  0.00     0.148 A 
ATOM     62  C   UNL     1      10.413  -3.440  14.104  1.00  0.00     0.002 A 
ATOM     63  C   UNL     1      12.382  -3.546  12.686  1.00  0.00     0.091 A 
ATOM     64  F   UNL     1      12.139  -3.236  10.332  1.00  0.00    -0.205 F 
ATOM     65  C   UNL     1      11.791  -3.583  13.961  1.00  0.00     0.022 A 
BRANCH  63  66
ATOM     66  S   UNL     1      14.149  -3.838  12.588  1.00  0.00     0.127 S 
ATOM     67  O   UNL     1      14.685  -2.613  13.180  1.00  0.00    -0.237 OA
ATOM     68  O   UNL     1      14.307  -5.037  13.411  1.00  0.00    -0.237 OA
ATOM     69  O   UNL     1      14.448  -4.028  11.175  1.00  0.00    -0.744 OA
ENDBRANCH  63  66
ENDBRANCH  36  59
ENDBRANCH  10  11
ENDBRANCH   3   5
ENDBRANCH   2   3
ENDBRANCH   1   2
BRANCH   1  70
ATOM     70  C   UNL     1       4.076   1.973  -0.594  1.00  0.00     0.275 C 
BRANCH  70  71
ATOM     71  O   UNL     1       3.621   1.905   0.764  1.00  0.00    -0.458 OA
BRANCH  71  72
ATOM     72  C   UNL     1       2.269   1.908   0.924  1.00  0.00     0.338 C 
ATOM     73  O   UNL     1       1.432   2.004   0.049  1.00  0.00    -0.246 OA
BRANCH  72  74
ATOM     74  C   UNL     1       1.951   1.695   2.350  1.00  0.00     0.063 A 
ATOM     75  C   UNL     1       0.942   0.796   2.705  1.00  0.00     0.016 A 
ATOM     76  C   UNL     1       2.622   2.436   3.325  1.00  0.00     0.062 A 
ATOM     77  C   UNL     1       0.616   0.627   4.050  1.00  0.00     0.005 A 
ATOM     78  C   UNL     1       2.227   2.345   4.660  1.00  0.00     0.130 A 
ATOM     79  C   UNL     1       1.238   1.419   5.020  1.00  0.00     0.047 A 
BRANCH  78  80
ATOM     80  O   UNL     1       2.707   3.143   5.680  1.00  0.00    -0.438 OA
BRANCH  80  81
ATOM     81  C   UNL     1       3.893   3.811   5.478  1.00  0.00     0.234 A 
ATOM     82  N   UNL     1       4.992   3.192   5.969  1.00  0.00    -0.214 NA
ATOM     83  C   UNL     1       3.962   5.038   4.828  1.00  0.00     0.087 A 
ATOM     84  C   UNL     1       6.199   3.769   5.812  1.00  0.00     0.200 A 
ATOM     85  C   UNL     1       5.223   5.596   4.606  1.00  0.00     0.108 A 
ATOM     86  Br  UNL     1       2.434   5.942   4.173  1.00  0.00    -0.045 Br
ATOM     87  C   UNL     1       6.354   4.946   5.113  1.00  0.00     0.288 A 
BRANCH  87  88
ATOM     88  N   UNL     1       7.689   5.466   4.877  1.00  0.00     0.064 N 
ATOM     89  O   UNL     1       8.626   4.988   5.530  1.00  0.00    -0.258 OA
ATOM     90  O   UNL     1       7.812   6.343   4.009  1.00  0.00    -0.258 OA
ENDBRANCH  87  88
ENDBRANCH  80  81
ENDBRANCH  78  80
ENDBRANCH  72  74
ENDBRANCH  71  72
ENDBRANCH  70  71
ENDBRANCH   1  70
TORSDOF 17
