REMARK SMILES Cn1cc(C(=O)NCCc2ccccc2)c(C(=O)OCCOC(=O)c2ccc(-c3c4nc(c(-c5cccc(S(=O)(=O)[O-])c5F)c5ccc([nH]5)c(-c5cccc(S(=O)(=O)[O-])c5F)c5nc(c(-c6cccc(S(=O)(=O)[O-])c6F)c6ccc3[nH]6)C=C5)C=C4)cc2)n1
REMARK SMILES IDX 20 1 19 2 17 3 18 4 16 5 1 6 2 7 3 8 88 9 4 10 5 11 6 12
REMARK SMILES IDX 7 13 8 15 9 16 10 17 11 18 15 19 12 20 14 21 13 22 21 23
REMARK SMILES IDX 22 24 23 25 24 26 25 27 26 28 87 29 27 30 86 31 28 32 29 33
REMARK SMILES IDX 30 34 80 35 31 36 85 37 79 38 81 39 32 40 84 41 78 42 77 43
REMARK SMILES IDX 33 45 65 46 45 47 64 48 46 49 49 50 63 51 82 52 47 53 48 54
REMARK SMILES IDX 62 56 83 57 50 58 34 59 35 60 43 61 36 62 38 63 44 64 37 65
REMARK SMILES IDX 39 66 40 67 41 68 42 69 66 70 67 71 75 72 68 73 70 74 76 75
REMARK SMILES IDX 69 76 71 77 72 78 73 79 74 80 51 81 52 82 60 83 53 84 55 85
REMARK SMILES IDX 61 86 54 87 56 88 57 89 58 90 59 91
REMARK H PARENT 7 14 81 44 49 55
REMARK Flexibility Score: inf
ROOT
ATOM      1  C   UNL     1       4.603   2.158  -0.005  1.00  0.00     0.275 C 
ENDROOT
BRANCH   1   2
ATOM      2  O   UNL     1       3.542   1.189  -0.047  1.00  0.00    -0.457 OA
BRANCH   2   3
ATOM      3  C   UNL     1       2.633   1.212   0.979  1.00  0.00     0.359 C 
ATOM      4  O   UNL     1       2.701   1.950   1.944  1.00  0.00    -0.244 OA
BRANCH   3   5
ATOM      5  C   UNL     1       1.491   0.322   0.698  1.00  0.00     0.183 A 
ATOM      6  C   UNL     1      -1.927   0.048   0.022  1.00  0.00     0.173 C 
ATOM      7  N   UNL     1      -0.516  -0.177   0.229  1.00  0.00    -0.274 N 
ATOM      8  C   UNL     1       0.202  -1.284  -0.111  1.00  0.00     0.123 A 
ATOM      9  N   UNL     1       0.226   0.779   0.791  1.00  0.00    -0.165 NA
ATOM     10  C   UNL     1       1.502  -1.056   0.305  1.00  0.00     0.092 A 
BRANCH  10  11
ATOM     11  C   UNL     1       2.658  -1.933   0.350  1.00  0.00     0.255 C 
ATOM     12  O   UNL     1       3.804  -1.502   0.468  1.00  0.00    -0.269 OA
ATOM     13  N   UNL     1       2.524  -3.294   0.371  1.00  0.00    -0.352 N 
ATOM     14  H   UNL     1       3.377  -3.767   0.507  1.00  0.00     0.163 HD
BRANCH  13  15
ATOM     15  C   UNL     1       1.387  -4.188   0.233  1.00  0.00     0.121 C 
BRANCH  15  16
ATOM     16  C   UNL     1       1.295  -4.754  -1.191  1.00  0.00     0.057 C 
BRANCH  16  17
ATOM     17  C   UNL     1       2.356  -5.813  -1.406  1.00  0.00    -0.046 A 
ATOM     18  C   UNL     1       2.041  -7.168  -1.238  1.00  0.00     0.004 A 
ATOM     19  C   UNL     1       3.685  -5.450  -1.668  1.00  0.00     0.004 A 
ATOM     20  C   UNL     1       3.043  -8.137  -1.295  1.00  0.00     0.000 A 
ATOM     21  C   UNL     1       4.687  -6.419  -1.708  1.00  0.00     0.000 A 
ATOM     22  C   UNL     1       4.367  -7.761  -1.515  1.00  0.00     0.000 A 
ENDBRANCH  16  17
ENDBRANCH  15  16
ENDBRANCH  13  15
ENDBRANCH  10  11
ENDBRANCH   3   5
ENDBRANCH   2   3
ENDBRANCH   1   2
BRANCH   1  23
ATOM     23  C   UNL     1       4.605   2.979  -1.297  1.00  0.00     0.275 C 
BRANCH  23  24
ATOM     24  O   UNL     1       3.436   3.818  -1.368  1.00  0.00    -0.458 OA
BRANCH  24  25
ATOM     25  C   UNL     1       2.394   3.297  -2.058  1.00  0.00     0.338 C 
ATOM     26  O   UNL     1       2.367   2.250  -2.683  1.00  0.00    -0.246 OA
BRANCH  25  27
ATOM     27  C   UNL     1       1.202   4.129  -1.837  1.00  0.00     0.060 A 
ATOM     28  C   UNL     1       0.173   3.579  -1.077  1.00  0.00     0.016 A 
ATOM     29  C   UNL     1       1.053   5.386  -2.418  1.00  0.00     0.016 A 
ATOM     30  C   UNL     1      -1.024   4.263  -0.900  1.00  0.00     0.010 A 
ATOM     31  C   UNL     1      -0.148   6.084  -2.233  1.00  0.00     0.010 A 
ATOM     32  C   UNL     1      -1.200   5.520  -1.487  1.00  0.00    -0.014 A 
BRANCH  32  33
ATOM     33  C   UNL     1      -2.506   6.211  -1.352  1.00  0.00     0.031 A 
ATOM     34  C   UNL     1      -3.408   6.345  -2.547  1.00  0.00     0.074 A 
ATOM     35  C   UNL     1      -2.887   6.702  -0.157  1.00  0.00     0.049 A 
ATOM     36  N   UNL     1      -4.552   6.970  -2.652  1.00  0.00    -0.248 NA
ATOM     37  C   UNL     1      -2.965   5.692  -3.790  1.00  0.00     0.031 C 
ATOM     38  C   UNL     1      -2.108   6.614   1.079  1.00  0.00     0.029 A 
ATOM     39  N   UNL     1      -4.019   7.387   0.210  1.00  0.00    -0.354 N 
ATOM     40  C   UNL     1      -4.941   6.831  -3.978  1.00  0.00     0.074 A 
ATOM     41  C   UNL     1      -3.916   6.055  -4.641  1.00  0.00     0.031 C 
ATOM     42  C   UNL     1      -2.777   7.233   2.064  1.00  0.00     0.029 A 
ATOM     43  C   UNL     1      -4.011   7.795   1.523  1.00  0.00     0.049 A 
ATOM     44  H   UNL     1      -4.764   7.568  -0.407  1.00  0.00     0.167 HD
ATOM     45  C   UNL     1      -6.058   7.298  -4.585  1.00  0.00     0.034 A 
ATOM     46  C   UNL     1      -4.887   8.558   2.207  1.00  0.00     0.034 A 
ATOM     47  C   UNL     1      -7.100   8.025  -3.910  1.00  0.00     0.049 A 
ATOM     48  C   UNL     1      -6.119   9.062   1.505  1.00  0.00     0.074 A 
ATOM     49  C   UNL     1      -8.289   8.504  -4.431  1.00  0.00     0.029 A 
ATOM     50  N   UNL     1      -7.079   8.377  -2.570  1.00  0.00    -0.354 N 
ATOM     51  N   UNL     1      -6.515   8.845   0.274  1.00  0.00    -0.248 NA
ATOM     52  C   UNL     1      -7.039   9.897   2.293  1.00  0.00     0.031 C 
ATOM     53  C   UNL     1      -8.984   9.155  -3.406  1.00  0.00     0.029 A 
ATOM     54  C   UNL     1      -8.232   9.070  -2.245  1.00  0.00     0.049 A 
ATOM     55  H   UNL     1      -6.351   8.166  -1.942  1.00  0.00     0.167 HD
ATOM     56  C   UNL     1      -7.739   9.492   0.147  1.00  0.00     0.074 A 
ATOM     57  C   UNL     1      -8.032  10.087   1.435  1.00  0.00     0.031 C 
ATOM     58  C   UNL     1      -8.537   9.603  -0.943  1.00  0.00     0.034 A 
BRANCH  45  59
ATOM     59  C   UNL     1      -6.232   7.011  -6.051  1.00  0.00     0.023 A 
ATOM     60  C   UNL     1      -6.620   5.722  -6.467  1.00  0.00     0.012 A 
ATOM     61  C   UNL     1      -6.078   8.032  -7.010  1.00  0.00     0.148 A 
ATOM     62  C   UNL     1      -6.832   5.447  -7.818  1.00  0.00     0.002 A 
ATOM     63  C   UNL     1      -6.327   7.760  -8.350  1.00  0.00     0.091 A 
ATOM     64  F   UNL     1      -5.686   9.245  -6.595  1.00  0.00    -0.205 F 
ATOM     65  C   UNL     1      -6.696   6.467  -8.757  1.00  0.00     0.022 A 
BRANCH  63  66
ATOM     66  S   UNL     1      -6.245   9.022  -9.626  1.00  0.00     0.127 S 
ATOM     67  O   UNL     1      -5.026   8.643 -10.339  1.00  0.00    -0.237 OA
ATOM     68  O   UNL     1      -7.484   8.789 -10.370  1.00  0.00    -0.237 OA
ATOM     69  O   UNL     1      -6.190  10.297  -8.925  1.00  0.00    -0.744 OA
ENDBRANCH  63  66
ENDBRANCH  45  59
BRANCH  46  70
ATOM     70  C   UNL     1      -4.643   8.867   3.644  1.00  0.00     0.023 A 
ATOM     71  C   UNL     1      -5.480   8.303   4.626  1.00  0.00     0.012 A 
ATOM     72  C   UNL     1      -3.576   9.694   4.046  1.00  0.00     0.148 A 
ATOM     73  C   UNL     1      -5.275   8.577   5.979  1.00  0.00     0.002 A 
ATOM     74  C   UNL     1      -3.344   9.919   5.399  1.00  0.00     0.091 A 
ATOM     75  F   UNL     1      -2.805  10.246   3.098  1.00  0.00    -0.205 F 
ATOM     76  C   UNL     1      -4.200   9.373   6.366  1.00  0.00     0.022 A 
BRANCH  74  77
ATOM     77  S   UNL     1      -1.905  10.827   5.977  1.00  0.00     0.127 S 
ATOM     78  O   UNL     1      -2.480  12.134   6.284  1.00  0.00    -0.237 OA
ATOM     79  O   UNL     1      -1.495  10.046   7.145  1.00  0.00    -0.237 OA
ATOM     80  O   UNL     1      -0.957  10.788   4.872  1.00  0.00    -0.744 OA
ENDBRANCH  74  77
ENDBRANCH  46  70
BRANCH  58  81
ATOM     81  C   UNL     1      -9.822  10.373  -0.790  1.00  0.00     0.023 A 
ATOM     82  C   UNL     1      -9.784  11.779  -0.723  1.00  0.00     0.012 A 
ATOM     83  C   UNL     1     -11.065   9.712  -0.795  1.00  0.00     0.148 A 
ATOM     84  C   UNL     1     -10.965  12.515  -0.636  1.00  0.00     0.002 A 
ATOM     85  C   UNL     1     -12.240  10.454  -0.751  1.00  0.00     0.091 A 
ATOM     86  F   UNL     1     -11.079   8.371  -0.838  1.00  0.00    -0.205 F 
ATOM     87  C   UNL     1     -12.191  11.855  -0.663  1.00  0.00     0.022 A 
BRANCH  85  88
ATOM     88  S   UNL     1     -13.860   9.688  -0.873  1.00  0.00     0.127 S 
ATOM     89  O   UNL     1     -14.316   9.730   0.515  1.00  0.00    -0.237 OA
ATOM     90  O   UNL     1     -14.570  10.596  -1.775  1.00  0.00    -0.237 OA
ATOM     91  O   UNL     1     -13.630   8.358  -1.421  1.00  0.00    -0.744 OA
ENDBRANCH  85  88
ENDBRANCH  58  81
ENDBRANCH  32  33
ENDBRANCH  25  27
ENDBRANCH  24  25
ENDBRANCH  23  24
ENDBRANCH   1  23
TORSDOF 18
