REMARK SMILES CCCCC[NH2+][C@](C)(C(=O)OCCOC(=O)c1ccc(-c2c3nc(c(-c4cccc(S(=O)(=O)[O-])c4F)c4ccc([nH]4)c(-c4cccc(S(=O)(=O)[O-])c4F)c4nc(c(-c5cccc(S(=O)(=O)[O-])c5F)c5ccc2[nH]5)C=C4)C=C3)cc1)C(F)(F)F
REMARK SMILES IDX 12 1 11 2 9 3 10 4 7 5 8 6 6 7 5 10 4 11 3 12 2 13 1 14
REMARK SMILES IDX 80 15 81 16 82 17 83 18 13 19 14 20 15 21 16 22 17 23 18 24
REMARK SMILES IDX 79 25 19 26 78 27 20 28 21 29 22 30 72 31 23 32 77 33 71 34
REMARK SMILES IDX 73 35 24 36 76 37 70 38 69 39 25 41 57 42 37 43 56 44 38 45
REMARK SMILES IDX 41 46 55 47 74 48 39 49 40 50 54 52 75 53 42 54 26 55 27 56
REMARK SMILES IDX 35 57 28 58 30 59 36 60 29 61 31 62 32 63 33 64 34 65 58 66
REMARK SMILES IDX 59 67 67 68 60 69 62 70 68 71 61 72 63 73 64 74 65 75 66 76
REMARK SMILES IDX 43 77 44 78 52 79 45 80 47 81 53 82 46 83 48 84 49 85 50 86
REMARK SMILES IDX 51 87
REMARK H PARENT 6 8 6 9 73 40 41 51
REMARK Flexibility Score: inf
ROOT
ATOM      1  C   UNL     1      -3.672   1.169  -6.348  1.00  0.00     0.274 C 
ENDROOT
BRANCH   1   2
ATOM      2  O   UNL     1      -2.868   0.606  -5.293  1.00  0.00    -0.457 OA
BRANCH   2   3
ATOM      3  C   UNL     1      -3.516  -0.135  -4.345  1.00  0.00     0.377 C 
ATOM      4  O   UNL     1      -4.718  -0.370  -4.372  1.00  0.00    -0.244 OA
BRANCH   3   5
ATOM      5  C   UNL     1      -2.593  -0.483  -3.164  1.00  0.00     0.287 C 
ATOM      6  C   UNL     1      -1.113  -0.458  -3.601  1.00  0.00     0.103 C 
BRANCH   5   7
ATOM      7  N   UNL     1      -2.944   0.521  -2.092  1.00  0.00    -0.325 N 
ATOM      8  H   UNL     1      -3.254   1.376  -2.553  1.00  0.00     0.347 HD
ATOM      9  H   UNL     1      -3.661   0.076  -1.519  1.00  0.00     0.347 HD
BRANCH   7  10
ATOM     10  C   UNL     1      -1.870   0.871  -1.180  1.00  0.00     0.261 C 
BRANCH  10  11
ATOM     11  C   UNL     1      -2.411   1.514   0.101  1.00  0.00     0.061 C 
BRANCH  11  12
ATOM     12  C   UNL     1      -3.125   0.549   1.058  1.00  0.00     0.006 C 
BRANCH  12  13
ATOM     13  C   UNL     1      -2.334  -0.703   1.450  1.00  0.00    -0.003 C 
ATOM     14  C   UNL     1      -0.954  -0.409   2.018  1.00  0.00     0.004 C 
ENDBRANCH  12  13
ENDBRANCH  11  12
ENDBRANCH  10  11
ENDBRANCH   7  10
ENDBRANCH   5   7
BRANCH   5  15
ATOM     15  C   UNL     1      -2.926  -1.944  -2.776  1.00  0.00     0.455 C 
ATOM     16  F   UNL     1      -2.631  -2.815  -3.762  1.00  0.00    -0.164 F 
ATOM     17  F   UNL     1      -2.188  -2.321  -1.698  1.00  0.00    -0.164 F 
ATOM     18  F   UNL     1      -4.219  -2.117  -2.426  1.00  0.00    -0.164 F 
ENDBRANCH   5  15
ENDBRANCH   3   5
ENDBRANCH   2   3
ENDBRANCH   1   2
BRANCH   1  19
ATOM     19  C   UNL     1      -3.444   0.421  -7.656  1.00  0.00     0.275 C 
BRANCH  19  20
ATOM     20  O   UNL     1      -3.971  -0.911  -7.547  1.00  0.00    -0.458 OA
BRANCH  20  21
ATOM     21  C   UNL     1      -3.057  -1.902  -7.487  1.00  0.00     0.338 C 
ATOM     22  O   UNL     1      -1.840  -1.798  -7.570  1.00  0.00    -0.246 OA
BRANCH  21  23
ATOM     23  C   UNL     1      -3.739  -3.176  -7.235  1.00  0.00     0.060 A 
ATOM     24  C   UNL     1      -4.316  -3.394  -5.987  1.00  0.00     0.016 A 
ATOM     25  C   UNL     1      -3.696  -4.198  -8.180  1.00  0.00     0.016 A 
ATOM     26  C   UNL     1      -4.755  -4.665  -5.633  1.00  0.00     0.010 A 
ATOM     27  C   UNL     1      -4.238  -5.447  -7.859  1.00  0.00     0.010 A 
ATOM     28  C   UNL     1      -4.734  -5.707  -6.568  1.00  0.00    -0.014 A 
BRANCH  28  29
ATOM     29  C   UNL     1      -5.196  -7.069  -6.187  1.00  0.00     0.031 A 
ATOM     30  C   UNL     1      -4.259  -8.242  -6.306  1.00  0.00     0.074 A 
ATOM     31  C   UNL     1      -6.453  -7.261  -5.738  1.00  0.00     0.049 A 
ATOM     32  N   UNL     1      -4.521  -9.520  -6.214  1.00  0.00    -0.248 NA
ATOM     33  C   UNL     1      -2.844  -7.940  -6.582  1.00  0.00     0.031 C 
ATOM     34  C   UNL     1      -7.455  -6.210  -5.547  1.00  0.00     0.029 A 
ATOM     35  N   UNL     1      -7.106  -8.410  -5.365  1.00  0.00    -0.354 N 
ATOM     36  C   UNL     1      -3.330 -10.173  -6.505  1.00  0.00     0.074 A 
ATOM     37  C   UNL     1      -2.336  -9.152  -6.756  1.00  0.00     0.031 C 
ATOM     38  C   UNL     1      -8.583  -6.756  -5.070  1.00  0.00     0.029 A 
ATOM     39  C   UNL     1      -8.415  -8.203  -4.998  1.00  0.00     0.049 A 
ATOM     40  H   UNL     1      -6.678  -9.297  -5.362  1.00  0.00     0.167 HD
ATOM     41  C   UNL     1      -3.085 -11.504  -6.551  1.00  0.00     0.034 A 
ATOM     42  C   UNL     1      -9.387  -9.079  -4.675  1.00  0.00     0.034 A 
ATOM     43  C   UNL     1      -4.050 -12.514  -6.207  1.00  0.00     0.049 A 
ATOM     44  C   UNL     1      -9.079 -10.549  -4.698  1.00  0.00     0.074 A 
ATOM     45  C   UNL     1      -3.891 -13.888  -6.194  1.00  0.00     0.029 A 
ATOM     46  N   UNL     1      -5.347 -12.257  -5.789  1.00  0.00    -0.354 N 
ATOM     47  N   UNL     1      -7.943 -11.149  -4.961  1.00  0.00    -0.248 NA
ATOM     48  C   UNL     1     -10.183 -11.464  -4.378  1.00  0.00     0.031 C 
ATOM     49  C   UNL     1      -5.091 -14.463  -5.761  1.00  0.00     0.029 A 
ATOM     50  C   UNL     1      -5.996 -13.446  -5.506  1.00  0.00     0.049 A 
ATOM     51  H   UNL     1      -5.747 -11.361  -5.706  1.00  0.00     0.167 HD
ATOM     52  C   UNL     1      -8.192 -12.509  -4.831  1.00  0.00     0.074 A 
ATOM     53  C   UNL     1      -9.579 -12.644  -4.431  1.00  0.00     0.031 C 
ATOM     54  C   UNL     1      -7.359 -13.555  -5.055  1.00  0.00     0.034 A 
BRANCH  41  55
ATOM     55  C   UNL     1      -1.707 -11.949  -6.958  1.00  0.00     0.023 A 
ATOM     56  C   UNL     1      -0.648 -11.877  -6.032  1.00  0.00     0.012 A 
ATOM     57  C   UNL     1      -1.472 -12.489  -8.238  1.00  0.00     0.148 A 
ATOM     58  C   UNL     1       0.629 -12.314  -6.380  1.00  0.00     0.002 A 
ATOM     59  C   UNL     1      -0.203 -12.955  -8.566  1.00  0.00     0.091 A 
ATOM     60  F   UNL     1      -2.484 -12.522  -9.116  1.00  0.00    -0.205 F 
ATOM     61  C   UNL     1       0.849 -12.863  -7.642  1.00  0.00     0.022 A 
BRANCH  59  62
ATOM     62  S   UNL     1       0.150 -13.737 -10.145  1.00  0.00     0.127 S 
ATOM     63  O   UNL     1       0.806 -12.652 -10.873  1.00  0.00    -0.237 OA
ATOM     64  O   UNL     1       1.037 -14.836  -9.761  1.00  0.00    -0.237 OA
ATOM     65  O   UNL     1      -1.139 -14.163 -10.672  1.00  0.00    -0.744 OA
ENDBRANCH  59  62
ENDBRANCH  41  55
BRANCH  42  66
ATOM     66  C   UNL     1     -10.734  -8.576  -4.282  1.00  0.00     0.023 A 
ATOM     67  C   UNL     1     -11.152  -8.701  -2.944  1.00  0.00     0.012 A 
ATOM     68  C   UNL     1     -11.574  -7.921  -5.204  1.00  0.00     0.148 A 
ATOM     69  C   UNL     1     -12.386  -8.193  -2.534  1.00  0.00     0.002 A 
ATOM     70  C   UNL     1     -12.774  -7.364  -4.776  1.00  0.00     0.091 A 
ATOM     71  F   UNL     1     -11.178  -7.837  -6.482  1.00  0.00    -0.205 F 
ATOM     72  C   UNL     1     -13.188  -7.510  -3.445  1.00  0.00     0.022 A 
BRANCH  70  73
ATOM     73  S   UNL     1     -13.772  -6.338  -5.862  1.00  0.00     0.127 S 
ATOM     74  O   UNL     1     -14.767  -7.290  -6.346  1.00  0.00    -0.237 OA
ATOM     75  O   UNL     1     -14.289  -5.320  -4.946  1.00  0.00    -0.237 OA
ATOM     76  O   UNL     1     -12.838  -5.820  -6.855  1.00  0.00    -0.744 OA
ENDBRANCH  70  73
ENDBRANCH  42  66
BRANCH  54  77
ATOM     77  C   UNL     1      -7.920 -14.937  -4.867  1.00  0.00     0.023 A 
ATOM     78  C   UNL     1      -8.751 -15.482  -5.866  1.00  0.00     0.012 A 
ATOM     79  C   UNL     1      -7.573 -15.718  -3.750  1.00  0.00     0.148 A 
ATOM     80  C   UNL     1      -9.246 -16.779  -5.744  1.00  0.00     0.002 A 
ATOM     81  C   UNL     1      -8.041 -17.024  -3.652  1.00  0.00     0.091 A 
ATOM     82  F   UNL     1      -6.801 -15.172  -2.799  1.00  0.00    -0.205 F 
ATOM     83  C   UNL     1      -8.882 -17.553  -4.644  1.00  0.00     0.022 A 
BRANCH  81  84
ATOM     84  S   UNL     1      -7.553 -18.109  -2.307  1.00  0.00     0.127 S 
ATOM     85  O   UNL     1      -8.707 -18.018  -1.415  1.00  0.00    -0.237 OA
ATOM     86  O   UNL     1      -7.403 -19.401  -2.978  1.00  0.00    -0.237 OA
ATOM     87  O   UNL     1      -6.308 -17.556  -1.790  1.00  0.00    -0.744 OA
ENDBRANCH  81  84
ENDBRANCH  54  77
ENDBRANCH  28  29
ENDBRANCH  21  23
ENDBRANCH  20  21
ENDBRANCH  19  20
ENDBRANCH   1  19
TORSDOF 20
