REMARK SMILES C[C@H](Sc1ccccn1)C(=O)N[C@H](C(=O)OCCOC(=O)c1ccc(-c2c3nc(c(-c4cccc(S(=O)(=O)[O-])c4F)c4ccc([nH]4)c(-c4cccc(S(=O)(=O)[O-])c4F)c4nc(c(-c5cccc(S(=O)(=O)[O-])c5F)c5ccc2[nH]5)C=C4)C=C3)cc1)c1ccc(F)cc1
REMARK SMILES IDX 17 1 16 2 14 3 15 4 13 5 12 6 10 7 11 8 2 10 1 11 3 12 4 13
REMARK SMILES IDX 5 14 9 15 6 16 8 17 7 18 85 19 86 20 91 21 87 22 90 23 88 24
REMARK SMILES IDX 89 25 18 26 19 27 20 28 21 29 22 30 23 31 84 32 24 33 83 34
REMARK SMILES IDX 25 35 26 36 27 37 77 38 28 39 82 40 76 41 78 42 29 43 81 44
REMARK SMILES IDX 75 45 74 46 30 48 62 49 42 50 61 51 43 52 46 53 60 54 79 55
REMARK SMILES IDX 44 56 45 57 59 59 80 60 47 61 31 62 32 63 40 64 33 65 35 66
REMARK SMILES IDX 41 67 34 68 36 69 37 70 38 71 39 72 63 73 64 74 72 75 65 76
REMARK SMILES IDX 67 77 73 78 66 79 68 80 69 81 70 82 71 83 48 84 49 85 57 86
REMARK SMILES IDX 50 87 52 88 58 89 51 90 53 91 54 92 55 93 56 94
REMARK H PARENT 12 9 78 47 46 58
REMARK Flexibility Score: inf
ROOT
ATOM      1  C   UNL     1      -1.247  -1.503  -1.358  1.00  0.00     0.274 C 
ENDROOT
BRANCH   1   2
ATOM      2  O   UNL     1      -0.477  -1.708  -0.150  1.00  0.00    -0.460 OA
BRANCH   2   3
ATOM      3  C   UNL     1      -1.014  -1.129   0.965  1.00  0.00     0.333 C 
ATOM      4  O   UNL     1      -2.067  -0.507   0.946  1.00  0.00    -0.249 OA
BRANCH   3   5
ATOM      5  C   UNL     1      -0.119  -1.250   2.214  1.00  0.00     0.223 C 
BRANCH   5   6
ATOM      6  N   UNL     1      -0.101   0.065   2.911  1.00  0.00    -0.338 N 
ATOM      7  C   UNL     1      -0.996   0.895   3.499  1.00  0.00     0.234 C 
ATOM      8  O   UNL     1      -0.767   2.090   3.223  1.00  0.00    -0.274 OA
ATOM      9  H   UNL     1       0.811   0.433   2.957  1.00  0.00     0.164 HD
BRANCH   7  10
ATOM     10  C   UNL     1      -2.056   0.638   4.572  1.00  0.00     0.139 C 
ATOM     11  C   UNL     1      -1.429   0.440   5.959  1.00  0.00     0.030 C 
BRANCH  10  12
ATOM     12  S   UNL     1      -3.328  -0.594   4.277  1.00  0.00    -0.093 SA
BRANCH  12  13
ATOM     13  C   UNL     1      -4.209  -0.065   2.830  1.00  0.00     0.097 A 
ATOM     14  C   UNL     1      -4.076   1.161   2.193  1.00  0.00     0.035 A 
ATOM     15  N   UNL     1      -4.973  -1.053   2.309  1.00  0.00    -0.250 NA
ATOM     16  C   UNL     1      -4.637   1.322   0.923  1.00  0.00     0.004 A 
ATOM     17  C   UNL     1      -5.515  -0.874   1.089  1.00  0.00     0.112 A 
ATOM     18  C   UNL     1      -5.349   0.277   0.347  1.00  0.00     0.020 A 
ENDBRANCH  12  13
ENDBRANCH  10  12
ENDBRANCH   7  10
ENDBRANCH   5   6
BRANCH   5  19
ATOM     19  C   UNL     1      -0.219  -2.545   2.992  1.00  0.00    -0.014 A 
ATOM     20  C   UNL     1      -0.422  -2.595   4.372  1.00  0.00     0.009 A 
ATOM     21  C   UNL     1      -0.055  -3.779   2.324  1.00  0.00     0.009 A 
ATOM     22  C   UNL     1      -0.602  -3.806   5.046  1.00  0.00     0.039 A 
ATOM     23  C   UNL     1      -0.201  -4.997   2.996  1.00  0.00     0.039 A 
ATOM     24  C   UNL     1      -0.501  -4.999   4.349  1.00  0.00     0.123 A 
ATOM     25  F   UNL     1      -0.679  -6.161   4.988  1.00  0.00    -0.207 F 
ENDBRANCH   5  19
ENDBRANCH   3   5
ENDBRANCH   2   3
ENDBRANCH   1   2
BRANCH   1  26
ATOM     26  C   UNL     1      -2.073  -2.735  -1.720  1.00  0.00     0.275 C 
BRANCH  26  27
ATOM     27  O   UNL     1      -2.962  -3.080  -0.645  1.00  0.00    -0.458 OA
BRANCH  27  28
ATOM     28  C   UNL     1      -2.785  -4.315  -0.118  1.00  0.00     0.338 C 
ATOM     29  O   UNL     1      -1.990  -5.163  -0.492  1.00  0.00    -0.246 OA
BRANCH  28  30
ATOM     30  C   UNL     1      -3.658  -4.508   1.051  1.00  0.00     0.060 A 
ATOM     31  C   UNL     1      -3.439  -3.731   2.182  1.00  0.00     0.016 A 
ATOM     32  C   UNL     1      -4.559  -5.571   1.101  1.00  0.00     0.016 A 
ATOM     33  C   UNL     1      -4.030  -4.070   3.394  1.00  0.00     0.010 A 
ATOM     34  C   UNL     1      -5.217  -5.862   2.305  1.00  0.00     0.010 A 
ATOM     35  C   UNL     1      -4.915  -5.144   3.476  1.00  0.00    -0.014 A 
BRANCH  35  36
ATOM     36  C   UNL     1      -5.382  -5.586   4.815  1.00  0.00     0.031 A 
ATOM     37  C   UNL     1      -4.876  -6.890   5.369  1.00  0.00     0.074 A 
ATOM     38  C   UNL     1      -6.172  -4.802   5.575  1.00  0.00     0.049 A 
ATOM     39  N   UNL     1      -5.199  -7.502   6.479  1.00  0.00    -0.248 NA
ATOM     40  C   UNL     1      -3.865  -7.598   4.567  1.00  0.00     0.031 C 
ATOM     41  C   UNL     1      -6.659  -3.473   5.206  1.00  0.00     0.029 A 
ATOM     42  N   UNL     1      -6.700  -5.016   6.826  1.00  0.00    -0.354 N 
ATOM     43  C   UNL     1      -4.474  -8.687   6.482  1.00  0.00     0.074 A 
ATOM     44  C   UNL     1      -3.693  -8.710   5.265  1.00  0.00     0.031 C 
ATOM     45  C   UNL     1      -7.420  -2.993   6.205  1.00  0.00     0.029 A 
ATOM     46  C   UNL     1      -7.513  -3.996   7.262  1.00  0.00     0.049 A 
ATOM     47  H   UNL     1      -6.515  -5.823   7.358  1.00  0.00     0.167 HD
ATOM     48  C   UNL     1      -4.448  -9.665   7.418  1.00  0.00     0.034 A 
ATOM     49  C   UNL     1      -8.265  -3.893   8.377  1.00  0.00     0.034 A 
ATOM     50  C   UNL     1      -5.178  -9.624   8.654  1.00  0.00     0.049 A 
ATOM     51  C   UNL     1      -8.249  -5.016   9.384  1.00  0.00     0.074 A 
ATOM     52  C   UNL     1      -5.226 -10.576   9.657  1.00  0.00     0.029 A 
ATOM     53  N   UNL     1      -5.981  -8.571   9.064  1.00  0.00    -0.354 N 
ATOM     54  N   UNL     1      -7.540  -6.119   9.386  1.00  0.00    -0.248 NA
ATOM     55  C   UNL     1      -9.122  -4.866  10.559  1.00  0.00     0.031 C 
ATOM     56  C   UNL     1      -6.071 -10.105  10.668  1.00  0.00     0.029 A 
ATOM     57  C   UNL     1      -6.529  -8.848  10.305  1.00  0.00     0.049 A 
ATOM     58  H   UNL     1      -6.138  -7.747   8.549  1.00  0.00     0.167 HD
ATOM     59  C   UNL     1      -7.852  -6.773  10.573  1.00  0.00     0.074 A 
ATOM     60  C   UNL     1      -8.797  -5.932  11.278  1.00  0.00     0.031 C 
ATOM     61  C   UNL     1      -7.412  -7.972  11.030  1.00  0.00     0.034 A 
BRANCH  48  62
ATOM     62  C   UNL     1      -3.594 -10.869   7.130  1.00  0.00     0.023 A 
ATOM     63  C   UNL     1      -2.192 -10.781   7.238  1.00  0.00     0.012 A 
ATOM     64  C   UNL     1      -4.186 -12.096   6.772  1.00  0.00     0.148 A 
ATOM     65  C   UNL     1      -1.390 -11.887   6.962  1.00  0.00     0.002 A 
ATOM     66  C   UNL     1      -3.383 -13.205   6.538  1.00  0.00     0.091 A 
ATOM     67  F   UNL     1      -5.520 -12.150   6.648  1.00  0.00    -0.205 F 
ATOM     68  C   UNL     1      -1.985 -13.100   6.622  1.00  0.00     0.022 A 
BRANCH  66  69
ATOM     69  S   UNL     1      -4.062 -14.824   6.162  1.00  0.00     0.127 S 
ATOM     70  O   UNL     1      -3.742 -14.956   4.741  1.00  0.00    -0.237 OA
ATOM     71  O   UNL     1      -3.288 -15.697   7.044  1.00  0.00    -0.237 OA
ATOM     72  O   UNL     1      -5.482 -14.748   6.479  1.00  0.00    -0.744 OA
ENDBRANCH  66  69
ENDBRANCH  48  62
BRANCH  49  73
ATOM     73  C   UNL     1      -9.090  -2.674   8.619  1.00  0.00     0.023 A 
ATOM     74  C   UNL     1      -8.771  -1.820   9.693  1.00  0.00     0.012 A 
ATOM     75  C   UNL     1     -10.199  -2.366   7.806  1.00  0.00     0.148 A 
ATOM     76  C   UNL     1      -9.560  -0.704   9.975  1.00  0.00     0.002 A 
ATOM     77  C   UNL     1     -10.947  -1.222   8.057  1.00  0.00     0.091 A 
ATOM     78  F   UNL     1     -10.505  -3.203   6.804  1.00  0.00    -0.205 F 
ATOM     79  C   UNL     1     -10.641  -0.400   9.153  1.00  0.00     0.022 A 
BRANCH  77  80
ATOM     80  S   UNL     1     -12.287  -0.693   6.985  1.00  0.00     0.127 S 
ATOM     81  O   UNL     1     -13.460  -0.970   7.811  1.00  0.00    -0.237 OA
ATOM     82  O   UNL     1     -11.987   0.728   6.802  1.00  0.00    -0.237 OA
ATOM     83  O   UNL     1     -12.163  -1.492   5.774  1.00  0.00    -0.744 OA
ENDBRANCH  77  80
ENDBRANCH  49  73
BRANCH  61  84
ATOM     84  C   UNL     1      -7.902  -8.434  12.379  1.00  0.00     0.023 A 
ATOM     85  C   UNL     1      -9.235  -8.867  12.531  1.00  0.00     0.012 A 
ATOM     86  C   UNL     1      -7.023  -8.508  13.478  1.00  0.00     0.148 A 
ATOM     87  C   UNL     1      -9.693  -9.333  13.763  1.00  0.00     0.002 A 
ATOM     88  C   UNL     1      -7.474  -9.020  14.690  1.00  0.00     0.091 A 
ATOM     89  F   UNL     1      -5.764  -8.073  13.323  1.00  0.00    -0.205 F 
ATOM     90  C   UNL     1      -8.811  -9.421  14.838  1.00  0.00     0.022 A 
BRANCH  88  91
ATOM     91  S   UNL     1      -6.377  -9.258  16.093  1.00  0.00     0.127 S 
ATOM     92  O   UNL     1      -6.714  -8.111  16.935  1.00  0.00    -0.237 OA
ATOM     93  O   UNL     1      -6.817 -10.551  16.621  1.00  0.00    -0.237 OA
ATOM     94  O   UNL     1      -5.028  -9.263  15.544  1.00  0.00    -0.744 OA
ENDBRANCH  88  91
ENDBRANCH  61  84
ENDBRANCH  35  36
ENDBRANCH  28  30
ENDBRANCH  27  28
ENDBRANCH  26  27
ENDBRANCH   1  26
TORSDOF 19
