REMARK SMILES CS(=O)(=O)c1ccc(/C=C(/C(=O)OCCOC(=O)c2ccc(-c3c4nc(c(-c5cccc(S(=O)(=O)[O-])c5F)c5ccc([nH]5)c(-c5cccc(S(=O)(=O)[O-])c5F)c5nc(c(-c6cccc(S(=O)(=O)[O-])c6F)c6ccc3[nH]6)C=C5)C=C4)cc2)c2ccc(-c3ccc(S(C)(=O)=O)cc3)cc2)cc1
REMARK SMILES IDX 14 1 13 2 11 3 12 4 10 5 9 6 8 7 5 8 6 9 99 10 7 11 98 12
REMARK SMILES IDX 2 13 1 14 3 15 4 16 82 17 83 18 97 19 84 20 96 21 85 22
REMARK SMILES IDX 86 23 87 24 95 25 88 26 94 27 89 28 90 29 91 30 92 31 93 32
REMARK SMILES IDX 15 33 16 34 17 35 18 36 19 37 20 38 81 39 21 40 80 41 22 42
REMARK SMILES IDX 23 43 24 44 74 45 25 46 79 47 73 48 75 49 26 50 78 51 72 52
REMARK SMILES IDX 71 53 27 55 59 56 39 57 58 58 40 59 43 60 57 61 76 62 41 63
REMARK SMILES IDX 42 64 56 66 77 67 44 68 28 69 29 70 37 71 30 72 32 73 38 74
REMARK SMILES IDX 31 75 33 76 34 77 35 78 36 79 60 80 61 81 69 82 62 83 64 84
REMARK SMILES IDX 70 85 63 86 65 87 66 88 67 89 68 90 45 91 46 92 54 93 47 94
REMARK SMILES IDX 49 95 55 96 48 97 50 98 51 99 52 100 53 101
REMARK H PARENT 75 54 43 65
REMARK Flexibility Score: inf
ROOT
ATOM      1  C   UNL     1       3.043  -9.562  -4.190  1.00  0.00     0.275 C 
ENDROOT
BRANCH   1   2
ATOM      2  O   UNL     1       2.853  -8.518  -3.213  1.00  0.00    -0.458 OA
BRANCH   2   3
ATOM      3  C   UNL     1       1.555  -8.225  -2.935  1.00  0.00     0.338 C 
ATOM      4  O   UNL     1       0.583  -8.720  -3.486  1.00  0.00    -0.246 OA
BRANCH   3   5
ATOM      5  C   UNL     1       1.430  -7.220  -1.838  1.00  0.00     0.067 C 
ATOM      6  C   UNL     1       2.192  -6.103  -1.890  1.00  0.00     0.024 C 
BRANCH   6   7
ATOM      7  C   UNL     1       1.998  -4.857  -1.112  1.00  0.00    -0.025 A 
ATOM      8  C   UNL     1       1.250  -2.433   0.097  1.00  0.00     0.067 A 
ATOM      9  C   UNL     1       1.185  -3.621   0.822  1.00  0.00     0.021 A 
ATOM     10  C   UNL     1       1.782  -2.426  -1.192  1.00  0.00     0.021 A 
ATOM     11  C   UNL     1       1.593  -4.816   0.228  1.00  0.00     0.009 A 
ATOM     12  C   UNL     1       2.151  -3.638  -1.790  1.00  0.00     0.009 A 
BRANCH   8  13
ATOM     13  S   UNL     1       0.589  -0.976   0.863  1.00  0.00     0.175 S 
ATOM     14  C   UNL     1       1.160   0.411  -0.072  1.00  0.00     0.163 C 
ATOM     15  O   UNL     1       1.204  -0.877   2.176  1.00  0.00    -0.224 OA
ATOM     16  O   UNL     1      -0.848  -1.039   0.704  1.00  0.00    -0.224 OA
ENDBRANCH   8  13
ENDBRANCH   6   7
BRANCH   5  17
ATOM     17  C   UNL     1       0.348  -7.414  -0.857  1.00  0.00    -0.011 A 
ATOM     18  C   UNL     1       0.625  -8.065   0.351  1.00  0.00     0.009 A 
ATOM     19  C   UNL     1      -0.935  -6.914  -1.077  1.00  0.00     0.009 A 
ATOM     20  C   UNL     1      -0.365  -8.195   1.331  1.00  0.00     0.009 A 
ATOM     21  C   UNL     1      -1.921  -7.051  -0.092  1.00  0.00     0.009 A 
ATOM     22  C   UNL     1      -1.665  -7.699   1.132  1.00  0.00    -0.018 A 
BRANCH  22  23
ATOM     23  C   UNL     1      -2.720  -7.855   2.162  1.00  0.00    -0.018 A 
ATOM     24  C   UNL     1      -2.415  -7.836   3.538  1.00  0.00     0.010 A 
ATOM     25  C   UNL     1      -4.074  -8.011   1.804  1.00  0.00     0.010 A 
ATOM     26  C   UNL     1      -3.415  -7.931   4.513  1.00  0.00     0.021 A 
ATOM     27  C   UNL     1      -5.082  -8.096   2.768  1.00  0.00     0.021 A 
ATOM     28  C   UNL     1      -4.746  -8.046   4.119  1.00  0.00     0.067 A 
BRANCH  28  29
ATOM     29  S   UNL     1      -6.028  -8.036   5.353  1.00  0.00     0.175 S 
ATOM     30  C   UNL     1      -5.713  -9.483   6.322  1.00  0.00     0.163 C 
ATOM     31  O   UNL     1      -5.789  -6.854   6.162  1.00  0.00    -0.224 OA
ATOM     32  O   UNL     1      -7.290  -8.207   4.654  1.00  0.00    -0.224 OA
ENDBRANCH  28  29
ENDBRANCH  22  23
ENDBRANCH   5  17
ENDBRANCH   3   5
ENDBRANCH   2   3
ENDBRANCH   1   2
BRANCH   1  33
ATOM     33  C   UNL     1       3.374 -10.888  -3.509  1.00  0.00     0.275 C 
BRANCH  33  34
ATOM     34  O   UNL     1       2.264 -11.312  -2.698  1.00  0.00    -0.458 OA
BRANCH  34  35
ATOM     35  C   UNL     1       2.519 -11.463  -1.379  1.00  0.00     0.338 C 
ATOM     36  O   UNL     1       3.600 -11.330  -0.822  1.00  0.00    -0.246 OA
BRANCH  35  37
ATOM     37  C   UNL     1       1.284 -11.790  -0.640  1.00  0.00     0.060 A 
ATOM     38  C   UNL     1       0.124 -11.053  -0.850  1.00  0.00     0.016 A 
ATOM     39  C   UNL     1       1.328 -12.726   0.395  1.00  0.00     0.016 A 
ATOM     40  C   UNL     1      -0.925 -11.142   0.069  1.00  0.00     0.010 A 
ATOM     41  C   UNL     1       0.223 -12.889   1.242  1.00  0.00     0.010 A 
ATOM     42  C   UNL     1      -0.896 -12.044   1.145  1.00  0.00    -0.014 A 
BRANCH  42  43
ATOM     43  C   UNL     1      -1.977 -12.057   2.190  1.00  0.00     0.031 A 
ATOM     44  C   UNL     1      -1.629 -12.053   3.666  1.00  0.00     0.074 A 
ATOM     45  C   UNL     1      -3.285 -12.065   1.854  1.00  0.00     0.049 A 
ATOM     46  N   UNL     1      -2.394 -12.306   4.701  1.00  0.00    -0.248 NA
ATOM     47  C   UNL     1      -0.235 -11.745   4.028  1.00  0.00     0.031 C 
ATOM     48  C   UNL     1      -3.815 -12.033   0.492  1.00  0.00     0.029 A 
ATOM     49  N   UNL     1      -4.414 -12.107   2.642  1.00  0.00    -0.354 N 
ATOM     50  C   UNL     1      -1.553 -12.311   5.811  1.00  0.00     0.074 A 
ATOM     51  C   UNL     1      -0.225 -11.997   5.331  1.00  0.00     0.031 C 
ATOM     52  C   UNL     1      -5.153 -11.992   0.536  1.00  0.00     0.029 A 
ATOM     53  C   UNL     1      -5.587 -12.127   1.921  1.00  0.00     0.049 A 
ATOM     54  H   UNL     1      -4.386 -12.122   3.626  1.00  0.00     0.167 HD
ATOM     55  C   UNL     1      -1.856 -12.549   7.111  1.00  0.00     0.034 A 
ATOM     56  C   UNL     1      -6.868 -12.295   2.303  1.00  0.00     0.034 A 
ATOM     57  C   UNL     1      -3.192 -12.729   7.615  1.00  0.00     0.049 A 
ATOM     58  C   UNL     1      -7.191 -12.537   3.747  1.00  0.00     0.074 A 
ATOM     59  C   UNL     1      -3.600 -12.855   8.933  1.00  0.00     0.029 A 
ATOM     60  N   UNL     1      -4.336 -12.797   6.838  1.00  0.00    -0.354 N 
ATOM     61  N   UNL     1      -6.376 -12.607   4.770  1.00  0.00    -0.248 NA
ATOM     62  C   UNL     1      -8.607 -12.724   4.091  1.00  0.00     0.031 C 
ATOM     63  C   UNL     1      -4.993 -12.980   8.953  1.00  0.00     0.029 A 
ATOM     64  C   UNL     1      -5.454 -12.915   7.649  1.00  0.00     0.049 A 
ATOM     65  H   UNL     1      -4.353 -12.766   5.854  1.00  0.00     0.167 HD
ATOM     66  C   UNL     1      -7.181 -12.825   5.881  1.00  0.00     0.074 A 
ATOM     67  C   UNL     1      -8.549 -12.863   5.408  1.00  0.00     0.031 C 
ATOM     68  C   UNL     1      -6.813 -12.966   7.177  1.00  0.00     0.034 A 
BRANCH  55  69
ATOM     69  C   UNL     1      -0.727 -12.594   8.111  1.00  0.00     0.023 A 
ATOM     70  C   UNL     1      -0.113 -11.401   8.538  1.00  0.00     0.012 A 
ATOM     71  C   UNL     1      -0.342 -13.817   8.698  1.00  0.00     0.148 A 
ATOM     72  C   UNL     1       0.884 -11.427   9.514  1.00  0.00     0.002 A 
ATOM     73  C   UNL     1       0.623 -13.830   9.700  1.00  0.00     0.091 A 
ATOM     74  F   UNL     1      -0.923 -14.946   8.265  1.00  0.00    -0.205 F 
ATOM     75  C   UNL     1       1.243 -12.637  10.103  1.00  0.00     0.022 A 
BRANCH  73  76
ATOM     76  S   UNL     1       1.082 -15.333  10.572  1.00  0.00     0.127 S 
ATOM     77  O   UNL     1       2.363 -15.657   9.948  1.00  0.00    -0.237 OA
ATOM     78  O   UNL     1       1.178 -14.873  11.959  1.00  0.00    -0.237 OA
ATOM     79  O   UNL     1       0.002 -16.279  10.326  1.00  0.00    -0.744 OA
ENDBRANCH  73  76
ENDBRANCH  55  69
BRANCH  56  80
ATOM     80  C   UNL     1      -7.946 -12.242   1.276  1.00  0.00     0.023 A 
ATOM     81  C   UNL     1      -8.817 -11.137   1.244  1.00  0.00     0.012 A 
ATOM     82  C   UNL     1      -8.058 -13.237   0.285  1.00  0.00     0.148 A 
ATOM     83  C   UNL     1      -9.783 -11.028   0.243  1.00  0.00     0.002 A 
ATOM     84  C   UNL     1      -8.973 -13.084  -0.749  1.00  0.00     0.091 A 
ATOM     85  F   UNL     1      -7.242 -14.299   0.352  1.00  0.00    -0.205 F 
ATOM     86  C   UNL     1      -9.848 -11.989  -0.764  1.00  0.00     0.022 A 
BRANCH  84  87
ATOM     87  S   UNL     1      -8.973 -14.187  -2.168  1.00  0.00     0.127 S 
ATOM     88  O   UNL     1     -10.059 -15.104  -1.838  1.00  0.00    -0.237 OA
ATOM     89  O   UNL     1      -9.253 -13.271  -3.275  1.00  0.00    -0.237 OA
ATOM     90  O   UNL     1      -7.633 -14.760  -2.201  1.00  0.00    -0.744 OA
ENDBRANCH  84  87
ENDBRANCH  56  80
BRANCH  68  91
ATOM     91  C   UNL     1      -7.909 -13.166   8.188  1.00  0.00     0.023 A 
ATOM     92  C   UNL     1      -8.557 -14.412   8.279  1.00  0.00     0.012 A 
ATOM     93  C   UNL     1      -8.265 -12.133   9.078  1.00  0.00     0.148 A 
ATOM     94  C   UNL     1      -9.562 -14.620   9.222  1.00  0.00     0.002 A 
ATOM     95  C   UNL     1      -9.238 -12.361  10.044  1.00  0.00     0.091 A 
ATOM     96  F   UNL     1      -7.652 -10.946   8.958  1.00  0.00    -0.205 F 
ATOM     97  C   UNL     1      -9.895 -13.600  10.111  1.00  0.00     0.022 A 
BRANCH  95  98
ATOM     98  S   UNL     1      -9.660 -11.131  11.282  1.00  0.00     0.127 S 
ATOM     99  O   UNL     1     -10.924 -10.610  10.767  1.00  0.00    -0.237 OA
ATOM    100  O   UNL     1      -9.782 -11.938  12.497  1.00  0.00    -0.237 OA
ATOM    101  O   UNL     1      -8.546 -10.191  11.296  1.00  0.00    -0.744 OA
ENDBRANCH  95  98
ENDBRANCH  68  91
ENDBRANCH  42  43
ENDBRANCH  35  37
ENDBRANCH  34  35
ENDBRANCH  33  34
ENDBRANCH   1  33
TORSDOF 19
