REMARK SMILES O=C(/C=C\N1[C@@H]2CC[C@H]1C[C@H](O)C2)OCCOC(=O)c1ccc(-c2c3nc(c(-c4cccc(S(=O)(=O)[O-])c4F)c4ccc([nH]4)c(-c4cccc(S(=O)(=O)[O-])c4F)c4nc(c(-c5cccc(S(=O)(=O)[O-])c5F)c5ccc2[nH]5)C=C4)C=C3)cc1
REMARK SMILES IDX 16 1 15 2 14 3 2 4 1 5 3 6 4 7 5 8 6 9 9 10 7 11 13 12 8 13
REMARK SMILES IDX 10 14 11 15 12 16 17 18 18 19 19 20 20 21 21 22 82 23 22 24
REMARK SMILES IDX 81 25 23 26 24 27 25 28 75 29 26 30 80 31 74 32 76 33 27 34
REMARK SMILES IDX 79 35 73 36 72 37 28 39 60 40 40 41 59 42 41 43 44 44 58 45
REMARK SMILES IDX 77 46 42 47 43 48 57 50 78 51 45 52 29 53 30 54 38 55 31 56
REMARK SMILES IDX 33 57 39 58 32 59 34 60 35 61 36 62 37 63 61 64 62 65 70 66
REMARK SMILES IDX 63 67 65 68 71 69 64 70 66 71 67 72 68 73 69 74 46 75 47 76
REMARK SMILES IDX 55 77 48 78 50 79 56 80 49 81 51 82 52 83 53 84 54 85
REMARK H PARENT 12 17 76 38 44 49
REMARK Flexibility Score: inf
ROOT
ATOM      1  C   UNL     1       3.333  -1.341   2.104  1.00  0.00     0.275 C 
ENDROOT
BRANCH   1   2
ATOM      2  C   UNL     1       2.624  -0.029   1.743  1.00  0.00     0.275 C 
BRANCH   2   3
ATOM      3  O   UNL     1       1.815  -0.049   0.564  1.00  0.00    -0.459 OA
BRANCH   3   4
ATOM      4  C   UNL     1       2.318   0.311  -0.637  1.00  0.00     0.332 C 
ATOM      5  O   UNL     1       1.607   0.843  -1.484  1.00  0.00    -0.247 OA
BRANCH   4   6
ATOM      6  C   UNL     1       3.613  -0.259  -1.044  1.00  0.00     0.111 C 
ATOM      7  C   UNL     1       4.899   0.051  -0.837  1.00  0.00     0.089 C 
BRANCH   7   8
ATOM      8  N   UNL     1       5.646   0.970  -0.135  1.00  0.00    -0.371 N 
ATOM      9  C   UNL     1       6.720   1.738  -0.771  1.00  0.00     0.084 C 
ATOM     10  C   UNL     1       5.713   1.336   1.272  1.00  0.00     0.084 C 
ATOM     11  C   UNL     1       7.866   1.709   0.252  1.00  0.00     0.027 C 
ATOM     12  C   UNL     1       6.146   3.144  -0.976  1.00  0.00     0.056 C 
ATOM     13  C   UNL     1       7.219   1.279   1.559  1.00  0.00     0.027 C 
ATOM     14  C   UNL     1       5.187   2.767   1.448  1.00  0.00     0.056 C 
ATOM     15  C   UNL     1       5.207   3.604   0.160  1.00  0.00     0.118 C 
BRANCH  15  16
ATOM     16  O   UNL     1       3.864   3.661  -0.341  1.00  0.00    -0.393 OA
ATOM     17  H   UNL     1       3.570   2.769  -0.582  1.00  0.00     0.210 HD
ENDBRANCH  15  16
ENDBRANCH   7   8
ENDBRANCH   4   6
ENDBRANCH   3   4
ENDBRANCH   2   3
ENDBRANCH   1   2
BRANCH   1  18
ATOM     18  O   UNL     1       3.243  -2.325   1.086  1.00  0.00    -0.458 OA
BRANCH  18  19
ATOM     19  C   UNL     1       2.003  -2.845   0.954  1.00  0.00     0.338 C 
ATOM     20  O   UNL     1       1.051  -2.697   1.702  1.00  0.00    -0.246 OA
BRANCH  19  21
ATOM     21  C   UNL     1       1.959  -3.471  -0.367  1.00  0.00     0.060 A 
ATOM     22  C   UNL     1       0.905  -3.137  -1.224  1.00  0.00     0.016 A 
ATOM     23  C   UNL     1       2.956  -4.375  -0.741  1.00  0.00     0.016 A 
ATOM     24  C   UNL     1       0.786  -3.800  -2.437  1.00  0.00     0.010 A 
ATOM     25  C   UNL     1       2.843  -5.026  -1.958  1.00  0.00     0.010 A 
ATOM     26  C   UNL     1       1.720  -4.789  -2.767  1.00  0.00    -0.014 A 
BRANCH  26  27
ATOM     27  C   UNL     1       1.412  -5.771  -3.818  1.00  0.00     0.031 A 
ATOM     28  C   UNL     1       0.921  -7.119  -3.377  1.00  0.00     0.074 A 
ATOM     29  C   UNL     1       1.653  -5.485  -5.104  1.00  0.00     0.049 A 
ATOM     30  N   UNL     1       0.728  -8.201  -4.078  1.00  0.00    -0.248 NA
ATOM     31  C   UNL     1       0.642  -7.276  -1.937  1.00  0.00     0.031 C 
ATOM     32  C   UNL     1       2.148  -4.203  -5.602  1.00  0.00     0.029 A 
ATOM     33  N   UNL     1       1.564  -6.277  -6.215  1.00  0.00    -0.354 N 
ATOM     34  C   UNL     1       0.357  -9.177  -3.162  1.00  0.00     0.074 A 
ATOM     35  C   UNL     1       0.368  -8.567  -1.853  1.00  0.00     0.031 C 
ATOM     36  C   UNL     1       2.372  -4.312  -6.922  1.00  0.00     0.029 A 
ATOM     37  C   UNL     1       2.065  -5.677  -7.343  1.00  0.00     0.049 A 
ATOM     38  H   UNL     1       1.180  -7.184  -6.207  1.00  0.00     0.167 HD
ATOM     39  C   UNL     1       0.033 -10.469  -3.399  1.00  0.00     0.034 A 
ATOM     40  C   UNL     1       2.289  -6.195  -8.565  1.00  0.00     0.034 A 
ATOM     41  C   UNL     1       0.027 -11.041  -4.715  1.00  0.00     0.049 A 
ATOM     42  C   UNL     1       1.909  -7.628  -8.816  1.00  0.00     0.074 A 
ATOM     43  C   UNL     1      -0.354 -12.311  -5.103  1.00  0.00     0.029 A 
ATOM     44  N   UNL     1       0.448 -10.377  -5.859  1.00  0.00    -0.354 N 
ATOM     45  N   UNL     1       1.439  -8.515  -7.971  1.00  0.00    -0.248 NA
ATOM     46  C   UNL     1       2.050  -8.123 -10.191  1.00  0.00     0.031 C 
ATOM     47  C   UNL     1      -0.117 -12.429  -6.476  1.00  0.00     0.029 A 
ATOM     48  C   UNL     1       0.357 -11.215  -6.953  1.00  0.00     0.049 A 
ATOM     49  H   UNL     1       0.764  -9.445  -5.887  1.00  0.00     0.167 HD
ATOM     50  C   UNL     1       1.189  -9.662  -8.715  1.00  0.00     0.074 A 
ATOM     51  C   UNL     1       1.560  -9.352 -10.083  1.00  0.00     0.031 C 
ATOM     52  C   UNL     1       0.697 -10.859  -8.309  1.00  0.00     0.034 A 
BRANCH  39  53
ATOM     53  C   UNL     1      -0.322 -11.327  -2.212  1.00  0.00     0.023 A 
ATOM     54  C   UNL     1      -1.495 -11.069  -1.472  1.00  0.00     0.012 A 
ATOM     55  C   UNL     1       0.516 -12.390  -1.822  1.00  0.00     0.148 A 
ATOM     56  C   UNL     1      -1.797 -11.815  -0.333  1.00  0.00     0.002 A 
ATOM     57  C   UNL     1       0.179 -13.165  -0.719  1.00  0.00     0.091 A 
ATOM     58  F   UNL     1       1.642 -12.607  -2.517  1.00  0.00    -0.205 F 
ATOM     59  C   UNL     1      -0.966 -12.868   0.038  1.00  0.00     0.022 A 
BRANCH  57  60
ATOM     60  S   UNL     1       1.144 -14.592  -0.213  1.00  0.00     0.127 S 
ATOM     61  O   UNL     1       1.784 -14.100   1.006  1.00  0.00    -0.237 OA
ATOM     62  O   UNL     1       0.107 -15.601   0.008  1.00  0.00    -0.237 OA
ATOM     63  O   UNL     1       2.044 -14.882  -1.320  1.00  0.00    -0.744 OA
ENDBRANCH  57  60
ENDBRANCH  39  53
BRANCH  40  64
ATOM     64  C   UNL     1       2.872  -5.328  -9.623  1.00  0.00     0.023 A 
ATOM     65  C   UNL     1       2.057  -4.860 -10.669  1.00  0.00     0.012 A 
ATOM     66  C   UNL     1       4.208  -4.886  -9.536  1.00  0.00     0.148 A 
ATOM     67  C   UNL     1       2.565  -3.975 -11.621  1.00  0.00     0.002 A 
ATOM     68  C   UNL     1       4.691  -3.963 -10.456  1.00  0.00     0.091 A 
ATOM     69  F   UNL     1       4.963  -5.346  -8.530  1.00  0.00    -0.205 F 
ATOM     70  C   UNL     1       3.876  -3.517 -11.507  1.00  0.00     0.022 A 
BRANCH  68  71
ATOM     71  S   UNL     1       6.318  -3.215 -10.311  1.00  0.00     0.127 S 
ATOM     72  O   UNL     1       6.983  -3.708 -11.514  1.00  0.00    -0.237 OA
ATOM     73  O   UNL     1       5.993  -1.788 -10.327  1.00  0.00    -0.237 OA
ATOM     74  O   UNL     1       6.867  -3.695  -9.050  1.00  0.00    -0.744 OA
ENDBRANCH  68  71
ENDBRANCH  40  64
BRANCH  52  75
ATOM     75  C   UNL     1       0.473 -11.914  -9.359  1.00  0.00     0.023 A 
ATOM     76  C   UNL     1       1.566 -12.596  -9.925  1.00  0.00     0.012 A 
ATOM     77  C   UNL     1      -0.840 -12.302  -9.692  1.00  0.00     0.148 A 
ATOM     78  C   UNL     1       1.354 -13.638 -10.828  1.00  0.00     0.002 A 
ATOM     79  C   UNL     1      -1.043 -13.376 -10.546  1.00  0.00     0.091 A 
ATOM     80  F   UNL     1      -1.863 -11.626  -9.150  1.00  0.00    -0.205 F 
ATOM     81  C   UNL     1       0.052 -14.037 -11.126  1.00  0.00     0.022 A 
BRANCH  79  82
ATOM     82  S   UNL     1      -2.678 -14.030 -10.898  1.00  0.00     0.127 S 
ATOM     83  O   UNL     1      -2.841 -13.680 -12.308  1.00  0.00    -0.237 OA
ATOM     84  O   UNL     1      -2.500 -15.459 -10.640  1.00  0.00    -0.237 OA
ATOM     85  O   UNL     1      -3.589 -13.357  -9.982  1.00  0.00    -0.744 OA
ENDBRANCH  79  82
ENDBRANCH  52  75
ENDBRANCH  26  27
ENDBRANCH  19  21
ENDBRANCH  18  19
ENDBRANCH   1  18
TORSDOF 16
