REMARK SMILES CC(C)[C@H](NC(=O)N1c2ccccc2N=C(OCCOC(=O)c2ccc(-c3c4nc(c(-c5cccc(S(=O)(=O)[O-])c5F)c5ccc([nH]5)c(-c5cccc(S(=O)(=O)[O-])c5F)c5nc(c(-c6cccc(S(=O)(=O)[O-])c6F)c6ccc3[nH]6)C=C5)C=C4)cc2)[C@@H]1C(C)C)C(=O)N1CCC(C(=O)[O-])CC1
REMARK SMILES IDX 18 1 17 2 16 3 8 4 9 5 86 6 10 7 14 8 11 9 13 10 15 11 12 12
REMARK SMILES IDX 6 13 5 14 7 16 4 17 2 18 1 19 3 20 90 21 91 22 92 23 93 24
REMARK SMILES IDX 100 25 94 26 99 27 95 28 96 29 97 30 98 31 87 32 88 33 89 34
REMARK SMILES IDX 19 35 20 36 21 37 22 38 23 39 24 40 85 41 25 42 84 43 26 44
REMARK SMILES IDX 27 45 28 46 78 47 29 48 83 49 77 50 79 51 30 52 82 53 76 54
REMARK SMILES IDX 75 55 31 57 63 58 43 59 62 60 44 61 47 62 61 63 80 64 45 65
REMARK SMILES IDX 46 66 60 68 81 69 48 70 32 71 33 72 41 73 34 74 36 75 42 76
REMARK SMILES IDX 35 77 37 78 38 79 39 80 40 81 64 82 65 83 73 84 66 85 68 86
REMARK SMILES IDX 74 87 67 88 69 89 70 90 71 91 72 92 49 93 50 94 58 95 51 96
REMARK SMILES IDX 53 97 59 98 52 99 54 100 55 101 56 102 57 103
REMARK H PARENT 5 15 79 56 47 67
REMARK Flexibility Score: inf
ROOT
ATOM      1  C   UNL     1      -0.858   3.296  -4.803  1.00  0.00     0.272 C 
ENDROOT
BRANCH   1   2
ATOM      2  O   UNL     1       0.054   2.340  -4.196  1.00  0.00    -0.476 OA
BRANCH   2   3
ATOM      3  C   UNL     1       0.367   2.526  -2.894  1.00  0.00     0.212 C 
ATOM      4  N   UNL     1       0.894   1.060  -1.054  1.00  0.00    -0.280 N 
ATOM      5  C   UNL     1       0.467   2.156  -0.173  1.00  0.00     0.072 A 
ATOM      6  C   UNL     1       1.493   1.664  -2.289  1.00  0.00     0.181 C 
ATOM      7  C   UNL     1       0.427   2.063   1.219  1.00  0.00     0.029 A 
ATOM      8  C   UNL     1      -0.057   3.334  -0.793  1.00  0.00     0.091 A 
ATOM      9  C   UNL     1      -0.159   3.092   1.974  1.00  0.00     0.002 A 
ATOM     10  C   UNL     1      -0.639   4.346  -0.027  1.00  0.00     0.030 A 
ATOM     11  N   UNL     1      -0.264   3.402  -2.183  1.00  0.00    -0.214 NA
ATOM     12  C   UNL     1      -0.700   4.220   1.355  1.00  0.00     0.002 A 
BRANCH   4  13
ATOM     13  C   UNL     1       1.371  -0.113  -0.518  1.00  0.00     0.323 C 
ATOM     14  N   UNL     1       0.809  -1.312  -0.901  1.00  0.00    -0.326 N 
ATOM     15  H   UNL     1       1.423  -1.983  -1.278  1.00  0.00     0.166 HD
ATOM     16  O   UNL     1       2.372  -0.157   0.201  1.00  0.00    -0.248 OA
BRANCH  14  17
ATOM     17  C   UNL     1      -0.615  -1.701  -0.808  1.00  0.00     0.175 C 
BRANCH  17  18
ATOM     18  C   UNL     1      -1.543  -1.252  -1.970  1.00  0.00     0.015 C 
ATOM     19  C   UNL     1      -1.305  -1.847  -3.355  1.00  0.00     0.010 C 
ATOM     20  C   UNL     1      -3.008  -1.522  -1.569  1.00  0.00     0.010 C 
ENDBRANCH  17  18
BRANCH  17  21
ATOM     21  C   UNL     1      -0.943  -3.205  -0.473  1.00  0.00     0.245 C 
ATOM     22  O   UNL     1      -1.652  -3.465   0.505  1.00  0.00    -0.272 OA
ATOM     23  N   UNL     1      -0.713  -4.177  -1.438  1.00  0.00    -0.341 N 
ATOM     24  C   UNL     1      -1.829  -5.046  -1.825  1.00  0.00     0.120 C 
ATOM     25  C   UNL     1       0.543  -4.367  -2.143  1.00  0.00     0.120 C 
ATOM     26  C   UNL     1      -1.462  -6.517  -1.857  1.00  0.00     0.031 C 
ATOM     27  C   UNL     1       0.959  -5.836  -2.093  1.00  0.00     0.031 C 
ATOM     28  C   UNL     1      -0.159  -6.738  -2.627  1.00  0.00     0.038 C 
BRANCH  28  29
ATOM     29  C   UNL     1       0.246  -8.185  -2.571  1.00  0.00     0.045 C 
ATOM     30  O   UNL     1       0.474  -8.898  -3.542  1.00  0.00    -0.550 OA
ATOM     31  O   UNL     1       0.362  -8.668  -1.324  1.00  0.00    -0.550 OA
ENDBRANCH  28  29
ENDBRANCH  17  21
ENDBRANCH  14  17
ENDBRANCH   4  13
BRANCH   6  32
ATOM     32  C   UNL     1       2.377   0.845  -3.268  1.00  0.00     0.015 C 
ATOM     33  C   UNL     1       3.045   1.803  -4.285  1.00  0.00     0.010 C 
ATOM     34  C   UNL     1       3.545   0.124  -2.569  1.00  0.00     0.010 C 
ENDBRANCH   6  32
ENDBRANCH   2   3
ENDBRANCH   1   2
BRANCH   1  35
ATOM     35  C   UNL     1      -2.326   2.853  -4.787  1.00  0.00     0.274 C 
BRANCH  35  36
ATOM     36  O   UNL     1      -2.898   2.919  -3.458  1.00  0.00    -0.458 OA
BRANCH  36  37
ATOM     37  C   UNL     1      -3.399   1.745  -3.003  1.00  0.00     0.338 C 
ATOM     38  O   UNL     1      -3.458   0.715  -3.659  1.00  0.00    -0.246 OA
BRANCH  37  39
ATOM     39  C   UNL     1      -3.761   1.757  -1.559  1.00  0.00     0.060 A 
ATOM     40  C   UNL     1      -2.728   1.548  -0.661  1.00  0.00     0.016 A 
ATOM     41  C   UNL     1      -5.065   1.594  -1.092  1.00  0.00     0.016 A 
ATOM     42  C   UNL     1      -2.946   1.183   0.666  1.00  0.00     0.010 A 
ATOM     43  C   UNL     1      -5.304   1.248   0.267  1.00  0.00     0.010 A 
ATOM     44  C   UNL     1      -4.240   1.026   1.158  1.00  0.00    -0.014 A 
BRANCH  44  45
ATOM     45  C   UNL     1      -4.352   0.670   2.603  1.00  0.00     0.031 A 
ATOM     46  C   UNL     1      -4.502  -0.752   3.078  1.00  0.00     0.074 A 
ATOM     47  C   UNL     1      -4.039   1.619   3.510  1.00  0.00     0.049 A 
ATOM     48  N   UNL     1      -4.523  -1.214   4.305  1.00  0.00    -0.248 NA
ATOM     49  C   UNL     1      -4.604  -1.792   2.049  1.00  0.00     0.031 C 
ATOM     50  C   UNL     1      -3.700   3.000   3.174  1.00  0.00     0.029 A 
ATOM     51  N   UNL     1      -3.893   1.562   4.874  1.00  0.00    -0.354 N 
ATOM     52  C   UNL     1      -4.687  -2.592   4.196  1.00  0.00     0.074 A 
ATOM     53  C   UNL     1      -4.691  -2.896   2.781  1.00  0.00     0.031 C 
ATOM     54  C   UNL     1      -3.334   3.646   4.290  1.00  0.00     0.029 A 
ATOM     55  C   UNL     1      -3.518   2.760   5.436  1.00  0.00     0.049 A 
ATOM     56  H   UNL     1      -4.041   0.742   5.400  1.00  0.00     0.167 HD
ATOM     57  C   UNL     1      -4.862  -3.509   5.182  1.00  0.00     0.034 A 
ATOM     58  C   UNL     1      -3.390   3.130   6.726  1.00  0.00     0.034 A 
ATOM     59  C   UNL     1      -4.864  -3.199   6.591  1.00  0.00     0.049 A 
ATOM     60  C   UNL     1      -3.681   2.121   7.801  1.00  0.00     0.074 A 
ATOM     61  C   UNL     1      -5.130  -4.039   7.660  1.00  0.00     0.029 A 
ATOM     62  N   UNL     1      -4.595  -1.951   7.130  1.00  0.00    -0.354 N 
ATOM     63  N   UNL     1      -3.928   0.839   7.684  1.00  0.00    -0.248 NA
ATOM     64  C   UNL     1      -3.691   2.613   9.185  1.00  0.00     0.031 C 
ATOM     65  C   UNL     1      -5.071  -3.286   8.839  1.00  0.00     0.029 A 
ATOM     66  C   UNL     1      -4.710  -1.990   8.511  1.00  0.00     0.049 A 
ATOM     67  H   UNL     1      -4.356  -1.151   6.607  1.00  0.00     0.167 HD
ATOM     68  C   UNL     1      -4.130   0.371   8.977  1.00  0.00     0.074 A 
ATOM     69  C   UNL     1      -3.920   1.498   9.864  1.00  0.00     0.031 C 
ATOM     70  C   UNL     1      -4.487  -0.870   9.390  1.00  0.00     0.034 A 
BRANCH  57  71
ATOM     71  C   UNL     1      -5.177  -4.926   4.770  1.00  0.00     0.023 A 
ATOM     72  C   UNL     1      -4.172  -5.782   4.280  1.00  0.00     0.012 A 
ATOM     73  C   UNL     1      -6.491  -5.420   4.917  1.00  0.00     0.148 A 
ATOM     74  C   UNL     1      -4.476  -7.097   3.919  1.00  0.00     0.002 A 
ATOM     75  C   UNL     1      -6.778  -6.740   4.593  1.00  0.00     0.091 A 
ATOM     76  F   UNL     1      -7.438  -4.584   5.367  1.00  0.00    -0.205 F 
ATOM     77  C   UNL     1      -5.774  -7.578   4.084  1.00  0.00     0.022 A 
BRANCH  75  78
ATOM     78  S   UNL     1      -8.406  -7.463   4.830  1.00  0.00     0.127 S 
ATOM     79  O   UNL     1      -8.839  -7.675   3.450  1.00  0.00    -0.237 OA
ATOM     80  O   UNL     1      -8.094  -8.689   5.565  1.00  0.00    -0.237 OA
ATOM     81  O   UNL     1      -9.180  -6.484   5.580  1.00  0.00    -0.744 OA
ENDBRANCH  75  78
ENDBRANCH  57  71
BRANCH  58  82
ATOM     82  C   UNL     1      -3.052   4.543   7.070  1.00  0.00     0.023 A 
ATOM     83  C   UNL     1      -1.881   4.847   7.791  1.00  0.00     0.012 A 
ATOM     84  C   UNL     1      -3.895   5.597   6.665  1.00  0.00     0.148 A 
ATOM     85  C   UNL     1      -1.568   6.171   8.109  1.00  0.00     0.002 A 
ATOM     86  C   UNL     1      -3.530   6.914   6.903  1.00  0.00     0.091 A 
ATOM     87  F   UNL     1      -5.039   5.293   6.035  1.00  0.00    -0.205 F 
ATOM     88  C   UNL     1      -2.378   7.205   7.646  1.00  0.00     0.022 A 
BRANCH  86  89
ATOM     89  S   UNL     1      -4.424   8.286   6.165  1.00  0.00     0.127 S 
ATOM     90  O   UNL     1      -5.155   8.819   7.311  1.00  0.00    -0.237 OA
ATOM     91  O   UNL     1      -3.333   9.132   5.678  1.00  0.00    -0.237 OA
ATOM     92  O   UNL     1      -5.234   7.696   5.107  1.00  0.00    -0.744 OA
ENDBRANCH  86  89
ENDBRANCH  58  82
BRANCH  70  93
ATOM     93  C   UNL     1      -4.659  -1.073  10.874  1.00  0.00     0.023 A 
ATOM     94  C   UNL     1      -5.739  -0.467  11.549  1.00  0.00     0.012 A 
ATOM     95  C   UNL     1      -3.753  -1.870  11.601  1.00  0.00     0.148 A 
ATOM     96  C   UNL     1      -5.880  -0.601  12.930  1.00  0.00     0.002 A 
ATOM     97  C   UNL     1      -3.931  -2.044  12.969  1.00  0.00     0.091 A 
ATOM     98  F   UNL     1      -2.721  -2.425  10.950  1.00  0.00    -0.205 F 
ATOM     99  C   UNL     1      -4.982  -1.395  13.638  1.00  0.00     0.022 A 
BRANCH  97 100
ATOM    100  S   UNL     1      -2.876  -3.122  13.943  1.00  0.00     0.127 S 
ATOM    101  O   UNL     1      -2.054  -2.156  14.670  1.00  0.00    -0.237 OA
ATOM    102  O   UNL     1      -3.846  -3.842  14.770  1.00  0.00    -0.237 OA
ATOM    103  O   UNL     1      -2.165  -3.957  12.985  1.00  0.00    -0.744 OA
ENDBRANCH  97 100
ENDBRANCH  70  93
ENDBRANCH  44  45
ENDBRANCH  37  39
ENDBRANCH  36  37
ENDBRANCH  35  36
ENDBRANCH   1  35
TORSDOF 19
