REMARK SMILES CC(C)([NH2+]C[C@@H]1COc2ccccc21)C(=O)OCCOC(=O)c1ccc(-c2c3nc(c(-c4cccc(S(=O)(=O)[O-])c4F)c4ccc([nH]4)c(-c4cccc(S(=O)(=O)[O-])c4F)c4nc(c(-c5cccc(S(=O)(=O)[O-])c5F)c5ccc2[nH]5)C=C4)C=C3)cc1
REMARK SMILES IDX 18 1 17 2 15 3 16 4 2 5 1 6 3 7 4 8 5 11 6 12 7 13 14 14
REMARK SMILES IDX 8 15 9 16 13 17 10 18 12 19 11 20 19 21 20 22 21 23 22 24
REMARK SMILES IDX 23 25 24 26 85 27 25 28 84 29 26 30 27 31 28 32 78 33 29 34
REMARK SMILES IDX 83 35 77 36 79 37 30 38 82 39 76 40 75 41 31 43 63 44 43 45
REMARK SMILES IDX 62 46 44 47 47 48 61 49 80 50 45 51 46 52 60 54 81 55 48 56
REMARK SMILES IDX 32 57 33 58 41 59 34 60 36 61 42 62 35 63 37 64 38 65 39 66
REMARK SMILES IDX 40 67 64 68 65 69 73 70 66 71 68 72 74 73 67 74 69 75 70 76
REMARK SMILES IDX 71 77 72 78 49 79 50 80 58 81 51 82 53 83 59 84 52 85 54 86
REMARK SMILES IDX 55 87 56 88 57 89
REMARK H PARENT 4 9 4 10 79 42 47 53
REMARK Flexibility Score: inf
ROOT
ATOM      1  C   UNL     1       0.430   6.236  -1.045  1.00  0.00     0.274 C 
ENDROOT
BRANCH   1   2
ATOM      2  O   UNL     1      -0.579   5.238  -0.774  1.00  0.00    -0.457 OA
BRANCH   2   3
ATOM      3  C   UNL     1      -1.687   5.641  -0.089  1.00  0.00     0.367 C 
ATOM      4  O   UNL     1      -1.920   6.808   0.205  1.00  0.00    -0.245 OA
BRANCH   3   5
ATOM      5  C   UNL     1      -2.622   4.465   0.299  1.00  0.00     0.188 C 
ATOM      6  C   UNL     1      -3.501   4.137  -0.922  1.00  0.00     0.092 C 
ATOM      7  C   UNL     1      -3.597   4.878   1.421  1.00  0.00     0.092 C 
BRANCH   5   8
ATOM      8  N   UNL     1      -1.911   3.209   0.643  1.00  0.00    -0.332 N 
ATOM      9  H   UNL     1      -1.687   2.752  -0.240  1.00  0.00     0.347 HD
ATOM     10  H   UNL     1      -2.567   2.748   1.274  1.00  0.00     0.347 HD
BRANCH   8  11
ATOM     11  C   UNL     1      -0.671   3.229   1.428  1.00  0.00     0.273 C 
BRANCH  11  12
ATOM     12  C   UNL     1      -0.696   3.910   2.798  1.00  0.00     0.116 C 
ATOM     13  C   UNL     1      -0.386   5.417   2.787  1.00  0.00     0.244 C 
ATOM     14  C   UNL     1       0.355   3.522   3.787  1.00  0.00     0.006 A 
ATOM     15  O   UNL     1       0.061   5.792   4.110  1.00  0.00    -0.492 OA
ATOM     16  C   UNL     1       0.656   4.642   4.556  1.00  0.00     0.123 A 
ATOM     17  C   UNL     1       0.907   2.293   4.100  1.00  0.00     0.008 A 
ATOM     18  C   UNL     1       1.453   4.581   5.677  1.00  0.00     0.047 A 
ATOM     19  C   UNL     1       1.748   2.215   5.216  1.00  0.00     0.001 A 
ATOM     20  C   UNL     1       2.005   3.346   6.009  1.00  0.00     0.004 A 
ENDBRANCH  11  12
ENDBRANCH   8  11
ENDBRANCH   5   8
ENDBRANCH   3   5
ENDBRANCH   2   3
ENDBRANCH   1   2
BRANCH   1  21
ATOM     21  C   UNL     1       0.750   6.259  -2.534  1.00  0.00     0.275 C 
BRANCH  21  22
ATOM     22  O   UNL     1      -0.421   6.721  -3.218  1.00  0.00    -0.458 OA
BRANCH  22  23
ATOM     23  C   UNL     1      -1.038   5.831  -4.024  1.00  0.00     0.338 C 
ATOM     24  O   UNL     1      -0.612   4.758  -4.424  1.00  0.00    -0.246 OA
BRANCH  23  25
ATOM     25  C   UNL     1      -2.389   6.339  -4.295  1.00  0.00     0.060 A 
ATOM     26  C   UNL     1      -3.223   6.637  -3.216  1.00  0.00     0.016 A 
ATOM     27  C   UNL     1      -2.853   6.464  -5.599  1.00  0.00     0.016 A 
ATOM     28  C   UNL     1      -4.547   6.992  -3.428  1.00  0.00     0.010 A 
ATOM     29  C   UNL     1      -4.150   6.936  -5.813  1.00  0.00     0.010 A 
ATOM     30  C   UNL     1      -5.014   7.191  -4.730  1.00  0.00    -0.014 A 
BRANCH  30  31
ATOM     31  C   UNL     1      -6.392   7.693  -4.966  1.00  0.00     0.031 A 
ATOM     32  C   UNL     1      -7.335   6.907  -5.831  1.00  0.00     0.074 A 
ATOM     33  C   UNL     1      -6.774   8.877  -4.445  1.00  0.00     0.049 A 
ATOM     34  N   UNL     1      -8.462   7.283  -6.373  1.00  0.00    -0.248 NA
ATOM     35  C   UNL     1      -6.949   5.521  -6.144  1.00  0.00     0.031 C 
ATOM     36  C   UNL     1      -5.960   9.719  -3.564  1.00  0.00     0.029 A 
ATOM     37  N   UNL     1      -7.934   9.594  -4.603  1.00  0.00    -0.354 N 
ATOM     38  C   UNL     1      -8.876   6.216  -7.160  1.00  0.00     0.074 A 
ATOM     39  C   UNL     1      -7.894   5.165  -7.003  1.00  0.00     0.031 C 
ATOM     40  C   UNL     1      -6.643  10.829  -3.255  1.00  0.00     0.029 A 
ATOM     41  C   UNL     1      -7.898  10.828  -3.994  1.00  0.00     0.049 A 
ATOM     42  H   UNL     1      -8.714   9.259  -5.102  1.00  0.00     0.167 HD
ATOM     43  C   UNL     1      -9.976   6.128  -7.944  1.00  0.00     0.034 A 
ATOM     44  C   UNL     1      -8.744  11.873  -4.074  1.00  0.00     0.034 A 
ATOM     45  C   UNL     1     -10.980   7.154  -8.029  1.00  0.00     0.049 A 
ATOM     46  C   UNL     1      -9.953  11.753  -4.956  1.00  0.00     0.074 A 
ATOM     47  C   UNL     1     -12.163   7.144  -8.746  1.00  0.00     0.029 A 
ATOM     48  N   UNL     1     -10.922   8.372  -7.367  1.00  0.00    -0.354 N 
ATOM     49  N   UNL     1     -10.354  10.726  -5.665  1.00  0.00    -0.248 NA
ATOM     50  C   UNL     1     -10.822  12.933  -5.054  1.00  0.00     0.031 C 
ATOM     51  C   UNL     1     -12.815   8.363  -8.527  1.00  0.00     0.029 A 
ATOM     52  C   UNL     1     -12.041   9.128  -7.667  1.00  0.00     0.049 A 
ATOM     53  H   UNL     1     -10.191   8.657  -6.772  1.00  0.00     0.167 HD
ATOM     54  C   UNL     1     -11.523  11.133  -6.294  1.00  0.00     0.074 A 
ATOM     55  C   UNL     1     -11.785  12.488  -5.851  1.00  0.00     0.031 C 
ATOM     56  C   UNL     1     -12.296  10.460  -7.181  1.00  0.00     0.034 A 
BRANCH  43  57
ATOM     57  C   UNL     1     -10.160   4.878  -8.759  1.00  0.00     0.023 A 
ATOM     58  C   UNL     1     -10.592   3.691  -8.136  1.00  0.00     0.012 A 
ATOM     59  C   UNL     1      -9.954   4.893 -10.153  1.00  0.00     0.148 A 
ATOM     60  C   UNL     1     -10.793   2.530  -8.884  1.00  0.00     0.002 A 
ATOM     61  C   UNL     1     -10.190   3.743 -10.897  1.00  0.00     0.091 A 
ATOM     62  F   UNL     1      -9.516   6.025 -10.723  1.00  0.00    -0.205 F 
ATOM     63  C   UNL     1     -10.602   2.559 -10.264  1.00  0.00     0.022 A 
BRANCH  61  64
ATOM     64  S   UNL     1     -10.033   3.700 -12.687  1.00  0.00     0.127 S 
ATOM     65  O   UNL     1      -8.795   2.942 -12.857  1.00  0.00    -0.237 OA
ATOM     66  O   UNL     1     -11.245   2.985 -13.087  1.00  0.00    -0.237 OA
ATOM     67  O   UNL     1      -9.982   5.091 -13.116  1.00  0.00    -0.744 OA
ENDBRANCH  61  64
ENDBRANCH  43  57
BRANCH  44  68
ATOM     68  C   UNL     1      -8.454  13.120  -3.310  1.00  0.00     0.023 A 
ATOM     69  C   UNL     1      -9.271  13.469  -2.220  1.00  0.00     0.012 A 
ATOM     70  C   UNL     1      -7.335  13.923  -3.612  1.00  0.00     0.148 A 
ATOM     71  C   UNL     1      -8.986  14.597  -1.449  1.00  0.00     0.002 A 
ATOM     72  C   UNL     1      -7.020  15.009  -2.803  1.00  0.00     0.091 A 
ATOM     73  F   UNL     1      -6.582  13.596  -4.673  1.00  0.00    -0.205 F 
ATOM     74  C   UNL     1      -7.852  15.356  -1.729  1.00  0.00     0.022 A 
BRANCH  72  75
ATOM     75  S   UNL     1      -5.491  15.931  -3.007  1.00  0.00     0.127 S 
ATOM     76  O   UNL     1      -5.952  17.125  -3.710  1.00  0.00    -0.237 OA
ATOM     77  O   UNL     1      -5.076  16.154  -1.621  1.00  0.00    -0.237 OA
ATOM     78  O   UNL     1      -4.607  15.047  -3.756  1.00  0.00    -0.744 OA
ENDBRANCH  72  75
ENDBRANCH  44  68
BRANCH  56  79
ATOM     79  C   UNL     1     -13.494  11.180  -7.733  1.00  0.00     0.023 A 
ATOM     80  C   UNL     1     -13.309  12.160  -8.727  1.00  0.00     0.012 A 
ATOM     81  C   UNL     1     -14.797  10.837  -7.327  1.00  0.00     0.148 A 
ATOM     82  C   UNL     1     -14.406  12.806  -9.295  1.00  0.00     0.002 A 
ATOM     83  C   UNL     1     -15.887  11.455  -7.926  1.00  0.00     0.091 A 
ATOM     84  F   UNL     1     -14.945   9.915  -6.364  1.00  0.00    -0.205 F 
ATOM     85  C   UNL     1     -15.693  12.445  -8.904  1.00  0.00     0.022 A 
BRANCH  83  86
ATOM     86  S   UNL     1     -17.581  10.995  -7.546  1.00  0.00     0.127 S 
ATOM     87  O   UNL     1     -18.029  12.138  -6.753  1.00  0.00    -0.237 OA
ATOM     88  O   UNL     1     -18.184  10.899  -8.876  1.00  0.00    -0.237 OA
ATOM     89  O   UNL     1     -17.500   9.729  -6.830  1.00  0.00    -0.744 OA
ENDBRANCH  83  86
ENDBRANCH  56  79
ENDBRANCH  30  31
ENDBRANCH  23  25
ENDBRANCH  22  23
ENDBRANCH  21  22
ENDBRANCH   1  21
TORSDOF 17
