REMARK SMILES C[C@H]([NH2+][C@H](C)[C@@H](C)C(=O)OCCOC(=O)c1ccc(-c2c3nc(c(-c4cccc(S(=O)(=O)[O-])c4F)c4ccc([nH]4)c(-c4cccc(S(=O)(=O)[O-])c4F)c4nc(c(-c5cccc(S(=O)(=O)[O-])c5F)c5ccc2[nH]5)C=C4)C=C3)cc1)C1CCCCC1
REMARK SMILES IDX 11 1 10 2 8 3 9 4 6 5 7 6 4 7 5 8 3 9 2 12 1 13 79 14 80 15
REMARK SMILES IDX 84 16 81 17 83 18 82 19 12 20 13 21 14 22 15 23 16 24 17 25
REMARK SMILES IDX 78 26 18 27 77 28 19 29 20 30 21 31 71 32 22 33 76 34 70 35
REMARK SMILES IDX 72 36 23 37 75 38 69 39 68 40 24 42 56 43 36 44 55 45 37 46
REMARK SMILES IDX 40 47 54 48 73 49 38 50 39 51 53 53 74 54 41 55 25 56 26 57
REMARK SMILES IDX 34 58 27 59 29 60 35 61 28 62 30 63 31 64 32 65 33 66 57 67
REMARK SMILES IDX 58 68 66 69 59 70 61 71 67 72 60 73 62 74 63 75 64 76 65 77
REMARK SMILES IDX 42 78 43 79 51 80 44 81 46 82 52 83 45 84 47 85 48 86 49 87
REMARK SMILES IDX 50 88
REMARK H PARENT 3 10 3 11 72 41 40 52
REMARK Flexibility Score: inf
ROOT
ATOM      1  C   UNL     1       1.221  -4.351   7.517  1.00  0.00     0.274 C 
ENDROOT
BRANCH   1   2
ATOM      2  O   UNL     1       2.125  -4.137   6.401  1.00  0.00    -0.462 OA
BRANCH   2   3
ATOM      3  C   UNL     1       1.751  -4.710   5.220  1.00  0.00     0.314 C 
ATOM      4  O   UNL     1       0.971  -5.662   5.165  1.00  0.00    -0.252 OA
BRANCH   3   5
ATOM      5  C   UNL     1       2.281  -3.998   3.948  1.00  0.00     0.154 C 
ATOM      6  C   UNL     1       2.381  -5.088   2.861  1.00  0.00     0.026 C 
BRANCH   5   7
ATOM      7  C   UNL     1       3.604  -3.169   4.091  1.00  0.00     0.193 C 
ATOM      8  C   UNL     1       4.308  -2.900   2.750  1.00  0.00     0.076 C 
BRANCH   7   9
ATOM      9  N   UNL     1       3.522  -1.943   4.921  1.00  0.00    -0.341 N 
ATOM     10  H   UNL     1       2.780  -2.107   5.600  1.00  0.00     0.346 HD
ATOM     11  H   UNL     1       4.483  -1.844   5.248  1.00  0.00     0.346 HD
BRANCH   9  12
ATOM     12  C   UNL     1       3.257  -0.612   4.332  1.00  0.00     0.182 C 
ATOM     13  C   UNL     1       2.013  -0.532   3.448  1.00  0.00     0.075 C 
BRANCH  12  14
ATOM     14  C   UNL     1       3.242   0.495   5.476  1.00  0.00     0.047 C 
ATOM     15  C   UNL     1       2.638   1.842   5.011  1.00  0.00     0.010 C 
ATOM     16  C   UNL     1       2.534   0.036   6.767  1.00  0.00     0.010 C 
ATOM     17  C   UNL     1       2.570   2.901   6.112  1.00  0.00     0.001 C 
ATOM     18  C   UNL     1       2.470   1.107   7.853  1.00  0.00     0.001 C 
ATOM     19  C   UNL     1       1.829   2.387   7.340  1.00  0.00     0.000 C 
ENDBRANCH  12  14
ENDBRANCH   9  12
ENDBRANCH   7   9
ENDBRANCH   5   7
ENDBRANCH   3   5
ENDBRANCH   2   3
ENDBRANCH   1   2
BRANCH   1  20
ATOM     20  C   UNL     1       0.746  -3.017   8.147  1.00  0.00     0.275 C 
BRANCH  20  21
ATOM     21  O   UNL     1      -0.412  -2.344   7.577  1.00  0.00    -0.458 OA
BRANCH  21  22
ATOM     22  C   UNL     1      -0.323  -2.072   6.264  1.00  0.00     0.338 C 
ATOM     23  O   UNL     1       0.506  -2.535   5.507  1.00  0.00    -0.246 OA
BRANCH  22  24
ATOM     24  C   UNL     1      -1.175  -1.036   5.684  1.00  0.00     0.060 A 
ATOM     25  C   UNL     1      -1.356  -1.148   4.293  1.00  0.00     0.016 A 
ATOM     26  C   UNL     1      -1.453   0.157   6.346  1.00  0.00     0.016 A 
ATOM     27  C   UNL     1      -1.725  -0.043   3.547  1.00  0.00     0.010 A 
ATOM     28  C   UNL     1      -1.901   1.252   5.600  1.00  0.00     0.010 A 
ATOM     29  C   UNL     1      -2.026   1.158   4.201  1.00  0.00    -0.014 A 
BRANCH  29  30
ATOM     30  C   UNL     1      -2.731   2.199   3.430  1.00  0.00     0.031 A 
ATOM     31  C   UNL     1      -2.095   3.487   3.017  1.00  0.00     0.074 A 
ATOM     32  C   UNL     1      -4.011   1.917   3.130  1.00  0.00     0.049 A 
ATOM     33  N   UNL     1      -2.631   4.485   2.366  1.00  0.00    -0.248 NA
ATOM     34  C   UNL     1      -0.686   3.693   3.376  1.00  0.00     0.031 C 
ATOM     35  C   UNL     1      -4.703   0.685   3.526  1.00  0.00     0.029 A 
ATOM     36  N   UNL     1      -4.958   2.630   2.453  1.00  0.00    -0.354 N 
ATOM     37  C   UNL     1      -1.642   5.455   2.264  1.00  0.00     0.074 A 
ATOM     38  C   UNL     1      -0.462   4.919   2.912  1.00  0.00     0.031 C 
ATOM     39  C   UNL     1      -5.966   0.733   3.096  1.00  0.00     0.029 A 
ATOM     40  C   UNL     1      -6.184   2.014   2.442  1.00  0.00     0.049 A 
ATOM     41  H   UNL     1      -4.779   3.495   2.018  1.00  0.00     0.167 HD
ATOM     42  C   UNL     1      -1.726   6.673   1.676  1.00  0.00     0.034 A 
ATOM     43  C   UNL     1      -7.371   2.443   1.981  1.00  0.00     0.034 A 
ATOM     44  C   UNL     1      -2.913   7.159   1.014  1.00  0.00     0.049 A 
ATOM     45  C   UNL     1      -7.418   3.765   1.290  1.00  0.00     0.074 A 
ATOM     46  C   UNL     1      -3.095   8.353   0.337  1.00  0.00     0.029 A 
ATOM     47  N   UNL     1      -4.121   6.477   0.948  1.00  0.00    -0.354 N 
ATOM     48  N   UNL     1      -6.446   4.628   1.114  1.00  0.00    -0.248 NA
ATOM     49  C   UNL     1      -8.700   4.159   0.700  1.00  0.00     0.031 C 
ATOM     50  C   UNL     1      -4.414   8.393  -0.133  1.00  0.00     0.029 A 
ATOM     51  C   UNL     1      -5.052   7.223   0.244  1.00  0.00     0.049 A 
ATOM     52  H   UNL     1      -4.291   5.592   1.344  1.00  0.00     0.167 HD
ATOM     53  C   UNL     1      -6.994   5.670   0.384  1.00  0.00     0.074 A 
ATOM     54  C   UNL     1      -8.377   5.310   0.125  1.00  0.00     0.031 C 
ATOM     55  C   UNL     1      -6.414   6.827  -0.016  1.00  0.00     0.034 A 
BRANCH  42  56
ATOM     56  C   UNL     1      -0.504   7.556   1.668  1.00  0.00     0.023 A 
ATOM     57  C   UNL     1       0.545   7.276   0.769  1.00  0.00     0.012 A 
ATOM     58  C   UNL     1      -0.440   8.724   2.455  1.00  0.00     0.148 A 
ATOM     59  C   UNL     1       1.639   8.135   0.660  1.00  0.00     0.002 A 
ATOM     60  C   UNL     1       0.639   9.593   2.318  1.00  0.00     0.091 A 
ATOM     61  F   UNL     1      -1.433   8.966   3.323  1.00  0.00    -0.205 F 
ATOM     62  C   UNL     1       1.680   9.299   1.424  1.00  0.00     0.022 A 
BRANCH  60  63
ATOM     63  S   UNL     1       0.740  11.155   3.205  1.00  0.00     0.127 S 
ATOM     64  O   UNL     1       1.716  10.840   4.247  1.00  0.00    -0.237 OA
ATOM     65  O   UNL     1       1.226  12.071   2.173  1.00  0.00    -0.237 OA
ATOM     66  O   UNL     1      -0.611  11.434   3.671  1.00  0.00    -0.744 OA
ENDBRANCH  60  63
ENDBRANCH  42  56
BRANCH  43  67
ATOM     67  C   UNL     1      -8.543   1.542   2.127  1.00  0.00     0.023 A 
ATOM     68  C   UNL     1      -9.000   0.823   1.009  1.00  0.00     0.012 A 
ATOM     69  C   UNL     1      -9.059   1.238   3.404  1.00  0.00     0.148 A 
ATOM     70  C   UNL     1      -9.944  -0.193   1.162  1.00  0.00     0.002 A 
ATOM     71  C   UNL     1      -9.947   0.180   3.557  1.00  0.00     0.091 A 
ATOM     72  F   UNL     1      -8.615   1.939   4.458  1.00  0.00    -0.205 F 
ATOM     73  C   UNL     1     -10.399  -0.530   2.436  1.00  0.00     0.022 A 
BRANCH  71  74
ATOM     74  S   UNL     1     -10.390  -0.425   5.191  1.00  0.00     0.127 S 
ATOM     75  O   UNL     1     -11.607   0.329   5.474  1.00  0.00    -0.237 OA
ATOM     76  O   UNL     1     -10.593  -1.856   4.959  1.00  0.00    -0.237 OA
ATOM     77  O   UNL     1      -9.232  -0.123   6.024  1.00  0.00    -0.744 OA
ENDBRANCH  71  74
ENDBRANCH  43  67
BRANCH  55  78
ATOM     78  C   UNL     1      -7.295   7.792  -0.756  1.00  0.00     0.023 A 
ATOM     79  C   UNL     1      -8.222   8.565  -0.031  1.00  0.00     0.012 A 
ATOM     80  C   UNL     1      -7.192   7.950  -2.150  1.00  0.00     0.148 A 
ATOM     81  C   UNL     1      -9.059   9.463  -0.689  1.00  0.00     0.002 A 
ATOM     82  C   UNL     1      -8.008   8.872  -2.795  1.00  0.00     0.091 A 
ATOM     83  F   UNL     1      -6.322   7.183  -2.822  1.00  0.00    -0.205 F 
ATOM     84  C   UNL     1      -8.947   9.623  -2.068  1.00  0.00     0.022 A 
BRANCH  82  85
ATOM     85  S   UNL     1      -7.875   9.176  -4.559  1.00  0.00     0.127 S 
ATOM     86  O   UNL     1      -8.947   8.336  -5.089  1.00  0.00    -0.237 OA
ATOM     87  O   UNL     1      -8.125  10.615  -4.654  1.00  0.00    -0.237 OA
ATOM     88  O   UNL     1      -6.520   8.781  -4.922  1.00  0.00    -0.744 OA
ENDBRANCH  82  85
ENDBRANCH  55  78
ENDBRANCH  29  30
ENDBRANCH  22  24
ENDBRANCH  21  22
ENDBRANCH  20  21
ENDBRANCH   1  20
TORSDOF 18
