REMARK SMILES CC(C)[N@H+](C)Cc1cc2c(cc1Cl)C=C(C(=O)OCCOC(=O)c1ccc(-c3c4nc(c(-c5cccc(S(=O)(=O)[O-])c5F)c5ccc([nH]5)c(-c5cccc(S(=O)(=O)[O-])c5F)c5nc(c(-c6cccc(S(=O)(=O)[O-])c6F)c6ccc3[nH]6)C=C5)C=C4)cc1)[C@@H](C(F)(F)F)O2
REMARK SMILES IDX 19 1 18 2 16 3 17 4 15 5 7 6 8 7 12 8 9 9 11 10 13 11 10 12
REMARK SMILES IDX 92 13 14 14 87 15 6 16 4 17 5 18 2 20 1 21 3 22 88 23 89 24
REMARK SMILES IDX 90 25 91 26 20 27 21 28 22 29 23 30 24 31 25 32 86 33 26 34
REMARK SMILES IDX 85 35 27 36 28 37 29 38 79 39 30 40 84 41 78 42 80 43 31 44
REMARK SMILES IDX 83 45 77 46 76 47 32 49 64 50 44 51 63 52 45 53 48 54 62 55
REMARK SMILES IDX 81 56 46 57 47 58 61 60 82 61 49 62 33 63 34 64 42 65 35 66
REMARK SMILES IDX 37 67 43 68 36 69 38 70 39 71 40 72 41 73 65 74 66 75 74 76
REMARK SMILES IDX 67 77 69 78 75 79 68 80 70 81 71 82 72 83 73 84 50 85 51 86
REMARK SMILES IDX 59 87 52 88 54 89 60 90 53 91 55 92 56 93 57 94 58 95
REMARK H PARENT 4 19 80 48 48 59
REMARK Flexibility Score: inf
ROOT
ATOM      1  C   UNL     1      -0.435  10.313   4.927  1.00  0.00     0.275 C 
ENDROOT
BRANCH   1   2
ATOM      2  O   UNL     1      -0.866   9.186   4.132  1.00  0.00    -0.459 OA
BRANCH   2   3
ATOM      3  C   UNL     1       0.104   8.304   3.802  1.00  0.00     0.338 C 
ATOM      4  O   UNL     1       1.295   8.399   4.057  1.00  0.00    -0.246 OA
BRANCH   3   5
ATOM      5  C   UNL     1      -0.486   7.117   3.163  1.00  0.00     0.087 C 
ATOM      6  C   UNL     1      -1.377   2.305   2.016  1.00  0.00     0.029 A 
ATOM      7  C   UNL     1      -1.598   3.534   1.340  1.00  0.00     0.058 A 
ATOM      8  C   UNL     1      -0.999   2.353   3.370  1.00  0.00     0.050 A 
ATOM      9  C   UNL     1      -1.310   4.755   1.947  1.00  0.00     0.128 A 
ATOM     10  C   UNL     1      -0.641   3.565   3.943  1.00  0.00     0.033 A 
ATOM     11  Cl  UNL     1      -0.946   1.006   4.451  1.00  0.00    -0.084 Cl
ATOM     12  C   UNL     1      -0.766   4.747   3.219  1.00  0.00     0.019 A 
ATOM     13  O   UNL     1      -1.546   5.904   1.243  1.00  0.00    -0.475 OA
ATOM     14  C   UNL     1      -0.274   5.965   3.795  1.00  0.00     0.027 C 
ATOM     15  C   UNL     1      -1.208   7.196   1.853  1.00  0.00     0.316 C 
BRANCH   6  16
ATOM     16  C   UNL     1      -1.573   1.028   1.218  1.00  0.00     0.300 C 
BRANCH  16  17
ATOM     17  N   UNL     1      -0.793  -0.107   1.677  1.00  0.00    -0.332 N 
ATOM     18  C   UNL     1      -1.568  -1.260   2.094  1.00  0.00     0.333 C 
ATOM     19  H   UNL     1      -0.454   0.346   2.525  1.00  0.00     0.348 HD
BRANCH  17  20
ATOM     20  C   UNL     1       0.577  -0.349   1.233  1.00  0.00     0.177 C 
ATOM     21  C   UNL     1       0.734  -0.540  -0.276  1.00  0.00     0.075 C 
ATOM     22  C   UNL     1       1.543   0.741   1.716  1.00  0.00     0.075 C 
ENDBRANCH  17  20
ENDBRANCH  16  17
ENDBRANCH   6  16
BRANCH  15  23
ATOM     23  C   UNL     1      -0.413   8.002   0.817  1.00  0.00     0.430 C 
ATOM     24  F   UNL     1      -1.104   8.121  -0.344  1.00  0.00    -0.167 F 
ATOM     25  F   UNL     1      -0.167   9.265   1.243  1.00  0.00    -0.167 F 
ATOM     26  F   UNL     1       0.777   7.433   0.525  1.00  0.00    -0.167 F 
ENDBRANCH  15  23
ENDBRANCH   3   5
ENDBRANCH   2   3
ENDBRANCH   1   2
BRANCH   1  27
ATOM     27  C   UNL     1      -0.864  10.159   6.387  1.00  0.00     0.275 C 
BRANCH  27  28
ATOM     28  O   UNL     1      -0.085   9.141   7.043  1.00  0.00    -0.458 OA
BRANCH  28  29
ATOM     29  C   UNL     1      -0.733   7.974   7.255  1.00  0.00     0.338 C 
ATOM     30  O   UNL     1      -1.887   7.709   6.964  1.00  0.00    -0.246 OA
BRANCH  29  31
ATOM     31  C   UNL     1       0.188   6.974   7.817  1.00  0.00     0.060 A 
ATOM     32  C   UNL     1       0.017   6.470   9.098  1.00  0.00     0.016 A 
ATOM     33  C   UNL     1       1.084   6.364   6.951  1.00  0.00     0.016 A 
ATOM     34  C   UNL     1       0.748   5.339   9.487  1.00  0.00     0.010 A 
ATOM     35  C   UNL     1       1.613   5.114   7.263  1.00  0.00     0.010 A 
ATOM     36  C   UNL     1       1.505   4.596   8.555  1.00  0.00    -0.014 A 
BRANCH  36  37
ATOM     37  C   UNL     1       2.177   3.309   8.934  1.00  0.00     0.031 A 
ATOM     38  C   UNL     1       3.631   3.032   8.590  1.00  0.00     0.074 A 
ATOM     39  C   UNL     1       1.474   2.353   9.584  1.00  0.00     0.049 A 
ATOM     40  N   UNL     1       4.372   2.004   8.929  1.00  0.00    -0.248 NA
ATOM     41  C   UNL     1       4.342   3.991   7.724  1.00  0.00     0.031 C 
ATOM     42  C   UNL     1       0.033   2.389   9.848  1.00  0.00     0.029 A 
ATOM     43  N   UNL     1       1.877   1.172  10.165  1.00  0.00    -0.354 N 
ATOM     44  C   UNL     1       5.594   2.177   8.286  1.00  0.00     0.074 A 
ATOM     45  C   UNL     1       5.485   3.367   7.482  1.00  0.00     0.031 C 
ATOM     46  C   UNL     1      -0.306   1.347  10.620  1.00  0.00     0.029 A 
ATOM     47  C   UNL     1       0.880   0.536  10.872  1.00  0.00     0.049 A 
ATOM     48  H   UNL     1       2.791   0.815  10.082  1.00  0.00     0.167 HD
ATOM     49  C   UNL     1       6.734   1.458   8.399  1.00  0.00     0.034 A 
ATOM     50  C   UNL     1       0.912  -0.556  11.662  1.00  0.00     0.034 A 
ATOM     51  C   UNL     1       6.890   0.338   9.280  1.00  0.00     0.049 A 
ATOM     52  C   UNL     1       2.213  -1.276  11.873  1.00  0.00     0.074 A 
ATOM     53  C   UNL     1       8.041  -0.376   9.560  1.00  0.00     0.029 A 
ATOM     54  N   UNL     1       5.872  -0.219  10.033  1.00  0.00    -0.354 N 
ATOM     55  N   UNL     1       3.392  -0.993  11.376  1.00  0.00    -0.248 NA
ATOM     56  C   UNL     1       2.201  -2.444  12.767  1.00  0.00     0.031 C 
ATOM     57  C   UNL     1       7.716  -1.375  10.480  1.00  0.00     0.029 A 
ATOM     58  C   UNL     1       6.368  -1.268  10.783  1.00  0.00     0.049 A 
ATOM     59  H   UNL     1       4.936   0.086  10.035  1.00  0.00     0.167 HD
ATOM     60  C   UNL     1       4.265  -1.933  11.910  1.00  0.00     0.074 A 
ATOM     61  C   UNL     1       3.484  -2.788  12.779  1.00  0.00     0.031 C 
ATOM     62  C   UNL     1       5.592  -2.076  11.685  1.00  0.00     0.034 A 
BRANCH  49  63
ATOM     63  C   UNL     1       7.952   1.922   7.642  1.00  0.00     0.023 A 
ATOM     64  C   UNL     1       8.648   3.061   8.098  1.00  0.00     0.012 A 
ATOM     65  C   UNL     1       8.468   1.180   6.562  1.00  0.00     0.148 A 
ATOM     66  C   UNL     1       9.829   3.467   7.479  1.00  0.00     0.002 A 
ATOM     67  C   UNL     1       9.665   1.571   5.973  1.00  0.00     0.091 A 
ATOM     68  F   UNL     1       7.787   0.105   6.143  1.00  0.00    -0.205 F 
ATOM     69  C   UNL     1      10.343   2.716   6.426  1.00  0.00     0.022 A 
BRANCH  67  70
ATOM     70  S   UNL     1      10.451   0.644   4.650  1.00  0.00     0.127 S 
ATOM     71  O   UNL     1      10.407   1.606   3.549  1.00  0.00    -0.237 OA
ATOM     72  O   UNL     1      11.787   0.404   5.196  1.00  0.00    -0.237 OA
ATOM     73  O   UNL     1       9.643  -0.552   4.456  1.00  0.00    -0.744 OA
ENDBRANCH  67  70
ENDBRANCH  49  63
BRANCH  50  74
ATOM     74  C   UNL     1      -0.320  -0.954  12.402  1.00  0.00     0.023 A 
ATOM     75  C   UNL     1      -0.425  -0.649  13.773  1.00  0.00     0.012 A 
ATOM     76  C   UNL     1      -1.417  -1.537  11.739  1.00  0.00     0.148 A 
ATOM     77  C   UNL     1      -1.601  -0.920  14.473  1.00  0.00     0.002 A 
ATOM     78  C   UNL     1      -2.599  -1.768  12.433  1.00  0.00     0.091 A 
ATOM     79  F   UNL     1      -1.291  -1.816  10.435  1.00  0.00    -0.205 F 
ATOM     80  C   UNL     1      -2.691  -1.467  13.802  1.00  0.00     0.022 A 
BRANCH  78  81
ATOM     81  S   UNL     1      -4.091  -2.374  11.637  1.00  0.00     0.127 S 
ATOM     82  O   UNL     1      -4.294  -3.651  12.317  1.00  0.00    -0.237 OA
ATOM     83  O   UNL     1      -5.058  -1.331  11.984  1.00  0.00    -0.237 OA
ATOM     84  O   UNL     1      -3.777  -2.464  10.219  1.00  0.00    -0.744 OA
ENDBRANCH  78  81
ENDBRANCH  50  74
BRANCH  62  85
ATOM     85  C   UNL     1       6.329  -3.176  12.392  1.00  0.00     0.023 A 
ATOM     86  C   UNL     1       6.274  -4.484  11.877  1.00  0.00     0.012 A 
ATOM     87  C   UNL     1       7.219  -2.872  13.441  1.00  0.00     0.148 A 
ATOM     88  C   UNL     1       7.104  -5.477  12.393  1.00  0.00     0.002 A 
ATOM     89  C   UNL     1       8.066  -3.858  13.927  1.00  0.00     0.091 A 
ATOM     90  F   UNL     1       7.248  -1.615  13.907  1.00  0.00    -0.205 F 
ATOM     91  C   UNL     1       8.009  -5.161  13.405  1.00  0.00     0.022 A 
BRANCH  89  92
ATOM     92  S   UNL     1       9.321  -3.531  15.170  1.00  0.00     0.127 S 
ATOM     93  O   UNL     1       8.878  -4.386  16.271  1.00  0.00    -0.237 OA
ATOM     94  O   UNL     1      10.541  -3.981  14.501  1.00  0.00    -0.237 OA
ATOM     95  O   UNL     1       9.262  -2.101  15.441  1.00  0.00    -0.744 OA
ENDBRANCH  89  92
ENDBRANCH  62  85
ENDBRANCH  36  37
ENDBRANCH  29  31
ENDBRANCH  28  29
ENDBRANCH  27  28
ENDBRANCH   1  27
TORSDOF 18
