REMARK SMILES CO[C@@H]1C[NH2+][C@@H](O[C@@H]2C[C@@H](C(=O)OCCOC(=O)c3ccc(-c4c5nc(c(-c6cccc(S(=O)(=O)[O-])c6F)c6ccc([nH]6)c(-c6cccc(S(=O)(=O)[O-])c6F)c6nc(c(-c7cccc(S(=O)(=O)[O-])c7F)c7ccc4[nH]7)C=C6)C=C5)cc3)N(C(=O)OC(C)(C)C)C2)c2cc(Cl)ccc21
REMARK SMILES IDX 14 1 13 2 11 3 12 4 10 5 8 6 9 7 90 8 82 9 7 10 6 11 3 12
REMARK SMILES IDX 4 13 97 14 5 15 91 16 96 17 92 20 95 21 93 22 94 23 2 24
REMARK SMILES IDX 1 25 83 26 84 27 85 28 86 29 87 30 88 31 89 32 15 33 16 34
REMARK SMILES IDX 17 35 18 36 19 37 20 38 81 39 21 40 80 41 22 42 23 43 24 44
REMARK SMILES IDX 74 45 25 46 79 47 73 48 75 49 26 50 78 51 72 52 71 53 27 55
REMARK SMILES IDX 59 56 39 57 58 58 40 59 43 60 57 61 76 62 41 63 42 64 56 66
REMARK SMILES IDX 77 67 44 68 28 69 29 70 37 71 30 72 32 73 38 74 31 75 33 76
REMARK SMILES IDX 34 77 35 78 36 79 60 80 61 81 69 82 62 83 64 84 70 85 63 86
REMARK SMILES IDX 65 87 66 88 67 89 68 90 45 91 46 92 54 93 47 94 49 95 55 96
REMARK SMILES IDX 48 97 50 98 51 99 52 100 53 101
REMARK H PARENT 5 18 5 19 75 54 43 65
REMARK Flexibility Score: inf
ROOT
ATOM      1  C   UNL     1       1.797   5.140   2.746  1.00  0.00     0.274 C 
ENDROOT
BRANCH   1   2
ATOM      2  O   UNL     1       1.378   3.790   3.004  1.00  0.00    -0.461 OA
BRANCH   2   3
ATOM      3  C   UNL     1       2.385   2.908   3.260  1.00  0.00     0.329 C 
ATOM      4  O   UNL     1       3.573   3.205   3.246  1.00  0.00    -0.250 OA
BRANCH   3   5
ATOM      5  C   UNL     1       1.816   1.498   3.503  1.00  0.00     0.201 C 
ATOM      6  C   UNL     1       1.184  -0.353   4.918  1.00  0.00     0.147 C 
ATOM      7  C   UNL     1       1.196   1.171   4.864  1.00  0.00     0.071 C 
ATOM      8  C   UNL     1       2.418  -0.763   4.083  1.00  0.00     0.156 C 
ATOM      9  N   UNL     1       2.692   0.369   3.206  1.00  0.00    -0.292 N 
BRANCH   6  10
ATOM     10  O   UNL     1      -0.032  -1.048   4.679  1.00  0.00    -0.320 OA
BRANCH  10  11
ATOM     11  C   UNL     1      -1.054  -0.788   3.727  1.00  0.00     0.354 C 
ATOM     12  C   UNL     1      -0.443   0.507   1.127  1.00  0.00     0.203 C 
ATOM     13  C   UNL     1      -0.047  -0.944   1.536  1.00  0.00     0.300 C 
ATOM     14  C   UNL     1      -1.229   1.255   2.210  1.00  0.00    -0.002 A 
ATOM     15  N   UNL     1      -0.890  -1.591   2.530  1.00  0.00    -0.315 N 
ATOM     16  C   UNL     1      -1.498   0.634   3.452  1.00  0.00     0.046 A 
ATOM     17  C   UNL     1      -1.505   2.628   2.070  1.00  0.00     0.009 A 
ATOM     18  H   UNL     1      -0.465  -2.482   2.789  1.00  0.00     0.349 HD
ATOM     19  H   UNL     1      -1.813  -1.723   2.116  1.00  0.00     0.349 HD
ATOM     20  C   UNL     1      -2.127   1.366   4.482  1.00  0.00     0.033 A 
ATOM     21  C   UNL     1      -2.050   3.363   3.131  1.00  0.00     0.021 A 
ATOM     22  C   UNL     1      -2.376   2.727   4.325  1.00  0.00     0.041 A 
ATOM     23  Cl  UNL     1      -3.020   3.638   5.636  1.00  0.00    -0.084 Cl
BRANCH  12  24
ATOM     24  O   UNL     1      -1.066   0.574  -0.160  1.00  0.00    -0.371 OA
ATOM     25  C   UNL     1      -0.155   0.168  -1.188  1.00  0.00     0.196 C 
ENDBRANCH  12  24
ENDBRANCH  10  11
ENDBRANCH   6  10
BRANCH   9  26
ATOM     26  C   UNL     1       3.425   0.243   2.041  1.00  0.00     0.411 C 
ATOM     27  O   UNL     1       4.054  -0.751   1.732  1.00  0.00    -0.224 OA
BRANCH  26  28
ATOM     28  O   UNL     1       3.327   1.366   1.283  1.00  0.00    -0.444 OA
BRANCH  28  29
ATOM     29  C   UNL     1       4.261   1.683   0.221  1.00  0.00     0.106 C 
ATOM     30  C   UNL     1       5.716   1.610   0.695  1.00  0.00     0.056 C 
ATOM     31  C   UNL     1       4.012   0.811  -1.008  1.00  0.00     0.056 C 
ATOM     32  C   UNL     1       3.947   3.146  -0.145  1.00  0.00     0.056 C 
ENDBRANCH  28  29
ENDBRANCH  26  28
ENDBRANCH   9  26
ENDBRANCH   3   5
ENDBRANCH   2   3
ENDBRANCH   1   2
BRANCH   1  33
ATOM     33  C   UNL     1       1.805   5.972   4.031  1.00  0.00     0.275 C 
BRANCH  33  34
ATOM     34  O   UNL     1       2.830   5.534   4.946  1.00  0.00    -0.458 OA
BRANCH  34  35
ATOM     35  C   UNL     1       2.443   4.572   5.819  1.00  0.00     0.338 C 
ATOM     36  O   UNL     1       1.314   4.128   5.958  1.00  0.00    -0.246 OA
BRANCH  35  37
ATOM     37  C   UNL     1       3.620   3.951   6.449  1.00  0.00     0.060 A 
ATOM     38  C   UNL     1       4.327   4.561   7.471  1.00  0.00     0.016 A 
ATOM     39  C   UNL     1       3.956   2.652   6.069  1.00  0.00     0.016 A 
ATOM     40  C   UNL     1       5.380   3.855   8.065  1.00  0.00     0.010 A 
ATOM     41  C   UNL     1       4.903   1.907   6.719  1.00  0.00     0.010 A 
ATOM     42  C   UNL     1       5.666   2.525   7.687  1.00  0.00    -0.014 A 
BRANCH  42  43
ATOM     43  C   UNL     1       6.710   1.709   8.316  1.00  0.00     0.031 A 
ATOM     44  C   UNL     1       7.844   1.147   7.500  1.00  0.00     0.074 A 
ATOM     45  C   UNL     1       6.531   1.375   9.604  1.00  0.00     0.049 A 
ATOM     46  N   UNL     1       8.888   0.485   7.918  1.00  0.00    -0.248 NA
ATOM     47  C   UNL     1       7.793   1.305   6.031  1.00  0.00     0.031 C 
ATOM     48  C   UNL     1       5.346   1.707  10.403  1.00  0.00     0.029 A 
ATOM     49  N   UNL     1       7.337   0.693  10.468  1.00  0.00    -0.354 N 
ATOM     50  C   UNL     1       9.607   0.151   6.777  1.00  0.00     0.074 A 
ATOM     51  C   UNL     1       8.856   0.617   5.639  1.00  0.00     0.031 C 
ATOM     52  C   UNL     1       5.544   1.304  11.666  1.00  0.00     0.029 A 
ATOM     53  C   UNL     1       6.855   0.674  11.753  1.00  0.00     0.049 A 
ATOM     54  H   UNL     1       8.179   0.259  10.197  1.00  0.00     0.167 HD
ATOM     55  C   UNL     1      10.818  -0.443   6.703  1.00  0.00     0.034 A 
ATOM     56  C   UNL     1       7.438   0.237  12.882  1.00  0.00     0.034 A 
ATOM     57  C   UNL     1      11.561  -0.842   7.864  1.00  0.00     0.049 A 
ATOM     58  C   UNL     1       8.829  -0.310  12.789  1.00  0.00     0.074 A 
ATOM     59  C   UNL     1      12.847  -1.342   7.931  1.00  0.00     0.029 A 
ATOM     60  N   UNL     1      11.078  -0.778   9.162  1.00  0.00    -0.354 N 
ATOM     61  N   UNL     1       9.583  -0.451  11.725  1.00  0.00    -0.248 NA
ATOM     62  C   UNL     1       9.464  -0.728  14.043  1.00  0.00     0.031 C 
ATOM     63  C   UNL     1      13.137  -1.594   9.274  1.00  0.00     0.029 A 
ATOM     64  C   UNL     1      12.039  -1.232  10.041  1.00  0.00     0.049 A 
ATOM     65  H   UNL     1      10.183  -0.457   9.417  1.00  0.00     0.167 HD
ATOM     66  C   UNL     1      10.790  -0.960  12.179  1.00  0.00     0.074 A 
ATOM     67  C   UNL     1      10.671  -1.085  13.620  1.00  0.00     0.031 C 
ATOM     68  C   UNL     1      11.891  -1.307  11.471  1.00  0.00     0.034 A 
BRANCH  55  69
ATOM     69  C   UNL     1      11.470  -0.595   5.356  1.00  0.00     0.023 A 
ATOM     70  C   UNL     1      12.023   0.545   4.736  1.00  0.00     0.012 A 
ATOM     71  C   UNL     1      11.656  -1.861   4.770  1.00  0.00     0.148 A 
ATOM     72  C   UNL     1      12.752   0.428   3.554  1.00  0.00     0.002 A 
ATOM     73  C   UNL     1      12.409  -1.974   3.607  1.00  0.00     0.091 A 
ATOM     74  F   UNL     1      11.112  -2.928   5.371  1.00  0.00    -0.205 F 
ATOM     75  C   UNL     1      12.957  -0.832   2.998  1.00  0.00     0.022 A 
BRANCH  73  76
ATOM     76  S   UNL     1      12.781  -3.551   2.831  1.00  0.00     0.127 S 
ATOM     77  O   UNL     1      12.170  -3.384   1.512  1.00  0.00    -0.237 OA
ATOM     78  O   UNL     1      14.243  -3.553   2.829  1.00  0.00    -0.237 OA
ATOM     79  O   UNL     1      12.164  -4.571   3.668  1.00  0.00    -0.744 OA
ENDBRANCH  73  76
ENDBRANCH  55  69
BRANCH  56  80
ATOM     80  C   UNL     1       6.743   0.447  14.176  1.00  0.00     0.023 A 
ATOM     81  C   UNL     1       7.149   1.508  15.008  1.00  0.00     0.012 A 
ATOM     82  C   UNL     1       5.611  -0.312  14.524  1.00  0.00     0.148 A 
ATOM     83  C   UNL     1       6.442   1.804  16.173  1.00  0.00     0.002 A 
ATOM     84  C   UNL     1       4.891   0.010  15.667  1.00  0.00     0.091 A 
ATOM     85  F   UNL     1       5.238  -1.303  13.702  1.00  0.00    -0.205 F 
ATOM     86  C   UNL     1       5.309   1.063  16.497  1.00  0.00     0.022 A 
BRANCH  84  87
ATOM     87  S   UNL     1       3.363  -0.822  16.113  1.00  0.00     0.127 S 
ATOM     88  O   UNL     1       3.741  -1.487  17.357  1.00  0.00    -0.237 OA
ATOM     89  O   UNL     1       2.444   0.306  16.271  1.00  0.00    -0.237 OA
ATOM     90  O   UNL     1       3.052  -1.706  14.999  1.00  0.00    -0.744 OA
ENDBRANCH  84  87
ENDBRANCH  56  80
BRANCH  68  91
ATOM     91  C   UNL     1      13.060  -1.852  12.233  1.00  0.00     0.023 A 
ATOM     92  C   UNL     1      13.038  -3.192  12.659  1.00  0.00     0.012 A 
ATOM     93  C   UNL     1      14.224  -1.078  12.397  1.00  0.00     0.148 A 
ATOM     94  C   UNL     1      14.165  -3.757  13.250  1.00  0.00     0.002 A 
ATOM     95  C   UNL     1      15.354  -1.659  12.953  1.00  0.00     0.091 A 
ATOM     96  F   UNL     1      14.208   0.196  11.980  1.00  0.00    -0.205 F 
ATOM     97  C   UNL     1      15.325  -2.996  13.384  1.00  0.00     0.022 A 
BRANCH  95  98
ATOM     98  S   UNL     1      16.915  -0.784  13.101  1.00  0.00     0.127 S 
ATOM     99  O   UNL     1      17.067  -0.697  14.553  1.00  0.00    -0.237 OA
ATOM    100  O   UNL     1      17.844  -1.701  12.443  1.00  0.00    -0.237 OA
ATOM    101  O   UNL     1      16.732   0.491  12.422  1.00  0.00    -0.744 OA
ENDBRANCH  95  98
ENDBRANCH  68  91
ENDBRANCH  42  43
ENDBRANCH  35  37
ENDBRANCH  34  35
ENDBRANCH  33  34
ENDBRANCH   1  33
TORSDOF 20
