REMARK SMILES O=C(Cn1nnnc1[C@H]1Cc2ccccc2S1)OCCOC(=O)c1ccc(-c2c3nc(c(-c4cccc(S(=O)(=O)[O-])c4F)c4ccc([nH]4)c(-c4cccc(S(=O)(=O)[O-])c4F)c4nc(c(-c5cccc(S(=O)(=O)[O-])c5F)c5ccc2[nH]5)C=C4)C=C3)cc1
REMARK SMILES IDX 20 1 19 2 18 3 2 4 1 5 3 6 4 7 5 8 8 9 6 10 7 11 9 12 10 13
REMARK SMILES IDX 17 14 11 15 16 16 12 17 15 18 13 19 14 20 21 21 22 22 23 23
REMARK SMILES IDX 24 24 25 25 86 26 26 27 85 28 27 29 28 30 29 31 79 32 30 33
REMARK SMILES IDX 84 34 78 35 80 36 31 37 83 38 77 39 76 40 32 42 64 43 44 44
REMARK SMILES IDX 63 45 45 46 48 47 62 48 81 49 46 50 47 51 61 53 82 54 49 55
REMARK SMILES IDX 33 56 34 57 42 58 35 59 37 60 43 61 36 62 38 63 39 64 40 65
REMARK SMILES IDX 41 66 65 67 66 68 74 69 67 70 69 71 75 72 68 73 70 74 71 75
REMARK SMILES IDX 72 76 73 77 50 78 51 79 59 80 52 81 54 82 60 83 53 84 55 85
REMARK SMILES IDX 56 86 57 87 58 88
REMARK H PARENT 80 41 48 52
REMARK Flexibility Score: inf
ROOT
ATOM      1  C   UNL     1       4.184  -1.121   1.673  1.00  0.00     0.275 C 
ENDROOT
BRANCH   1   2
ATOM      2  C   UNL     1       4.636   0.195   1.024  1.00  0.00     0.274 C 
BRANCH   2   3
ATOM      3  O   UNL     1       3.514   0.989   0.598  1.00  0.00    -0.461 OA
BRANCH   3   4
ATOM      4  C   UNL     1       3.018   1.056  -0.664  1.00  0.00     0.328 C 
ATOM      5  O   UNL     1       2.090   1.833  -0.880  1.00  0.00    -0.250 OA
BRANCH   4   6
ATOM      6  C   UNL     1       3.513   0.106  -1.726  1.00  0.00     0.270 C 
BRANCH   6   7
ATOM      7  N   UNL     1       4.697   0.478  -2.455  1.00  0.00    -0.217 N 
ATOM      8  N   UNL     1       4.882   1.763  -2.788  1.00  0.00    -0.044 NA
ATOM      9  C   UNL     1       5.647  -0.310  -3.078  1.00  0.00     0.165 A 
ATOM     10  N   UNL     1       5.873   1.763  -3.659  1.00  0.00    -0.024 NA
ATOM     11  N   UNL     1       6.373   0.503  -3.827  1.00  0.00    -0.113 NA
BRANCH   9  12
ATOM     12  C   UNL     1       5.943  -1.774  -2.947  1.00  0.00     0.126 C 
ATOM     13  C   UNL     1       6.287  -2.256  -1.528  1.00  0.00     0.059 C 
ATOM     14  S   UNL     1       4.723  -2.941  -3.606  1.00  0.00    -0.114 SA
ATOM     15  C   UNL     1       6.070  -3.744  -1.487  1.00  0.00    -0.033 A 
ATOM     16  C   UNL     1       5.262  -4.235  -2.514  1.00  0.00     0.011 A 
ATOM     17  C   UNL     1       6.540  -4.595  -0.489  1.00  0.00     0.005 A 
ATOM     18  C   UNL     1       4.938  -5.585  -2.580  1.00  0.00     0.015 A 
ATOM     19  C   UNL     1       6.217  -5.952  -0.547  1.00  0.00     0.000 A 
ATOM     20  C   UNL     1       5.425  -6.447  -1.591  1.00  0.00     0.001 A 
ENDBRANCH   9  12
ENDBRANCH   6   7
ENDBRANCH   4   6
ENDBRANCH   3   4
ENDBRANCH   2   3
ENDBRANCH   1   2
BRANCH   1  21
ATOM     21  O   UNL     1       3.404  -1.874   0.730  1.00  0.00    -0.458 OA
BRANCH  21  22
ATOM     22  C   UNL     1       2.134  -2.203   1.100  1.00  0.00     0.338 C 
ATOM     23  O   UNL     1       1.699  -2.259   2.237  1.00  0.00    -0.246 OA
BRANCH  22  24
ATOM     24  C   UNL     1       1.313  -2.154  -0.133  1.00  0.00     0.060 A 
ATOM     25  C   UNL     1       1.814  -2.642  -1.338  1.00  0.00     0.016 A 
ATOM     26  C   UNL     1       0.161  -1.362  -0.121  1.00  0.00     0.016 A 
ATOM     27  C   UNL     1       1.292  -2.149  -2.531  1.00  0.00     0.010 A 
ATOM     28  C   UNL     1      -0.381  -0.902  -1.323  1.00  0.00     0.010 A 
ATOM     29  C   UNL     1       0.247  -1.204  -2.531  1.00  0.00    -0.014 A 
BRANCH  29  30
ATOM     30  C   UNL     1      -0.162  -0.633  -3.834  1.00  0.00     0.031 A 
ATOM     31  C   UNL     1      -0.318  -1.655  -4.913  1.00  0.00     0.074 A 
ATOM     32  C   UNL     1      -0.462   0.664  -4.090  1.00  0.00     0.049 A 
ATOM     33  N   UNL     1       0.314  -1.745  -6.042  1.00  0.00    -0.248 NA
ATOM     34  C   UNL     1      -1.174  -2.812  -4.604  1.00  0.00     0.031 C 
ATOM     35  C   UNL     1      -0.575   1.772  -3.139  1.00  0.00     0.029 A 
ATOM     36  N   UNL     1      -0.859   1.248  -5.270  1.00  0.00    -0.354 N 
ATOM     37  C   UNL     1      -0.228  -2.862  -6.674  1.00  0.00     0.074 A 
ATOM     38  C   UNL     1      -1.001  -3.569  -5.685  1.00  0.00     0.031 C 
ATOM     39  C   UNL     1      -1.260   2.789  -3.709  1.00  0.00     0.029 A 
ATOM     40  C   UNL     1      -1.528   2.464  -5.096  1.00  0.00     0.049 A 
ATOM     41  H   UNL     1      -0.690   0.847  -6.153  1.00  0.00     0.167 HD
ATOM     42  C   UNL     1      -0.214  -3.031  -8.023  1.00  0.00     0.034 A 
ATOM     43  C   UNL     1      -2.317   3.105  -5.999  1.00  0.00     0.034 A 
ATOM     44  C   UNL     1       0.756  -2.217  -8.688  1.00  0.00     0.049 A 
ATOM     45  C   UNL     1      -1.954   2.592  -7.337  1.00  0.00     0.074 A 
ATOM     46  C   UNL     1       2.130  -2.095  -8.655  1.00  0.00     0.029 A 
ATOM     47  N   UNL     1       0.295  -1.109  -9.352  1.00  0.00    -0.354 N 
ATOM     48  N   UNL     1      -0.825   2.834  -7.935  1.00  0.00    -0.248 NA
ATOM     49  C   UNL     1      -2.739   1.496  -7.878  1.00  0.00     0.031 C 
ATOM     50  C   UNL     1       2.384  -0.711  -8.879  1.00  0.00     0.029 A 
ATOM     51  C   UNL     1       1.152  -0.083  -9.063  1.00  0.00     0.049 A 
ATOM     52  H   UNL     1      -0.502  -1.062  -9.927  1.00  0.00     0.167 HD
ATOM     53  C   UNL     1      -0.552   1.666  -8.629  1.00  0.00     0.074 A 
ATOM     54  C   UNL     1      -1.808   0.923  -8.641  1.00  0.00     0.031 C 
ATOM     55  C   UNL     1       0.732   1.285  -8.880  1.00  0.00     0.034 A 
BRANCH  42  56
ATOM     56  C   UNL     1      -1.344  -3.694  -8.764  1.00  0.00     0.023 A 
ATOM     57  C   UNL     1      -1.123  -4.146 -10.080  1.00  0.00     0.012 A 
ATOM     58  C   UNL     1      -2.682  -3.658  -8.305  1.00  0.00     0.148 A 
ATOM     59  C   UNL     1      -2.187  -4.549 -10.896  1.00  0.00     0.002 A 
ATOM     60  C   UNL     1      -3.723  -4.138  -9.086  1.00  0.00     0.091 A 
ATOM     61  F   UNL     1      -2.971  -3.033  -7.157  1.00  0.00    -0.205 F 
ATOM     62  C   UNL     1      -3.485  -4.565 -10.393  1.00  0.00     0.022 A 
BRANCH  60  63
ATOM     63  S   UNL     1      -5.401  -4.221  -8.453  1.00  0.00     0.127 S 
ATOM     64  O   UNL     1      -6.028  -3.096  -9.140  1.00  0.00    -0.237 OA
ATOM     65  O   UNL     1      -5.828  -5.544  -8.909  1.00  0.00    -0.237 OA
ATOM     66  O   UNL     1      -5.272  -4.106  -7.006  1.00  0.00    -0.744 OA
ENDBRANCH  60  63
ENDBRANCH  42  56
BRANCH  43  67
ATOM     67  C   UNL     1      -3.562   3.907  -5.815  1.00  0.00     0.023 A 
ATOM     68  C   UNL     1      -4.104   4.597  -6.926  1.00  0.00     0.012 A 
ATOM     69  C   UNL     1      -4.389   3.748  -4.682  1.00  0.00     0.148 A 
ATOM     70  C   UNL     1      -5.434   5.039  -6.937  1.00  0.00     0.002 A 
ATOM     71  C   UNL     1      -5.707   4.202  -4.692  1.00  0.00     0.091 A 
ATOM     72  F   UNL     1      -3.927   3.061  -3.630  1.00  0.00    -0.205 F 
ATOM     73  C   UNL     1      -6.240   4.829  -5.825  1.00  0.00     0.022 A 
BRANCH  71  74
ATOM     74  S   UNL     1      -6.806   3.953  -3.290  1.00  0.00     0.127 S 
ATOM     75  O   UNL     1      -7.489   5.244  -3.200  1.00  0.00    -0.237 OA
ATOM     76  O   UNL     1      -7.644   2.850  -3.752  1.00  0.00    -0.237 OA
ATOM     77  O   UNL     1      -5.938   3.660  -2.156  1.00  0.00    -0.744 OA
ENDBRANCH  71  74
ENDBRANCH  43  67
BRANCH  55  78
ATOM     78  C   UNL     1       1.828   2.292  -8.674  1.00  0.00     0.023 A 
ATOM     79  C   UNL     1       2.198   2.748  -7.392  1.00  0.00     0.012 A 
ATOM     80  C   UNL     1       2.629   2.621  -9.780  1.00  0.00     0.148 A 
ATOM     81  C   UNL     1       3.354   3.515  -7.220  1.00  0.00     0.002 A 
ATOM     82  C   UNL     1       3.794   3.353  -9.600  1.00  0.00     0.091 A 
ATOM     83  F   UNL     1       2.254   2.167 -10.985  1.00  0.00    -0.205 F 
ATOM     84  C   UNL     1       4.160   3.805  -8.321  1.00  0.00     0.022 A 
BRANCH  82  85
ATOM     85  S   UNL     1       4.930   3.667 -10.954  1.00  0.00     0.127 S 
ATOM     86  O   UNL     1       4.838   5.119 -11.102  1.00  0.00    -0.237 OA
ATOM     87  O   UNL     1       6.201   3.186 -10.413  1.00  0.00    -0.237 OA
ATOM     88  O   UNL     1       4.434   2.898 -12.089  1.00  0.00    -0.744 OA
ENDBRANCH  82  85
ENDBRANCH  55  78
ENDBRANCH  29  30
ENDBRANCH  22  24
ENDBRANCH  21  22
ENDBRANCH   1  21
TORSDOF 16
