REMARK SMILES Cc1[nH]c(=O)n(C)c(=O)c1CC(=O)OCCOC(=O)c1ccc(-c2c3nc(c(-c4cccc(S(=O)(=O)[O-])c4F)c4ccc([nH]4)c(-c4cccc(S(=O)(=O)[O-])c4F)c4nc(c(-c5cccc(S(=O)(=O)[O-])c5F)c5ccc2[nH]5)C=C4)C=C3)cc1
REMARK SMILES IDX 16 1 15 2 14 3 12 4 13 5 11 6 10 7 1 8 2 9 3 10 4 11 8 13
REMARK SMILES IDX 5 14 6 15 9 16 7 17 17 18 18 19 19 20 20 21 21 22 82 23
REMARK SMILES IDX 22 24 81 25 23 26 24 27 25 28 75 29 26 30 80 31 74 32 76 33
REMARK SMILES IDX 27 34 79 35 73 36 72 37 28 39 60 40 40 41 59 42 41 43 44 44
REMARK SMILES IDX 58 45 77 46 42 47 43 48 57 50 78 51 45 52 29 53 30 54 38 55
REMARK SMILES IDX 31 56 33 57 39 58 32 59 34 60 35 61 36 62 37 63 61 64 62 65
REMARK SMILES IDX 70 66 63 67 65 68 71 69 64 70 66 71 67 72 68 73 69 74 46 75
REMARK SMILES IDX 47 76 55 77 48 78 50 79 56 80 49 81 51 82 52 83 53 84 54 85
REMARK H PARENT 3 12 76 38 44 49
REMARK Flexibility Score: inf
ROOT
ATOM      1  C   UNL     1      -0.003   4.892  -3.676  1.00  0.00     0.275 C 
ENDROOT
BRANCH   1   2
ATOM      2  C   UNL     1      -0.027   3.368  -3.756  1.00  0.00     0.274 C 
BRANCH   2   3
ATOM      3  O   UNL     1       0.368   2.783  -2.497  1.00  0.00    -0.462 OA
BRANCH   3   4
ATOM      4  C   UNL     1       1.653   2.339  -2.435  1.00  0.00     0.310 C 
ATOM      5  O   UNL     1       2.430   2.325  -3.385  1.00  0.00    -0.252 OA
BRANCH   4   6
ATOM      6  C   UNL     1       2.057   1.788  -1.077  1.00  0.00     0.165 C 
BRANCH   6   7
ATOM      7  C   UNL     1       1.036   1.932   0.017  1.00  0.00     0.048 A 
ATOM      8  C   UNL     1       0.414  -0.496   0.096  1.00  0.00     0.065 C 
ATOM      9  C   UNL     1       0.299   0.936   0.534  1.00  0.00     0.026 A 
ATOM     10  N   UNL     1      -0.613   1.205   1.517  1.00  0.00    -0.311 N 
ATOM     11  C   UNL     1      -0.885   2.447   2.021  1.00  0.00     0.328 A 
ATOM     12  H   UNL     1      -1.112   0.444   1.893  1.00  0.00     0.171 HD
ATOM     13  C   UNL     1       0.892   3.294   0.606  1.00  0.00     0.259 A 
ATOM     14  O   UNL     1      -1.748   2.570   2.889  1.00  0.00    -0.248 OA
ATOM     15  N   UNL     1      -0.137   3.484   1.505  1.00  0.00    -0.263 N 
ATOM     16  O   UNL     1       1.702   4.162   0.293  1.00  0.00    -0.269 OA
ATOM     17  C   UNL     1      -0.376   4.816   2.027  1.00  0.00     0.158 C 
ENDBRANCH   6   7
ENDBRANCH   4   6
ENDBRANCH   3   4
ENDBRANCH   2   3
ENDBRANCH   1   2
BRANCH   1  18
ATOM     18  O   UNL     1       1.306   5.324  -3.278  1.00  0.00    -0.458 OA
BRANCH  18  19
ATOM     19  C   UNL     1       1.355   6.120  -2.183  1.00  0.00     0.338 C 
ATOM     20  O   UNL     1       0.409   6.580  -1.565  1.00  0.00    -0.246 OA
BRANCH  19  21
ATOM     21  C   UNL     1       2.765   6.412  -1.867  1.00  0.00     0.060 A 
ATOM     22  C   UNL     1       3.676   5.375  -1.654  1.00  0.00     0.016 A 
ATOM     23  C   UNL     1       3.160   7.739  -1.703  1.00  0.00     0.016 A 
ATOM     24  C   UNL     1       4.963   5.656  -1.202  1.00  0.00     0.010 A 
ATOM     25  C   UNL     1       4.476   8.023  -1.330  1.00  0.00     0.010 A 
ATOM     26  C   UNL     1       5.379   6.984  -1.043  1.00  0.00    -0.014 A 
BRANCH  26  27
ATOM     27  C   UNL     1       6.747   7.295  -0.553  1.00  0.00     0.031 A 
ATOM     28  C   UNL     1       6.931   8.015   0.756  1.00  0.00     0.074 A 
ATOM     29  C   UNL     1       7.820   6.954  -1.294  1.00  0.00     0.049 A 
ATOM     30  N   UNL     1       8.027   8.496   1.284  1.00  0.00    -0.248 NA
ATOM     31  C   UNL     1       5.726   8.234   1.575  1.00  0.00     0.031 C 
ATOM     32  C   UNL     1       7.772   6.243  -2.573  1.00  0.00     0.029 A 
ATOM     33  N   UNL     1       9.159   7.176  -1.088  1.00  0.00    -0.354 N 
ATOM     34  C   UNL     1       7.639   9.117   2.465  1.00  0.00     0.074 A 
ATOM     35  C   UNL     1       6.206   8.955   2.580  1.00  0.00     0.031 C 
ATOM     36  C   UNL     1       9.022   6.088  -3.037  1.00  0.00     0.029 A 
ATOM     37  C   UNL     1       9.954   6.737  -2.121  1.00  0.00     0.049 A 
ATOM     38  H   UNL     1       9.516   7.609  -0.279  1.00  0.00     0.167 HD
ATOM     39  C   UNL     1       8.412   9.748   3.380  1.00  0.00     0.034 A 
ATOM     40  C   UNL     1      11.280   6.868  -2.326  1.00  0.00     0.034 A 
ATOM     41  C   UNL     1       9.844   9.848   3.295  1.00  0.00     0.049 A 
ATOM     42  C   UNL     1      12.111   7.583  -1.295  1.00  0.00     0.074 A 
ATOM     43  C   UNL     1      10.716  10.426   4.200  1.00  0.00     0.029 A 
ATOM     44  N   UNL     1      10.614   9.354   2.254  1.00  0.00    -0.354 N 
ATOM     45  N   UNL     1      11.739   8.093  -0.146  1.00  0.00    -0.248 NA
ATOM     46  C   UNL     1      13.546   7.728  -1.579  1.00  0.00     0.031 C 
ATOM     47  C   UNL     1      12.014  10.294   3.700  1.00  0.00     0.029 A 
ATOM     48  C   UNL     1      11.951   9.620   2.491  1.00  0.00     0.049 A 
ATOM     49  H   UNL     1      10.262   8.884   1.464  1.00  0.00     0.167 HD
ATOM     50  C   UNL     1      12.893   8.601   0.438  1.00  0.00     0.074 A 
ATOM     51  C   UNL     1      13.984   8.309  -0.469  1.00  0.00     0.031 C 
ATOM     52  C   UNL     1      13.034   9.273   1.607  1.00  0.00     0.034 A 
BRANCH  39  53
ATOM     53  C   UNL     1       7.745  10.344   4.591  1.00  0.00     0.023 A 
ATOM     54  C   UNL     1       7.323   9.497   5.634  1.00  0.00     0.012 A 
ATOM     55  C   UNL     1       7.648  11.741   4.748  1.00  0.00     0.148 A 
ATOM     56  C   UNL     1       6.805  10.031   6.814  1.00  0.00     0.002 A 
ATOM     57  C   UNL     1       7.168  12.267   5.942  1.00  0.00     0.091 A 
ATOM     58  F   UNL     1       8.043  12.526   3.736  1.00  0.00    -0.205 F 
ATOM     59  C   UNL     1       6.740  11.413   6.973  1.00  0.00     0.022 A 
BRANCH  57  60
ATOM     60  S   UNL     1       7.117  14.030   6.281  1.00  0.00     0.127 S 
ATOM     61  O   UNL     1       5.677  14.272   6.375  1.00  0.00    -0.237 OA
ATOM     62  O   UNL     1       7.834  14.118   7.553  1.00  0.00    -0.237 OA
ATOM     63  O   UNL     1       7.780  14.678   5.158  1.00  0.00    -0.744 OA
ENDBRANCH  57  60
ENDBRANCH  39  53
BRANCH  40  64
ATOM     64  C   UNL     1      11.906   6.279  -3.545  1.00  0.00     0.023 A 
ATOM     65  C   UNL     1      12.777   5.181  -3.409  1.00  0.00     0.012 A 
ATOM     66  C   UNL     1      11.614   6.767  -4.834  1.00  0.00     0.148 A 
ATOM     67  C   UNL     1      13.363   4.594  -4.531  1.00  0.00     0.002 A 
ATOM     68  C   UNL     1      12.153   6.139  -5.952  1.00  0.00     0.091 A 
ATOM     69  F   UNL     1      10.805   7.829  -4.946  1.00  0.00    -0.205 F 
ATOM     70  C   UNL     1      13.040   5.062  -5.802  1.00  0.00     0.022 A 
BRANCH  68  71
ATOM     71  S   UNL     1      11.671   6.588  -7.624  1.00  0.00     0.127 S 
ATOM     72  O   UNL     1      12.828   7.357  -8.073  1.00  0.00    -0.237 OA
ATOM     73  O   UNL     1      11.516   5.279  -8.261  1.00  0.00    -0.237 OA
ATOM     74  O   UNL     1      10.426   7.330  -7.480  1.00  0.00    -0.744 OA
ENDBRANCH  68  71
ENDBRANCH  40  64
BRANCH  52  75
ATOM     75  C   UNL     1      14.412   9.740   1.992  1.00  0.00     0.023 A 
ATOM     76  C   UNL     1      14.973  10.850   1.330  1.00  0.00     0.012 A 
ATOM     77  C   UNL     1      15.097   9.161   3.079  1.00  0.00     0.148 A 
ATOM     78  C   UNL     1      16.204  11.366   1.732  1.00  0.00     0.002 A 
ATOM     79  C   UNL     1      16.301   9.710   3.504  1.00  0.00     0.091 A 
ATOM     80  F   UNL     1      14.552   8.096   3.684  1.00  0.00    -0.205 F 
ATOM     81  C   UNL     1      16.860  10.807   2.827  1.00  0.00     0.022 A 
BRANCH  79  82
ATOM     82  S   UNL     1      17.167   9.121   4.964  1.00  0.00     0.127 S 
ATOM     83  O   UNL     1      18.314   8.434   4.373  1.00  0.00    -0.237 OA
ATOM     84  O   UNL     1      17.495  10.368   5.657  1.00  0.00    -0.237 OA
ATOM     85  O   UNL     1      16.224   8.267   5.672  1.00  0.00    -0.744 OA
ENDBRANCH  79  82
ENDBRANCH  52  75
ENDBRANCH  26  27
ENDBRANCH  19  21
ENDBRANCH  18  19
ENDBRANCH   1  18
TORSDOF 15
