REMARK SMILES CS(=O)(=O)c1ccc(/C=C(/C(=O)OCCOC(=O)c2ccc(-c3c4nc(c(-c5cccc(S(=O)(=O)[O-])c5F)c5ccc([nH]5)c(-c5cccc(S(=O)(=O)[O-])c5F)c5nc(c(-c6cccc(S(=O)(=O)[O-])c6F)c6ccc3[nH]6)C=C5)C=C4)cc2)c2ccc(O)cc2)cc1
REMARK SMILES IDX 15 1 14 2 13 3 11 4 12 5 10 6 9 7 8 8 5 9 6 10 90 11 7 12
REMARK SMILES IDX 89 13 2 14 1 15 3 16 4 17 82 18 83 19 88 20 84 21 87 22
REMARK SMILES IDX 85 23 86 24 16 26 17 27 18 28 19 29 20 30 81 31 21 32 80 33
REMARK SMILES IDX 22 34 23 35 24 36 74 37 25 38 79 39 73 40 75 41 26 42 78 43
REMARK SMILES IDX 72 44 71 45 27 47 59 48 39 49 58 50 40 51 43 52 57 53 76 54
REMARK SMILES IDX 41 55 42 56 56 58 77 59 44 60 28 61 29 62 37 63 30 64 32 65
REMARK SMILES IDX 38 66 31 67 33 68 34 69 35 70 36 71 60 72 61 73 69 74 62 75
REMARK SMILES IDX 64 76 70 77 63 78 65 79 66 80 67 81 68 82 45 83 46 84 54 85
REMARK SMILES IDX 47 86 49 87 55 88 48 89 50 90 51 91 52 92 53 93
REMARK H PARENT 86 25 75 46 43 57
REMARK Flexibility Score: inf
ROOT
ATOM      1  C   UNL     1       4.804   1.500 -10.741  1.00  0.00     0.275 C 
ENDROOT
BRANCH   1   2
ATOM      2  C   UNL     1       3.395   1.743 -10.206  1.00  0.00     0.275 C 
BRANCH   2   3
ATOM      3  O   UNL     1       3.288   1.306  -8.835  1.00  0.00    -0.458 OA
BRANCH   3   4
ATOM      4  C   UNL     1       2.665   0.111  -8.656  1.00  0.00     0.338 C 
ATOM      5  O   UNL     1       2.153  -0.562  -9.540  1.00  0.00    -0.246 OA
BRANCH   4   6
ATOM      6  C   UNL     1       2.684  -0.322  -7.227  1.00  0.00     0.067 C 
ATOM      7  C   UNL     1       2.337   0.581  -6.281  1.00  0.00     0.024 C 
BRANCH   7   8
ATOM      8  C   UNL     1       1.968   0.311  -4.871  1.00  0.00    -0.025 A 
ATOM      9  C   UNL     1       0.904  -0.344  -2.357  1.00  0.00     0.067 A 
ATOM     10  C   UNL     1       2.018  -1.028  -2.833  1.00  0.00     0.021 A 
ATOM     11  C   UNL     1       0.354   0.709  -3.087  1.00  0.00     0.021 A 
ATOM     12  C   UNL     1       2.567  -0.666  -4.064  1.00  0.00     0.009 A 
ATOM     13  C   UNL     1       0.889   1.033  -4.338  1.00  0.00     0.009 A 
BRANCH   9  14
ATOM     14  S   UNL     1       0.131  -0.870  -0.850  1.00  0.00     0.175 S 
ATOM     15  C   UNL     1       1.006   0.042   0.390  1.00  0.00     0.163 C 
ATOM     16  O   UNL     1       0.433  -2.281  -0.665  1.00  0.00    -0.224 OA
ATOM     17  O   UNL     1      -1.237  -0.403  -0.870  1.00  0.00    -0.224 OA
ENDBRANCH   9  14
ENDBRANCH   7   8
BRANCH   6  18
ATOM     18  C   UNL     1       2.896  -1.752  -6.936  1.00  0.00    -0.011 A 
ATOM     19  C   UNL     1       4.181  -2.189  -6.573  1.00  0.00     0.013 A 
ATOM     20  C   UNL     1       1.835  -2.666  -6.939  1.00  0.00     0.013 A 
ATOM     21  C   UNL     1       4.386  -3.507  -6.165  1.00  0.00     0.047 A 
ATOM     22  C   UNL     1       2.048  -3.993  -6.551  1.00  0.00     0.047 A 
ATOM     23  C   UNL     1       3.320  -4.396  -6.157  1.00  0.00     0.115 A 
BRANCH  23  24
ATOM     24  O   UNL     1       3.573  -5.670  -5.750  1.00  0.00    -0.508 OA
ATOM     25  H   UNL     1       4.439  -5.915  -5.490  1.00  0.00     0.293 HD
ENDBRANCH  23  24
ENDBRANCH   6  18
ENDBRANCH   4   6
ENDBRANCH   3   4
ENDBRANCH   2   3
ENDBRANCH   1   2
BRANCH   1  26
ATOM     26  O   UNL     1       5.082   0.090 -10.754  1.00  0.00    -0.458 OA
BRANCH  26  27
ATOM     27  C   UNL     1       6.111  -0.317  -9.975  1.00  0.00     0.338 C 
ATOM     28  O   UNL     1       6.865   0.391  -9.325  1.00  0.00    -0.246 OA
BRANCH  27  29
ATOM     29  C   UNL     1       6.198  -1.790  -9.967  1.00  0.00     0.060 A 
ATOM     30  C   UNL     1       5.065  -2.550  -9.701  1.00  0.00     0.016 A 
ATOM     31  C   UNL     1       7.442  -2.413 -10.059  1.00  0.00     0.016 A 
ATOM     32  C   UNL     1       5.200  -3.901  -9.380  1.00  0.00     0.010 A 
ATOM     33  C   UNL     1       7.548  -3.797  -9.858  1.00  0.00     0.010 A 
ATOM     34  C   UNL     1       6.440  -4.556  -9.447  1.00  0.00    -0.014 A 
BRANCH  34  35
ATOM     35  C   UNL     1       6.576  -5.995  -9.038  1.00  0.00     0.031 A 
ATOM     36  C   UNL     1       7.669  -6.434  -8.084  1.00  0.00     0.074 A 
ATOM     37  C   UNL     1       5.722  -6.934  -9.501  1.00  0.00     0.049 A 
ATOM     38  N   UNL     1       8.082  -7.644  -7.798  1.00  0.00    -0.248 NA
ATOM     39  C   UNL     1       8.415  -5.377  -7.381  1.00  0.00     0.031 C 
ATOM     40  C   UNL     1       4.606  -6.692 -10.416  1.00  0.00     0.029 A 
ATOM     41  N   UNL     1       5.658  -8.289  -9.265  1.00  0.00    -0.354 N 
ATOM     42  C   UNL     1       9.195  -7.490  -6.977  1.00  0.00     0.074 A 
ATOM     43  C   UNL     1       9.381  -6.067  -6.790  1.00  0.00     0.031 C 
ATOM     44  C   UNL     1       3.935  -7.833 -10.613  1.00  0.00     0.029 A 
ATOM     45  C   UNL     1       4.638  -8.919  -9.941  1.00  0.00     0.049 A 
ATOM     46  H   UNL     1       6.283  -8.762  -8.669  1.00  0.00     0.167 HD
ATOM     47  C   UNL     1       9.986  -8.442  -6.423  1.00  0.00     0.034 A 
ATOM     48  C   UNL     1       4.322 -10.224 -10.065  1.00  0.00     0.034 A 
ATOM     49  C   UNL     1       9.728  -9.857  -6.494  1.00  0.00     0.049 A 
ATOM     50  C   UNL     1       5.179 -11.258  -9.397  1.00  0.00     0.074 A 
ATOM     51  C   UNL     1      10.444 -10.891  -5.913  1.00  0.00     0.029 A 
ATOM     52  N   UNL     1       8.657 -10.438  -7.153  1.00  0.00    -0.354 N 
ATOM     53  N   UNL     1       6.229 -11.089  -8.632  1.00  0.00    -0.248 NA
ATOM     54  C   UNL     1       4.811 -12.665  -9.612  1.00  0.00     0.031 C 
ATOM     55  C   UNL     1       9.807 -12.098  -6.223  1.00  0.00     0.029 A 
ATOM     56  C   UNL     1       8.688 -11.814  -6.989  1.00  0.00     0.049 A 
ATOM     57  H   UNL     1       7.974  -9.946  -7.663  1.00  0.00     0.167 HD
ATOM     58  C   UNL     1       6.647 -12.364  -8.273  1.00  0.00     0.074 A 
ATOM     59  C   UNL     1       5.711 -13.295  -8.869  1.00  0.00     0.031 C 
ATOM     60  C   UNL     1       7.728 -12.731  -7.544  1.00  0.00     0.034 A 
BRANCH  47  61
ATOM     61  C   UNL     1      11.205  -7.997  -5.654  1.00  0.00     0.023 A 
ATOM     62  C   UNL     1      11.066  -7.452  -4.363  1.00  0.00     0.012 A 
ATOM     63  C   UNL     1      12.498  -8.206  -6.179  1.00  0.00     0.148 A 
ATOM     64  C   UNL     1      12.191  -7.099  -3.617  1.00  0.00     0.002 A 
ATOM     65  C   UNL     1      13.615  -7.892  -5.412  1.00  0.00     0.091 A 
ATOM     66  F   UNL     1      12.613  -8.707  -7.418  1.00  0.00    -0.205 F 
ATOM     67  C   UNL     1      13.463  -7.330  -4.135  1.00  0.00     0.022 A 
BRANCH  65  68
ATOM     68  S   UNL     1      15.290  -8.240  -5.964  1.00  0.00     0.127 S 
ATOM     69  O   UNL     1      15.755  -6.910  -6.356  1.00  0.00    -0.237 OA
ATOM     70  O   UNL     1      15.916  -8.770  -4.752  1.00  0.00    -0.237 OA
ATOM     71  O   UNL     1      15.160  -9.206  -7.046  1.00  0.00    -0.744 OA
ENDBRANCH  65  68
ENDBRANCH  47  61
BRANCH  48  72
ATOM     72  C   UNL     1       3.128 -10.614 -10.869  1.00  0.00     0.023 A 
ATOM     73  C   UNL     1       1.999 -11.149 -10.220  1.00  0.00     0.012 A 
ATOM     74  C   UNL     1       3.076 -10.386 -12.258  1.00  0.00     0.148 A 
ATOM     75  C   UNL     1       0.842 -11.449 -10.940  1.00  0.00     0.002 A 
ATOM     76  C   UNL     1       1.896 -10.615 -12.955  1.00  0.00     0.091 A 
ATOM     77  F   UNL     1       4.172  -9.913 -12.869  1.00  0.00    -0.205 F 
ATOM     78  C   UNL     1       0.783 -11.162 -12.302  1.00  0.00     0.022 A 
BRANCH  76  79
ATOM     79  S   UNL     1       1.692 -10.089 -14.661  1.00  0.00     0.127 S 
ATOM     80  O   UNL     1       1.862 -11.344 -15.386  1.00  0.00    -0.237 OA
ATOM     81  O   UNL     1       0.328  -9.557 -14.659  1.00  0.00    -0.237 OA
ATOM     82  O   UNL     1       2.720  -9.079 -14.875  1.00  0.00    -0.744 OA
ENDBRANCH  76  79
ENDBRANCH  48  72
BRANCH  60  83
ATOM     83  C   UNL     1       7.956 -14.204  -7.337  1.00  0.00     0.023 A 
ATOM     84  C   UNL     1       8.451 -14.983  -8.402  1.00  0.00     0.012 A 
ATOM     85  C   UNL     1       7.729 -14.807  -6.085  1.00  0.00     0.148 A 
ATOM     86  C   UNL     1       8.688 -16.347  -8.232  1.00  0.00     0.002 A 
ATOM     87  C   UNL     1       8.004 -16.159  -5.912  1.00  0.00     0.091 A 
ATOM     88  F   UNL     1       7.237 -14.054  -5.091  1.00  0.00    -0.205 F 
ATOM     89  C   UNL     1       8.474 -16.932  -6.987  1.00  0.00     0.022 A 
BRANCH  87  90
ATOM     90  S   UNL     1       7.830 -16.976  -4.322  1.00  0.00     0.127 S 
ATOM     91  O   UNL     1       6.579 -17.711  -4.499  1.00  0.00    -0.237 OA
ATOM     92  O   UNL     1       9.027 -17.816  -4.267  1.00  0.00    -0.237 OA
ATOM     93  O   UNL     1       7.799 -15.910  -3.330  1.00  0.00    -0.744 OA
ENDBRANCH  87  90
ENDBRANCH  60  83
ENDBRANCH  34  35
ENDBRANCH  27  29
ENDBRANCH  26  27
ENDBRANCH   1  26
TORSDOF 18
