REMARK SMILES Cc1nc(-c2ccccc2Cl)nc2sc(C(=O)OCCOC(=O)c3ccc(-c4c5nc(c(-c6cccc(S(=O)(=O)[O-])c6F)c6ccc([nH]6)c(-c6cccc(S(=O)(=O)[O-])c6F)c6nc(c(-c7cccc(S(=O)(=O)[O-])c7F)c7ccc4[nH]7)C=C6)C=C5)cc3)c(N)c12
REMARK SMILES IDX 20 1 19 2 18 3 16 4 17 5 15 6 1 7 2 8 3 9 89 10 4 11 13 12
REMARK SMILES IDX 87 13 12 14 14 15 5 16 6 17 10 18 7 19 9 20 11 21 8 22 88 23
REMARK SMILES IDX 21 26 22 27 23 28 24 29 25 30 86 31 26 32 85 33 27 34 28 35
REMARK SMILES IDX 29 36 79 37 30 38 84 39 78 40 80 41 31 42 83 43 77 44 76 45
REMARK SMILES IDX 32 47 64 48 44 49 63 50 45 51 48 52 62 53 81 54 46 55 47 56
REMARK SMILES IDX 61 58 82 59 49 60 33 61 34 62 42 63 35 64 37 65 43 66 36 67
REMARK SMILES IDX 38 68 39 69 40 70 41 71 65 72 66 73 74 74 67 75 69 76 75 77
REMARK SMILES IDX 68 78 70 79 71 80 72 81 73 82 50 83 51 84 59 85 52 86 54 87
REMARK SMILES IDX 60 88 53 89 55 90 56 91 57 92 58 93
REMARK H PARENT 88 24 88 25 80 46 48 57
REMARK Flexibility Score: inf
ROOT
ATOM      1  C   UNL     1      -1.603   4.039   7.609  1.00  0.00     0.275 C 
ENDROOT
BRANCH   1   2
ATOM      2  C   UNL     1      -2.758   3.237   7.030  1.00  0.00     0.275 C 
BRANCH   2   3
ATOM      3  O   UNL     1      -2.286   2.184   6.178  1.00  0.00    -0.458 OA
BRANCH   3   4
ATOM      4  C   UNL     1      -2.100   2.464   4.847  1.00  0.00     0.350 C 
ATOM      5  O   UNL     1      -2.441   3.505   4.312  1.00  0.00    -0.245 OA
BRANCH   4   6
ATOM      6  C   UNL     1      -1.419   1.357   4.187  1.00  0.00     0.138 A 
ATOM      7  C   UNL     1       0.852   0.093   0.252  1.00  0.00     0.067 C 
ATOM      8  C   UNL     1       0.423  -0.577   1.522  1.00  0.00     0.052 A 
ATOM      9  N   UNL     1       0.736  -1.910   1.585  1.00  0.00    -0.233 NA
ATOM     10  C   UNL     1      -0.251   0.014   2.620  1.00  0.00     0.057 A 
ATOM     11  C   UNL     1       0.436  -2.615   2.687  1.00  0.00     0.162 A 
ATOM     12  C   UNL     1      -0.497  -0.850   3.677  1.00  0.00     0.130 A 
ATOM     13  C   UNL     1      -0.794   1.321   2.945  1.00  0.00     0.069 A 
ATOM     14  N   UNL     1      -0.188  -2.146   3.762  1.00  0.00    -0.217 NA
ATOM     15  S   UNL     1      -1.310  -0.152   4.977  1.00  0.00    -0.106 S 
BRANCH  11  16
ATOM     16  C   UNL     1       0.680  -4.057   2.711  1.00  0.00     0.038 A 
ATOM     17  C   UNL     1      -0.405  -4.915   3.004  1.00  0.00     0.013 A 
ATOM     18  C   UNL     1       1.946  -4.636   2.552  1.00  0.00     0.052 A 
ATOM     19  C   UNL     1      -0.235  -6.292   3.144  1.00  0.00     0.001 A 
ATOM     20  C   UNL     1       2.116  -6.021   2.695  1.00  0.00     0.021 A 
ATOM     21  Cl  UNL     1       3.368  -3.697   2.253  1.00  0.00    -0.084 Cl
ATOM     22  C   UNL     1       1.030  -6.845   2.993  1.00  0.00     0.002 A 
ENDBRANCH  11  16
BRANCH  13  23
ATOM     23  N   UNL     1      -0.725   2.414   2.151  1.00  0.00    -0.397 N 
ATOM     24  H   UNL     1      -1.120   3.265   2.449  1.00  0.00     0.156 HD
ATOM     25  H   UNL     1      -0.279   2.359   1.275  1.00  0.00     0.156 HD
ENDBRANCH  13  23
ENDBRANCH   4   6
ENDBRANCH   3   4
ENDBRANCH   2   3
ENDBRANCH   1   2
BRANCH   1  26
ATOM     26  O   UNL     1      -1.062   4.926   6.635  1.00  0.00    -0.458 OA
BRANCH  26  27
ATOM     27  C   UNL     1       0.005   4.454   5.955  1.00  0.00     0.338 C 
ATOM     28  O   UNL     1       0.380   3.295   5.891  1.00  0.00    -0.246 OA
BRANCH  27  29
ATOM     29  C   UNL     1       0.781   5.588   5.447  1.00  0.00     0.060 A 
ATOM     30  C   UNL     1       1.908   5.295   4.679  1.00  0.00     0.016 A 
ATOM     31  C   UNL     1       0.525   6.886   5.920  1.00  0.00     0.016 A 
ATOM     32  C   UNL     1       2.860   6.277   4.516  1.00  0.00     0.010 A 
ATOM     33  C   UNL     1       1.478   7.866   5.758  1.00  0.00     0.010 A 
ATOM     34  C   UNL     1       2.663   7.533   5.114  1.00  0.00    -0.014 A 
BRANCH  34  35
ATOM     35  C   UNL     1       3.661   8.553   4.868  1.00  0.00     0.031 A 
ATOM     36  C   UNL     1       3.666   8.946   3.443  1.00  0.00     0.074 A 
ATOM     37  C   UNL     1       4.435   9.104   5.824  1.00  0.00     0.049 A 
ATOM     38  N   UNL     1       4.489   8.533   2.538  1.00  0.00    -0.248 NA
ATOM     39  C   UNL     1       2.493   9.653   2.904  1.00  0.00     0.031 C 
ATOM     40  C   UNL     1       4.268   8.984   7.276  1.00  0.00     0.029 A 
ATOM     41  N   UNL     1       5.469   9.986   5.708  1.00  0.00    -0.354 N 
ATOM     42  C   UNL     1       4.122   9.226   1.389  1.00  0.00     0.074 A 
ATOM     43  C   UNL     1       2.765   9.645   1.596  1.00  0.00     0.031 C 
ATOM     44  C   UNL     1       4.985   9.956   7.888  1.00  0.00     0.029 A 
ATOM     45  C   UNL     1       5.780  10.652   6.891  1.00  0.00     0.049 A 
ATOM     46  H   UNL     1       5.952  10.138   4.864  1.00  0.00     0.167 HD
ATOM     47  C   UNL     1       5.096   9.732   0.584  1.00  0.00     0.034 A 
ATOM     48  C   UNL     1       6.590  11.734   7.014  1.00  0.00     0.034 A 
ATOM     49  C   UNL     1       6.371   9.141   0.910  1.00  0.00     0.049 A 
ATOM     50  C   UNL     1       7.504  11.729   5.853  1.00  0.00     0.074 A 
ATOM     51  C   UNL     1       7.029   7.950   0.711  1.00  0.00     0.029 A 
ATOM     52  N   UNL     1       6.997   9.791   1.939  1.00  0.00    -0.354 N 
ATOM     53  N   UNL     1       8.415  10.815   5.667  1.00  0.00    -0.248 NA
ATOM     54  C   UNL     1       7.196  12.564   4.697  1.00  0.00     0.031 C 
ATOM     55  C   UNL     1       8.037   7.877   1.719  1.00  0.00     0.029 A 
ATOM     56  C   UNL     1       8.000   9.042   2.480  1.00  0.00     0.049 A 
ATOM     57  H   UNL     1       6.753  10.692   2.252  1.00  0.00     0.167 HD
ATOM     58  C   UNL     1       8.440  10.662   4.296  1.00  0.00     0.074 A 
ATOM     59  C   UNL     1       7.834  11.871   3.751  1.00  0.00     0.031 C 
ATOM     60  C   UNL     1       8.601   9.433   3.735  1.00  0.00     0.034 A 
BRANCH  47  61
ATOM     61  C   UNL     1       5.066  11.105  -0.074  1.00  0.00     0.023 A 
ATOM     62  C   UNL     1       6.196  11.449  -0.855  1.00  0.00     0.012 A 
ATOM     63  C   UNL     1       4.187  12.161   0.259  1.00  0.00     0.148 A 
ATOM     64  C   UNL     1       6.468  12.771  -1.224  1.00  0.00     0.002 A 
ATOM     65  C   UNL     1       4.426  13.465  -0.166  1.00  0.00     0.091 A 
ATOM     66  F   UNL     1       3.169  11.957   1.093  1.00  0.00    -0.205 F 
ATOM     67  C   UNL     1       5.581  13.781  -0.881  1.00  0.00     0.022 A 
BRANCH  65  68
ATOM     68  S   UNL     1       3.296  14.810   0.223  1.00  0.00     0.127 S 
ATOM     69  O   UNL     1       4.111  15.626   1.118  1.00  0.00    -0.237 OA
ATOM     70  O   UNL     1       3.060  15.384  -1.102  1.00  0.00    -0.237 OA
ATOM     71  O   UNL     1       2.123  14.185   0.822  1.00  0.00    -0.744 OA
ENDBRANCH  65  68
ENDBRANCH  47  61
BRANCH  48  72
ATOM     72  C   UNL     1       6.498  12.925   7.894  1.00  0.00     0.023 A 
ATOM     73  C   UNL     1       7.627  13.762   8.042  1.00  0.00     0.012 A 
ATOM     74  C   UNL     1       5.241  13.429   8.288  1.00  0.00     0.148 A 
ATOM     75  C   UNL     1       7.497  15.081   8.492  1.00  0.00     0.002 A 
ATOM     76  C   UNL     1       5.115  14.745   8.726  1.00  0.00     0.091 A 
ATOM     77  F   UNL     1       4.161  12.650   8.140  1.00  0.00    -0.205 F 
ATOM     78  C   UNL     1       6.238  15.579   8.813  1.00  0.00     0.022 A 
BRANCH  76  79
ATOM     79  S   UNL     1       3.519  15.484   9.103  1.00  0.00     0.127 S 
ATOM     80  O   UNL     1       3.755  16.044  10.434  1.00  0.00    -0.237 OA
ATOM     81  O   UNL     1       3.387  16.474   8.038  1.00  0.00    -0.237 OA
ATOM     82  O   UNL     1       2.556  14.391   9.072  1.00  0.00    -0.744 OA
ENDBRANCH  76  79
ENDBRANCH  48  72
BRANCH  60  83
ATOM     83  C   UNL     1       9.324   8.384   4.514  1.00  0.00     0.023 A 
ATOM     84  C   UNL     1       8.790   7.742   5.647  1.00  0.00     0.012 A 
ATOM     85  C   UNL     1      10.543   7.941   3.977  1.00  0.00     0.148 A 
ATOM     86  C   UNL     1       9.468   6.663   6.225  1.00  0.00     0.002 A 
ATOM     87  C   UNL     1      11.181   6.838   4.517  1.00  0.00     0.091 A 
ATOM     88  F   UNL     1      11.038   8.594   2.914  1.00  0.00    -0.205 F 
ATOM     89  C   UNL     1      10.652   6.199   5.648  1.00  0.00     0.022 A 
BRANCH  87  90
ATOM     90  S   UNL     1      12.621   6.122   3.725  1.00  0.00     0.127 S 
ATOM     91  O   UNL     1      13.691   6.484   4.652  1.00  0.00    -0.237 OA
ATOM     92  O   UNL     1      12.284   4.698   3.700  1.00  0.00    -0.237 OA
ATOM     93  O   UNL     1      12.702   6.737   2.405  1.00  0.00    -0.744 OA
ENDBRANCH  87  90
ENDBRANCH  60  83
ENDBRANCH  34  35
ENDBRANCH  27  29
ENDBRANCH  26  27
ENDBRANCH   1  26
TORSDOF 16
