REMARK SMILES O=C(N[C@]1(C(=O)OCCOC(=O)c2ccc(-c3c4nc(c(-c5cccc(S(=O)(=O)[O-])c5F)c5ccc([nH]5)c(-c5cccc(S(=O)(=O)[O-])c5F)c5nc(c(-c6cccc(S(=O)(=O)[O-])c6F)c6ccc3[nH]6)C=C5)C=C4)cc2)CC[C@H](c2ccccc2)CC1)OCC1c2ccccc2-c2ccccc21
REMARK SMILES IDX 8 1 7 2 5 3 6 4 4 5 76 6 86 7 77 8 85 9 78 10 3 11 1 12 2 13
REMARK SMILES IDX 87 15 88 16 89 17 90 18 101 19 91 20 95 21 96 22 100 23
REMARK SMILES IDX 92 24 94 25 97 26 99 27 93 28 98 29 79 30 80 31 84 32 81 33
REMARK SMILES IDX 83 34 82 35 9 36 10 37 11 38 12 39 13 40 14 41 75 42 15 43
REMARK SMILES IDX 74 44 16 45 17 46 18 47 68 48 19 49 73 50 67 51 69 52 20 53
REMARK SMILES IDX 72 54 66 55 65 56 21 58 53 59 33 60 52 61 34 62 37 63 51 64
REMARK SMILES IDX 70 65 35 66 36 67 50 69 71 70 38 71 22 72 23 73 31 74 24 75
REMARK SMILES IDX 26 76 32 77 25 78 27 79 28 80 29 81 30 82 54 83 55 84 63 85
REMARK SMILES IDX 56 86 58 87 64 88 57 89 59 90 60 91 61 92 62 93 39 94 40 95
REMARK SMILES IDX 48 96 41 97 43 98 49 99 42 100 44 101 45 102 46 103 47 104
REMARK H PARENT 3 14 69 57 37 68
REMARK Flexibility Score: inf
ROOT
ATOM      1  C   UNL     1       6.552   1.918   3.131  1.00  0.00     0.274 C 
ENDROOT
BRANCH   1   2
ATOM      2  O   UNL     1       6.166   0.983   2.097  1.00  0.00    -0.460 OA
BRANCH   2   3
ATOM      3  C   UNL     1       5.114   0.168   2.387  1.00  0.00     0.332 C 
ATOM      4  O   UNL     1       4.448   0.276   3.414  1.00  0.00    -0.249 OA
BRANCH   3   5
ATOM      5  C   UNL     1       4.856  -0.962   1.334  1.00  0.00     0.141 C 
ATOM      6  C   UNL     1       4.806  -2.289   2.143  1.00  0.00     0.041 C 
ATOM      7  C   UNL     1       5.938  -1.084   0.239  1.00  0.00     0.041 C 
ATOM      8  C   UNL     1       6.193  -2.854   2.492  1.00  0.00     0.011 C 
ATOM      9  C   UNL     1       7.267  -1.702   0.629  1.00  0.00     0.011 C 
ATOM     10  C   UNL     1       7.079  -3.084   1.248  1.00  0.00     0.019 C 
BRANCH   5  11
ATOM     11  N   UNL     1       3.518  -0.770   0.677  1.00  0.00    -0.305 N 
ATOM     12  O   UNL     1       2.279  -0.051  -1.115  1.00  0.00    -0.225 OA
ATOM     13  C   UNL     1       3.282   0.026  -0.419  1.00  0.00     0.408 C 
ATOM     14  H   UNL     1       2.750  -1.252   1.062  1.00  0.00     0.168 HD
BRANCH  13  15
ATOM     15  O   UNL     1       4.326   0.819  -0.639  1.00  0.00    -0.449 OA
BRANCH  15  16
ATOM     16  C   UNL     1       4.662   1.527  -1.867  1.00  0.00     0.248 C 
BRANCH  16  17
ATOM     17  C   UNL     1       5.841   2.418  -1.437  1.00  0.00     0.088 C 
ATOM     18  C   UNL     1       7.325   2.116  -1.659  1.00  0.00    -0.029 A 
ATOM     19  C   UNL     1       5.785   3.929  -1.569  1.00  0.00    -0.029 A 
ATOM     20  C   UNL     1       7.976   0.894  -1.669  1.00  0.00     0.005 A 
ATOM     21  C   UNL     1       8.031   3.319  -1.415  1.00  0.00    -0.014 A 
ATOM     22  C   UNL     1       7.102   4.434  -1.480  1.00  0.00    -0.014 A 
ATOM     23  C   UNL     1       4.685   4.772  -1.516  1.00  0.00     0.005 A 
ATOM     24  C   UNL     1       9.302   0.856  -1.228  1.00  0.00     0.000 A 
ATOM     25  C   UNL     1       9.346   3.279  -0.981  1.00  0.00     0.009 A 
ATOM     26  C   UNL     1       7.326   5.798  -1.410  1.00  0.00     0.009 A 
ATOM     27  C   UNL     1       4.911   6.142  -1.393  1.00  0.00     0.000 A 
ATOM     28  C   UNL     1       9.965   2.033  -0.845  1.00  0.00     0.001 A 
ATOM     29  C   UNL     1       6.219   6.652  -1.362  1.00  0.00     0.001 A 
ENDBRANCH  16  17
ENDBRANCH  15  16
ENDBRANCH  13  15
ENDBRANCH   5  11
BRANCH  10  30
ATOM     30  C   UNL     1       6.593  -4.146   0.256  1.00  0.00    -0.045 A 
ATOM     31  C   UNL     1       5.715  -5.168   0.647  1.00  0.00     0.004 A 
ATOM     32  C   UNL     1       7.040  -4.163  -1.081  1.00  0.00     0.004 A 
ATOM     33  C   UNL     1       5.250  -6.120  -0.264  1.00  0.00     0.000 A 
ATOM     34  C   UNL     1       6.577  -5.116  -1.994  1.00  0.00     0.000 A 
ATOM     35  C   UNL     1       5.675  -6.090  -1.587  1.00  0.00     0.000 A 
ENDBRANCH  10  30
ENDBRANCH   3   5
ENDBRANCH   2   3
ENDBRANCH   1   2
BRANCH   1  36
ATOM     36  C   UNL     1       5.946   3.317   2.976  1.00  0.00     0.275 C 
BRANCH  36  37
ATOM     37  O   UNL     1       4.514   3.295   3.146  1.00  0.00    -0.458 OA
BRANCH  37  38
ATOM     38  C   UNL     1       3.869   3.281   1.966  1.00  0.00     0.338 C 
ATOM     39  O   UNL     1       4.392   3.328   0.869  1.00  0.00    -0.246 OA
BRANCH  38  40
ATOM     40  C   UNL     1       2.425   3.143   1.988  1.00  0.00     0.060 A 
ATOM     41  C   UNL     1       1.899   1.862   2.110  1.00  0.00     0.016 A 
ATOM     42  C   UNL     1       1.664   4.188   1.456  1.00  0.00     0.016 A 
ATOM     43  C   UNL     1       0.613   1.608   1.660  1.00  0.00     0.010 A 
ATOM     44  C   UNL     1       0.337   3.957   1.108  1.00  0.00     0.010 A 
ATOM     45  C   UNL     1      -0.198   2.666   1.219  1.00  0.00    -0.014 A 
BRANCH  45  46
ATOM     46  C   UNL     1      -1.653   2.446   1.084  1.00  0.00     0.031 A 
ATOM     47  C   UNL     1      -2.374   2.656  -0.210  1.00  0.00     0.074 A 
ATOM     48  C   UNL     1      -2.314   2.134   2.216  1.00  0.00     0.049 A 
ATOM     49  N   UNL     1      -3.663   2.680  -0.428  1.00  0.00    -0.248 NA
ATOM     50  C   UNL     1      -1.556   2.888  -1.410  1.00  0.00     0.031 C 
ATOM     51  C   UNL     1      -1.686   1.952   3.531  1.00  0.00     0.029 A 
ATOM     52  N   UNL     1      -3.646   1.940   2.460  1.00  0.00    -0.354 N 
ATOM     53  C   UNL     1      -3.818   2.986  -1.774  1.00  0.00     0.074 A 
ATOM     54  C   UNL     1      -2.487   3.124  -2.329  1.00  0.00     0.031 C 
ATOM     55  C   UNL     1      -2.623   1.654   4.435  1.00  0.00     0.029 A 
ATOM     56  C   UNL     1      -3.923   1.725   3.789  1.00  0.00     0.049 A 
ATOM     57  H   UNL     1      -4.334   1.952   1.756  1.00  0.00     0.167 HD
ATOM     58  C   UNL     1      -4.973   3.135  -2.468  1.00  0.00     0.034 A 
ATOM     59  C   UNL     1      -5.097   1.654   4.439  1.00  0.00     0.034 A 
ATOM     60  C   UNL     1      -6.281   2.952  -1.886  1.00  0.00     0.049 A 
ATOM     61  C   UNL     1      -6.351   1.796   3.638  1.00  0.00     0.074 A 
ATOM     62  C   UNL     1      -7.517   3.026  -2.504  1.00  0.00     0.029 A 
ATOM     63  N   UNL     1      -6.523   2.658  -0.550  1.00  0.00    -0.354 N 
ATOM     64  N   UNL     1      -6.481   2.015   2.352  1.00  0.00    -0.248 NA
ATOM     65  C   UNL     1      -7.615   1.662   4.365  1.00  0.00     0.031 C 
ATOM     66  C   UNL     1      -8.505   2.801  -1.538  1.00  0.00     0.029 A 
ATOM     67  C   UNL     1      -7.886   2.554  -0.323  1.00  0.00     0.049 A 
ATOM     68  H   UNL     1      -5.827   2.542   0.136  1.00  0.00     0.167 HD
ATOM     69  C   UNL     1      -7.845   2.026   2.108  1.00  0.00     0.074 A 
ATOM     70  C   UNL     1      -8.495   1.761   3.378  1.00  0.00     0.031 C 
ATOM     71  C   UNL     1      -8.503   2.254   0.945  1.00  0.00     0.034 A 
BRANCH  58  72
ATOM     72  C   UNL     1      -4.889   3.494  -3.931  1.00  0.00     0.023 A 
ATOM     73  C   UNL     1      -4.453   2.534  -4.866  1.00  0.00     0.012 A 
ATOM     74  C   UNL     1      -5.323   4.755  -4.394  1.00  0.00     0.148 A 
ATOM     75  C   UNL     1      -4.424   2.830  -6.231  1.00  0.00     0.002 A 
ATOM     76  C   UNL     1      -5.330   5.028  -5.758  1.00  0.00     0.091 A 
ATOM     77  F   UNL     1      -5.721   5.664  -3.492  1.00  0.00    -0.205 F 
ATOM     78  C   UNL     1      -4.871   4.070  -6.676  1.00  0.00     0.022 A 
BRANCH  76  79
ATOM     79  S   UNL     1      -5.961   6.567  -6.440  1.00  0.00     0.127 S 
ATOM     80  O   UNL     1      -4.735   7.203  -6.920  1.00  0.00    -0.237 OA
ATOM     81  O   UNL     1      -6.854   6.093  -7.498  1.00  0.00    -0.237 OA
ATOM     82  O   UNL     1      -6.630   7.251  -5.342  1.00  0.00    -0.744 OA
ENDBRANCH  76  79
ENDBRANCH  58  72
BRANCH  59  83
ATOM     83  C   UNL     1      -5.106   1.424   5.908  1.00  0.00     0.023 A 
ATOM     84  C   UNL     1      -5.539   0.183   6.410  1.00  0.00     0.012 A 
ATOM     85  C   UNL     1      -4.592   2.387   6.801  1.00  0.00     0.148 A 
ATOM     86  C   UNL     1      -5.480  -0.087   7.777  1.00  0.00     0.002 A 
ATOM     87  C   UNL     1      -4.474   2.086   8.152  1.00  0.00     0.091 A 
ATOM     88  F   UNL     1      -4.189   3.565   6.304  1.00  0.00    -0.205 F 
ATOM     89  C   UNL     1      -4.934   0.856   8.645  1.00  0.00     0.022 A 
BRANCH  87  90
ATOM     90  S   UNL     1      -3.628   3.175   9.303  1.00  0.00     0.127 S 
ATOM     91  O   UNL     1      -4.746   3.748  10.048  1.00  0.00    -0.237 OA
ATOM     92  O   UNL     1      -2.800   2.236  10.062  1.00  0.00    -0.237 OA
ATOM     93  O   UNL     1      -2.869   4.104   8.477  1.00  0.00    -0.744 OA
ENDBRANCH  87  90
ENDBRANCH  59  83
BRANCH  71  94
ATOM     94  C   UNL     1     -10.004   2.195   0.998  1.00  0.00     0.023 A 
ATOM     95  C   UNL     1     -10.724   3.234   1.620  1.00  0.00     0.012 A 
ATOM     96  C   UNL     1     -10.699   1.127   0.401  1.00  0.00     0.148 A 
ATOM     97  C   UNL     1     -12.116   3.191   1.681  1.00  0.00     0.002 A 
ATOM     98  C   UNL     1     -12.087   1.117   0.420  1.00  0.00     0.091 A 
ATOM     99  F   UNL     1      -9.991   0.138  -0.164  1.00  0.00    -0.205 F 
ATOM    100  C   UNL     1     -12.797   2.139   1.072  1.00  0.00     0.022 A 
BRANCH  98 101
ATOM    101  S   UNL     1     -13.050  -0.148  -0.415  1.00  0.00     0.127 S 
ATOM    102  O   UNL     1     -13.577  -0.914   0.713  1.00  0.00    -0.237 OA
ATOM    103  O   UNL     1     -14.047   0.646  -1.133  1.00  0.00    -0.237 OA
ATOM    104  O   UNL     1     -12.115  -0.863  -1.274  1.00  0.00    -0.744 OA
ENDBRANCH  98 101
ENDBRANCH  71  94
ENDBRANCH  45  46
ENDBRANCH  38  40
ENDBRANCH  37  38
ENDBRANCH  36  37
ENDBRANCH   1  36
TORSDOF 19
