REMARK SMILES COc1ccccc1[C@@H]1CN(C(=O)c2cnn3ccccc23)C[C@H]1C(=O)OCCOC(=O)c1ccc(-c2c3nc(c(-c4cccc(S(=O)(=O)[O-])c4F)c4ccc([nH]4)c(-c4cccc(S(=O)(=O)[O-])c4F)c4nc(c(-c5cccc(S(=O)(=O)[O-])c5F)c5ccc2[nH]5)C=C4)C=C3)cc1
REMARK SMILES IDX 29 1 28 2 27 3 25 4 26 5 24 6 9 7 10 8 11 9 23 10 8 11 3 12
REMARK SMILES IDX 4 13 5 14 7 15 6 16 2 17 1 18 12 19 13 20 14 21 15 22 22 23
REMARK SMILES IDX 16 24 17 25 21 26 18 27 20 28 19 29 30 30 31 31 32 32 33 33
REMARK SMILES IDX 34 34 95 35 35 36 94 37 36 38 37 39 38 40 88 41 39 42 93 43
REMARK SMILES IDX 87 44 89 45 40 46 92 47 86 48 85 49 41 51 73 52 53 53 72 54
REMARK SMILES IDX 54 55 57 56 71 57 90 58 55 59 56 60 70 62 91 63 58 64 42 65
REMARK SMILES IDX 43 66 51 67 44 68 46 69 52 70 45 71 47 72 48 73 49 74 50 75
REMARK SMILES IDX 74 76 75 77 83 78 76 79 78 80 84 81 77 82 79 83 80 84 81 85
REMARK SMILES IDX 82 86 59 87 60 88 68 89 61 90 63 91 69 92 62 93 64 94 65 95
REMARK SMILES IDX 66 96 67 97
REMARK H PARENT 89 50 57 61
REMARK Flexibility Score: inf
ROOT
ATOM      1  C   UNL     1       4.077  -5.477  -1.387  1.00  0.00     0.275 C 
ENDROOT
BRANCH   1   2
ATOM      2  C   UNL     1       4.584  -4.175  -2.012  1.00  0.00     0.274 C 
BRANCH   2   3
ATOM      3  O   UNL     1       4.272  -2.998  -1.229  1.00  0.00    -0.462 OA
BRANCH   3   4
ATOM      4  C   UNL     1       3.085  -2.401  -1.521  1.00  0.00     0.311 C 
ATOM      5  O   UNL     1       2.377  -2.715  -2.476  1.00  0.00    -0.252 OA
BRANCH   4   6
ATOM      6  C   UNL     1       2.742  -1.206  -0.657  1.00  0.00     0.128 C 
ATOM      7  C   UNL     1       3.084  -1.169   0.853  1.00  0.00     0.058 C 
ATOM      8  C   UNL     1       3.517   0.277   1.088  1.00  0.00     0.129 C 
ATOM      9  N   UNL     1       4.085   0.707  -0.172  1.00  0.00    -0.337 N 
ATOM     10  C   UNL     1       3.504  -0.032  -1.273  1.00  0.00     0.135 C 
BRANCH   7  11
ATOM     11  C   UNL     1       2.046  -1.568   1.899  1.00  0.00    -0.000 A 
ATOM     12  C   UNL     1       0.809  -0.936   2.132  1.00  0.00     0.122 A 
ATOM     13  C   UNL     1      -0.059  -1.397   3.138  1.00  0.00     0.047 A 
ATOM     14  C   UNL     1       0.301  -2.466   3.957  1.00  0.00     0.004 A 
ATOM     15  C   UNL     1       2.402  -2.610   2.788  1.00  0.00     0.008 A 
ATOM     16  C   UNL     1       1.545  -3.058   3.796  1.00  0.00     0.001 A 
BRANCH  12  17
ATOM     17  O   UNL     1       0.495   0.290   1.607  1.00  0.00    -0.496 OA
ATOM     18  C   UNL     1      -0.120   0.251   0.328  1.00  0.00     0.278 C 
ENDBRANCH  12  17
ENDBRANCH   7  11
BRANCH   9  19
ATOM     19  C   UNL     1       4.845   1.837  -0.401  1.00  0.00     0.257 C 
ATOM     20  O   UNL     1       5.064   2.258  -1.537  1.00  0.00    -0.269 OA
BRANCH  19  21
ATOM     21  C   UNL     1       5.329   2.550   0.759  1.00  0.00     0.085 A 
ATOM     22  C   UNL     1       5.133   3.911   1.054  1.00  0.00     0.150 A 
ATOM     23  C   UNL     1       6.104   2.088   1.807  1.00  0.00     0.079 A 
ATOM     24  N   UNL     1       5.653   4.277   2.227  1.00  0.00    -0.176 NA
ATOM     25  N   UNL     1       6.214   3.142   2.719  1.00  0.00    -0.240 N 
ATOM     26  C   UNL     1       6.719   0.845   2.147  1.00  0.00     0.029 A 
ATOM     27  C   UNL     1       6.824   2.977   3.963  1.00  0.00     0.113 A 
ATOM     28  C   UNL     1       7.299   0.697   3.352  1.00  0.00     0.004 A 
ATOM     29  C   UNL     1       7.349   1.789   4.309  1.00  0.00     0.020 A 
ENDBRANCH  19  21
ENDBRANCH   9  19
ENDBRANCH   4   6
ENDBRANCH   3   4
ENDBRANCH   2   3
ENDBRANCH   1   2
BRANCH   1  30
ATOM     30  O   UNL     1       2.651  -5.573  -1.365  1.00  0.00    -0.458 OA
BRANCH  30  31
ATOM     31  C   UNL     1       2.127  -4.984  -0.271  1.00  0.00     0.338 C 
ATOM     32  O   UNL     1       2.709  -4.208   0.469  1.00  0.00    -0.246 OA
BRANCH  31  33
ATOM     33  C   UNL     1       0.844  -5.551   0.114  1.00  0.00     0.060 A 
ATOM     34  C   UNL     1       0.077  -4.803   1.014  1.00  0.00     0.016 A 
ATOM     35  C   UNL     1       0.652  -6.919  -0.076  1.00  0.00     0.016 A 
ATOM     36  C   UNL     1      -0.756  -5.466   1.884  1.00  0.00     0.010 A 
ATOM     37  C   UNL     1      -0.192  -7.579   0.784  1.00  0.00     0.010 A 
ATOM     38  C   UNL     1      -0.820  -6.857   1.804  1.00  0.00    -0.014 A 
BRANCH  38  39
ATOM     39  C   UNL     1      -1.673  -7.549   2.751  1.00  0.00     0.031 A 
ATOM     40  C   UNL     1      -3.121  -7.330   2.508  1.00  0.00     0.074 A 
ATOM     41  C   UNL     1      -1.164  -8.454   3.609  1.00  0.00     0.049 A 
ATOM     42  N   UNL     1      -4.028  -6.940   3.342  1.00  0.00    -0.248 NA
ATOM     43  C   UNL     1      -3.590  -7.430   1.113  1.00  0.00     0.031 C 
ATOM     44  C   UNL     1       0.223  -8.929   3.672  1.00  0.00     0.029 A 
ATOM     45  N   UNL     1      -1.822  -9.298   4.453  1.00  0.00    -0.354 N 
ATOM     46  C   UNL     1      -5.221  -6.973   2.621  1.00  0.00     0.074 A 
ATOM     47  C   UNL     1      -4.868  -7.080   1.233  1.00  0.00     0.031 C 
ATOM     48  C   UNL     1       0.236 -10.149   4.251  1.00  0.00     0.029 A 
ATOM     49  C   UNL     1      -1.112 -10.474   4.684  1.00  0.00     0.049 A 
ATOM     50  H   UNL     1      -2.699  -9.100   4.853  1.00  0.00     0.167 HD
ATOM     51  C   UNL     1      -6.417  -7.189   3.228  1.00  0.00     0.034 A 
ATOM     52  C   UNL     1      -1.633 -11.669   5.057  1.00  0.00     0.034 A 
ATOM     53  C   UNL     1      -6.365  -6.914   4.637  1.00  0.00     0.049 A 
ATOM     54  C   UNL     1      -2.996 -11.424   5.585  1.00  0.00     0.074 A 
ATOM     55  C   UNL     1      -6.002  -5.821   5.400  1.00  0.00     0.029 A 
ATOM     56  N   UNL     1      -6.377  -7.985   5.496  1.00  0.00    -0.354 N 
ATOM     57  N   UNL     1      -3.244 -10.779   6.691  1.00  0.00    -0.248 NA
ATOM     58  C   UNL     1      -4.113 -11.527   4.658  1.00  0.00     0.031 C 
ATOM     59  C   UNL     1      -5.343  -6.372   6.536  1.00  0.00     0.029 A 
ATOM     60  C   UNL     1      -5.392  -7.762   6.421  1.00  0.00     0.049 A 
ATOM     61  H   UNL     1      -6.978  -8.764   5.455  1.00  0.00     0.167 HD
ATOM     62  C   UNL     1      -4.374 -10.023   6.405  1.00  0.00     0.074 A 
ATOM     63  C   UNL     1      -4.925 -10.608   5.185  1.00  0.00     0.031 C 
ATOM     64  C   UNL     1      -4.590  -8.814   7.004  1.00  0.00     0.034 A 
BRANCH  51  65
ATOM     65  C   UNL     1      -7.528  -8.007   2.613  1.00  0.00     0.023 A 
ATOM     66  C   UNL     1      -8.778  -7.997   3.266  1.00  0.00     0.012 A 
ATOM     67  C   UNL     1      -7.335  -8.986   1.610  1.00  0.00     0.148 A 
ATOM     68  C   UNL     1      -9.764  -8.944   2.971  1.00  0.00     0.002 A 
ATOM     69  C   UNL     1      -8.351  -9.864   1.256  1.00  0.00     0.091 A 
ATOM     70  F   UNL     1      -6.123  -9.182   1.081  1.00  0.00    -0.205 F 
ATOM     71  C   UNL     1      -9.556  -9.872   1.958  1.00  0.00     0.022 A 
BRANCH  69  72
ATOM     72  S   UNL     1      -8.141 -11.031  -0.094  1.00  0.00     0.127 S 
ATOM     73  O   UNL     1      -7.856 -12.266   0.628  1.00  0.00    -0.237 OA
ATOM     74  O   UNL     1      -9.451 -10.979  -0.744  1.00  0.00    -0.237 OA
ATOM     75  O   UNL     1      -7.057 -10.488  -0.903  1.00  0.00    -0.744 OA
ENDBRANCH  69  72
ENDBRANCH  51  65
BRANCH  52  76
ATOM     76  C   UNL     1      -1.155 -13.031   4.715  1.00  0.00     0.023 A 
ATOM     77  C   UNL     1      -1.555 -14.126   5.505  1.00  0.00     0.012 A 
ATOM     78  C   UNL     1      -0.500 -13.301   3.491  1.00  0.00     0.148 A 
ATOM     79  C   UNL     1      -1.323 -15.441   5.085  1.00  0.00     0.002 A 
ATOM     80  C   UNL     1      -0.246 -14.609   3.091  1.00  0.00     0.091 A 
ATOM     81  F   UNL     1      -0.210 -12.283   2.670  1.00  0.00    -0.205 F 
ATOM     82  C   UNL     1      -0.667 -15.684   3.881  1.00  0.00     0.022 A 
BRANCH  80  83
ATOM     83  S   UNL     1       0.613 -14.981   1.555  1.00  0.00     0.127 S 
ATOM     84  O   UNL     1       1.536 -16.039   1.967  1.00  0.00    -0.237 OA
ATOM     85  O   UNL     1      -0.480 -15.423   0.694  1.00  0.00    -0.237 OA
ATOM     86  O   UNL     1       1.271 -13.740   1.163  1.00  0.00    -0.744 OA
ENDBRANCH  80  83
ENDBRANCH  52  76
BRANCH  64  87
ATOM     87  C   UNL     1      -3.726  -8.416   8.174  1.00  0.00     0.023 A 
ATOM     88  C   UNL     1      -2.324  -8.301   8.068  1.00  0.00     0.012 A 
ATOM     89  C   UNL     1      -4.355  -7.965   9.348  1.00  0.00     0.148 A 
ATOM     90  C   UNL     1      -1.566  -7.777   9.118  1.00  0.00     0.002 A 
ATOM     91  C   UNL     1      -3.603  -7.398  10.369  1.00  0.00     0.091 A 
ATOM     92  F   UNL     1      -5.690  -8.073   9.437  1.00  0.00    -0.205 F 
ATOM     93  C   UNL     1      -2.207  -7.312  10.263  1.00  0.00     0.022 A 
BRANCH  91  94
ATOM     94  S   UNL     1      -4.391  -6.661  11.803  1.00  0.00     0.127 S 
ATOM     95  O   UNL     1      -4.260  -7.718  12.802  1.00  0.00    -0.237 OA
ATOM     96  O   UNL     1      -3.561  -5.479  12.051  1.00  0.00    -0.237 OA
ATOM     97  O   UNL     1      -5.752  -6.347  11.386  1.00  0.00    -0.744 OA
ENDBRANCH  91  94
ENDBRANCH  64  87
ENDBRANCH  38  39
ENDBRANCH  31  33
ENDBRANCH  30  31
ENDBRANCH   1  30
TORSDOF 18
