REMARK SMILES O=C(CC1(NC(=O)c2ccccc2[N+](=O)[O-])CCC1)OCCOC(=O)c1ccc(-c2c3nc(c(-c4cccc(S(=O)(=O)[O-])c4F)c4ccc([nH]4)c(-c4cccc(S(=O)(=O)[O-])c4F)c4nc(c(-c5cccc(S(=O)(=O)[O-])c5F)c5ccc2[nH]5)C=C4)C=C3)cc1
REMARK SMILES IDX 21 1 20 2 2 3 1 4 3 5 4 6 17 7 19 8 18 9 5 10 6 11 7 13 8 14
REMARK SMILES IDX 9 15 13 16 10 17 12 18 11 19 14 20 15 21 16 22 22 23 23 24
REMARK SMILES IDX 24 25 25 26 26 27 27 28 88 29 28 30 87 31 29 32 30 33 31 34
REMARK SMILES IDX 81 35 32 36 86 37 80 38 82 39 33 40 85 41 79 42 78 43 34 45
REMARK SMILES IDX 66 46 46 47 65 48 47 49 50 50 64 51 83 52 48 53 49 54 63 56
REMARK SMILES IDX 84 57 51 58 35 59 36 60 44 61 37 62 39 63 45 64 38 65 40 66
REMARK SMILES IDX 41 67 42 68 43 69 67 70 68 71 76 72 69 73 71 74 77 75 70 76
REMARK SMILES IDX 72 77 73 78 74 79 75 80 52 81 53 82 61 83 54 84 56 85 62 86
REMARK SMILES IDX 55 87 57 88 58 89 59 90 60 91
REMARK H PARENT 5 12 82 44 50 55
REMARK Flexibility Score: inf
ROOT
ATOM      1  C   UNL     1       3.399  -0.909  -1.258  1.00  0.00     0.274 C 
ENDROOT
BRANCH   1   2
ATOM      2  O   UNL     1       2.659  -1.691  -0.317  1.00  0.00    -0.462 OA
BRANCH   2   3
ATOM      3  C   UNL     1       2.091  -1.077   0.741  1.00  0.00     0.308 C 
ATOM      4  O   UNL     1       0.909  -1.290   0.999  1.00  0.00    -0.252 OA
BRANCH   3   5
ATOM      5  C   UNL     1       2.940  -0.158   1.601  1.00  0.00     0.151 C 
BRANCH   5   6
ATOM      6  C   UNL     1       4.352  -0.561   2.006  1.00  0.00     0.051 C 
ATOM      7  C   UNL     1       4.545  -0.393   3.551  1.00  0.00     0.029 C 
ATOM      8  C   UNL     1       4.521  -2.106   2.217  1.00  0.00     0.029 C 
ATOM      9  C   UNL     1       4.681  -1.906   3.721  1.00  0.00     0.005 C 
BRANCH   6  10
ATOM     10  N   UNL     1       5.564  -0.023   1.285  1.00  0.00    -0.346 N 
ATOM     11  C   UNL     1       6.050   0.997   0.501  1.00  0.00     0.258 C 
ATOM     12  H   UNL     1       6.303  -0.656   1.437  1.00  0.00     0.164 HD
ATOM     13  O   UNL     1       7.254   0.943   0.224  1.00  0.00    -0.269 OA
BRANCH  11  14
ATOM     14  C   UNL     1       5.338   2.104  -0.150  1.00  0.00     0.117 A 
ATOM     15  C   UNL     1       5.275   2.084  -1.558  1.00  0.00     0.021 A 
ATOM     16  C   UNL     1       5.073   3.324   0.465  1.00  0.00     0.282 A 
ATOM     17  C   UNL     1       4.741   3.160  -2.286  1.00  0.00     0.001 A 
ATOM     18  C   UNL     1       4.572   4.432  -0.257  1.00  0.00     0.086 A 
ATOM     19  C   UNL     1       4.346   4.320  -1.628  1.00  0.00     0.007 A 
BRANCH  16  20
ATOM     20  N   UNL     1       5.291   3.487   1.882  1.00  0.00     0.063 N 
ATOM     21  O   UNL     1       4.686   2.713   2.630  1.00  0.00    -0.258 OA
ATOM     22  O   UNL     1       6.018   4.423   2.230  1.00  0.00    -0.258 OA
ENDBRANCH  16  20
ENDBRANCH  11  14
ENDBRANCH   6  10
ENDBRANCH   5   6
ENDBRANCH   3   5
ENDBRANCH   2   3
ENDBRANCH   1   2
BRANCH   1  23
ATOM     23  C   UNL     1       2.584   0.248  -1.857  1.00  0.00     0.275 C 
BRANCH  23  24
ATOM     24  O   UNL     1       2.252   1.238  -0.856  1.00  0.00    -0.458 OA
BRANCH  24  25
ATOM     25  C   UNL     1       0.935   1.580  -0.734  1.00  0.00     0.338 C 
ATOM     26  O   UNL     1       0.052   1.250  -1.500  1.00  0.00    -0.246 OA
BRANCH  25  27
ATOM     27  C   UNL     1       0.687   2.380   0.509  1.00  0.00     0.060 A 
ATOM     28  C   UNL     1      -0.523   2.270   1.189  1.00  0.00     0.016 A 
ATOM     29  C   UNL     1       1.635   3.272   1.002  1.00  0.00     0.016 A 
ATOM     30  C   UNL     1      -0.793   3.104   2.290  1.00  0.00     0.010 A 
ATOM     31  C   UNL     1       1.397   4.077   2.120  1.00  0.00     0.010 A 
ATOM     32  C   UNL     1       0.149   4.048   2.738  1.00  0.00    -0.014 A 
BRANCH  32  33
ATOM     33  C   UNL     1      -0.170   5.000   3.836  1.00  0.00     0.031 A 
ATOM     34  C   UNL     1      -0.419   6.462   3.551  1.00  0.00     0.074 A 
ATOM     35  C   UNL     1      -0.166   4.570   5.111  1.00  0.00     0.049 A 
ATOM     36  N   UNL     1      -0.970   7.373   4.312  1.00  0.00    -0.248 NA
ATOM     37  C   UNL     1       0.048   6.981   2.254  1.00  0.00     0.031 C 
ATOM     38  C   UNL     1       0.291   3.251   5.551  1.00  0.00     0.029 A 
ATOM     39  N   UNL     1      -0.534   5.202   6.271  1.00  0.00    -0.354 N 
ATOM     40  C   UNL     1      -0.942   8.559   3.581  1.00  0.00     0.074 A 
ATOM     41  C   UNL     1      -0.250   8.270   2.346  1.00  0.00     0.031 C 
ATOM     42  C   UNL     1       0.162   3.167   6.886  1.00  0.00     0.029 A 
ATOM     43  C   UNL     1      -0.428   4.405   7.387  1.00  0.00     0.049 A 
ATOM     44  H   UNL     1      -0.845   6.135   6.302  1.00  0.00     0.167 HD
ATOM     45  C   UNL     1      -1.484   9.764   3.897  1.00  0.00     0.034 A 
ATOM     46  C   UNL     1      -0.819   4.631   8.657  1.00  0.00     0.034 A 
ATOM     47  C   UNL     1      -2.142  10.020   5.152  1.00  0.00     0.049 A 
ATOM     48  C   UNL     1      -1.572   5.902   8.951  1.00  0.00     0.074 A 
ATOM     49  C   UNL     1      -2.839  11.144   5.560  1.00  0.00     0.029 A 
ATOM     50  N   UNL     1      -2.160   9.133   6.219  1.00  0.00    -0.354 N 
ATOM     51  N   UNL     1      -1.807   6.923   8.161  1.00  0.00    -0.248 NA
ATOM     52  C   UNL     1      -2.184   6.019  10.281  1.00  0.00     0.031 C 
ATOM     53  C   UNL     1      -3.258  10.942   6.882  1.00  0.00     0.029 A 
ATOM     54  C   UNL     1      -2.854   9.678   7.284  1.00  0.00     0.049 A 
ATOM     55  H   UNL     1      -1.740   8.242   6.218  1.00  0.00     0.167 HD
ATOM     56  C   UNL     1      -2.613   7.792   8.886  1.00  0.00     0.074 A 
ATOM     57  C   UNL     1      -2.860   7.153  10.165  1.00  0.00     0.031 C 
ATOM     58  C   UNL     1      -3.095   9.013   8.540  1.00  0.00     0.034 A 
BRANCH  45  59
ATOM     59  C   UNL     1      -1.479  10.852   2.841  1.00  0.00     0.023 A 
ATOM     60  C   UNL     1      -2.236  10.660   1.663  1.00  0.00     0.012 A 
ATOM     61  C   UNL     1      -0.819  12.084   3.029  1.00  0.00     0.148 A 
ATOM     62  C   UNL     1      -2.301  11.646   0.678  1.00  0.00     0.002 A 
ATOM     63  C   UNL     1      -0.924  13.082   2.060  1.00  0.00     0.091 A 
ATOM     64  F   UNL     1      -0.101  12.262   4.146  1.00  0.00    -0.205 F 
ATOM     65  C   UNL     1      -1.653  12.858   0.880  1.00  0.00     0.022 A 
BRANCH  63  66
ATOM     66  S   UNL     1      -0.192  14.715   2.241  1.00  0.00     0.127 S 
ATOM     67  O   UNL     1       0.795  14.717   1.161  1.00  0.00    -0.237 OA
ATOM     68  O   UNL     1      -1.341  15.591   2.015  1.00  0.00    -0.237 OA
ATOM     69  O   UNL     1       0.362  14.763   3.586  1.00  0.00    -0.744 OA
ENDBRANCH  63  66
ENDBRANCH  45  59
BRANCH  46  70
ATOM     70  C   UNL     1      -0.645   3.565   9.685  1.00  0.00     0.023 A 
ATOM     71  C   UNL     1      -1.766   2.845  10.144  1.00  0.00     0.012 A 
ATOM     72  C   UNL     1       0.633   3.217  10.163  1.00  0.00     0.148 A 
ATOM     73  C   UNL     1      -1.623   1.823  11.084  1.00  0.00     0.002 A 
ATOM     74  C   UNL     1       0.775   2.160  11.057  1.00  0.00     0.091 A 
ATOM     75  F   UNL     1       1.688   3.915   9.720  1.00  0.00    -0.205 F 
ATOM     76  C   UNL     1      -0.353   1.474  11.532  1.00  0.00     0.022 A 
BRANCH  74  77
ATOM     77  S   UNL     1       2.384   1.551  11.575  1.00  0.00     0.127 S 
ATOM     78  O   UNL     1       2.452   2.022  12.955  1.00  0.00    -0.237 OA
ATOM     79  O   UNL     1       2.224   0.104  11.425  1.00  0.00    -0.237 OA
ATOM     80  O   UNL     1       3.342   2.144  10.652  1.00  0.00    -0.744 OA
ENDBRANCH  74  77
ENDBRANCH  46  70
BRANCH  58  81
ATOM     81  C   UNL     1      -3.937   9.729   9.564  1.00  0.00     0.023 A 
ATOM     82  C   UNL     1      -3.340  10.222  10.742  1.00  0.00     0.012 A 
ATOM     83  C   UNL     1      -5.312   9.938   9.345  1.00  0.00     0.148 A 
ATOM     84  C   UNL     1      -4.110  10.858  11.714  1.00  0.00     0.002 A 
ATOM     85  C   UNL     1      -6.062  10.624  10.292  1.00  0.00     0.091 A 
ATOM     86  F   UNL     1      -5.865   9.448   8.226  1.00  0.00    -0.205 F 
ATOM     87  C   UNL     1      -5.468  11.067  11.485  1.00  0.00     0.022 A 
BRANCH  85  88
ATOM     88  S   UNL     1      -7.793  11.027  10.036  1.00  0.00     0.127 S 
ATOM     89  O   UNL     1      -8.454  10.086  10.938  1.00  0.00    -0.237 OA
ATOM     90  O   UNL     1      -7.851  12.425  10.462  1.00  0.00    -0.237 OA
ATOM     91  O   UNL     1      -8.046  10.819   8.617  1.00  0.00    -0.744 OA
ENDBRANCH  85  88
ENDBRANCH  58  81
ENDBRANCH  32  33
ENDBRANCH  25  27
ENDBRANCH  24  25
ENDBRANCH  23  24
ENDBRANCH   1  23
TORSDOF 18
