REMARK SMILES O=C(OCCOC(=O)[C@H](c1cnn(Cc2ccccc2)c1)[NH+]1CCOCC1)c1ccc(-c2c3nc(c(-c4cccc(S(=O)(=O)[O-])c4F)c4ccc([nH]4)c(-c4cccc(S(=O)(=O)[O-])c4F)c4nc(c(-c5cccc(S(=O)(=O)[O-])c5F)c5ccc2[nH]5)C=C4)C=C3)cc1
REMARK SMILES IDX 4 1 3 2 2 3 1 4 28 5 29 6 90 7 30 8 89 9 31 10 32 11 33 12
REMARK SMILES IDX 83 13 34 14 88 15 82 16 84 17 35 18 87 19 81 20 80 21 36 23
REMARK SMILES IDX 68 24 48 25 67 26 49 27 52 28 66 29 85 30 50 31 51 32 65 34
REMARK SMILES IDX 86 35 53 36 37 37 38 38 46 39 39 40 41 41 47 42 40 43 42 44
REMARK SMILES IDX 43 45 44 46 45 47 69 48 70 49 78 50 71 51 73 52 79 53 72 54
REMARK SMILES IDX 74 55 75 56 76 57 77 58 54 59 55 60 63 61 56 62 58 63 64 64
REMARK SMILES IDX 57 65 59 66 60 67 61 68 62 69 5 70 6 71 7 72 8 73 9 74 22 75
REMARK SMILES IDX 23 76 27 77 24 79 26 80 25 81 10 82 11 83 21 84 12 85 13 86
REMARK SMILES IDX 14 87 15 88 16 89 20 90 17 91 19 92 18 93
REMARK H PARENT 84 22 52 33 22 78
REMARK Flexibility Score: inf
ROOT
ATOM      1  C   UNL     1       2.496   5.179   0.549  1.00  0.00     0.275 C 
ENDROOT
BRANCH   1   2
ATOM      2  O   UNL     1       2.884   4.276   1.602  1.00  0.00    -0.458 OA
BRANCH   2   3
ATOM      3  C   UNL     1       3.519   3.135   1.262  1.00  0.00     0.338 C 
ATOM      4  O   UNL     1       4.663   3.064   0.847  1.00  0.00    -0.246 OA
BRANCH   3   5
ATOM      5  C   UNL     1       2.628   1.982   1.514  1.00  0.00     0.060 A 
ATOM      6  C   UNL     1       1.232   2.129   1.492  1.00  0.00     0.016 A 
ATOM      7  C   UNL     1       3.199   0.732   1.742  1.00  0.00     0.016 A 
ATOM      8  C   UNL     1       0.410   1.042   1.751  1.00  0.00     0.010 A 
ATOM      9  C   UNL     1       2.371  -0.353   2.006  1.00  0.00     0.010 A 
ATOM     10  C   UNL     1       0.978  -0.200   2.036  1.00  0.00    -0.014 A 
BRANCH  10  11
ATOM     11  C   UNL     1       0.078  -1.317   2.337  1.00  0.00     0.031 A 
ATOM     12  C   UNL     1      -0.929  -1.701   1.297  1.00  0.00     0.074 A 
ATOM     13  C   UNL     1       0.226  -2.092   3.430  1.00  0.00     0.049 A 
ATOM     14  N   UNL     1      -2.219  -1.768   1.396  1.00  0.00    -0.248 NA
ATOM     15  C   UNL     1      -0.432  -2.024  -0.044  1.00  0.00     0.031 C 
ATOM     16  C   UNL     1       1.315  -2.057   4.412  1.00  0.00     0.029 A 
ATOM     17  N   UNL     1      -0.500  -3.184   3.809  1.00  0.00    -0.354 N 
ATOM     18  C   UNL     1      -2.666  -2.352   0.205  1.00  0.00     0.074 A 
ATOM     19  C   UNL     1      -1.544  -2.364  -0.691  1.00  0.00     0.031 C 
ATOM     20  C   UNL     1       1.328  -3.219   5.098  1.00  0.00     0.029 A 
ATOM     21  C   UNL     1       0.164  -3.997   4.718  1.00  0.00     0.049 A 
ATOM     22  H   UNL     1      -1.405  -3.376   3.472  1.00  0.00     0.167 HD
ATOM     23  C   UNL     1      -3.867  -2.986   0.105  1.00  0.00     0.034 A 
ATOM     24  C   UNL     1      -0.183  -5.245   5.104  1.00  0.00     0.034 A 
ATOM     25  C   UNL     1      -4.766  -2.612   1.161  1.00  0.00     0.049 A 
ATOM     26  C   UNL     1      -1.619  -5.428   4.806  1.00  0.00     0.074 A 
ATOM     27  C   UNL     1      -5.276  -1.425   1.643  1.00  0.00     0.029 A 
ATOM     28  N   UNL     1      -5.043  -3.554   2.119  1.00  0.00    -0.354 N 
ATOM     29  N   UNL     1      -2.577  -4.806   5.436  1.00  0.00    -0.248 NA
ATOM     30  C   UNL     1      -2.003  -6.077   3.565  1.00  0.00     0.031 C 
ATOM     31  C   UNL     1      -5.381  -1.619   3.051  1.00  0.00     0.029 A 
ATOM     32  C   UNL     1      -4.956  -2.921   3.327  1.00  0.00     0.049 A 
ATOM     33  H   UNL     1      -5.263  -4.501   1.966  1.00  0.00     0.167 HD
ATOM     34  C   UNL     1      -3.558  -4.617   4.475  1.00  0.00     0.074 A 
ATOM     35  C   UNL     1      -3.217  -5.548   3.404  1.00  0.00     0.031 C 
ATOM     36  C   UNL     1      -4.377  -3.522   4.508  1.00  0.00     0.034 A 
BRANCH  23  37
ATOM     37  C   UNL     1      -4.133  -4.208  -0.751  1.00  0.00     0.023 A 
ATOM     38  C   UNL     1      -5.475  -4.638  -0.875  1.00  0.00     0.012 A 
ATOM     39  C   UNL     1      -3.132  -5.108  -1.182  1.00  0.00     0.148 A 
ATOM     40  C   UNL     1      -5.800  -5.919  -1.337  1.00  0.00     0.002 A 
ATOM     41  C   UNL     1      -3.465  -6.348  -1.720  1.00  0.00     0.091 A 
ATOM     42  F   UNL     1      -1.843  -4.836  -0.956  1.00  0.00    -0.205 F 
ATOM     43  C   UNL     1      -4.794  -6.774  -1.767  1.00  0.00     0.022 A 
BRANCH  41  44
ATOM     44  S   UNL     1      -2.200  -7.457  -2.351  1.00  0.00     0.127 S 
ATOM     45  O   UNL     1      -2.048  -8.389  -1.240  1.00  0.00    -0.237 OA
ATOM     46  O   UNL     1      -2.846  -8.008  -3.543  1.00  0.00    -0.237 OA
ATOM     47  O   UNL     1      -1.055  -6.599  -2.638  1.00  0.00    -0.744 OA
ENDBRANCH  41  44
ENDBRANCH  23  37
BRANCH  24  48
ATOM     48  C   UNL     1       0.663  -6.345   5.609  1.00  0.00     0.023 A 
ATOM     49  C   UNL     1       0.095  -7.342   6.424  1.00  0.00     0.012 A 
ATOM     50  C   UNL     1       1.967  -6.553   5.106  1.00  0.00     0.148 A 
ATOM     51  C   UNL     1       0.791  -8.520   6.710  1.00  0.00     0.002 A 
ATOM     52  C   UNL     1       2.661  -7.721   5.405  1.00  0.00     0.091 A 
ATOM     53  F   UNL     1       2.487  -5.649   4.265  1.00  0.00    -0.205 F 
ATOM     54  C   UNL     1       2.071  -8.713   6.199  1.00  0.00     0.022 A 
BRANCH  52  55
ATOM     55  S   UNL     1       4.318  -8.031   4.780  1.00  0.00     0.127 S 
ATOM     56  O   UNL     1       4.984  -8.611   5.948  1.00  0.00    -0.237 OA
ATOM     57  O   UNL     1       4.062  -8.972   3.694  1.00  0.00    -0.237 OA
ATOM     58  O   UNL     1       4.836  -6.726   4.390  1.00  0.00    -0.744 OA
ENDBRANCH  52  55
ENDBRANCH  24  48
BRANCH  36  59
ATOM     59  C   UNL     1      -4.414  -2.679   5.759  1.00  0.00     0.023 A 
ATOM     60  C   UNL     1      -3.260  -2.048   6.266  1.00  0.00     0.012 A 
ATOM     61  C   UNL     1      -5.664  -2.349   6.314  1.00  0.00     0.148 A 
ATOM     62  C   UNL     1      -3.345  -1.133   7.318  1.00  0.00     0.002 A 
ATOM     63  C   UNL     1      -5.750  -1.396   7.323  1.00  0.00     0.091 A 
ATOM     64  F   UNL     1      -6.760  -2.948   5.822  1.00  0.00    -0.205 F 
ATOM     65  C   UNL     1      -4.591  -0.795   7.837  1.00  0.00     0.022 A 
BRANCH  63  66
ATOM     66  S   UNL     1      -7.343  -0.808   7.910  1.00  0.00     0.127 S 
ATOM     67  O   UNL     1      -7.547  -1.616   9.110  1.00  0.00    -0.237 OA
ATOM     68  O   UNL     1      -7.088   0.611   8.164  1.00  0.00    -0.237 OA
ATOM     69  O   UNL     1      -8.274  -1.051   6.814  1.00  0.00    -0.744 OA
ENDBRANCH  63  66
ENDBRANCH  36  59
ENDBRANCH  10  11
ENDBRANCH   3   5
ENDBRANCH   2   3
ENDBRANCH   1   2
BRANCH   1  70
ATOM     70  C   UNL     1       3.052   4.921  -0.853  1.00  0.00     0.274 C 
BRANCH  70  71
ATOM     71  O   UNL     1       2.580   3.658  -1.364  1.00  0.00    -0.457 OA
BRANCH  71  72
ATOM     72  C   UNL     1       3.482   2.974  -2.145  1.00  0.00     0.370 C 
ATOM     73  O   UNL     1       4.598   3.397  -2.431  1.00  0.00    -0.245 OA
BRANCH  72  74
ATOM     74  C   UNL     1       2.836   1.677  -2.714  1.00  0.00     0.329 C 
BRANCH  74  75
ATOM     75  N   UNL     1       2.989   1.654  -4.204  1.00  0.00    -0.315 N 
ATOM     76  C   UNL     1       2.430   2.873  -4.841  1.00  0.00     0.292 C 
ATOM     77  C   UNL     1       2.331   0.494  -4.852  1.00  0.00     0.292 C 
ATOM     78  H   UNL     1       3.998   1.596  -4.344  1.00  0.00     0.349 HD
ATOM     79  C   UNL     1       0.893   2.931  -4.826  1.00  0.00     0.221 C 
ATOM     80  C   UNL     1       0.793   0.569  -4.855  1.00  0.00     0.221 C 
ATOM     81  O   UNL     1       0.329   1.783  -5.466  1.00  0.00    -0.370 OA
ENDBRANCH  74  75
BRANCH  74  82
ATOM     82  C   UNL     1       3.461   0.458  -2.081  1.00  0.00     0.059 A 
ATOM     83  C   UNL     1       4.802   0.251  -1.679  1.00  0.00     0.145 A 
ATOM     84  C   UNL     1       2.837  -0.723  -1.714  1.00  0.00     0.119 A 
ATOM     85  N   UNL     1       4.992  -0.919  -1.064  1.00  0.00    -0.181 NA
ATOM     86  N   UNL     1       3.776  -1.509  -1.091  1.00  0.00    -0.268 N 
BRANCH  86  87
ATOM     87  C   UNL     1       3.522  -2.695  -0.273  1.00  0.00     0.179 C 
BRANCH  87  88
ATOM     88  C   UNL     1       3.775  -4.003  -0.965  1.00  0.00    -0.027 A 
ATOM     89  C   UNL     1       2.712  -4.838  -1.344  1.00  0.00     0.005 A 
ATOM     90  C   UNL     1       5.090  -4.460  -1.128  1.00  0.00     0.005 A 
ATOM     91  C   UNL     1       2.964  -6.113  -1.856  1.00  0.00     0.000 A 
ATOM     92  C   UNL     1       5.338  -5.735  -1.635  1.00  0.00     0.000 A 
ATOM     93  C   UNL     1       4.276  -6.563  -1.994  1.00  0.00     0.000 A 
ENDBRANCH  87  88
ENDBRANCH  86  87
ENDBRANCH  74  82
ENDBRANCH  72  74
ENDBRANCH  71  72
ENDBRANCH  70  71
ENDBRANCH   1  70
TORSDOF 18
