REMARK SMILES CN(C(=O)N1CCC(C(=O)OCCOC(=O)c2ccc(-c3c4nc(c(-c5cccc(S(=O)(=O)[O-])c5F)c5ccc([nH]5)c(-c5cccc(S(=O)(=O)[O-])c5F)c5nc(c(-c6cccc(S(=O)(=O)[O-])c6F)c6ccc3[nH]6)C=C5)C=C4)cc2)CC1)[C@H]1CCSC1
REMARK SMILES IDX 13 1 12 2 11 3 9 4 10 5 8 6 3 7 4 8 5 9 6 10 81 11 7 12
REMARK SMILES IDX 80 13 2 14 1 15 82 16 83 17 86 18 84 19 85 20 14 21 15 22
REMARK SMILES IDX 16 23 17 24 18 25 79 26 19 27 78 28 20 29 21 30 22 31 72 32
REMARK SMILES IDX 23 33 77 34 71 35 73 36 24 37 76 38 70 39 69 40 25 42 57 43
REMARK SMILES IDX 37 44 56 45 38 46 41 47 55 48 74 49 39 50 40 51 54 53 75 54
REMARK SMILES IDX 42 55 26 56 27 57 35 58 28 59 30 60 36 61 29 62 31 63 32 64
REMARK SMILES IDX 33 65 34 66 58 67 59 68 67 69 60 70 62 71 68 72 61 73 63 74
REMARK SMILES IDX 64 75 65 76 66 77 43 78 44 79 52 80 45 81 47 82 53 83 46 84
REMARK SMILES IDX 48 85 49 86 50 87 51 88
REMARK H PARENT 73 41 41 52
REMARK Flexibility Score: inf
ROOT
ATOM      1  C   UNL     1       8.718   4.077  -3.428  1.00  0.00     0.275 C 
ENDROOT
BRANCH   1   2
ATOM      2  C   UNL     1       7.510   4.120  -2.489  1.00  0.00     0.274 C 
BRANCH   2   3
ATOM      3  O   UNL     1       6.538   3.115  -2.834  1.00  0.00    -0.462 OA
BRANCH   3   4
ATOM      4  C   UNL     1       5.434   3.554  -3.487  1.00  0.00     0.309 C 
ATOM      5  O   UNL     1       5.180   4.731  -3.719  1.00  0.00    -0.252 OA
BRANCH   4   6
ATOM      6  C   UNL     1       4.496   2.440  -3.903  1.00  0.00     0.103 C 
ATOM      7  C   UNL     1       2.587  -0.889  -2.760  1.00  0.00     0.320 C 
ATOM      8  O   UNL     1       3.518  -1.368  -2.115  1.00  0.00    -0.248 OA
ATOM      9  N   UNL     1       2.832   0.105  -3.686  1.00  0.00    -0.325 N 
ATOM     10  C   UNL     1       4.075   0.041  -4.447  1.00  0.00     0.122 C 
ATOM     11  C   UNL     1       2.226   1.429  -3.562  1.00  0.00     0.122 C 
ATOM     12  C   UNL     1       5.106   1.035  -3.924  1.00  0.00     0.037 C 
ATOM     13  C   UNL     1       3.236   2.451  -3.036  1.00  0.00     0.037 C 
BRANCH   7  14
ATOM     14  N   UNL     1       1.275  -1.351  -2.658  1.00  0.00    -0.324 N 
ATOM     15  C   UNL     1       0.203  -0.889  -3.541  1.00  0.00     0.149 C 
BRANCH  14  16
ATOM     16  C   UNL     1       0.912  -2.278  -1.549  1.00  0.00     0.097 C 
ATOM     17  C   UNL     1      -0.361  -3.102  -1.815  1.00  0.00     0.037 C 
ATOM     18  C   UNL     1       1.973  -3.338  -1.185  1.00  0.00     0.094 C 
ATOM     19  C   UNL     1      -0.545  -4.069  -0.661  1.00  0.00     0.072 C 
ATOM     20  S   UNL     1       1.112  -4.660  -0.273  1.00  0.00    -0.160 SA
ENDBRANCH  14  16
ENDBRANCH   7  14
ENDBRANCH   4   6
ENDBRANCH   3   4
ENDBRANCH   2   3
ENDBRANCH   1   2
BRANCH   1  21
ATOM     21  O   UNL     1       8.357   4.404  -4.782  1.00  0.00    -0.458 OA
BRANCH  21  22
ATOM     22  C   UNL     1       8.078   3.336  -5.565  1.00  0.00     0.338 C 
ATOM     23  O   UNL     1       8.128   2.159  -5.248  1.00  0.00    -0.246 OA
BRANCH  22  24
ATOM     24  C   UNL     1       7.573   3.773  -6.876  1.00  0.00     0.060 A 
ATOM     25  C   UNL     1       6.303   3.335  -7.262  1.00  0.00     0.016 A 
ATOM     26  C   UNL     1       8.379   4.484  -7.766  1.00  0.00     0.016 A 
ATOM     27  C   UNL     1       5.840   3.580  -8.551  1.00  0.00     0.010 A 
ATOM     28  C   UNL     1       7.915   4.725  -9.064  1.00  0.00     0.010 A 
ATOM     29  C   UNL     1       6.657   4.247  -9.472  1.00  0.00    -0.014 A 
BRANCH  29  30
ATOM     30  C   UNL     1       6.227   4.336 -10.888  1.00  0.00     0.031 A 
ATOM     31  C   UNL     1       6.842   3.415 -11.906  1.00  0.00     0.074 A 
ATOM     32  C   UNL     1       5.268   5.206 -11.253  1.00  0.00     0.049 A 
ATOM     33  N   UNL     1       6.601   3.321 -13.188  1.00  0.00    -0.248 NA
ATOM     34  C   UNL     1       7.861   2.473 -11.415  1.00  0.00     0.031 C 
ATOM     35  C   UNL     1       4.585   6.134 -10.353  1.00  0.00     0.029 A 
ATOM     36  N   UNL     1       4.706   5.450 -12.480  1.00  0.00    -0.354 N 
ATOM     37  C   UNL     1       7.463   2.341 -13.665  1.00  0.00     0.074 A 
ATOM     38  C   UNL     1       8.236   1.872 -12.535  1.00  0.00     0.031 C 
ATOM     39  C   UNL     1       3.692   6.847 -11.059  1.00  0.00     0.029 A 
ATOM     40  C   UNL     1       3.758   6.445 -12.462  1.00  0.00     0.049 A 
ATOM     41  H   UNL     1       4.957   4.959 -13.296  1.00  0.00     0.167 HD
ATOM     42  C   UNL     1       7.587   1.860 -14.925  1.00  0.00     0.034 A 
ATOM     43  C   UNL     1       3.030   6.973 -13.466  1.00  0.00     0.034 A 
ATOM     44  C   UNL     1       6.789   2.296 -16.038  1.00  0.00     0.049 A 
ATOM     45  C   UNL     1       3.194   6.426 -14.859  1.00  0.00     0.074 A 
ATOM     46  C   UNL     1       6.813   1.844 -17.346  1.00  0.00     0.029 A 
ATOM     47  N   UNL     1       5.822   3.287 -15.976  1.00  0.00    -0.354 N 
ATOM     48  N   UNL     1       3.942   5.431 -15.273  1.00  0.00    -0.248 NA
ATOM     49  C   UNL     1       2.393   7.057 -15.918  1.00  0.00     0.031 C 
ATOM     50  C   UNL     1       5.864   2.567 -18.076  1.00  0.00     0.029 A 
ATOM     51  C   UNL     1       5.243   3.464 -17.221  1.00  0.00     0.049 A 
ATOM     52  H   UNL     1       5.581   3.792 -15.166  1.00  0.00     0.167 HD
ATOM     53  C   UNL     1       3.675   5.292 -16.631  1.00  0.00     0.074 A 
ATOM     54  C   UNL     1       2.684   6.296 -16.966  1.00  0.00     0.031 C 
ATOM     55  C   UNL     1       4.212   4.425 -17.524  1.00  0.00     0.034 A 
BRANCH  42  56
ATOM     56  C   UNL     1       8.609   0.779 -15.153  1.00  0.00     0.023 A 
ATOM     57  C   UNL     1       8.340  -0.534 -14.716  1.00  0.00     0.012 A 
ATOM     58  C   UNL     1       9.819   1.052 -15.819  1.00  0.00     0.148 A 
ATOM     59  C   UNL     1       9.274  -1.552 -14.909  1.00  0.00     0.002 A 
ATOM     60  C   UNL     1      10.730   0.024 -16.040  1.00  0.00     0.091 A 
ATOM     61  F   UNL     1      10.073   2.312 -16.200  1.00  0.00    -0.205 F 
ATOM     62  C   UNL     1      10.464  -1.275 -15.578  1.00  0.00     0.022 A 
BRANCH  60  63
ATOM     63  S   UNL     1      12.255   0.288 -16.953  1.00  0.00     0.127 S 
ATOM     64  O   UNL     1      13.221   0.469 -15.871  1.00  0.00    -0.237 OA
ATOM     65  O   UNL     1      12.401  -0.966 -17.695  1.00  0.00    -0.237 OA
ATOM     66  O   UNL     1      12.010   1.454 -17.790  1.00  0.00    -0.744 OA
ENDBRANCH  60  63
ENDBRANCH  42  56
BRANCH  43  67
ATOM     67  C   UNL     1       2.024   8.033 -13.175  1.00  0.00     0.023 A 
ATOM     68  C   UNL     1       0.653   7.723 -13.269  1.00  0.00     0.012 A 
ATOM     69  C   UNL     1       2.410   9.327 -12.774  1.00  0.00     0.148 A 
ATOM     70  C   UNL     1      -0.315   8.687 -12.989  1.00  0.00     0.002 A 
ATOM     71  C   UNL     1       1.440  10.268 -12.448  1.00  0.00     0.091 A 
ATOM     72  F   UNL     1       3.719   9.609 -12.712  1.00  0.00    -0.205 F 
ATOM     73  C   UNL     1       0.077   9.954 -12.567  1.00  0.00     0.022 A 
BRANCH  71  74
ATOM     74  S   UNL     1       1.853  11.883 -11.778  1.00  0.00     0.127 S 
ATOM     75  O   UNL     1       1.550  12.760 -12.905  1.00  0.00    -0.237 OA
ATOM     76  O   UNL     1       0.929  11.989 -10.649  1.00  0.00    -0.237 OA
ATOM     77  O   UNL     1       3.256  11.800 -11.397  1.00  0.00    -0.744 OA
ENDBRANCH  71  74
ENDBRANCH  43  67
BRANCH  55  78
ATOM     78  C   UNL     1       3.721   4.494 -18.945  1.00  0.00     0.023 A 
ATOM     79  C   UNL     1       4.146   5.547 -19.778  1.00  0.00     0.012 A 
ATOM     80  C   UNL     1       2.897   3.482 -19.476  1.00  0.00     0.148 A 
ATOM     81  C   UNL     1       3.738   5.606 -21.110  1.00  0.00     0.002 A 
ATOM     82  C   UNL     1       2.528   3.525 -20.816  1.00  0.00     0.091 A 
ATOM     83  F   UNL     1       2.481   2.500 -18.662  1.00  0.00    -0.205 F 
ATOM     84  C   UNL     1       2.940   4.590 -21.632  1.00  0.00     0.022 A 
BRANCH  82  85
ATOM     85  S   UNL     1       1.576   2.206 -21.579  1.00  0.00     0.127 S 
ATOM     86  O   UNL     1       0.222   2.754 -21.544  1.00  0.00    -0.237 OA
ATOM     87  O   UNL     1       2.165   2.120 -22.916  1.00  0.00    -0.237 OA
ATOM     88  O   UNL     1       1.805   1.029 -20.750  1.00  0.00    -0.744 OA
ENDBRANCH  82  85
ENDBRANCH  55  78
ENDBRANCH  29  30
ENDBRANCH  22  24
ENDBRANCH  21  22
ENDBRANCH   1  21
TORSDOF 16
