REMARK SMILES Cc1[nH]c(=O)sc1S(=O)(=O)N[C@@H]1CCCCC[C@@H]1C(=O)OCCOC(=O)c1ccc(-c2c3nc(c(-c4cccc(S(=O)(=O)[O-])c4F)c4ccc([nH]4)c(-c4cccc(S(=O)(=O)[O-])c4F)c4nc(c(-c5cccc(S(=O)(=O)[O-])c5F)c5ccc2[nH]5)C=C4)C=C3)cc1
REMARK SMILES IDX 22 1 21 2 19 3 20 4 18 5 12 6 11 7 8 9 9 10 10 11 7 12 1 13
REMARK SMILES IDX 2 14 3 15 4 16 6 18 5 19 13 20 14 21 17 23 16 24 15 25 23 27
REMARK SMILES IDX 24 28 25 29 26 30 27 31 28 32 89 33 29 34 88 35 30 36 31 37
REMARK SMILES IDX 32 38 82 39 33 40 87 41 81 42 83 43 34 44 86 45 80 46 79 47
REMARK SMILES IDX 35 49 67 50 47 51 66 52 48 53 51 54 65 55 84 56 49 57 50 58
REMARK SMILES IDX 64 60 85 61 52 62 36 63 37 64 45 65 38 66 40 67 46 68 39 69
REMARK SMILES IDX 41 70 42 71 43 72 44 73 68 74 69 75 77 76 70 77 72 78 78 79
REMARK SMILES IDX 71 80 73 81 74 82 75 83 76 84 53 85 54 86 62 87 55 88 57 89
REMARK SMILES IDX 63 90 56 91 58 92 59 93 60 94 61 95
REMARK H PARENT 11 8 3 17 83 48 51 59
REMARK Flexibility Score: 100.00
ROOT
ATOM      1  C   UNL     1       3.438   1.841  -0.260  1.00  0.00     0.274 C 
ENDROOT
BRANCH   1   2
ATOM      2  O   UNL     1       2.018   1.571  -0.239  1.00  0.00    -0.462 OA
BRANCH   2   3
ATOM      3  C   UNL     1       1.264   1.423  -1.353  1.00  0.00     0.310 C 
ATOM      4  O   UNL     1       1.690   1.548  -2.494  1.00  0.00    -0.252 OA
BRANCH   3   5
ATOM      5  C   UNL     1      -0.215   1.113  -1.026  1.00  0.00     0.117 C 
BRANCH   5   6
ATOM      6  C   UNL     1      -0.824   2.146  -0.050  1.00  0.00     0.084 C 
BRANCH   6   7
ATOM      7  N   UNL     1       0.011   2.302   1.168  1.00  0.00    -0.206 NA
ATOM      8  H   UNL     1       0.852   1.768   0.947  1.00  0.00     0.141 HD
BRANCH   7   9
ATOM      9  S   UNL     1      -0.255   1.955   2.783  1.00  0.00     0.252 S 
ATOM     10  O   UNL     1      -1.517   2.586   3.115  1.00  0.00    -0.206 OA
ATOM     11  O   UNL     1       0.951   2.475   3.408  1.00  0.00    -0.206 OA
BRANCH   9  12
ATOM     12  C   UNL     1      -0.330   0.247   3.145  1.00  0.00     0.158 A 
ATOM     13  C   UNL     1       1.832  -0.534   1.981  1.00  0.00     0.067 C 
ATOM     14  C   UNL     1       0.613  -0.655   2.806  1.00  0.00     0.046 A 
ATOM     15  N   UNL     1       0.381  -1.911   3.318  1.00  0.00    -0.315 N 
ATOM     16  C   UNL     1      -0.693  -2.045   4.146  1.00  0.00     0.305 A 
ATOM     17  H   UNL     1       0.961  -2.675   3.097  1.00  0.00     0.170 HD
ATOM     18  S   UNL     1      -1.511  -0.491   4.226  1.00  0.00    -0.061 S 
ATOM     19  O   UNL     1      -1.034  -3.056   4.744  1.00  0.00    -0.257 OA
ENDBRANCH   9  12
ENDBRANCH   7   9
ENDBRANCH   6   7
BRANCH   6  20
ATOM     20  C   UNL     1      -2.322   2.005   0.237  1.00  0.00     0.021 C 
BRANCH  20  21
ATOM     21  C   UNL     1      -3.152   1.278  -0.824  1.00  0.00     0.002 CG0
ATOM     22  G   UNL     1      -3.104  -0.236  -0.634  1.00  0.00     0.000 G0
ENDBRANCH  20  21
ENDBRANCH   6  20
ENDBRANCH   5   6
BRANCH   5  23
ATOM     23  C   UNL     1      -0.516  -0.331  -0.603  1.00  0.00     0.017 C 
BRANCH  23  24
ATOM     24  C   UNL     1      -1.830  -0.905  -1.136  1.00  0.00     0.001 C 
BRANCH  24  25
ATOM     25  C   UNL     1      -3.104  -0.236  -0.634  1.00  0.00     0.000 CG0
ATOM     26  G   UNL     1      -3.152   1.278  -0.824  1.00  0.00     0.000 G0
ENDBRANCH  24  25
ENDBRANCH  23  24
ENDBRANCH   5  23
ENDBRANCH   3   5
ENDBRANCH   2   3
ENDBRANCH   1   2
BRANCH   1  27
ATOM     27  C   UNL     1       4.266   0.571  -0.361  1.00  0.00     0.275 C 
BRANCH  27  28
ATOM     28  O   UNL     1       4.182   0.072  -1.683  1.00  0.00    -0.458 OA
BRANCH  28  29
ATOM     29  C   UNL     1       3.262  -0.897  -1.849  1.00  0.00     0.338 C 
ATOM     30  O   UNL     1       2.440  -1.287  -1.041  1.00  0.00    -0.246 OA
BRANCH  29  31
ATOM     31  C   UNL     1       3.515  -1.579  -3.102  1.00  0.00     0.060 A 
ATOM     32  C   UNL     1       2.488  -2.352  -3.647  1.00  0.00     0.016 A 
ATOM     33  C   UNL     1       4.847  -1.659  -3.523  1.00  0.00     0.016 A 
ATOM     34  C   UNL     1       2.840  -3.339  -4.535  1.00  0.00     0.010 A 
ATOM     35  C   UNL     1       5.196  -2.649  -4.394  1.00  0.00     0.010 A 
ATOM     36  C   UNL     1       4.199  -3.514  -4.832  1.00  0.00    -0.014 A 
BRANCH  36  37
ATOM     37  C   UNL     1       4.565  -4.514  -5.801  1.00  0.00     0.031 A 
ATOM     38  C   UNL     1       4.126  -4.111  -7.154  1.00  0.00     0.074 A 
ATOM     39  C   UNL     1       5.332  -5.572  -5.487  1.00  0.00     0.049 A 
ATOM     40  N   UNL     1       3.131  -4.597  -7.816  1.00  0.00    -0.248 NA
ATOM     41  C   UNL     1       4.664  -2.859  -7.715  1.00  0.00     0.031 C 
ATOM     42  C   UNL     1       6.023  -5.847  -4.223  1.00  0.00     0.029 A 
ATOM     43  N   UNL     1       5.777  -6.563  -6.298  1.00  0.00    -0.354 N 
ATOM     44  C   UNL     1       3.138  -3.901  -9.018  1.00  0.00     0.074 A 
ATOM     45  C   UNL     1       3.876  -2.692  -8.778  1.00  0.00     0.031 C 
ATOM     46  C   UNL     1       6.988  -6.771  -4.441  1.00  0.00     0.029 A 
ATOM     47  C   UNL     1       6.892  -7.238  -5.813  1.00  0.00     0.049 A 
ATOM     48  H   UNL     1       5.347  -6.786  -7.156  1.00  0.00     0.167 HD
ATOM     49  C   UNL     1       2.866  -4.553 -10.179  1.00  0.00     0.034 A 
ATOM     50  C   UNL     1       7.712  -8.046  -6.534  1.00  0.00     0.034 A 
ATOM     51  C   UNL     1       2.206  -5.812  -9.919  1.00  0.00     0.049 A 
ATOM     52  C   UNL     1       6.963  -8.455  -7.747  1.00  0.00     0.074 A 
ATOM     53  C   UNL     1       1.062  -6.196  -9.247  1.00  0.00     0.029 A 
ATOM     54  N   UNL     1       2.983  -6.942 -10.023  1.00  0.00    -0.354 N 
ATOM     55  N   UNL     1       5.908  -9.219  -7.711  1.00  0.00    -0.248 NA
ATOM     56  C   UNL     1       7.102  -7.636  -8.941  1.00  0.00     0.031 C 
ATOM     57  C   UNL     1       1.410  -7.413  -8.588  1.00  0.00     0.029 A 
ATOM     58  C   UNL     1       2.713  -7.753  -8.955  1.00  0.00     0.049 A 
ATOM     59  H   UNL     1       3.625  -7.134 -10.744  1.00  0.00     0.167 HD
ATOM     60  C   UNL     1       5.026  -8.621  -8.602  1.00  0.00     0.074 A 
ATOM     61  C   UNL     1       5.855  -7.727  -9.412  1.00  0.00     0.031 C 
ATOM     62  C   UNL     1       3.677  -8.673  -8.390  1.00  0.00     0.034 A 
BRANCH  49  63
ATOM     63  C   UNL     1       3.594  -4.296 -11.483  1.00  0.00     0.023 A 
ATOM     64  C   UNL     1       3.126  -4.999 -12.614  1.00  0.00     0.012 A 
ATOM     65  C   UNL     1       4.854  -3.660 -11.605  1.00  0.00     0.148 A 
ATOM     66  C   UNL     1       3.901  -5.127 -13.770  1.00  0.00     0.002 A 
ATOM     67  C   UNL     1       5.586  -3.724 -12.783  1.00  0.00     0.091 A 
ATOM     68  F   UNL     1       5.435  -3.094 -10.547  1.00  0.00    -0.205 F 
ATOM     69  C   UNL     1       5.131  -4.487 -13.857  1.00  0.00     0.022 A 
BRANCH  67  70
ATOM     70  S   UNL     1       7.167  -2.882 -12.957  1.00  0.00     0.127 S 
ATOM     71  O   UNL     1       8.094  -4.010 -12.979  1.00  0.00    -0.237 OA
ATOM     72  O   UNL     1       6.993  -2.193 -14.236  1.00  0.00    -0.237 OA
ATOM     73  O   UNL     1       7.272  -1.992 -11.809  1.00  0.00    -0.744 OA
ENDBRANCH  67  70
ENDBRANCH  49  63
BRANCH  50  74
ATOM     74  C   UNL     1       9.174  -8.269  -6.425  1.00  0.00     0.023 A 
ATOM     75  C   UNL     1       9.752  -9.390  -7.057  1.00  0.00     0.012 A 
ATOM     76  C   UNL     1      10.033  -7.242  -5.978  1.00  0.00     0.148 A 
ATOM     77  C   UNL     1      11.134  -9.465  -7.275  1.00  0.00     0.002 A 
ATOM     78  C   UNL     1      11.406  -7.322  -6.194  1.00  0.00     0.091 A 
ATOM     79  F   UNL     1       9.497  -6.145  -5.428  1.00  0.00    -0.205 F 
ATOM     80  C   UNL     1      11.959  -8.427  -6.854  1.00  0.00     0.022 A 
BRANCH  78  81
ATOM     81  S   UNL     1      12.532  -6.004  -5.713  1.00  0.00     0.127 S 
ATOM     82  O   UNL     1      13.564  -6.740  -4.981  1.00  0.00    -0.237 OA
ATOM     83  O   UNL     1      12.955  -5.480  -7.008  1.00  0.00    -0.237 OA
ATOM     84  O   UNL     1      11.749  -5.092  -4.889  1.00  0.00    -0.744 OA
ENDBRANCH  78  81
ENDBRANCH  50  74
BRANCH  62  85
ATOM     85  C   UNL     1       3.170  -9.623  -7.330  1.00  0.00     0.023 A 
ATOM     86  C   UNL     1       3.520  -9.517  -5.966  1.00  0.00     0.012 A 
ATOM     87  C   UNL     1       2.215 -10.579  -7.708  1.00  0.00     0.148 A 
ATOM     88  C   UNL     1       2.962 -10.375  -5.013  1.00  0.00     0.002 A 
ATOM     89  C   UNL     1       1.629 -11.399  -6.753  1.00  0.00     0.091 A 
ATOM     90  F   UNL     1       1.884 -10.665  -9.006  1.00  0.00    -0.205 F 
ATOM     91  C   UNL     1       2.008 -11.310  -5.405  1.00  0.00     0.022 A 
BRANCH  89  92
ATOM     92  S   UNL     1       0.320 -12.544  -7.189  1.00  0.00     0.127 S 
ATOM     93  O   UNL     1       1.028 -13.822  -7.213  1.00  0.00    -0.237 OA
ATOM     94  O   UNL     1      -0.622 -12.386  -6.080  1.00  0.00    -0.237 OA
ATOM     95  O   UNL     1      -0.197 -12.087  -8.474  1.00  0.00    -0.744 OA
ENDBRANCH  89  92
ENDBRANCH  62  85
ENDBRANCH  36  37
ENDBRANCH  29  31
ENDBRANCH  28  29
ENDBRANCH  27  28
ENDBRANCH   1  27
TORSDOF 17
