REMARK SMILES O=C(OCCOC(=O)[C@H]1CS[C@@H](c2cccc(OCc3ccc(Cl)cc3Cl)c2)[NH2+]1)c1ccc(-c2c3nc(c(-c4cccc(S(=O)(=O)[O-])c4F)c4ccc([nH]4)c(-c4cccc(S(=O)(=O)[O-])c4F)c4nc(c(-c5cccc(S(=O)(=O)[O-])c5F)c5ccc2[nH]5)C=C4)C=C3)cc1
REMARK SMILES IDX 5 1 4 2 3 3 2 4 1 5 30 6 31 7 92 8 32 9 91 10 33 11 34 12
REMARK SMILES IDX 35 13 85 14 36 15 90 16 84 17 86 18 37 19 89 20 83 21 82 22
REMARK SMILES IDX 38 24 70 25 50 26 69 27 51 28 54 29 68 30 87 31 52 32 53 33
REMARK SMILES IDX 67 35 88 36 55 37 39 38 40 39 48 40 41 41 43 42 49 43 42 44
REMARK SMILES IDX 44 45 45 46 46 47 47 48 71 49 72 50 80 51 73 52 75 53 81 54
REMARK SMILES IDX 74 55 76 56 77 57 78 58 79 59 56 60 57 61 65 62 58 63 60 64
REMARK SMILES IDX 66 65 59 66 61 67 62 68 63 69 64 70 6 71 7 72 8 73 9 74
REMARK SMILES IDX 10 75 29 76 11 77 12 78 13 81 14 82 28 83 15 84 17 85 16 86
REMARK SMILES IDX 18 87 19 88 20 89 21 90 26 91 22 92 25 93 27 94 23 95 24 96
REMARK H PARENT 86 23 54 34 29 79 29 80
REMARK Flexibility Score: inf
ROOT
ATOM      1  C   UNL     1       3.967   1.932   1.145  1.00  0.00     0.274 C 
ENDROOT
BRANCH   1   2
ATOM      2  C   UNL     1       4.013   1.737  -0.374  1.00  0.00     0.275 C 
BRANCH   2   3
ATOM      3  O   UNL     1       3.105   0.750  -0.889  1.00  0.00    -0.458 OA
BRANCH   3   4
ATOM      4  C   UNL     1       3.179  -0.601  -0.873  1.00  0.00     0.338 C 
ATOM      5  O   UNL     1       2.252  -1.225  -1.389  1.00  0.00    -0.246 OA
BRANCH   4   6
ATOM      6  C   UNL     1       4.255  -1.391  -0.176  1.00  0.00     0.060 A 
ATOM      7  C   UNL     1       5.519  -0.942   0.210  1.00  0.00     0.016 A 
ATOM      8  C   UNL     1       3.936  -2.719   0.145  1.00  0.00     0.016 A 
ATOM      9  C   UNL     1       6.391  -1.748   0.973  1.00  0.00     0.010 A 
ATOM     10  C   UNL     1       4.788  -3.507   0.937  1.00  0.00     0.010 A 
ATOM     11  C   UNL     1       6.025  -3.030   1.396  1.00  0.00    -0.014 A 
BRANCH  11  12
ATOM     12  C   UNL     1       6.908  -3.848   2.311  1.00  0.00     0.031 A 
ATOM     13  C   UNL     1       7.265  -5.247   1.964  1.00  0.00     0.074 A 
ATOM     14  C   UNL     1       7.290  -3.420   3.539  1.00  0.00     0.049 A 
ATOM     15  N   UNL     1       7.878  -6.120   2.715  1.00  0.00    -0.248 NA
ATOM     16  C   UNL     1       6.859  -5.745   0.642  1.00  0.00     0.031 C 
ATOM     17  C   UNL     1       6.811  -2.168   4.058  1.00  0.00     0.029 A 
ATOM     18  N   UNL     1       7.976  -3.987   4.625  1.00  0.00    -0.354 N 
ATOM     19  C   UNL     1       7.965  -7.258   1.947  1.00  0.00     0.074 A 
ATOM     20  C   UNL     1       7.208  -7.017   0.736  1.00  0.00     0.031 C 
ATOM     21  C   UNL     1       7.107  -2.138   5.357  1.00  0.00     0.029 A 
ATOM     22  C   UNL     1       7.823  -3.291   5.833  1.00  0.00     0.049 A 
ATOM     23  H   UNL     1       8.519  -4.805   4.544  1.00  0.00     0.167 HD
ATOM     24  C   UNL     1       8.703  -8.362   2.179  1.00  0.00     0.034 A 
ATOM     25  C   UNL     1       8.112  -3.574   7.148  1.00  0.00     0.034 A 
ATOM     26  C   UNL     1       9.446  -8.623   3.376  1.00  0.00     0.049 A 
ATOM     27  C   UNL     1       8.849  -4.846   7.383  1.00  0.00     0.074 A 
ATOM     28  C   UNL     1      10.305  -9.674   3.639  1.00  0.00     0.029 A 
ATOM     29  N   UNL     1       9.385  -7.858   4.528  1.00  0.00    -0.354 N 
ATOM     30  N   UNL     1       9.042  -5.839   6.561  1.00  0.00    -0.248 NA
ATOM     31  C   UNL     1       9.484  -4.993   8.702  1.00  0.00     0.031 C 
ATOM     32  C   UNL     1      10.740  -9.565   4.963  1.00  0.00     0.029 A 
ATOM     33  C   UNL     1      10.188  -8.421   5.506  1.00  0.00     0.049 A 
ATOM     34  H   UNL     1       8.852  -7.037   4.636  1.00  0.00     0.167 HD
ATOM     35  C   UNL     1       9.867  -6.708   7.245  1.00  0.00     0.074 A 
ATOM     36  C   UNL     1      10.127  -6.134   8.547  1.00  0.00     0.031 C 
ATOM     37  C   UNL     1      10.394  -7.870   6.812  1.00  0.00     0.034 A 
BRANCH  24  38
ATOM     38  C   UNL     1       8.780  -9.321   1.038  1.00  0.00     0.023 A 
ATOM     39  C   UNL     1       9.452  -8.934  -0.142  1.00  0.00     0.012 A 
ATOM     40  C   UNL     1       8.145 -10.567   1.114  1.00  0.00     0.148 A 
ATOM     41  C   UNL     1       9.431  -9.755  -1.263  1.00  0.00     0.002 A 
ATOM     42  C   UNL     1       8.182 -11.405   0.013  1.00  0.00     0.091 A 
ATOM     43  F   UNL     1       7.494 -10.886   2.241  1.00  0.00    -0.205 F 
ATOM     44  C   UNL     1       8.801 -10.993  -1.182  1.00  0.00     0.022 A 
BRANCH  42  45
ATOM     45  S   UNL     1       7.472 -13.048   0.047  1.00  0.00     0.127 S 
ATOM     46  O   UNL     1       6.456 -12.948  -1.008  1.00  0.00    -0.237 OA
ATOM     47  O   UNL     1       8.632 -13.876  -0.304  1.00  0.00    -0.237 OA
ATOM     48  O   UNL     1       6.956 -13.244   1.383  1.00  0.00    -0.744 OA
ENDBRANCH  42  45
ENDBRANCH  24  38
BRANCH  25  49
ATOM     49  C   UNL     1       7.899  -2.740   8.425  1.00  0.00     0.023 A 
ATOM     50  C   UNL     1       8.888  -1.789   8.778  1.00  0.00     0.012 A 
ATOM     51  C   UNL     1       6.857  -2.946   9.383  1.00  0.00     0.148 A 
ATOM     52  C   UNL     1       8.766  -0.984   9.927  1.00  0.00     0.002 A 
ATOM     53  C   UNL     1       6.682  -2.066  10.471  1.00  0.00     0.091 A 
ATOM     54  F   UNL     1       6.043  -4.001   9.237  1.00  0.00    -0.205 F 
ATOM     55  C   UNL     1       7.639  -1.081  10.736  1.00  0.00     0.022 A 
BRANCH  53  56
ATOM     56  S   UNL     1       5.144  -1.935  11.446  1.00  0.00     0.127 S 
ATOM     57  O   UNL     1       5.576  -2.340  12.780  1.00  0.00    -0.237 OA
ATOM     58  O   UNL     1       4.834  -0.509  11.307  1.00  0.00    -0.237 OA
ATOM     59  O   UNL     1       4.179  -2.815  10.801  1.00  0.00    -0.744 OA
ENDBRANCH  53  56
ENDBRANCH  25  49
BRANCH  37  60
ATOM     60  C   UNL     1      11.336  -8.535   7.759  1.00  0.00     0.023 A 
ATOM     61  C   UNL     1      10.857  -9.150   8.932  1.00  0.00     0.012 A 
ATOM     62  C   UNL     1      12.718  -8.458   7.516  1.00  0.00     0.148 A 
ATOM     63  C   UNL     1      11.753  -9.644   9.876  1.00  0.00     0.002 A 
ATOM     64  C   UNL     1      13.600  -9.006   8.430  1.00  0.00     0.091 A 
ATOM     65  F   UNL     1      13.139  -7.811   6.419  1.00  0.00    -0.205 F 
ATOM     66  C   UNL     1      13.122  -9.582   9.619  1.00  0.00     0.022 A 
BRANCH  64  67
ATOM     67  S   UNL     1      15.367  -9.037   8.143  1.00  0.00     0.127 S 
ATOM     68  O   UNL     1      15.857  -8.145   9.193  1.00  0.00    -0.237 OA
ATOM     69  O   UNL     1      15.680 -10.452   8.344  1.00  0.00    -0.237 OA
ATOM     70  O   UNL     1      15.566  -8.559   6.781  1.00  0.00    -0.744 OA
ENDBRANCH  64  67
ENDBRANCH  37  60
ENDBRANCH  11  12
ENDBRANCH   4   6
ENDBRANCH   3   4
ENDBRANCH   2   3
ENDBRANCH   1   2
BRANCH   1  71
ATOM     71  O   UNL     1       3.496   0.777   1.857  1.00  0.00    -0.458 OA
BRANCH  71  72
ATOM     72  C   UNL     1       2.155   0.766   2.106  1.00  0.00     0.365 C 
ATOM     73  O   UNL     1       1.389   1.663   1.763  1.00  0.00    -0.245 OA
BRANCH  72  74
ATOM     74  C   UNL     1       1.659  -0.474   2.839  1.00  0.00     0.304 C 
ATOM     75  C   UNL     1       0.627  -1.232   1.989  1.00  0.00     0.153 C 
ATOM     76  N   UNL     1       2.710  -1.413   3.264  1.00  0.00    -0.319 N 
ATOM     77  S   UNL     1       0.998  -3.010   2.200  1.00  0.00    -0.087 SA
ATOM     78  C   UNL     1       1.983  -2.646   3.620  1.00  0.00     0.274 C 
ATOM     79  H   UNL     1       3.216  -1.046   4.070  1.00  0.00     0.348 HD
ATOM     80  H   UNL     1       3.407  -1.570   2.535  1.00  0.00     0.348 HD
BRANCH  78  81
ATOM     81  C   UNL     1       2.917  -3.613   4.266  1.00  0.00     0.024 A 
ATOM     82  C   UNL     1       3.392  -4.843   3.824  1.00  0.00     0.011 A 
ATOM     83  C   UNL     1       3.413  -3.079   5.469  1.00  0.00     0.057 A 
ATOM     84  C   UNL     1       4.386  -5.487   4.572  1.00  0.00     0.004 A 
ATOM     85  C   UNL     1       4.421  -3.650   6.193  1.00  0.00     0.120 A 
ATOM     86  C   UNL     1       4.899  -4.891   5.748  1.00  0.00     0.046 A 
BRANCH  85  87
ATOM     87  O   UNL     1       5.032  -2.942   7.194  1.00  0.00    -0.489 OA
BRANCH  87  88
ATOM     88  C   UNL     1       4.438  -1.722   7.752  1.00  0.00     0.267 C 
BRANCH  88  89
ATOM     89  C   UNL     1       4.968  -0.336   7.302  1.00  0.00     0.008 A 
ATOM     90  C   UNL     1       6.337   0.007   7.346  1.00  0.00     0.010 A 
ATOM     91  C   UNL     1       4.142   0.675   6.824  1.00  0.00     0.049 A 
ATOM     92  C   UNL     1       6.901   1.062   6.620  1.00  0.00     0.021 A 
ATOM     93  C   UNL     1       4.680   1.808   6.182  1.00  0.00     0.041 A 
ATOM     94  Cl  UNL     1       2.430   0.618   7.015  1.00  0.00    -0.084 Cl
ATOM     95  C   UNL     1       6.053   1.948   6.002  1.00  0.00     0.042 A 
ATOM     96  Cl  UNL     1       6.688   3.199   5.010  1.00  0.00    -0.084 Cl
ENDBRANCH  88  89
ENDBRANCH  87  88
ENDBRANCH  85  87
ENDBRANCH  78  81
ENDBRANCH  72  74
ENDBRANCH  71  72
ENDBRANCH   1  71
TORSDOF 18
