REMARK SMILES Cc1cc(C(=O)OCCOC(=O)c2ccc(-c3c4nc(c(-c5cccc(S(=O)(=O)[O-])c5F)c5ccc([nH]5)c(-c5cccc(S(=O)(=O)[O-])c5F)c5nc(c(-c6cccc(S(=O)(=O)[O-])c6F)c6ccc3[nH]6)C=C5)C=C4)cc2)ccc1NS(=O)(=O)c1c(F)cccc1F
REMARK SMILES IDX 8 1 7 2 5 3 6 4 4 5 1 6 2 7 3 8 78 9 77 10 76 11 79 12 80 14
REMARK SMILES IDX 81 15 82 16 83 17 84 18 89 19 85 20 86 21 88 22 90 23 87 24
REMARK SMILES IDX 9 25 10 26 11 27 12 28 13 29 14 30 75 31 15 32 74 33 16 34
REMARK SMILES IDX 17 35 18 36 68 37 19 38 73 39 67 40 69 41 20 42 72 43 66 44
REMARK SMILES IDX 65 45 21 47 53 48 33 49 52 50 34 51 37 52 51 53 70 54 35 55
REMARK SMILES IDX 36 56 50 58 71 59 38 60 22 61 23 62 31 63 24 64 26 65 32 66
REMARK SMILES IDX 25 67 27 68 28 69 29 70 30 71 54 72 55 73 63 74 56 75 58 76
REMARK SMILES IDX 64 77 57 78 59 79 60 80 61 81 62 82 39 83 40 84 48 85 41 86
REMARK SMILES IDX 43 87 49 88 42 89 44 90 45 91 46 92 47 93
REMARK H PARENT 79 13 69 46 37 57
REMARK Flexibility Score: inf
ROOT
ATOM      1  C   UNL     1      -4.350  -2.730  -1.963  1.00  0.00     0.275 C 
ENDROOT
BRANCH   1   2
ATOM      2  O   UNL     1      -3.407  -1.879  -1.320  1.00  0.00    -0.458 OA
BRANCH   2   3
ATOM      3  C   UNL     1      -2.467  -1.267  -2.079  1.00  0.00     0.338 C 
ATOM      4  O   UNL     1      -2.312  -1.387  -3.264  1.00  0.00    -0.246 OA
BRANCH   3   5
ATOM      5  C   UNL     1      -1.645  -0.411  -1.180  1.00  0.00     0.060 A 
ATOM      6  C   UNL     1       1.983   0.650  -0.841  1.00  0.00     0.046 C 
ATOM      7  C   UNL     1       0.488   0.653  -0.691  1.00  0.00    -0.026 A 
ATOM      8  C   UNL     1      -0.279  -0.263  -1.434  1.00  0.00     0.021 A 
ATOM      9  C   UNL     1      -0.163   1.468   0.246  1.00  0.00     0.052 A 
ATOM     10  C   UNL     1      -1.476   1.184   0.625  1.00  0.00     0.028 A 
ATOM     11  C   UNL     1      -2.224   0.257  -0.098  1.00  0.00     0.018 A 
BRANCH   9  12
ATOM     12  N   UNL     1       0.371   2.731   0.676  1.00  0.00    -0.279 N 
ATOM     13  H   UNL     1       0.941   2.807   1.476  1.00  0.00     0.180 HD
BRANCH  12  14
ATOM     14  S   UNL     1      -0.035   4.109  -0.280  1.00  0.00     0.267 S 
ATOM     15  O   UNL     1       0.478   5.256   0.443  1.00  0.00    -0.201 OA
ATOM     16  O   UNL     1       0.432   3.890  -1.635  1.00  0.00    -0.201 OA
BRANCH  14  17
ATOM     17  C   UNL     1      -1.792   4.192  -0.301  1.00  0.00     0.158 A 
ATOM     18  C   UNL     1      -2.498   5.004   0.577  1.00  0.00     0.146 A 
ATOM     19  C   UNL     1      -2.506   3.393  -1.189  1.00  0.00     0.146 A 
ATOM     20  F   UNL     1      -1.885   5.890   1.371  1.00  0.00    -0.205 F 
ATOM     21  C   UNL     1      -3.892   4.913   0.661  1.00  0.00     0.041 A 
ATOM     22  C   UNL     1      -3.892   3.259  -1.081  1.00  0.00     0.041 A 
ATOM     23  F   UNL     1      -1.887   2.651  -2.116  1.00  0.00    -0.205 F 
ATOM     24  C   UNL     1      -4.588   4.005  -0.135  1.00  0.00     0.006 A 
ENDBRANCH  14  17
ENDBRANCH  12  14
ENDBRANCH   9  12
ENDBRANCH   3   5
ENDBRANCH   2   3
ENDBRANCH   1   2
BRANCH   1  25
ATOM     25  C   UNL     1      -3.868  -3.896  -2.854  1.00  0.00     0.275 C 
BRANCH  25  26
ATOM     26  O   UNL     1      -2.470  -4.273  -3.027  1.00  0.00    -0.458 OA
BRANCH  26  27
ATOM     27  C   UNL     1      -1.482  -4.566  -2.147  1.00  0.00     0.338 C 
ATOM     28  O   UNL     1      -0.404  -5.029  -2.493  1.00  0.00    -0.246 OA
BRANCH  27  29
ATOM     29  C   UNL     1      -1.741  -4.251  -0.746  1.00  0.00     0.060 A 
ATOM     30  C   UNL     1      -0.868  -3.409  -0.035  1.00  0.00     0.016 A 
ATOM     31  C   UNL     1      -2.927  -4.711  -0.196  1.00  0.00     0.016 A 
ATOM     32  C   UNL     1      -1.243  -2.938   1.219  1.00  0.00     0.010 A 
ATOM     33  C   UNL     1      -3.368  -4.130   0.960  1.00  0.00     0.010 A 
ATOM     34  C   UNL     1      -2.501  -3.301   1.699  1.00  0.00    -0.014 A 
BRANCH  34  35
ATOM     35  C   UNL     1      -2.854  -3.297   3.108  1.00  0.00     0.031 A 
ATOM     36  C   UNL     1      -3.497  -2.174   3.789  1.00  0.00     0.074 A 
ATOM     37  C   UNL     1      -2.782  -4.551   3.607  1.00  0.00     0.049 A 
ATOM     38  N   UNL     1      -3.590  -2.086   5.068  1.00  0.00    -0.248 NA
ATOM     39  C   UNL     1      -4.061  -1.028   3.092  1.00  0.00     0.031 C 
ATOM     40  C   UNL     1      -3.447  -5.168   4.732  1.00  0.00     0.029 A 
ATOM     41  N   UNL     1      -1.938  -5.559   3.115  1.00  0.00    -0.354 N 
ATOM     42  C   UNL     1      -4.459  -1.052   5.354  1.00  0.00     0.074 A 
ATOM     43  C   UNL     1      -4.598  -0.340   4.107  1.00  0.00     0.031 C 
ATOM     44  C   UNL     1      -2.806  -6.321   5.012  1.00  0.00     0.029 A 
ATOM     45  C   UNL     1      -1.595  -6.360   4.194  1.00  0.00     0.049 A 
ATOM     46  H   UNL     1      -1.646  -5.676   2.182  1.00  0.00     0.167 HD
ATOM     47  C   UNL     1      -5.080  -1.049   6.570  1.00  0.00     0.034 A 
ATOM     48  C   UNL     1      -0.300  -6.388   4.632  1.00  0.00     0.034 A 
ATOM     49  C   UNL     1      -4.576  -2.176   7.378  1.00  0.00     0.049 A 
ATOM     50  C   UNL     1      -0.215  -5.807   6.029  1.00  0.00     0.074 A 
ATOM     51  C   UNL     1      -5.060  -3.461   7.566  1.00  0.00     0.029 A 
ATOM     52  N   UNL     1      -3.257  -2.184   7.821  1.00  0.00    -0.354 N 
ATOM     53  N   UNL     1      -1.155  -5.089   6.580  1.00  0.00    -0.248 NA
ATOM     54  C   UNL     1       0.936  -5.985   6.904  1.00  0.00     0.031 C 
ATOM     55  C   UNL     1      -3.973  -4.274   7.993  1.00  0.00     0.029 A 
ATOM     56  C   UNL     1      -2.844  -3.479   8.113  1.00  0.00     0.049 A 
ATOM     57  H   UNL     1      -2.693  -1.382   7.915  1.00  0.00     0.167 HD
ATOM     58  C   UNL     1      -0.745  -4.642   7.800  1.00  0.00     0.074 A 
ATOM     59  C   UNL     1       0.550  -5.282   7.983  1.00  0.00     0.031 C 
ATOM     60  C   UNL     1      -1.469  -3.742   8.534  1.00  0.00     0.034 A 
BRANCH  47  61
ATOM     61  C   UNL     1      -6.337  -0.273   6.968  1.00  0.00     0.023 A 
ATOM     62  C   UNL     1      -6.977  -0.677   8.166  1.00  0.00     0.012 A 
ATOM     63  C   UNL     1      -6.990   0.761   6.253  1.00  0.00     0.148 A 
ATOM     64  C   UNL     1      -8.207  -0.155   8.589  1.00  0.00     0.002 A 
ATOM     65  C   UNL     1      -8.226   1.280   6.667  1.00  0.00     0.091 A 
ATOM     66  F   UNL     1      -6.425   1.284   5.166  1.00  0.00    -0.205 F 
ATOM     67  C   UNL     1      -8.841   0.815   7.831  1.00  0.00     0.022 A 
BRANCH  65  68
ATOM     68  S   UNL     1      -9.121   2.543   5.737  1.00  0.00     0.127 S 
ATOM     69  O   UNL     1     -10.357   1.845   5.383  1.00  0.00    -0.237 OA
ATOM     70  O   UNL     1      -9.285   3.606   6.727  1.00  0.00    -0.237 OA
ATOM     71  O   UNL     1      -8.280   2.893   4.598  1.00  0.00    -0.744 OA
ENDBRANCH  65  68
ENDBRANCH  47  61
BRANCH  48  72
ATOM     72  C   UNL     1       0.735  -6.180   3.548  1.00  0.00     0.023 A 
ATOM     73  C   UNL     1       0.682  -7.037   2.415  1.00  0.00     0.012 A 
ATOM     74  C   UNL     1       1.491  -4.998   3.439  1.00  0.00     0.148 A 
ATOM     75  C   UNL     1       1.252  -6.668   1.190  1.00  0.00     0.002 A 
ATOM     76  C   UNL     1       2.057  -4.636   2.210  1.00  0.00     0.091 A 
ATOM     77  F   UNL     1       1.607  -4.200   4.508  1.00  0.00    -0.205 F 
ATOM     78  C   UNL     1       1.919  -5.455   1.081  1.00  0.00     0.022 A 
BRANCH  76  79
ATOM     79  S   UNL     1       2.830  -3.022   2.006  1.00  0.00     0.127 S 
ATOM     80  O   UNL     1       2.779  -2.805   0.559  1.00  0.00    -0.237 OA
ATOM     81  O   UNL     1       1.966  -2.123   2.759  1.00  0.00    -0.237 OA
ATOM     82  O   UNL     1       4.166  -3.257   2.544  1.00  0.00    -0.744 OA
ENDBRANCH  76  79
ENDBRANCH  48  72
BRANCH  60  83
ATOM     83  C   UNL     1      -0.916  -3.019   9.737  1.00  0.00     0.023 A 
ATOM     84  C   UNL     1       0.463  -2.774   9.887  1.00  0.00     0.012 A 
ATOM     85  C   UNL     1      -1.783  -2.415  10.678  1.00  0.00     0.148 A 
ATOM     86  C   UNL     1       0.969  -2.047  10.966  1.00  0.00     0.002 A 
ATOM     87  C   UNL     1      -1.283  -1.582  11.672  1.00  0.00     0.091 A 
ATOM     88  F   UNL     1      -3.103  -2.650  10.623  1.00  0.00    -0.205 F 
ATOM     89  C   UNL     1       0.093  -1.430  11.848  1.00  0.00     0.022 A 
BRANCH  87  90
ATOM     90  S   UNL     1      -2.396  -0.541  12.624  1.00  0.00     0.127 S 
ATOM     91  O   UNL     1      -2.724  -1.399  13.760  1.00  0.00    -0.237 OA
ATOM     92  O   UNL     1      -1.552   0.609  12.953  1.00  0.00    -0.237 OA
ATOM     93  O   UNL     1      -3.487  -0.234  11.708  1.00  0.00    -0.744 OA
ENDBRANCH  87  90
ENDBRANCH  60  83
ENDBRANCH  34  35
ENDBRANCH  27  29
ENDBRANCH  26  27
ENDBRANCH  25  26
ENDBRANCH   1  25
TORSDOF 17
