REMARK SMILES C[C@@H]([NH2+]C[C@H]1CCC[C@@H]1C(=O)OCCOC(=O)c1ccc(-c2c3nc(c(-c4cccc(S(=O)(=O)[O-])c4F)c4ccc([nH]4)c(-c4cccc(S(=O)(=O)[O-])c4F)c4nc(c(-c5cccc(S(=O)(=O)[O-])c5F)c5ccc2[nH]5)C=C4)C=C3)cc1)c1cc(F)ccc1O
REMARK SMILES IDX 13 1 12 2 10 3 11 4 9 5 5 6 6 7 7 8 8 9 4 10 3 11 2 14 1 15
REMARK SMILES IDX 81 16 82 17 87 18 83 19 86 20 84 21 85 22 88 23 14 25 15 26
REMARK SMILES IDX 16 27 17 28 18 29 19 30 80 31 20 32 79 33 21 34 22 35 23 36
REMARK SMILES IDX 73 37 24 38 78 39 72 40 74 41 25 42 77 43 71 44 70 45 26 47
REMARK SMILES IDX 58 48 38 49 57 50 39 51 42 52 56 53 75 54 40 55 41 56 55 58
REMARK SMILES IDX 76 59 43 60 27 61 28 62 36 63 29 64 31 65 37 66 30 67 32 68
REMARK SMILES IDX 33 69 34 70 35 71 59 72 60 73 68 74 61 75 63 76 69 77 62 78
REMARK SMILES IDX 64 79 65 80 66 81 67 82 44 83 45 84 53 85 46 86 48 87 54 88
REMARK SMILES IDX 47 89 49 90 50 91 51 92 52 93
REMARK H PARENT 3 12 3 13 88 24 74 46 42 57
REMARK Flexibility Score: inf
ROOT
ATOM      1  C   UNL     1      -3.135  -6.913  -0.912  1.00  0.00     0.274 C 
ENDROOT
BRANCH   1   2
ATOM      2  O   UNL     1      -1.744  -6.771  -1.269  1.00  0.00    -0.462 OA
BRANCH   2   3
ATOM      3  C   UNL     1      -1.414  -5.606  -1.892  1.00  0.00     0.309 C 
ATOM      4  O   UNL     1      -2.207  -4.718  -2.174  1.00  0.00    -0.252 OA
BRANCH   3   5
ATOM      5  C   UNL     1       0.082  -5.555  -2.209  1.00  0.00     0.108 C 
ATOM      6  C   UNL     1       0.744  -4.360  -1.521  1.00  0.00     0.058 C 
ATOM      7  C   UNL     1       0.406  -3.180  -2.460  1.00  0.00     0.010 C 
ATOM      8  C   UNL     1       0.224  -3.774  -3.857  1.00  0.00     0.001 C 
ATOM      9  C   UNL     1       0.260  -5.292  -3.701  1.00  0.00     0.016 C 
BRANCH   6  10
ATOM     10  C   UNL     1       2.244  -4.326  -1.146  1.00  0.00     0.265 C 
BRANCH  10  11
ATOM     11  N   UNL     1       3.143  -5.459  -1.093  1.00  0.00    -0.340 N 
ATOM     12  H   UNL     1       4.068  -5.068  -0.916  1.00  0.00     0.346 HD
ATOM     13  H   UNL     1       2.674  -6.042  -0.400  1.00  0.00     0.346 HD
BRANCH  11  14
ATOM     14  C   UNL     1       3.325  -6.421  -2.177  1.00  0.00     0.214 C 
ATOM     15  C   UNL     1       4.056  -7.606  -1.489  1.00  0.00     0.081 C 
BRANCH  14  16
ATOM     16  C   UNL     1       4.025  -6.037  -3.492  1.00  0.00     0.054 A 
ATOM     17  C   UNL     1       4.322  -7.099  -4.384  1.00  0.00     0.053 A 
ATOM     18  C   UNL     1       4.339  -4.761  -3.979  1.00  0.00     0.124 A 
ATOM     19  C   UNL     1       4.916  -6.891  -5.630  1.00  0.00     0.123 A 
ATOM     20  C   UNL     1       4.922  -4.548  -5.240  1.00  0.00     0.050 A 
ATOM     21  F   UNL     1       5.185  -7.943  -6.414  1.00  0.00    -0.207 F 
ATOM     22  C   UNL     1       5.217  -5.617  -6.071  1.00  0.00     0.043 A 
BRANCH  18  23
ATOM     23  O   UNL     1       4.098  -3.610  -3.303  1.00  0.00    -0.507 OA
ATOM     24  H   UNL     1       3.710  -3.640  -2.450  1.00  0.00     0.293 HD
ENDBRANCH  18  23
ENDBRANCH  14  16
ENDBRANCH  11  14
ENDBRANCH  10  11
ENDBRANCH   6  10
ENDBRANCH   3   5
ENDBRANCH   2   3
ENDBRANCH   1   2
BRANCH   1  25
ATOM     25  C   UNL     1      -3.320  -6.708   0.588  1.00  0.00     0.275 C 
BRANCH  25  26
ATOM     26  O   UNL     1      -2.951  -5.362   0.935  1.00  0.00    -0.458 OA
BRANCH  26  27
ATOM     27  C   UNL     1      -2.095  -5.233   1.970  1.00  0.00     0.338 C 
ATOM     28  O   UNL     1      -1.649  -6.138   2.671  1.00  0.00    -0.246 OA
BRANCH  27  29
ATOM     29  C   UNL     1      -1.702  -3.823   2.149  1.00  0.00     0.060 A 
ATOM     30  C   UNL     1      -1.350  -3.048   1.048  1.00  0.00     0.016 A 
ATOM     31  C   UNL     1      -1.534  -3.308   3.433  1.00  0.00     0.016 A 
ATOM     32  C   UNL     1      -0.666  -1.845   1.232  1.00  0.00     0.010 A 
ATOM     33  C   UNL     1      -1.001  -2.025   3.604  1.00  0.00     0.010 A 
ATOM     34  C   UNL     1      -0.499  -1.294   2.511  1.00  0.00    -0.014 A 
BRANCH  34  35
ATOM     35  C   UNL     1       0.213   0.010   2.722  1.00  0.00     0.031 A 
ATOM     36  C   UNL     1       1.279   0.137   3.788  1.00  0.00     0.074 A 
ATOM     37  C   UNL     1      -0.091   1.104   1.990  1.00  0.00     0.049 A 
ATOM     38  N   UNL     1       1.790   1.218   4.323  1.00  0.00    -0.248 NA
ATOM     39  C   UNL     1       1.817  -1.113   4.348  1.00  0.00     0.031 C 
ATOM     40  C   UNL     1      -1.079   1.163   0.913  1.00  0.00     0.029 A 
ATOM     41  N   UNL     1       0.402   2.389   2.049  1.00  0.00    -0.354 N 
ATOM     42  C   UNL     1       2.615   0.781   5.354  1.00  0.00     0.074 A 
ATOM     43  C   UNL     1       2.560  -0.665   5.351  1.00  0.00     0.031 C 
ATOM     44  C   UNL     1      -1.084   2.392   0.379  1.00  0.00     0.029 A 
ATOM     45  C   UNL     1      -0.190   3.247   1.150  1.00  0.00     0.049 A 
ATOM     46  H   UNL     1       1.109   2.667   2.674  1.00  0.00     0.167 HD
ATOM     47  C   UNL     1       3.354   1.514   6.222  1.00  0.00     0.034 A 
ATOM     48  C   UNL     1      -0.084   4.582   0.989  1.00  0.00     0.034 A 
ATOM     49  C   UNL     1       3.513   2.942   6.148  1.00  0.00     0.049 A 
ATOM     50  C   UNL     1       0.799   5.368   1.914  1.00  0.00     0.074 A 
ATOM     51  C   UNL     1       4.261   3.770   6.968  1.00  0.00     0.029 A 
ATOM     52  N   UNL     1       2.951   3.751   5.173  1.00  0.00    -0.354 N 
ATOM     53  N   UNL     1       1.545   4.940   2.901  1.00  0.00    -0.248 NA
ATOM     54  C   UNL     1       0.849   6.823   1.707  1.00  0.00     0.031 C 
ATOM     55  C   UNL     1       4.164   5.078   6.478  1.00  0.00     0.029 A 
ATOM     56  C   UNL     1       3.352   5.064   5.356  1.00  0.00     0.049 A 
ATOM     57  H   UNL     1       2.353   3.438   4.456  1.00  0.00     0.167 HD
ATOM     58  C   UNL     1       2.150   6.069   3.438  1.00  0.00     0.074 A 
ATOM     59  C   UNL     1       1.718   7.197   2.638  1.00  0.00     0.031 C 
ATOM     60  C   UNL     1       2.959   6.169   4.521  1.00  0.00     0.034 A 
BRANCH  47  61
ATOM     61  C   UNL     1       4.082   0.779   7.318  1.00  0.00     0.023 A 
ATOM     62  C   UNL     1       5.265   0.074   7.024  1.00  0.00     0.012 A 
ATOM     63  C   UNL     1       3.622   0.831   8.649  1.00  0.00     0.148 A 
ATOM     64  C   UNL     1       5.963  -0.592   8.031  1.00  0.00     0.002 A 
ATOM     65  C   UNL     1       4.344   0.196   9.655  1.00  0.00     0.091 A 
ATOM     66  F   UNL     1       2.480   1.484   8.911  1.00  0.00    -0.205 F 
ATOM     67  C   UNL     1       5.509  -0.523   9.347  1.00  0.00     0.022 A 
BRANCH  65  68
ATOM     68  S   UNL     1       3.861   0.305  11.383  1.00  0.00     0.127 S 
ATOM     69  O   UNL     1       3.108  -0.934  11.561  1.00  0.00    -0.237 OA
ATOM     70  O   UNL     1       5.152   0.336  12.073  1.00  0.00    -0.237 OA
ATOM     71  O   UNL     1       3.095   1.539  11.494  1.00  0.00    -0.744 OA
ENDBRANCH  65  68
ENDBRANCH  47  61
BRANCH  48  72
ATOM     72  C   UNL     1      -0.848   5.247  -0.105  1.00  0.00     0.023 A 
ATOM     73  C   UNL     1      -0.157   5.758  -1.220  1.00  0.00     0.012 A 
ATOM     74  C   UNL     1      -2.256   5.294  -0.091  1.00  0.00     0.148 A 
ATOM     75  C   UNL     1      -0.854   6.302  -2.300  1.00  0.00     0.002 A 
ATOM     76  C   UNL     1      -2.946   5.769  -1.201  1.00  0.00     0.091 A 
ATOM     77  F   UNL     1      -2.900   4.835   0.992  1.00  0.00    -0.205 F 
ATOM     78  C   UNL     1      -2.247   6.288  -2.300  1.00  0.00     0.022 A 
BRANCH  76  79
ATOM     79  S   UNL     1      -4.729   5.603  -1.342  1.00  0.00     0.127 S 
ATOM     80  O   UNL     1      -5.187   6.942  -0.982  1.00  0.00    -0.237 OA
ATOM     81  O   UNL     1      -4.898   5.253  -2.753  1.00  0.00    -0.237 OA
ATOM     82  O   UNL     1      -5.086   4.531  -0.421  1.00  0.00    -0.744 OA
ENDBRANCH  76  79
ENDBRANCH  48  72
BRANCH  60  83
ATOM     83  C   UNL     1       3.432   7.543   4.907  1.00  0.00     0.023 A 
ATOM     84  C   UNL     1       2.549   8.409   5.581  1.00  0.00     0.012 A 
ATOM     85  C   UNL     1       4.756   7.954   4.663  1.00  0.00     0.148 A 
ATOM     86  C   UNL     1       2.970   9.674   5.988  1.00  0.00     0.002 A 
ATOM     87  C   UNL     1       5.178   9.205   5.101  1.00  0.00     0.091 A 
ATOM     88  F   UNL     1       5.574   7.126   3.997  1.00  0.00    -0.205 F 
ATOM     89  C   UNL     1       4.286  10.068   5.758  1.00  0.00     0.022 A 
BRANCH  87  90
ATOM     90  S   UNL     1       6.877   9.758   4.906  1.00  0.00     0.127 S 
ATOM     91  O   UNL     1       6.777  10.622   3.731  1.00  0.00    -0.237 OA
ATOM     92  O   UNL     1       7.127  10.466   6.163  1.00  0.00    -0.237 OA
ATOM     93  O   UNL     1       7.667   8.546   4.735  1.00  0.00    -0.744 OA
ENDBRANCH  87  90
ENDBRANCH  60  83
ENDBRANCH  34  35
ENDBRANCH  27  29
ENDBRANCH  26  27
ENDBRANCH  25  26
ENDBRANCH   1  25
TORSDOF 19
