REMARK SMILES O=C(OCCOC(=O)[C@H]1Cc2c([nH]c3ccccc23)[C@@H](c2ccc(OC(F)(F)F)cc2)[NH2+]1)c1ccc(-c2c3nc(c(-c4cccc(S(=O)(=O)[O-])c4F)c4ccc([nH]4)c(-c4cccc(S(=O)(=O)[O-])c4F)c4nc(c(-c5cccc(S(=O)(=O)[O-])c5F)c5ccc2[nH]5)C=C4)C=C3)cc1
REMARK SMILES IDX 4 1 3 2 2 3 1 4 33 5 34 6 95 7 35 8 94 9 36 10 37 11 38 12
REMARK SMILES IDX 88 13 39 14 93 15 87 16 89 17 40 18 92 19 86 20 85 21 41 23
REMARK SMILES IDX 73 24 53 25 72 26 54 27 57 28 71 29 90 30 55 31 56 32 70 34
REMARK SMILES IDX 91 35 58 36 42 37 43 38 51 39 44 40 46 41 52 42 45 43 47 44
REMARK SMILES IDX 48 45 49 46 50 47 74 48 75 49 83 50 76 51 78 52 84 53 77 54
REMARK SMILES IDX 79 55 80 56 81 57 82 58 59 59 60 60 68 61 61 62 63 63 69 64
REMARK SMILES IDX 62 65 64 66 65 67 66 68 67 69 5 70 6 71 7 72 8 73 9 74 10 75
REMARK SMILES IDX 32 76 11 77 20 78 12 81 19 82 13 83 14 84 18 85 15 87 17 88
REMARK SMILES IDX 16 89 21 90 22 91 31 92 23 93 30 94 24 95 25 96 26 97 27 98
REMARK SMILES IDX 28 99 29 100
REMARK H PARENT 89 22 57 33 32 79 32 80 13 86
REMARK Flexibility Score: inf
ROOT
ATOM      1  C   UNL     1       4.431   0.117   1.452  1.00  0.00     0.275 C 
ENDROOT
BRANCH   1   2
ATOM      2  O   UNL     1       3.611   0.921   0.600  1.00  0.00    -0.458 OA
BRANCH   2   3
ATOM      3  C   UNL     1       3.484   0.893  -0.745  1.00  0.00     0.338 C 
ATOM      4  O   UNL     1       2.548   1.536  -1.226  1.00  0.00    -0.246 OA
BRANCH   3   5
ATOM      5  C   UNL     1       4.371   0.136  -1.708  1.00  0.00     0.060 A 
ATOM      6  C   UNL     1       5.330  -0.844  -1.419  1.00  0.00     0.016 A 
ATOM      7  C   UNL     1       4.072   0.338  -3.067  1.00  0.00     0.016 A 
ATOM      8  C   UNL     1       5.909  -1.639  -2.433  1.00  0.00     0.010 A 
ATOM      9  C   UNL     1       4.616  -0.479  -4.066  1.00  0.00     0.010 A 
ATOM     10  C   UNL     1       5.526  -1.500  -3.769  1.00  0.00    -0.014 A 
BRANCH  10  11
ATOM     11  C   UNL     1       6.051  -2.395  -4.854  1.00  0.00     0.031 A 
ATOM     12  C   UNL     1       6.758  -1.808  -6.013  1.00  0.00     0.074 A 
ATOM     13  C   UNL     1       5.780  -3.717  -4.915  1.00  0.00     0.049 A 
ATOM     14  N   UNL     1       7.195  -2.427  -7.072  1.00  0.00    -0.248 NA
ATOM     15  C   UNL     1       6.939  -0.351  -6.025  1.00  0.00     0.031 C 
ATOM     16  C   UNL     1       4.933  -4.348  -3.948  1.00  0.00     0.029 A 
ATOM     17  N   UNL     1       6.077  -4.753  -5.782  1.00  0.00    -0.354 N 
ATOM     18  C   UNL     1       7.621  -1.430  -7.918  1.00  0.00     0.074 A 
ATOM     19  C   UNL     1       7.366  -0.165  -7.262  1.00  0.00     0.031 C 
ATOM     20  C   UNL     1       4.775  -5.643  -4.245  1.00  0.00     0.029 A 
ATOM     21  C   UNL     1       5.494  -5.962  -5.434  1.00  0.00     0.049 A 
ATOM     22  H   UNL     1       6.650  -4.642  -6.575  1.00  0.00     0.167 HD
ATOM     23  C   UNL     1       8.188  -1.572  -9.132  1.00  0.00     0.034 A 
ATOM     24  C   UNL     1       5.480  -7.204  -5.961  1.00  0.00     0.034 A 
ATOM     25  C   UNL     1       8.448  -2.837  -9.755  1.00  0.00     0.049 A 
ATOM     26  C   UNL     1       6.244  -7.357  -7.225  1.00  0.00     0.074 A 
ATOM     27  C   UNL     1       9.153  -3.085 -10.916  1.00  0.00     0.029 A 
ATOM     28  N   UNL     1       7.989  -4.063  -9.291  1.00  0.00    -0.354 N 
ATOM     29  N   UNL     1       6.845  -6.413  -7.900  1.00  0.00    -0.248 NA
ATOM     30  C   UNL     1       6.367  -8.702  -7.796  1.00  0.00     0.031 C 
ATOM     31  C   UNL     1       9.099  -4.458 -11.169  1.00  0.00     0.029 A 
ATOM     32  C   UNL     1       8.391  -5.073 -10.149  1.00  0.00     0.049 A 
ATOM     33  H   UNL     1       7.456  -4.195  -8.474  1.00  0.00     0.167 HD
ATOM     34  C   UNL     1       7.432  -7.042  -8.972  1.00  0.00     0.074 A 
ATOM     35  C   UNL     1       7.156  -8.461  -8.834  1.00  0.00     0.031 C 
ATOM     36  C   UNL     1       8.114  -6.477  -9.989  1.00  0.00     0.034 A 
BRANCH  23  37
ATOM     37  C   UNL     1       8.550  -0.300  -9.825  1.00  0.00     0.023 A 
ATOM     38  C   UNL     1       9.581   0.515  -9.310  1.00  0.00     0.012 A 
ATOM     39  C   UNL     1       7.808   0.124 -10.938  1.00  0.00     0.148 A 
ATOM     40  C   UNL     1       9.823   1.770  -9.859  1.00  0.00     0.002 A 
ATOM     41  C   UNL     1       8.098   1.349 -11.517  1.00  0.00     0.091 A 
ATOM     42  F   UNL     1       6.814  -0.659 -11.380  1.00  0.00    -0.205 F 
ATOM     43  C   UNL     1       9.086   2.183 -10.965  1.00  0.00     0.022 A 
BRANCH  41  44
ATOM     44  S   UNL     1       7.256   1.941 -12.984  1.00  0.00     0.127 S 
ATOM     45  O   UNL     1       6.670   3.194 -12.504  1.00  0.00    -0.237 OA
ATOM     46  O   UNL     1       8.371   2.106 -13.916  1.00  0.00    -0.237 OA
ATOM     47  O   UNL     1       6.294   0.912 -13.345  1.00  0.00    -0.744 OA
ENDBRANCH  41  44
ENDBRANCH  23  37
BRANCH  24  48
ATOM     48  C   UNL     1       4.839  -8.391  -5.286  1.00  0.00     0.023 A 
ATOM     49  C   UNL     1       5.667  -9.421  -4.788  1.00  0.00     0.012 A 
ATOM     50  C   UNL     1       3.447  -8.526  -5.109  1.00  0.00     0.148 A 
ATOM     51  C   UNL     1       5.132 -10.567  -4.189  1.00  0.00     0.002 A 
ATOM     52  C   UNL     1       2.922  -9.641  -4.449  1.00  0.00     0.091 A 
ATOM     53  F   UNL     1       2.645  -7.557  -5.575  1.00  0.00    -0.205 F 
ATOM     54  C   UNL     1       3.758 -10.676  -4.012  1.00  0.00     0.022 A 
BRANCH  52  55
ATOM     55  S   UNL     1       1.184  -9.742  -3.994  1.00  0.00     0.127 S 
ATOM     56  O   UNL     1       0.654 -10.647  -5.009  1.00  0.00    -0.237 OA
ATOM     57  O   UNL     1       1.248 -10.296  -2.641  1.00  0.00    -0.237 OA
ATOM     58  O   UNL     1       0.715  -8.361  -4.041  1.00  0.00    -0.744 OA
ENDBRANCH  52  55
ENDBRANCH  24  48
BRANCH  36  59
ATOM     59  C   UNL     1       8.613  -7.413 -11.037  1.00  0.00     0.023 A 
ATOM     60  C   UNL     1       7.711  -7.982 -11.955  1.00  0.00     0.012 A 
ATOM     61  C   UNL     1       9.989  -7.671 -11.140  1.00  0.00     0.148 A 
ATOM     62  C   UNL     1       8.178  -8.814 -12.965  1.00  0.00     0.002 A 
ATOM     63  C   UNL     1      10.452  -8.450 -12.185  1.00  0.00     0.091 A 
ATOM     64  F   UNL     1      10.809  -7.142 -10.220  1.00  0.00    -0.205 F 
ATOM     65  C   UNL     1       9.549  -9.032 -13.091  1.00  0.00     0.022 A 
BRANCH  63  66
ATOM     66  S   UNL     1      12.201  -8.692 -12.487  1.00  0.00     0.127 S 
ATOM     67  O   UNL     1      12.339 -10.134 -12.292  1.00  0.00    -0.237 OA
ATOM     68  O   UNL     1      12.332  -8.244 -13.873  1.00  0.00    -0.237 OA
ATOM     69  O   UNL     1      12.901  -7.867 -11.511  1.00  0.00    -0.744 OA
ENDBRANCH  63  66
ENDBRANCH  36  59
ENDBRANCH  10  11
ENDBRANCH   3   5
ENDBRANCH   2   3
ENDBRANCH   1   2
BRANCH   1  70
ATOM     70  C   UNL     1       3.816  -1.251   1.748  1.00  0.00     0.274 C 
BRANCH  70  71
ATOM     71  O   UNL     1       3.295  -1.902   0.580  1.00  0.00    -0.458 OA
BRANCH  71  72
ATOM     72  C   UNL     1       1.933  -2.003   0.472  1.00  0.00     0.365 C 
ATOM     73  O   UNL     1       1.133  -1.460   1.236  1.00  0.00    -0.245 OA
BRANCH  72  74
ATOM     74  C   UNL     1       1.517  -2.942  -0.671  1.00  0.00     0.298 C 
ATOM     75  C   UNL     1       1.749  -2.208  -2.000  1.00  0.00     0.115 C 
ATOM     76  N   UNL     1       2.278  -4.195  -0.503  1.00  0.00    -0.323 N 
ATOM     77  C   UNL     1       1.742  -3.152  -3.136  1.00  0.00    -0.006 A 
ATOM     78  C   UNL     1       2.179  -5.204  -1.574  1.00  0.00     0.262 C 
ATOM     79  H   UNL     1       1.956  -4.633   0.360  1.00  0.00     0.347 HD
ATOM     80  H   UNL     1       3.256  -3.906  -0.509  1.00  0.00     0.347 HD
ATOM     81  C   UNL     1       1.942  -4.513  -2.928  1.00  0.00     0.083 A 
ATOM     82  C   UNL     1       1.790  -2.874  -4.535  1.00  0.00     0.003 A 
ATOM     83  N   UNL     1       1.803  -5.091  -4.184  1.00  0.00    -0.353 N 
ATOM     84  C   UNL     1       1.941  -4.106  -5.167  1.00  0.00     0.046 A 
ATOM     85  C   UNL     1       1.840  -1.695  -5.317  1.00  0.00     0.010 A 
ATOM     86  H   UNL     1       1.634  -6.046  -4.356  1.00  0.00     0.166 HD
ATOM     87  C   UNL     1       2.254  -4.197  -6.538  1.00  0.00     0.026 A 
ATOM     88  C   UNL     1       2.201  -1.771  -6.669  1.00  0.00     0.001 A 
ATOM     89  C   UNL     1       2.432  -3.007  -7.262  1.00  0.00     0.002 A 
BRANCH  78  90
ATOM     90  C   UNL     1       3.444  -6.085  -1.368  1.00  0.00     0.016 A 
ATOM     91  C   UNL     1       4.742  -5.538  -1.222  1.00  0.00     0.014 A 
ATOM     92  C   UNL     1       3.357  -7.483  -1.288  1.00  0.00     0.014 A 
ATOM     93  C   UNL     1       5.897  -6.340  -1.288  1.00  0.00     0.047 A 
ATOM     94  C   UNL     1       4.514  -8.293  -1.244  1.00  0.00     0.047 A 
ATOM     95  C   UNL     1       5.784  -7.723  -1.322  1.00  0.00     0.129 A 
BRANCH  95  96
ATOM     96  O   UNL     1       6.918  -8.418  -1.633  1.00  0.00    -0.406 OA
BRANCH  96  97
ATOM     97  C   UNL     1       7.273  -9.458  -0.743  1.00  0.00     0.573 C 
ATOM     98  F   UNL     1       7.519  -8.971   0.493  1.00  0.00    -0.132 F 
ATOM     99  F   UNL     1       6.336 -10.424  -0.670  1.00  0.00    -0.132 F 
ATOM    100  F   UNL     1       8.417 -10.033  -1.190  1.00  0.00    -0.132 F 
ENDBRANCH  96  97
ENDBRANCH  95  96
ENDBRANCH  78  90
ENDBRANCH  72  74
ENDBRANCH  71  72
ENDBRANCH  70  71
ENDBRANCH   1  70
TORSDOF 17
