REMARK SMILES O=C(Cn1nc(-c2ccco2)ccc1=O)N[C@@H](C(=O)OCCOC(=O)c1ccc(-c2c3nc(c(-c4cccc(S(=O)(=O)[O-])c4F)c4ccc([nH]4)c(-c4cccc(S(=O)(=O)[O-])c4F)c4nc(c(-c5cccc(S(=O)(=O)[O-])c5F)c5ccc2[nH]5)C=C4)C=C3)cc1)c1ccccc1
REMARK SMILES IDX 21 1 20 2 18 3 19 4 17 5 16 6 1 7 2 8 3 10 4 11 5 12 14 13
REMARK SMILES IDX 6 14 13 15 15 16 12 17 7 18 8 19 11 20 9 21 10 22 89 23
REMARK SMILES IDX 90 24 94 25 91 26 93 27 92 28 22 29 23 30 24 31 25 32 26 33
REMARK SMILES IDX 27 34 88 35 28 36 87 37 29 38 30 39 31 40 81 41 32 42 86 43
REMARK SMILES IDX 80 44 82 45 33 46 85 47 79 48 78 49 34 51 66 52 46 53 65 54
REMARK SMILES IDX 47 55 50 56 64 57 83 58 48 59 49 60 63 62 84 63 51 64 35 65
REMARK SMILES IDX 36 66 44 67 37 68 39 69 45 70 38 71 40 72 41 73 42 74 43 75
REMARK SMILES IDX 67 76 68 77 76 78 69 79 71 80 77 81 70 82 72 83 73 84 74 85
REMARK SMILES IDX 75 86 52 87 53 88 61 89 54 90 56 91 62 92 55 93 57 94 58 95
REMARK SMILES IDX 59 96 60 97
REMARK H PARENT 16 9 82 50 50 61
REMARK Flexibility Score: inf
ROOT
ATOM      1  C   UNL     1       2.764  -4.049   2.297  1.00  0.00     0.274 C 
ENDROOT
BRANCH   1   2
ATOM      2  O   UNL     1       2.673  -2.640   1.996  1.00  0.00    -0.460 OA
BRANCH   2   3
ATOM      3  C   UNL     1       1.725  -1.931   2.682  1.00  0.00     0.333 C 
ATOM      4  O   UNL     1       1.035  -2.414   3.575  1.00  0.00    -0.249 OA
BRANCH   3   5
ATOM      5  C   UNL     1       1.581  -0.474   2.174  1.00  0.00     0.223 C 
BRANCH   5   6
ATOM      6  N   UNL     1       2.484  -0.144   1.066  1.00  0.00    -0.337 N 
ATOM      7  O   UNL     1       0.950  -0.583  -0.558  1.00  0.00    -0.273 OA
ATOM      8  C   UNL     1       2.038  -0.107  -0.232  1.00  0.00     0.242 C 
ATOM      9  H   UNL     1       3.430   0.054   1.257  1.00  0.00     0.164 HD
BRANCH   8  10
ATOM     10  C   UNL     1       3.025   0.395  -1.280  1.00  0.00     0.248 C 
BRANCH  10  11
ATOM     11  N   UNL     1       3.868   1.513  -0.856  1.00  0.00    -0.220 N 
ATOM     12  N   UNL     1       3.237   2.739  -0.709  1.00  0.00    -0.166 NA
ATOM     13  C   UNL     1       5.240   1.332  -0.748  1.00  0.00     0.267 A 
ATOM     14  C   UNL     1       3.984   3.790  -0.539  1.00  0.00     0.126 A 
ATOM     15  C   UNL     1       6.042   2.553  -0.533  1.00  0.00     0.076 A 
ATOM     16  O   UNL     1       5.810   0.251  -0.855  1.00  0.00    -0.268 OA
ATOM     17  C   UNL     1       5.459   3.751  -0.465  1.00  0.00     0.040 A 
BRANCH  14  18
ATOM     18  C   UNL     1       3.356   5.084  -0.411  1.00  0.00     0.154 A 
ATOM     19  C   UNL     1       2.240   5.502   0.287  1.00  0.00     0.052 A 
ATOM     20  O   UNL     1       3.894   6.148  -1.086  1.00  0.00    -0.463 OA
ATOM     21  C   UNL     1       2.099   6.889   0.041  1.00  0.00     0.043 A 
ATOM     22  C   UNL     1       3.113   7.228  -0.823  1.00  0.00     0.196 A 
ENDBRANCH  14  18
ENDBRANCH  10  11
ENDBRANCH   8  10
ENDBRANCH   5   6
BRANCH   5  23
ATOM     23  C   UNL     1       1.659   0.635   3.226  1.00  0.00    -0.014 A 
ATOM     24  C   UNL     1       1.599   1.978   2.791  1.00  0.00     0.006 A 
ATOM     25  C   UNL     1       1.733   0.406   4.607  1.00  0.00     0.006 A 
ATOM     26  C   UNL     1       1.666   3.041   3.693  1.00  0.00     0.000 A 
ATOM     27  C   UNL     1       1.800   1.473   5.511  1.00  0.00     0.000 A 
ATOM     28  C   UNL     1       1.778   2.787   5.054  1.00  0.00     0.000 A 
ENDBRANCH   5  23
ENDBRANCH   3   5
ENDBRANCH   2   3
ENDBRANCH   1   2
BRANCH   1  29
ATOM     29  C   UNL     1       4.219  -4.449   2.514  1.00  0.00     0.275 C 
BRANCH  29  30
ATOM     30  O   UNL     1       4.681  -3.832   3.728  1.00  0.00    -0.458 OA
BRANCH  30  31
ATOM     31  C   UNL     1       5.688  -2.943   3.592  1.00  0.00     0.338 C 
ATOM     32  O   UNL     1       6.342  -2.695   2.592  1.00  0.00    -0.246 OA
BRANCH  31  33
ATOM     33  C   UNL     1       5.825  -2.221   4.861  1.00  0.00     0.060 A 
ATOM     34  C   UNL     1       6.851  -2.530   5.751  1.00  0.00     0.016 A 
ATOM     35  C   UNL     1       4.951  -1.165   5.118  1.00  0.00     0.016 A 
ATOM     36  C   UNL     1       6.981  -1.779   6.925  1.00  0.00     0.010 A 
ATOM     37  C   UNL     1       5.113  -0.391   6.266  1.00  0.00     0.010 A 
ATOM     38  C   UNL     1       6.123  -0.691   7.189  1.00  0.00    -0.014 A 
BRANCH  38  39
ATOM     39  C   UNL     1       6.351   0.184   8.372  1.00  0.00     0.031 A 
ATOM     40  C   UNL     1       5.327   0.336   9.466  1.00  0.00     0.074 A 
ATOM     41  C   UNL     1       7.479   0.921   8.426  1.00  0.00     0.049 A 
ATOM     42  N   UNL     1       5.431   0.988  10.597  1.00  0.00    -0.248 NA
ATOM     43  C   UNL     1       4.007  -0.279   9.256  1.00  0.00     0.031 C 
ATOM     44  C   UNL     1       8.479   1.008   7.358  1.00  0.00     0.029 A 
ATOM     45  N   UNL     1       7.978   1.732   9.414  1.00  0.00    -0.354 N 
ATOM     46  C   UNL     1       4.186   0.900  11.210  1.00  0.00     0.074 A 
ATOM     47  C   UNL     1       3.331   0.154  10.313  1.00  0.00     0.031 C 
ATOM     48  C   UNL     1       9.496   1.780   7.771  1.00  0.00     0.029 A 
ATOM     49  C   UNL     1       9.226   2.237   9.132  1.00  0.00     0.049 A 
ATOM     50  H   UNL     1       7.490   1.934  10.245  1.00  0.00     0.167 HD
ATOM     51  C   UNL     1       3.805   1.361  12.426  1.00  0.00     0.034 A 
ATOM     52  C   UNL     1      10.084   2.942   9.896  1.00  0.00     0.034 A 
ATOM     53  C   UNL     1       4.690   2.002  13.361  1.00  0.00     0.049 A 
ATOM     54  C   UNL     1       9.718   3.260  11.317  1.00  0.00     0.074 A 
ATOM     55  C   UNL     1       4.441   2.354  14.676  1.00  0.00     0.029 A 
ATOM     56  N   UNL     1       5.997   2.368  13.089  1.00  0.00    -0.354 N 
ATOM     57  N   UNL     1       8.608   2.988  11.957  1.00  0.00    -0.248 NA
ATOM     58  C   UNL     1      10.734   3.939  12.137  1.00  0.00     0.031 C 
ATOM     59  C   UNL     1       5.606   2.916  15.207  1.00  0.00     0.029 A 
ATOM     60  C   UNL     1       6.575   2.924  14.216  1.00  0.00     0.049 A 
ATOM     61  H   UNL     1       6.449   2.251  12.222  1.00  0.00     0.167 HD
ATOM     62  C   UNL     1       8.796   3.441  13.257  1.00  0.00     0.074 A 
ATOM     63  C   UNL     1      10.134   3.992  13.321  1.00  0.00     0.031 C 
ATOM     64  C   UNL     1       7.926   3.415  14.294  1.00  0.00     0.034 A 
BRANCH  51  65
ATOM     65  C   UNL     1       2.398   1.081  12.887  1.00  0.00     0.023 A 
ATOM     66  C   UNL     1       2.072  -0.222  13.312  1.00  0.00     0.012 A 
ATOM     67  C   UNL     1       1.446   2.112  13.017  1.00  0.00     0.148 A 
ATOM     68  C   UNL     1       0.813  -0.504  13.839  1.00  0.00     0.002 A 
ATOM     69  C   UNL     1       0.203   1.830  13.575  1.00  0.00     0.091 A 
ATOM     70  F   UNL     1       1.777   3.344  12.605  1.00  0.00    -0.205 F 
ATOM     71  C   UNL     1      -0.116   0.522  13.979  1.00  0.00     0.022 A 
BRANCH  69  72
ATOM     72  S   UNL     1      -1.047   3.087  13.868  1.00  0.00     0.127 S 
ATOM     73  O   UNL     1      -2.105   2.672  12.947  1.00  0.00    -0.237 OA
ATOM     74  O   UNL     1      -1.359   2.887  15.283  1.00  0.00    -0.237 OA
ATOM     75  O   UNL     1      -0.419   4.363  13.554  1.00  0.00    -0.744 OA
ENDBRANCH  69  72
ENDBRANCH  51  65
BRANCH  52  76
ATOM     76  C   UNL     1      11.444   3.223   9.366  1.00  0.00     0.023 A 
ATOM     77  C   UNL     1      12.505   2.386   9.763  1.00  0.00     0.012 A 
ATOM     78  C   UNL     1      11.675   4.225   8.406  1.00  0.00     0.148 A 
ATOM     79  C   UNL     1      13.777   2.544   9.216  1.00  0.00     0.002 A 
ATOM     80  C   UNL     1      12.938   4.356   7.839  1.00  0.00     0.091 A 
ATOM     81  F   UNL     1      10.647   5.007   8.047  1.00  0.00    -0.205 F 
ATOM     82  C   UNL     1      13.991   3.521   8.248  1.00  0.00     0.022 A 
BRANCH  80  83
ATOM     83  S   UNL     1      13.289   5.509   6.507  1.00  0.00     0.127 S 
ATOM     84  O   UNL     1      14.176   6.465   7.166  1.00  0.00    -0.237 OA
ATOM     85  O   UNL     1      13.938   4.644   5.522  1.00  0.00    -0.237 OA
ATOM     86  O   UNL     1      11.996   6.035   6.089  1.00  0.00    -0.744 OA
ENDBRANCH  80  83
ENDBRANCH  52  76
BRANCH  64  87
ATOM     87  C   UNL     1       8.362   3.993  15.610  1.00  0.00     0.023 A 
ATOM     88  C   UNL     1       8.275   5.384  15.805  1.00  0.00     0.012 A 
ATOM     89  C   UNL     1       8.697   3.156  16.692  1.00  0.00     0.148 A 
ATOM     90  C   UNL     1       8.514   5.937  17.062  1.00  0.00     0.002 A 
ATOM     91  C   UNL     1       8.907   3.712  17.949  1.00  0.00     0.091 A 
ATOM     92  F   UNL     1       8.773   1.835  16.476  1.00  0.00    -0.205 F 
ATOM     93  C   UNL     1       8.818   5.102  18.134  1.00  0.00     0.022 A 
BRANCH  91  94
ATOM     94  S   UNL     1       9.236   2.719  19.410  1.00  0.00     0.127 S 
ATOM     95  O   UNL     1      10.576   3.172  19.783  1.00  0.00    -0.237 OA
ATOM     96  O   UNL     1       8.172   3.148  20.318  1.00  0.00    -0.237 OA
ATOM     97  O   UNL     1       9.153   1.329  18.984  1.00  0.00    -0.744 OA
ENDBRANCH  91  94
ENDBRANCH  64  87
ENDBRANCH  38  39
ENDBRANCH  31  33
ENDBRANCH  30  31
ENDBRANCH  29  30
ENDBRANCH   1  29
TORSDOF 19
