REMARK SMILES [NH3+][C@H](Cc1cc(Br)c(O)c(Br)c1)C(=O)OCCOC(=O)c1ccc(-c2c3nc(c(-c4cccc(S(=O)(=O)[O-])c4F)c4ccc([nH]4)c(-c4cccc(S(=O)(=O)[O-])c4F)c4nc(c(-c5cccc(S(=O)(=O)[O-])c5F)c5ccc2[nH]5)C=C4)C=C3)cc1
REMARK SMILES IDX 16 1 15 2 13 3 14 4 2 5 1 6 3 10 4 11 5 12 12 13 6 14 10 15
REMARK SMILES IDX 7 16 8 17 11 18 9 19 17 21 18 22 19 23 20 24 21 25 22 26
REMARK SMILES IDX 83 27 23 28 82 29 24 30 25 31 26 32 76 33 27 34 81 35 75 36
REMARK SMILES IDX 77 37 28 38 80 39 74 40 73 41 29 43 61 44 41 45 60 46 42 47
REMARK SMILES IDX 45 48 59 49 78 50 43 51 44 52 58 54 79 55 46 56 30 57 31 58
REMARK SMILES IDX 39 59 32 60 34 61 40 62 33 63 35 64 36 65 37 66 38 67 62 68
REMARK SMILES IDX 63 69 71 70 64 71 66 72 72 73 65 74 67 75 68 76 69 77 70 78
REMARK SMILES IDX 47 79 48 80 56 81 49 82 51 83 57 84 50 85 52 86 53 87 54 88
REMARK SMILES IDX 55 89
REMARK H PARENT 1 7 1 8 1 9 9 20 77 42 45 53
REMARK Flexibility Score: inf
ROOT
ATOM      1  C   UNL     1      -2.989  -0.841   0.807  1.00  0.00     0.274 C 
ENDROOT
BRANCH   1   2
ATOM      2  O   UNL     1      -1.556  -0.770   0.942  1.00  0.00    -0.458 OA
BRANCH   2   3
ATOM      3  C   UNL     1      -0.857  -1.836   0.466  1.00  0.00     0.365 C 
ATOM      4  O   UNL     1      -1.385  -2.870   0.070  1.00  0.00    -0.245 OA
BRANCH   3   5
ATOM      5  C   UNL     1       0.673  -1.600   0.433  1.00  0.00     0.296 C 
BRANCH   5   6
ATOM      6  N   UNL     1       1.352  -2.776   1.032  1.00  0.00    -0.346 N 
ATOM      7  H   UNL     1       0.949  -3.632   0.651  1.00  0.00     0.345 HD
ATOM      8  H   UNL     1       1.225  -2.762   2.045  1.00  0.00     0.345 HD
ATOM      9  H   UNL     1       2.348  -2.742   0.814  1.00  0.00     0.345 HD
ENDBRANCH   5   6
BRANCH   5  10
ATOM     10  C   UNL     1       1.155  -0.199   0.894  1.00  0.00     0.113 C 
BRANCH  10  11
ATOM     11  C   UNL     1       2.302  -0.244   1.876  1.00  0.00    -0.039 A 
ATOM     12  C   UNL     1       3.630  -0.195   1.431  1.00  0.00     0.023 A 
ATOM     13  C   UNL     1       2.033  -0.465   3.234  1.00  0.00     0.023 A 
ATOM     14  C   UNL     1       4.671  -0.410   2.333  1.00  0.00     0.061 A 
ATOM     15  C   UNL     1       3.078  -0.689   4.130  1.00  0.00     0.061 A 
ATOM     16  Br  UNL     1       6.456  -0.380   1.692  1.00  0.00    -0.047 Br
ATOM     17  C   UNL     1       4.399  -0.675   3.680  1.00  0.00     0.143 A 
ATOM     18  Br  UNL     1       2.641  -1.065   5.936  1.00  0.00    -0.047 Br
BRANCH  17  19
ATOM     19  O   UNL     1       5.415  -0.944   4.560  1.00  0.00    -0.506 OA
ATOM     20  H   UNL     1       6.305  -0.936   4.265  1.00  0.00     0.293 HD
ENDBRANCH  17  19
ENDBRANCH  10  11
ENDBRANCH   5  10
ENDBRANCH   3   5
ENDBRANCH   2   3
ENDBRANCH   1   2
BRANCH   1  21
ATOM     21  C   UNL     1      -3.471  -0.011  -0.388  1.00  0.00     0.275 C 
BRANCH  21  22
ATOM     22  O   UNL     1      -3.069  -0.577  -1.649  1.00  0.00    -0.458 OA
BRANCH  22  23
ATOM     23  C   UNL     1      -1.855  -0.182  -2.099  1.00  0.00     0.338 C 
ATOM     24  O   UNL     1      -1.083   0.593  -1.557  1.00  0.00    -0.246 OA
BRANCH  23  25
ATOM     25  C   UNL     1      -1.495  -0.939  -3.306  1.00  0.00     0.060 A 
ATOM     26  C   UNL     1      -0.459  -1.867  -3.207  1.00  0.00     0.016 A 
ATOM     27  C   UNL     1      -2.093  -0.679  -4.538  1.00  0.00     0.016 A 
ATOM     28  C   UNL     1       0.028  -2.506  -4.337  1.00  0.00     0.010 A 
ATOM     29  C   UNL     1      -1.640  -1.365  -5.671  1.00  0.00     0.010 A 
ATOM     30  C   UNL     1      -0.570  -2.274  -5.578  1.00  0.00    -0.014 A 
BRANCH  30  31
ATOM     31  C   UNL     1      -0.090  -3.019  -6.764  1.00  0.00     0.031 A 
ATOM     32  C   UNL     1       0.577  -2.294  -7.895  1.00  0.00     0.074 A 
ATOM     33  C   UNL     1      -0.280  -4.352  -6.820  1.00  0.00     0.049 A 
ATOM     34  N   UNL     1       0.945  -2.754  -9.061  1.00  0.00    -0.248 NA
ATOM     35  C   UNL     1       0.864  -0.864  -7.694  1.00  0.00     0.031 C 
ATOM     36  C   UNL     1      -0.905  -5.159  -5.770  1.00  0.00     0.029 A 
ATOM     37  N   UNL     1       0.007  -5.258  -7.809  1.00  0.00    -0.354 N 
ATOM     38  C   UNL     1       1.447  -1.663  -9.757  1.00  0.00     0.074 A 
ATOM     39  C   UNL     1       1.358  -0.518  -8.876  1.00  0.00     0.031 C 
ATOM     40  C   UNL     1      -0.975  -6.435  -6.178  1.00  0.00     0.029 A 
ATOM     41  C   UNL     1      -0.456  -6.524  -7.537  1.00  0.00     0.049 A 
ATOM     42  H   UNL     1       0.495  -5.025  -8.632  1.00  0.00     0.167 HD
ATOM     43  C   UNL     1       1.939  -1.626 -11.017  1.00  0.00     0.034 A 
ATOM     44  C   UNL     1      -0.505  -7.623  -8.314  1.00  0.00     0.034 A 
ATOM     45  C   UNL     1       2.082  -2.783 -11.859  1.00  0.00     0.049 A 
ATOM     46  C   UNL     1       0.042  -7.547  -9.711  1.00  0.00     0.074 A 
ATOM     47  C   UNL     1       2.654  -2.865 -13.116  1.00  0.00     0.029 A 
ATOM     48  N   UNL     1       1.641  -4.056 -11.535  1.00  0.00    -0.354 N 
ATOM     49  N   UNL     1       0.618  -6.536 -10.314  1.00  0.00    -0.248 NA
ATOM     50  C   UNL     1      -0.055  -8.762 -10.531  1.00  0.00     0.031 C 
ATOM     51  C   UNL     1       2.541  -4.186 -13.561  1.00  0.00     0.029 A 
ATOM     52  C   UNL     1       1.906  -4.927 -12.577  1.00  0.00     0.049 A 
ATOM     53  H   UNL     1       1.204  -4.304 -10.688  1.00  0.00     0.167 HD
ATOM     54  C   UNL     1       0.963  -6.994 -11.579  1.00  0.00     0.074 A 
ATOM     55  C   UNL     1       0.559  -8.384 -11.644  1.00  0.00     0.031 C 
ATOM     56  C   UNL     1       1.537  -6.319 -12.604  1.00  0.00     0.034 A 
BRANCH  43  57
ATOM     57  C   UNL     1       2.383  -0.298 -11.564  1.00  0.00     0.023 A 
ATOM     58  C   UNL     1       3.628   0.236 -11.178  1.00  0.00     0.012 A 
ATOM     59  C   UNL     1       1.603   0.378 -12.522  1.00  0.00     0.148 A 
ATOM     60  C   UNL     1       4.084   1.433 -11.728  1.00  0.00     0.002 A 
ATOM     61  C   UNL     1       2.079   1.554 -13.090  1.00  0.00     0.091 A 
ATOM     62  F   UNL     1       0.411  -0.137 -12.854  1.00  0.00    -0.205 F 
ATOM     63  C   UNL     1       3.317   2.085 -12.691  1.00  0.00     0.022 A 
BRANCH  61  64
ATOM     64  S   UNL     1       1.192   2.433 -14.381  1.00  0.00     0.127 S 
ATOM     65  O   UNL     1       0.718   3.614 -13.660  1.00  0.00    -0.237 OA
ATOM     66  O   UNL     1       2.249   2.699 -15.357  1.00  0.00    -0.237 OA
ATOM     67  O   UNL     1       0.153   1.524 -14.844  1.00  0.00    -0.744 OA
ENDBRANCH  61  64
ENDBRANCH  43  57
BRANCH  44  68
ATOM     68  C   UNL     1      -1.103  -8.879  -7.782  1.00  0.00     0.023 A 
ATOM     69  C   UNL     1      -0.275  -9.986  -7.519  1.00  0.00     0.012 A 
ATOM     70  C   UNL     1      -2.479  -8.967  -7.491  1.00  0.00     0.148 A 
ATOM     71  C   UNL     1      -0.810 -11.163  -6.993  1.00  0.00     0.002 A 
ATOM     72  C   UNL     1      -2.995 -10.122  -6.915  1.00  0.00     0.091 A 
ATOM     73  F   UNL     1      -3.261  -7.915  -7.774  1.00  0.00    -0.205 F 
ATOM     74  C   UNL     1      -2.166 -11.227  -6.678  1.00  0.00     0.022 A 
BRANCH  72  75
ATOM     75  S   UNL     1      -4.701 -10.210  -6.355  1.00  0.00     0.127 S 
ATOM     76  O   UNL     1      -5.354 -10.869  -7.482  1.00  0.00    -0.237 OA
ATOM     77  O   UNL     1      -4.592 -11.027  -5.145  1.00  0.00    -0.237 OA
ATOM     78  O   UNL     1      -5.088  -8.828  -6.103  1.00  0.00    -0.744 OA
ENDBRANCH  72  75
ENDBRANCH  44  68
BRANCH  56  79
ATOM     79  C   UNL     1       1.766  -7.070 -13.886  1.00  0.00     0.023 A 
ATOM     80  C   UNL     1       0.674  -7.324 -14.739  1.00  0.00     0.012 A 
ATOM     81  C   UNL     1       3.063  -7.445 -14.286  1.00  0.00     0.148 A 
ATOM     82  C   UNL     1       0.867  -7.958 -15.965  1.00  0.00     0.002 A 
ATOM     83  C   UNL     1       3.253  -8.039 -15.528  1.00  0.00     0.091 A 
ATOM     84  F   UNL     1       4.084  -7.211 -13.449  1.00  0.00    -0.205 F 
ATOM     85  C   UNL     1       2.156  -8.303 -16.364  1.00  0.00     0.022 A 
BRANCH  83  86
ATOM     86  S   UNL     1       4.886  -8.437 -16.163  1.00  0.00     0.127 S 
ATOM     87  O   UNL     1       4.906  -9.893 -16.042  1.00  0.00    -0.237 OA
ATOM     88  O   UNL     1       4.816  -7.939 -17.537  1.00  0.00    -0.237 OA
ATOM     89  O   UNL     1       5.830  -7.725 -15.312  1.00  0.00    -0.744 OA
ENDBRANCH  83  86
ENDBRANCH  56  79
ENDBRANCH  30  31
ENDBRANCH  23  25
ENDBRANCH  22  23
ENDBRANCH  21  22
ENDBRANCH   1  21
TORSDOF 18
