REMARK SMILES C[C@@H]1CCCN(C(=O)NC2(CC(=O)OCCOC(=O)c3ccc(-c4c5nc(c(-c6cccc(S(=O)(=O)[O-])c6F)c6ccc([nH]6)c(-c6cccc(S(=O)(=O)[O-])c6F)c6nc(c(-c7cccc(S(=O)(=O)[O-])c7F)c7ccc4[nH]7)C=C6)C=C5)cc3)CCC2)[C@@H]1C
REMARK SMILES IDX 15 1 14 2 12 3 13 4 11 5 10 6 83 7 85 8 84 9 9 10 7 11 8 12
REMARK SMILES IDX 6 14 1 15 2 16 3 17 86 18 4 19 87 20 5 21 16 22 17 23 18 24
REMARK SMILES IDX 19 25 20 26 21 27 82 28 22 29 81 30 23 31 24 32 25 33 75 34
REMARK SMILES IDX 26 35 80 36 74 37 76 38 27 39 79 40 73 41 72 42 28 44 60 45
REMARK SMILES IDX 40 46 59 47 41 48 44 49 58 50 77 51 42 52 43 53 57 55 78 56
REMARK SMILES IDX 45 57 29 58 30 59 38 60 31 61 33 62 39 63 32 64 34 65 35 66
REMARK SMILES IDX 36 67 37 68 61 69 62 70 70 71 63 72 65 73 71 74 64 75 66 76
REMARK SMILES IDX 67 77 68 78 69 79 46 80 47 81 55 82 48 83 50 84 56 85 49 86
REMARK SMILES IDX 51 87 52 88 53 89 54 90
REMARK H PARENT 9 13 76 43 44 54
REMARK Flexibility Score: inf
ROOT
ATOM      1  C   UNL     1       1.617   1.537  -5.334  1.00  0.00     0.274 C 
ENDROOT
BRANCH   1   2
ATOM      2  O   UNL     1       2.751   1.378  -4.447  1.00  0.00    -0.462 OA
BRANCH   2   3
ATOM      3  C   UNL     1       3.844   2.100  -4.748  1.00  0.00     0.308 C 
ATOM      4  O   UNL     1       3.925   2.816  -5.746  1.00  0.00    -0.252 OA
BRANCH   3   5
ATOM      5  C   UNL     1       5.037   1.949  -3.852  1.00  0.00     0.151 C 
BRANCH   5   6
ATOM      6  C   UNL     1       5.078   1.353  -2.433  1.00  0.00     0.052 C 
ATOM      7  C   UNL     1       6.487   1.813  -1.818  1.00  0.00     0.029 C 
ATOM      8  C   UNL     1       5.635  -0.095  -2.176  1.00  0.00     0.029 C 
ATOM      9  C   UNL     1       7.067   0.455  -2.206  1.00  0.00     0.005 C 
BRANCH   6  10
ATOM     10  N   UNL     1       4.053   1.833  -1.486  1.00  0.00    -0.332 N 
ATOM     11  C   UNL     1       2.860   1.456  -0.968  1.00  0.00     0.318 C 
ATOM     12  O   UNL     1       2.562   2.062   0.068  1.00  0.00    -0.249 OA
ATOM     13  H   UNL     1       4.321   2.703  -1.113  1.00  0.00     0.165 HD
BRANCH  11  14
ATOM     14  N   UNL     1       2.032   0.528  -1.532  1.00  0.00    -0.322 N 
ATOM     15  C   UNL     1       0.984  -0.846   1.079  1.00  0.00     0.010 C 
ATOM     16  C   UNL     1       0.382  -0.890  -0.327  1.00  0.00     0.008 C 
ATOM     17  C   UNL     1       0.924  -2.097  -1.124  1.00  0.00     0.007 C 
ATOM     18  C   UNL     1       0.611   0.417  -1.124  1.00  0.00     0.086 C 
ATOM     19  C   UNL     1       2.347  -1.877  -1.643  1.00  0.00     0.022 C 
ATOM     20  C   UNL     1      -0.084   1.627  -0.483  1.00  0.00     0.031 C 
ATOM     21  C   UNL     1       2.424  -0.561  -2.407  1.00  0.00     0.121 C 
ENDBRANCH  11  14
ENDBRANCH   6  10
ENDBRANCH   5   6
ENDBRANCH   3   5
ENDBRANCH   2   3
ENDBRANCH   1   2
BRANCH   1  22
ATOM     22  C   UNL     1       0.538   2.455  -4.754  1.00  0.00     0.275 C 
BRANCH  22  23
ATOM     23  O   UNL     1       0.995   3.812  -4.659  1.00  0.00    -0.458 OA
BRANCH  23  24
ATOM     24  C   UNL     1       1.556   4.107  -3.470  1.00  0.00     0.338 C 
ATOM     25  O   UNL     1       1.681   3.377  -2.510  1.00  0.00    -0.246 OA
BRANCH  24  26
ATOM     26  C   UNL     1       2.107   5.447  -3.449  1.00  0.00     0.060 A 
ATOM     27  C   UNL     1       3.467   5.606  -3.716  1.00  0.00     0.016 A 
ATOM     28  C   UNL     1       1.305   6.504  -3.026  1.00  0.00     0.016 A 
ATOM     29  C   UNL     1       4.038   6.860  -3.602  1.00  0.00     0.010 A 
ATOM     30  C   UNL     1       1.869   7.768  -2.946  1.00  0.00     0.010 A 
ATOM     31  C   UNL     1       3.227   7.947  -3.257  1.00  0.00    -0.014 A 
BRANCH  31  32
ATOM     32  C   UNL     1       3.755   9.312  -3.384  1.00  0.00     0.031 A 
ATOM     33  C   UNL     1       4.035  10.129  -2.169  1.00  0.00     0.074 A 
ATOM     34  C   UNL     1       3.867   9.799  -4.633  1.00  0.00     0.049 A 
ATOM     35  N   UNL     1       4.387  11.381  -2.093  1.00  0.00    -0.248 NA
ATOM     36  C   UNL     1       3.885   9.457  -0.868  1.00  0.00     0.031 C 
ATOM     37  C   UNL     1       3.563   9.046  -5.856  1.00  0.00     0.029 A 
ATOM     38  N   UNL     1       4.221  11.038  -5.085  1.00  0.00    -0.354 N 
ATOM     39  C   UNL     1       4.463  11.668  -0.737  1.00  0.00     0.074 A 
ATOM     40  C   UNL     1       4.125  10.454  -0.025  1.00  0.00     0.031 C 
ATOM     41  C   UNL     1       3.723   9.846  -6.918  1.00  0.00     0.029 A 
ATOM     42  C   UNL     1       4.100  11.171  -6.448  1.00  0.00     0.049 A 
ATOM     43  H   UNL     1       4.532  11.762  -4.495  1.00  0.00     0.167 HD
ATOM     44  C   UNL     1       4.791  12.845  -0.155  1.00  0.00     0.034 A 
ATOM     45  C   UNL     1       4.251  12.258  -7.225  1.00  0.00     0.034 A 
ATOM     46  C   UNL     1       5.124  14.025  -0.909  1.00  0.00     0.049 A 
ATOM     47  C   UNL     1       4.652  13.537  -6.553  1.00  0.00     0.074 A 
ATOM     48  C   UNL     1       5.514  15.267  -0.445  1.00  0.00     0.029 A 
ATOM     49  N   UNL     1       5.092  14.106  -2.296  1.00  0.00    -0.354 N 
ATOM     50  N   UNL     1       4.838  13.768  -5.274  1.00  0.00    -0.248 NA
ATOM     51  C   UNL     1       4.896  14.693  -7.420  1.00  0.00     0.031 C 
ATOM     52  C   UNL     1       5.704  16.102  -1.552  1.00  0.00     0.029 A 
ATOM     53  C   UNL     1       5.451  15.377  -2.708  1.00  0.00     0.049 A 
ATOM     54  H   UNL     1       4.849  13.367  -2.899  1.00  0.00     0.167 HD
ATOM     55  C   UNL     1       5.244  15.090  -5.181  1.00  0.00     0.074 A 
ATOM     56  C   UNL     1       5.300  15.600  -6.540  1.00  0.00     0.031 C 
ATOM     57  C   UNL     1       5.528  15.826  -4.077  1.00  0.00     0.034 A 
BRANCH  44  58
ATOM     58  C   UNL     1       4.822  12.893   1.349  1.00  0.00     0.023 A 
ATOM     59  C   UNL     1       5.858  12.238   2.046  1.00  0.00     0.012 A 
ATOM     60  C   UNL     1       3.842  13.596   2.077  1.00  0.00     0.148 A 
ATOM     61  C   UNL     1       5.899  12.248   3.440  1.00  0.00     0.002 A 
ATOM     62  C   UNL     1       3.909  13.634   3.467  1.00  0.00     0.091 A 
ATOM     63  F   UNL     1       2.849  14.193   1.403  1.00  0.00    -0.205 F 
ATOM     64  C   UNL     1       4.929  12.952   4.149  1.00  0.00     0.022 A 
BRANCH  62  65
ATOM     65  S   UNL     1       2.742  14.562   4.469  1.00  0.00     0.127 S 
ATOM     66  O   UNL     1       1.948  13.491   5.069  1.00  0.00    -0.237 OA
ATOM     67  O   UNL     1       3.625  15.262   5.404  1.00  0.00    -0.237 OA
ATOM     68  O   UNL     1       2.025  15.432   3.547  1.00  0.00    -0.744 OA
ENDBRANCH  62  65
ENDBRANCH  44  58
BRANCH  45  69
ATOM     69  C   UNL     1       4.090  12.136  -8.700  1.00  0.00     0.023 A 
ATOM     70  C   UNL     1       5.231  12.190  -9.521  1.00  0.00     0.012 A 
ATOM     71  C   UNL     1       2.835  11.868  -9.284  1.00  0.00     0.148 A 
ATOM     72  C   UNL     1       5.125  11.999 -10.899  1.00  0.00     0.002 A 
ATOM     73  C   UNL     1       2.744  11.627 -10.651  1.00  0.00     0.091 A 
ATOM     74  F   UNL     1       1.758  11.825  -8.488  1.00  0.00    -0.205 F 
ATOM     75  C   UNL     1       3.886  11.705 -11.462  1.00  0.00     0.022 A 
BRANCH  73  76
ATOM     76  S   UNL     1       1.213  11.102 -11.435  1.00  0.00     0.127 S 
ATOM     77  O   UNL     1       0.800  12.319 -12.128  1.00  0.00    -0.237 OA
ATOM     78  O   UNL     1       1.670  10.021 -12.309  1.00  0.00    -0.237 OA
ATOM     79  O   UNL     1       0.349  10.665 -10.347  1.00  0.00    -0.744 OA
ENDBRANCH  73  76
ENDBRANCH  45  69
BRANCH  57  80
ATOM     80  C   UNL     1       5.934  17.254  -4.306  1.00  0.00     0.023 A 
ATOM     81  C   UNL     1       4.957  18.207  -4.653  1.00  0.00     0.012 A 
ATOM     82  C   UNL     1       7.267  17.660  -4.111  1.00  0.00     0.148 A 
ATOM     83  C   UNL     1       5.307  19.543  -4.829  1.00  0.00     0.002 A 
ATOM     84  C   UNL     1       7.599  19.002  -4.241  1.00  0.00     0.091 A 
ATOM     85  F   UNL     1       8.183  16.729  -3.807  1.00  0.00    -0.205 F 
ATOM     86  C   UNL     1       6.624  19.942  -4.610  1.00  0.00     0.022 A 
BRANCH  84  87
ATOM     87  S   UNL     1       9.249  19.614  -3.886  1.00  0.00     0.127 S 
ATOM     88  O   UNL     1       9.781  19.836  -5.229  1.00  0.00    -0.237 OA
ATOM     89  O   UNL     1       8.973  20.835  -3.128  1.00  0.00    -0.237 OA
ATOM     90  O   UNL     1       9.905  18.565  -3.116  1.00  0.00    -0.744 OA
ENDBRANCH  84  87
ENDBRANCH  57  80
ENDBRANCH  31  32
ENDBRANCH  24  26
ENDBRANCH  23  24
ENDBRANCH  22  23
ENDBRANCH   1  22
TORSDOF 17
