REMARK SMILES COc1ccc([C@H](NC(=O)[C@H]2CC(C)=C(C)C[C@@H]2C(=O)OCCOC(=O)c2ccc(-c3c4nc(c(-c5cccc(S(=O)(=O)[O-])c5F)c5ccc([nH]5)c(-c5cccc(S(=O)(=O)[O-])c5F)c5nc(c(-c6cccc(S(=O)(=O)[O-])c6F)c6ccc3[nH]6)C=C5)C=C4)cc2)c2ccccc2)cc1
REMARK SMILES IDX 22 1 21 2 19 3 20 4 18 5 11 6 12 7 13 8 17 9 14 10 15 11
REMARK SMILES IDX 16 12 9 13 8 14 10 16 7 17 6 18 3 19 4 20 97 21 5 22 96 23
REMARK SMILES IDX 2 24 1 25 90 26 91 27 95 28 92 29 94 30 93 31 23 32 24 33
REMARK SMILES IDX 25 34 26 35 27 36 28 37 89 38 29 39 88 40 30 41 31 42 32 43
REMARK SMILES IDX 82 44 33 45 87 46 81 47 83 48 34 49 86 50 80 51 79 52 35 54
REMARK SMILES IDX 67 55 47 56 66 57 48 58 51 59 65 60 84 61 49 62 50 63 64 65
REMARK SMILES IDX 85 66 52 67 36 68 37 69 45 70 38 71 40 72 46 73 39 74 41 75
REMARK SMILES IDX 42 76 43 77 44 78 68 79 69 80 77 81 70 82 72 83 78 84 71 85
REMARK SMILES IDX 73 86 74 87 75 88 76 89 53 90 54 91 62 92 55 93 57 94 63 95
REMARK SMILES IDX 56 96 58 97 59 98 60 99 61 100
REMARK H PARENT 8 15 83 53 51 64
REMARK Flexibility Score: inf
ROOT
ATOM      1  C   UNL     1       4.757   2.512  -8.252  1.00  0.00     0.274 C 
ENDROOT
BRANCH   1   2
ATOM      2  O   UNL     1       3.693   1.941  -7.455  1.00  0.00    -0.462 OA
BRANCH   2   3
ATOM      3  C   UNL     1       3.996   1.666  -6.144  1.00  0.00     0.310 C 
ATOM      4  O   UNL     1       5.102   1.774  -5.663  1.00  0.00    -0.252 OA
BRANCH   3   5
ATOM      5  C   UNL     1       2.744   1.214  -5.378  1.00  0.00     0.116 C 
ATOM      6  C   UNL     1       2.625   1.952  -4.031  1.00  0.00     0.097 C 
ATOM      7  C   UNL     1       3.513   1.354  -2.916  1.00  0.00     0.045 C 
ATOM      8  C   UNL     1       4.088  -0.033  -3.133  1.00  0.00    -0.074 C 
ATOM      9  C   UNL     1       2.773  -0.309  -5.231  1.00  0.00     0.046 C 
ATOM     10  C   UNL     1       5.101  -0.440  -2.089  1.00  0.00     0.039 C 
ATOM     11  C   UNL     1       3.735  -0.808  -4.180  1.00  0.00    -0.073 C 
ATOM     12  C   UNL     1       4.282  -2.194  -4.398  1.00  0.00     0.039 C 
BRANCH   6  13
ATOM     13  C   UNL     1       1.167   2.024  -3.579  1.00  0.00     0.225 C 
ATOM     14  N   UNL     1       0.486   3.205  -3.520  1.00  0.00    -0.345 N 
ATOM     15  H   UNL     1      -0.426   3.115  -3.162  1.00  0.00     0.164 HD
ATOM     16  O   UNL     1       0.554   1.002  -3.260  1.00  0.00    -0.275 OA
BRANCH  14  17
ATOM     17  C   UNL     1       0.842   4.585  -3.885  1.00  0.00     0.143 C 
BRANCH  17  18
ATOM     18  C   UNL     1       0.651   4.871  -5.378  1.00  0.00    -0.021 A 
ATOM     19  C   UNL     1       0.411   5.456  -8.135  1.00  0.00     0.118 A 
ATOM     20  C   UNL     1       1.070   6.343  -7.287  1.00  0.00     0.047 A 
ATOM     21  C   UNL     1      -0.143   4.289  -7.606  1.00  0.00     0.047 A 
ATOM     22  C   UNL     1       1.182   6.059  -5.924  1.00  0.00     0.010 A 
ATOM     23  C   UNL     1      -0.031   4.003  -6.240  1.00  0.00     0.010 A 
BRANCH  19  24
ATOM     24  O   UNL     1       0.387   5.832  -9.450  1.00  0.00    -0.497 OA
ATOM     25  C   UNL     1      -0.443   5.063 -10.309  1.00  0.00     0.278 C 
ENDBRANCH  19  24
ENDBRANCH  17  18
BRANCH  17  26
ATOM     26  C   UNL     1       0.075   5.564  -2.981  1.00  0.00    -0.021 A 
ATOM     27  C   UNL     1      -0.796   6.553  -3.482  1.00  0.00     0.006 A 
ATOM     28  C   UNL     1       0.263   5.506  -1.589  1.00  0.00     0.006 A 
ATOM     29  C   UNL     1      -1.430   7.463  -2.637  1.00  0.00     0.000 A 
ATOM     30  C   UNL     1      -0.400   6.396  -0.740  1.00  0.00     0.000 A 
ATOM     31  C   UNL     1      -1.241   7.373  -1.266  1.00  0.00     0.000 A 
ENDBRANCH  17  26
ENDBRANCH  14  17
ENDBRANCH   6  13
ENDBRANCH   3   5
ENDBRANCH   2   3
ENDBRANCH   1   2
BRANCH   1  32
ATOM     32  C   UNL     1       4.658   4.045  -8.412  1.00  0.00     0.275 C 
BRANCH  32  33
ATOM     33  O   UNL     1       5.203   4.799  -7.298  1.00  0.00    -0.458 OA
BRANCH  33  34
ATOM     34  C   UNL     1       4.361   4.836  -6.254  1.00  0.00     0.338 C 
ATOM     35  O   UNL     1       3.293   4.250  -6.201  1.00  0.00    -0.246 OA
BRANCH  34  36
ATOM     36  C   UNL     1       4.801   5.571  -5.062  1.00  0.00     0.060 A 
ATOM     37  C   UNL     1       4.892   4.802  -3.903  1.00  0.00     0.016 A 
ATOM     38  C   UNL     1       4.718   6.963  -4.966  1.00  0.00     0.016 A 
ATOM     39  C   UNL     1       4.753   5.395  -2.657  1.00  0.00     0.010 A 
ATOM     40  C   UNL     1       4.701   7.570  -3.696  1.00  0.00     0.010 A 
ATOM     41  C   UNL     1       4.678   6.792  -2.525  1.00  0.00    -0.014 A 
BRANCH  41  42
ATOM     42  C   UNL     1       4.692   7.364  -1.145  1.00  0.00     0.031 A 
ATOM     43  C   UNL     1       3.558   8.171  -0.565  1.00  0.00     0.074 A 
ATOM     44  C   UNL     1       5.750   7.074  -0.360  1.00  0.00     0.049 A 
ATOM     45  N   UNL     1       3.390   8.559   0.677  1.00  0.00    -0.248 NA
ATOM     46  C   UNL     1       2.478   8.591  -1.468  1.00  0.00     0.031 C 
ATOM     47  C   UNL     1       6.937   6.334  -0.797  1.00  0.00     0.029 A 
ATOM     48  N   UNL     1       6.000   7.349   0.962  1.00  0.00    -0.354 N 
ATOM     49  C   UNL     1       2.174   9.232   0.715  1.00  0.00     0.074 A 
ATOM     50  C   UNL     1       1.676   9.259  -0.643  1.00  0.00     0.031 C 
ATOM     51  C   UNL     1       7.773   6.191   0.238  1.00  0.00     0.029 A 
ATOM     52  C   UNL     1       7.220   6.886   1.394  1.00  0.00     0.049 A 
ATOM     53  H   UNL     1       5.367   7.830   1.543  1.00  0.00     0.167 HD
ATOM     54  C   UNL     1       1.512   9.728   1.789  1.00  0.00     0.034 A 
ATOM     55  C   UNL     1       7.855   7.024   2.574  1.00  0.00     0.034 A 
ATOM     56  C   UNL     1       2.010   9.715   3.141  1.00  0.00     0.049 A 
ATOM     57  C   UNL     1       7.167   7.726   3.702  1.00  0.00     0.074 A 
ATOM     58  C   UNL     1       1.363  10.116   4.299  1.00  0.00     0.029 A 
ATOM     59  N   UNL     1       3.284   9.322   3.514  1.00  0.00    -0.354 N 
ATOM     60  N   UNL     1       5.937   8.172   3.760  1.00  0.00    -0.248 NA
ATOM     61  C   UNL     1       7.944   7.931   4.932  1.00  0.00     0.031 C 
ATOM     62  C   UNL     1       2.257   9.991   5.369  1.00  0.00     0.029 A 
ATOM     63  C   UNL     1       3.460   9.518   4.875  1.00  0.00     0.049 A 
ATOM     64  H   UNL     1       3.964   8.957   2.903  1.00  0.00     0.167 HD
ATOM     65  C   UNL     1       5.785   8.697   5.036  1.00  0.00     0.074 A 
ATOM     66  C   UNL     1       7.042   8.494   5.726  1.00  0.00     0.031 C 
ATOM     67  C   UNL     1       4.700   9.304   5.575  1.00  0.00     0.034 A 
BRANCH  54  68
ATOM     68  C   UNL     1       0.109  10.235   1.593  1.00  0.00     0.023 A 
ATOM     69  C   UNL     1      -0.951   9.326   1.790  1.00  0.00     0.012 A 
ATOM     70  C   UNL     1      -0.180  11.591   1.362  1.00  0.00     0.148 A 
ATOM     71  C   UNL     1      -2.278   9.752   1.740  1.00  0.00     0.002 A 
ATOM     72  C   UNL     1      -1.508  12.013   1.333  1.00  0.00     0.091 A 
ATOM     73  F   UNL     1       0.838  12.441   1.170  1.00  0.00    -0.205 F 
ATOM     74  C   UNL     1      -2.556  11.096   1.517  1.00  0.00     0.022 A 
BRANCH  72  75
ATOM     75  S   UNL     1      -1.952  13.742   1.122  1.00  0.00     0.127 S 
ATOM     76  O   UNL     1      -2.237  13.800  -0.310  1.00  0.00    -0.237 OA
ATOM     77  O   UNL     1      -3.129  13.877   1.982  1.00  0.00    -0.237 OA
ATOM     78  O   UNL     1      -0.791  14.498   1.571  1.00  0.00    -0.744 OA
ENDBRANCH  72  75
ENDBRANCH  54  68
BRANCH  55  79
ATOM     79  C   UNL     1       9.227   6.467   2.714  1.00  0.00     0.023 A 
ATOM     80  C   UNL     1       9.452   5.344   3.528  1.00  0.00     0.012 A 
ATOM     81  C   UNL     1      10.287   6.983   1.942  1.00  0.00     0.148 A 
ATOM     82  C   UNL     1      10.710   4.738   3.561  1.00  0.00     0.002 A 
ATOM     83  C   UNL     1      11.512   6.331   1.923  1.00  0.00     0.091 A 
ATOM     84  F   UNL     1      10.066   8.079   1.201  1.00  0.00    -0.205 F 
ATOM     85  C   UNL     1      11.732   5.215   2.741  1.00  0.00     0.022 A 
BRANCH  83  86
ATOM     86  S   UNL     1      12.778   6.795   0.734  1.00  0.00     0.127 S 
ATOM     87  O   UNL     1      13.560   7.768   1.488  1.00  0.00    -0.237 OA
ATOM     88  O   UNL     1      13.456   5.524   0.479  1.00  0.00    -0.237 OA
ATOM     89  O   UNL     1      12.036   7.307  -0.411  1.00  0.00    -0.744 OA
ENDBRANCH  83  86
ENDBRANCH  55  79
BRANCH  67  90
ATOM     90  C   UNL     1       4.824   9.823   6.981  1.00  0.00     0.023 A 
ATOM     91  C   UNL     1       5.565  10.999   7.214  1.00  0.00     0.012 A 
ATOM     92  C   UNL     1       4.180   9.189   8.059  1.00  0.00     0.148 A 
ATOM     93  C   UNL     1       5.685  11.519   8.502  1.00  0.00     0.002 A 
ATOM     94  C   UNL     1       4.271   9.736   9.335  1.00  0.00     0.091 A 
ATOM     95  F   UNL     1       3.498   8.056   7.830  1.00  0.00    -0.205 F 
ATOM     96  C   UNL     1       5.030  10.895   9.561  1.00  0.00     0.022 A 
BRANCH  94  97
ATOM     97  S   UNL     1       3.372   9.021  10.717  1.00  0.00     0.127 S 
ATOM     98  O   UNL     1       4.332   8.048  11.232  1.00  0.00    -0.237 OA
ATOM     99  O   UNL     1       3.145  10.173  11.590  1.00  0.00    -0.237 OA
ATOM    100  O   UNL     1       2.155   8.473  10.129  1.00  0.00    -0.744 OA
ENDBRANCH  94  97
ENDBRANCH  67  90
ENDBRANCH  41  42
ENDBRANCH  34  36
ENDBRANCH  33  34
ENDBRANCH  32  33
ENDBRANCH   1  32
TORSDOF 19
