REMARK SMILES Cc1ccc(C)c(S(=O)(=O)[C@H](C)C(=O)OCCOC(=O)c2ccc(-c3c4nc(c(-c5cccc(S(=O)(=O)[O-])c5F)c5ccc([nH]5)c(-c5cccc(S(=O)(=O)[O-])c5F)c5nc(c(-c6cccc(S(=O)(=O)[O-])c6F)c6ccc3[nH]6)C=C5)C=C4)cc2)c1
REMARK SMILES IDX 17 1 16 2 15 3 13 4 14 5 11 6 12 7 8 8 9 9 10 10 7 11 1 12
REMARK SMILES IDX 2 13 3 14 84 15 4 16 5 17 6 18 18 19 19 20 20 21 21 22 22 23
REMARK SMILES IDX 83 24 23 25 82 26 24 27 25 28 26 29 76 30 27 31 81 32 75 33
REMARK SMILES IDX 77 34 28 35 80 36 74 37 73 38 29 40 61 41 41 42 60 43 42 44
REMARK SMILES IDX 45 45 59 46 78 47 43 48 44 49 58 51 79 52 46 53 30 54 31 55
REMARK SMILES IDX 39 56 32 57 34 58 40 59 33 60 35 61 36 62 37 63 38 64 62 65
REMARK SMILES IDX 63 66 71 67 64 68 66 69 72 70 65 71 67 72 68 73 69 74 70 75
REMARK SMILES IDX 47 76 48 77 56 78 49 79 51 80 57 81 50 82 52 83 53 84 54 85
REMARK SMILES IDX 55 86
REMARK H PARENT 77 39 45 50
REMARK Flexibility Score: inf
ROOT
ATOM      1  C   UNL     1      -0.059   2.168  -3.830  1.00  0.00     0.275 C 
ENDROOT
BRANCH   1   2
ATOM      2  C   UNL     1       0.598   1.813  -2.488  1.00  0.00     0.274 C 
BRANCH   2   3
ATOM      3  O   UNL     1      -0.232   2.271  -1.412  1.00  0.00    -0.461 OA
BRANCH   3   4
ATOM      4  C   UNL     1       0.367   2.917  -0.364  1.00  0.00     0.324 C 
ATOM      5  O   UNL     1       1.572   3.083  -0.269  1.00  0.00    -0.251 OA
BRANCH   4   6
ATOM      6  C   UNL     1      -0.674   3.544   0.518  1.00  0.00     0.219 C 
ATOM      7  C   UNL     1      -1.940   2.683   0.544  1.00  0.00     0.038 C 
BRANCH   6   8
ATOM      8  S   UNL     1      -0.060   3.780   2.176  1.00  0.00     0.192 S 
ATOM      9  O   UNL     1       0.856   2.693   2.458  1.00  0.00    -0.223 OA
ATOM     10  O   UNL     1      -1.223   3.955   3.036  1.00  0.00    -0.223 OA
BRANCH   8  11
ATOM     11  C   UNL     1       0.788   5.367   2.316  1.00  0.00     0.071 A 
ATOM     12  C   UNL     1       0.204   8.922   0.980  1.00  0.00     0.044 C 
ATOM     13  C   UNL     1       0.769   7.760   1.744  1.00  0.00    -0.050 A 
ATOM     14  C   UNL     1       1.773   7.985   2.681  1.00  0.00     0.004 A 
ATOM     15  C   UNL     1       0.268   6.457   1.583  1.00  0.00     0.024 A 
ATOM     16  C   UNL     1       2.278   6.924   3.429  1.00  0.00     0.005 A 
ATOM     17  C   UNL     1       1.801   5.604   3.269  1.00  0.00    -0.032 A 
ATOM     18  C   UNL     1       2.383   4.608   4.234  1.00  0.00     0.046 C 
ENDBRANCH   8  11
ENDBRANCH   6   8
ENDBRANCH   4   6
ENDBRANCH   3   4
ENDBRANCH   2   3
ENDBRANCH   1   2
BRANCH   1  19
ATOM     19  O   UNL     1      -0.814   3.423  -3.908  1.00  0.00    -0.458 OA
BRANCH  19  20
ATOM     20  C   UNL     1      -0.526   4.647  -3.398  1.00  0.00     0.338 C 
ATOM     21  O   UNL     1      -1.411   5.451  -3.124  1.00  0.00    -0.246 OA
BRANCH  20  22
ATOM     22  C   UNL     1       0.879   4.973  -3.097  1.00  0.00     0.060 A 
ATOM     23  C   UNL     1       1.173   5.768  -1.975  1.00  0.00     0.016 A 
ATOM     24  C   UNL     1       1.894   4.383  -3.832  1.00  0.00     0.016 A 
ATOM     25  C   UNL     1       2.471   5.803  -1.473  1.00  0.00     0.010 A 
ATOM     26  C   UNL     1       3.141   4.303  -3.261  1.00  0.00     0.010 A 
ATOM     27  C   UNL     1       3.440   5.013  -2.087  1.00  0.00    -0.014 A 
BRANCH  27  28
ATOM     28  C   UNL     1       4.793   4.899  -1.553  1.00  0.00     0.031 A 
ATOM     29  C   UNL     1       5.042   4.126  -0.284  1.00  0.00     0.074 A 
ATOM     30  C   UNL     1       5.814   5.144  -2.400  1.00  0.00     0.049 A 
ATOM     31  N   UNL     1       5.681   4.513   0.778  1.00  0.00    -0.248 NA
ATOM     32  C   UNL     1       4.534   2.754  -0.176  1.00  0.00     0.031 C 
ATOM     33  C   UNL     1       5.756   5.535  -3.818  1.00  0.00     0.029 A 
ATOM     34  N   UNL     1       7.119   4.838  -2.224  1.00  0.00    -0.354 N 
ATOM     35  C   UNL     1       5.771   3.403   1.638  1.00  0.00     0.074 A 
ATOM     36  C   UNL     1       4.939   2.391   1.044  1.00  0.00     0.031 C 
ATOM     37  C   UNL     1       6.885   5.120  -4.431  1.00  0.00     0.029 A 
ATOM     38  C   UNL     1       7.804   4.651  -3.414  1.00  0.00     0.049 A 
ATOM     39  H   UNL     1       7.541   4.756  -1.338  1.00  0.00     0.167 HD
ATOM     40  C   UNL     1       6.643   3.354   2.694  1.00  0.00     0.034 A 
ATOM     41  C   UNL     1       9.014   4.068  -3.540  1.00  0.00     0.034 A 
ATOM     42  C   UNL     1       7.251   4.642   2.916  1.00  0.00     0.049 A 
ATOM     43  C   UNL     1       9.682   4.183  -2.219  1.00  0.00     0.074 A 
ATOM     44  C   UNL     1       6.802   5.903   3.249  1.00  0.00     0.029 A 
ATOM     45  N   UNL     1       8.531   4.824   2.445  1.00  0.00    -0.354 N 
ATOM     46  N   UNL     1       9.951   5.335  -1.657  1.00  0.00    -0.248 NA
ATOM     47  C   UNL     1       9.612   3.049  -1.312  1.00  0.00     0.031 C 
ATOM     48  C   UNL     1       7.591   6.779   2.443  1.00  0.00     0.029 A 
ATOM     49  C   UNL     1       8.499   5.989   1.729  1.00  0.00     0.049 A 
ATOM     50  H   UNL     1       9.307   4.237   2.591  1.00  0.00     0.167 HD
ATOM     51  C   UNL     1       9.647   5.154  -0.313  1.00  0.00     0.074 A 
ATOM     52  C   UNL     1       9.548   3.701  -0.146  1.00  0.00     0.031 C 
ATOM     53  C   UNL     1       9.207   6.182   0.481  1.00  0.00     0.034 A 
BRANCH  40  54
ATOM     54  C   UNL     1       7.225   2.136   3.403  1.00  0.00     0.023 A 
ATOM     55  C   UNL     1       8.050   2.393   4.534  1.00  0.00     0.012 A 
ATOM     56  C   UNL     1       7.252   0.820   2.897  1.00  0.00     0.148 A 
ATOM     57  C   UNL     1       8.925   1.437   5.061  1.00  0.00     0.002 A 
ATOM     58  C   UNL     1       8.083  -0.151   3.466  1.00  0.00     0.091 A 
ATOM     59  F   UNL     1       6.567   0.514   1.794  1.00  0.00    -0.205 F 
ATOM     60  C   UNL     1       8.946   0.163   4.521  1.00  0.00     0.022 A 
BRANCH  58  61
ATOM     61  S   UNL     1       8.136  -1.841   2.850  1.00  0.00     0.127 S 
ATOM     62  O   UNL     1       9.372  -1.831   2.073  1.00  0.00    -0.237 OA
ATOM     63  O   UNL     1       8.195  -2.617   4.090  1.00  0.00    -0.237 OA
ATOM     64  O   UNL     1       6.902  -2.016   2.096  1.00  0.00    -0.744 OA
ENDBRANCH  58  61
ENDBRANCH  40  54
BRANCH  41  65
ATOM     65  C   UNL     1       9.444   3.179  -4.638  1.00  0.00     0.023 A 
ATOM     66  C   UNL     1      10.803   3.068  -4.968  1.00  0.00     0.012 A 
ATOM     67  C   UNL     1       8.529   2.283  -5.247  1.00  0.00     0.148 A 
ATOM     68  C   UNL     1      11.241   2.097  -5.877  1.00  0.00     0.002 A 
ATOM     69  C   UNL     1       8.967   1.329  -6.159  1.00  0.00     0.091 A 
ATOM     70  F   UNL     1       7.242   2.317  -4.871  1.00  0.00    -0.205 F 
ATOM     71  C   UNL     1      10.327   1.229  -6.472  1.00  0.00     0.022 A 
BRANCH  69  72
ATOM     72  S   UNL     1       7.835   0.185  -6.966  1.00  0.00     0.127 S 
ATOM     73  O   UNL     1       8.290   0.234  -8.357  1.00  0.00    -0.237 OA
ATOM     74  O   UNL     1       8.120  -1.067  -6.272  1.00  0.00    -0.237 OA
ATOM     75  O   UNL     1       6.501   0.737  -6.758  1.00  0.00    -0.744 OA
ENDBRANCH  69  72
ENDBRANCH  41  65
BRANCH  53  76
ATOM     76  C   UNL     1       9.139   7.586  -0.084  1.00  0.00     0.023 A 
ATOM     77  C   UNL     1       8.287   7.900  -1.164  1.00  0.00     0.012 A 
ATOM     78  C   UNL     1       9.704   8.646   0.643  1.00  0.00     0.148 A 
ATOM     79  C   UNL     1       8.007   9.221  -1.519  1.00  0.00     0.002 A 
ATOM     80  C   UNL     1       9.393   9.964   0.315  1.00  0.00     0.091 A 
ATOM     81  F   UNL     1      10.499   8.350   1.682  1.00  0.00    -0.205 F 
ATOM     82  C   UNL     1       8.548  10.256  -0.768  1.00  0.00     0.022 A 
BRANCH  80  83
ATOM     83  S   UNL     1       9.943  11.340   1.327  1.00  0.00     0.127 S 
ATOM     84  O   UNL     1      11.040  11.883   0.531  1.00  0.00    -0.237 OA
ATOM     85  O   UNL     1       8.751  12.190   1.384  1.00  0.00    -0.237 OA
ATOM     86  O   UNL     1      10.319  10.764   2.612  1.00  0.00    -0.744 OA
ENDBRANCH  80  83
ENDBRANCH  53  76
ENDBRANCH  27  28
ENDBRANCH  20  22
ENDBRANCH  19  20
ENDBRANCH   1  19
TORSDOF 16
