REMARK SMILES CC(C)[NH2+][C@@]1(C(=O)OCCOC(=O)c2ccc(-c3c4nc(c(-c5cccc(S(=O)(=O)[O-])c5F)c5ccc([nH]5)c(-c5cccc(S(=O)(=O)[O-])c5F)c5nc(c(-c6cccc(S(=O)(=O)[O-])c6F)c6ccc3[nH]6)C=C5)C=C4)cc2)CCC[C@@H]1CCOC1CCOCC1
REMARK SMILES IDX 9 1 8 2 6 3 7 4 5 5 77 6 80 7 78 8 79 9 4 10 2 13 1 14 3 15
REMARK SMILES IDX 81 16 82 17 83 18 84 19 85 20 89 21 86 22 88 23 87 24 10 25
REMARK SMILES IDX 11 26 12 27 13 28 14 29 15 30 76 31 16 32 75 33 17 34 18 35
REMARK SMILES IDX 19 36 69 37 20 38 74 39 68 40 70 41 21 42 73 43 67 44 66 45
REMARK SMILES IDX 22 47 54 48 34 49 53 50 35 51 38 52 52 53 71 54 36 55 37 56
REMARK SMILES IDX 51 58 72 59 39 60 23 61 24 62 32 63 25 64 27 65 33 66 26 67
REMARK SMILES IDX 28 68 29 69 30 70 31 71 55 72 56 73 64 74 57 75 59 76 65 77
REMARK SMILES IDX 58 78 60 79 61 80 62 81 63 82 40 83 41 84 49 85 42 86 44 87
REMARK SMILES IDX 50 88 43 89 45 90 46 91 47 92 48 93
REMARK H PARENT 4 11 4 12 70 46 38 57
REMARK Flexibility Score: inf
ROOT
ATOM      1  C   UNL     1      -4.726  -1.402  -3.565  1.00  0.00     0.274 C 
ENDROOT
BRANCH   1   2
ATOM      2  O   UNL     1      -3.489  -1.961  -3.076  1.00  0.00    -0.457 OA
BRANCH   2   3
ATOM      3  C   UNL     1      -2.428  -1.118  -2.930  1.00  0.00     0.368 C 
ATOM      4  O   UNL     1      -2.491   0.087  -3.142  1.00  0.00    -0.245 OA
BRANCH   3   5
ATOM      5  C   UNL     1      -1.108  -1.873  -2.566  1.00  0.00     0.197 C 
ATOM      6  C   UNL     1      -0.314  -2.030  -3.877  1.00  0.00     0.081 C 
ATOM      7  C   UNL     1      -1.266  -3.372  -2.179  1.00  0.00     0.065 C 
ATOM      8  C   UNL     1      -0.945  -3.233  -4.586  1.00  0.00     0.008 C 
ATOM      9  C   UNL     1      -1.583  -4.098  -3.494  1.00  0.00     0.011 C 
BRANCH   5  10
ATOM     10  N   UNL     1      -0.387  -1.204  -1.460  1.00  0.00    -0.330 N 
ATOM     11  H   UNL     1      -1.103  -0.772  -0.876  1.00  0.00     0.347 HD
ATOM     12  H   UNL     1       0.176  -1.969  -1.087  1.00  0.00     0.347 HD
BRANCH  10  13
ATOM     13  C   UNL     1       0.624  -0.177  -1.687  1.00  0.00     0.176 C 
ATOM     14  C   UNL     1       0.106   1.252  -1.541  1.00  0.00     0.075 C 
ATOM     15  C   UNL     1       1.719  -0.377  -0.623  1.00  0.00     0.075 C 
ENDBRANCH  10  13
ENDBRANCH   5  10
BRANCH   7  16
ATOM     16  C   UNL     1      -2.171  -3.722  -0.987  1.00  0.00     0.039 C 
BRANCH  16  17
ATOM     17  C   UNL     1      -1.820  -5.085  -0.370  1.00  0.00     0.161 C 
BRANCH  17  18
ATOM     18  O   UNL     1      -0.996  -4.999   0.793  1.00  0.00    -0.378 OA
BRANCH  18  19
ATOM     19  C   UNL     1       0.428  -5.148   0.693  1.00  0.00     0.122 C 
ATOM     20  C   UNL     1       1.135  -3.869   0.241  1.00  0.00     0.060 C 
ATOM     21  C   UNL     1       0.895  -6.462   0.062  1.00  0.00     0.060 C 
ATOM     22  C   UNL     1       2.091  -3.985  -0.947  1.00  0.00     0.163 C 
ATOM     23  C   UNL     1       2.218  -6.304  -0.655  1.00  0.00     0.163 C 
ATOM     24  O   UNL     1       2.082  -5.250  -1.595  1.00  0.00    -0.381 OA
ENDBRANCH  18  19
ENDBRANCH  17  18
ENDBRANCH  16  17
ENDBRANCH   7  16
ENDBRANCH   3   5
ENDBRANCH   2   3
ENDBRANCH   1   2
BRANCH   1  25
ATOM     25  C   UNL     1      -5.772  -1.388  -2.458  1.00  0.00     0.275 C 
BRANCH  25  26
ATOM     26  O   UNL     1      -5.322  -0.504  -1.421  1.00  0.00    -0.458 OA
BRANCH  26  27
ATOM     27  C   UNL     1      -5.278  -1.028  -0.178  1.00  0.00     0.338 C 
ATOM     28  O   UNL     1      -5.700  -2.118   0.185  1.00  0.00    -0.246 OA
BRANCH  27  29
ATOM     29  C   UNL     1      -4.558  -0.104   0.711  1.00  0.00     0.060 A 
ATOM     30  C   UNL     1      -3.253   0.261   0.389  1.00  0.00     0.016 A 
ATOM     31  C   UNL     1      -5.114   0.280   1.929  1.00  0.00     0.016 A 
ATOM     32  C   UNL     1      -2.461   0.904   1.333  1.00  0.00     0.010 A 
ATOM     33  C   UNL     1      -4.346   1.026   2.831  1.00  0.00     0.010 A 
ATOM     34  C   UNL     1      -2.992   1.298   2.566  1.00  0.00    -0.014 A 
BRANCH  34  35
ATOM     35  C   UNL     1      -2.098   1.893   3.600  1.00  0.00     0.031 A 
ATOM     36  C   UNL     1      -1.948   1.212   4.935  1.00  0.00     0.074 A 
ATOM     37  C   UNL     1      -1.390   3.013   3.350  1.00  0.00     0.049 A 
ATOM     38  N   UNL     1      -1.361   1.643   6.022  1.00  0.00    -0.248 NA
ATOM     39  C   UNL     1      -2.554  -0.122   5.070  1.00  0.00     0.031 C 
ATOM     40  C   UNL     1      -1.403   3.761   2.093  1.00  0.00     0.029 A 
ATOM     41  N   UNL     1      -0.521   3.719   4.148  1.00  0.00    -0.354 N 
ATOM     42  C   UNL     1      -1.615   0.682   6.994  1.00  0.00     0.074 A 
ATOM     43  C   UNL     1      -2.388  -0.365   6.361  1.00  0.00     0.031 C 
ATOM     44  C   UNL     1      -0.571   4.808   2.196  1.00  0.00     0.029 A 
ATOM     45  C   UNL     1      -0.025   4.853   3.549  1.00  0.00     0.049 A 
ATOM     46  H   UNL     1      -0.278   3.439   5.060  1.00  0.00     0.167 HD
ATOM     47  C   UNL     1      -1.235   0.668   8.293  1.00  0.00     0.034 A 
ATOM     48  C   UNL     1       0.747   5.844   4.040  1.00  0.00     0.034 A 
ATOM     49  C   UNL     1      -0.381   1.654   8.897  1.00  0.00     0.049 A 
ATOM     50  C   UNL     1       1.210   5.779   5.469  1.00  0.00     0.074 A 
ATOM     51  C   UNL     1       0.090   1.706  10.197  1.00  0.00     0.029 A 
ATOM     52  N   UNL     1       0.152   2.751   8.236  1.00  0.00    -0.354 N 
ATOM     53  N   UNL     1       0.974   4.855   6.369  1.00  0.00    -0.248 NA
ATOM     54  C   UNL     1       2.054   6.883   5.947  1.00  0.00     0.031 C 
ATOM     55  C   UNL     1       0.909   2.834  10.322  1.00  0.00     0.029 A 
ATOM     56  C   UNL     1       0.956   3.479   9.097  1.00  0.00     0.049 A 
ATOM     57  H   UNL     1      -0.016   2.978   7.293  1.00  0.00     0.167 HD
ATOM     58  C   UNL     1       1.645   5.261   7.517  1.00  0.00     0.074 A 
ATOM     59  C   UNL     1       2.328   6.495   7.186  1.00  0.00     0.031 C 
ATOM     60  C   UNL     1       1.670   4.679   8.742  1.00  0.00     0.034 A 
BRANCH  47  61
ATOM     61  C   UNL     1      -1.740  -0.464   9.148  1.00  0.00     0.023 A 
ATOM     62  C   UNL     1      -1.194  -1.755   9.008  1.00  0.00     0.012 A 
ATOM     63  C   UNL     1      -2.750  -0.241  10.105  1.00  0.00     0.148 A 
ATOM     64  C   UNL     1      -1.671  -2.814   9.780  1.00  0.00     0.002 A 
ATOM     65  C   UNL     1      -3.189  -1.292  10.901  1.00  0.00     0.091 A 
ATOM     66  F   UNL     1      -3.283   0.986  10.204  1.00  0.00    -0.205 F 
ATOM     67  C   UNL     1      -2.660  -2.581  10.732  1.00  0.00     0.022 A 
BRANCH  65  68
ATOM     68  S   UNL     1      -4.404  -1.050  12.203  1.00  0.00     0.127 S 
ATOM     69  O   UNL     1      -5.640  -1.456  11.537  1.00  0.00    -0.237 OA
ATOM     70  O   UNL     1      -3.942  -1.972  13.242  1.00  0.00    -0.237 OA
ATOM     71  O   UNL     1      -4.308   0.357  12.566  1.00  0.00    -0.744 OA
ENDBRANCH  65  68
ENDBRANCH  47  61
BRANCH  48  72
ATOM     72  C   UNL     1       1.129   6.978   3.151  1.00  0.00     0.023 A 
ATOM     73  C   UNL     1       2.462   7.105   2.716  1.00  0.00     0.012 A 
ATOM     74  C   UNL     1       0.160   7.881   2.671  1.00  0.00     0.148 A 
ATOM     75  C   UNL     1       2.823   8.114   1.821  1.00  0.00     0.002 A 
ATOM     76  C   UNL     1       0.513   8.839   1.728  1.00  0.00     0.091 A 
ATOM     77  F   UNL     1      -1.097   7.762   3.120  1.00  0.00    -0.205 F 
ATOM     78  C   UNL     1       1.847   8.968   1.313  1.00  0.00     0.022 A 
BRANCH  76  79
ATOM     79  S   UNL     1      -0.711   9.863   0.901  1.00  0.00     0.127 S 
ATOM     80  O   UNL     1      -0.463  11.171   1.501  1.00  0.00    -0.237 OA
ATOM     81  O   UNL     1      -0.309   9.741  -0.501  1.00  0.00    -0.237 OA
ATOM     82  O   UNL     1      -1.999   9.257   1.208  1.00  0.00    -0.744 OA
ENDBRANCH  76  79
ENDBRANCH  48  72
BRANCH  60  83
ATOM     83  C   UNL     1       2.473   5.361   9.817  1.00  0.00     0.023 A 
ATOM     84  C   UNL     1       1.972   6.532  10.420  1.00  0.00     0.012 A 
ATOM     85  C   UNL     1       3.688   4.814  10.273  1.00  0.00     0.148 A 
ATOM     86  C   UNL     1       2.683   7.165  11.440  1.00  0.00     0.002 A 
ATOM     87  C   UNL     1       4.371   5.428  11.317  1.00  0.00     0.091 A 
ATOM     88  F   UNL     1       4.162   3.713   9.672  1.00  0.00    -0.205 F 
ATOM     89  C   UNL     1       3.876   6.608  11.895  1.00  0.00     0.022 A 
BRANCH  87  90
ATOM     90  S   UNL     1       5.870   4.723  12.013  1.00  0.00     0.127 S 
ATOM     91  O   UNL     1       6.909   5.497  11.335  1.00  0.00    -0.237 OA
ATOM     92  O   UNL     1       5.727   5.014  13.440  1.00  0.00    -0.237 OA
ATOM     93  O   UNL     1       5.822   3.303  11.686  1.00  0.00    -0.744 OA
ENDBRANCH  87  90
ENDBRANCH  60  83
ENDBRANCH  34  35
ENDBRANCH  27  29
ENDBRANCH  26  27
ENDBRANCH  25  26
ENDBRANCH   1  25
TORSDOF 20
