REMARK SMILES O=C(C[C@H](NC(=O)[C@]12C[C@H]3C[C@H](C[C@H](C3)C1)C2)c1cccc([N+](=O)[O-])c1)OCCOC(=O)c1ccc(-c2c3nc(c(-c4cccc(S(=O)(=O)[O-])c4F)c4ccc([nH]4)c(-c4cccc(S(=O)(=O)[O-])c4F)c4nc(c(-c5cccc(S(=O)(=O)[O-])c5F)c5ccc2[nH]5)C=C4)C=C3)cc1
REMARK SMILES IDX 28 1 27 2 2 3 1 4 3 5 4 6 18 7 19 8 26 9 20 10 22 11 21 12
REMARK SMILES IDX 23 13 24 14 25 15 5 16 6 17 7 19 8 20 9 21 16 22 17 23 10 24
REMARK SMILES IDX 14 25 12 26 11 27 15 28 13 29 29 30 30 31 31 32 32 33 33 34
REMARK SMILES IDX 34 35 95 36 35 37 94 38 36 39 37 40 38 41 88 42 39 43 93 44
REMARK SMILES IDX 87 45 89 46 40 47 92 48 86 49 85 50 41 52 73 53 53 54 72 55
REMARK SMILES IDX 54 56 57 57 71 58 90 59 55 60 56 61 70 63 91 64 58 65 42 66
REMARK SMILES IDX 43 67 51 68 44 69 46 70 52 71 45 72 47 73 48 74 49 75 50 76
REMARK SMILES IDX 74 77 75 78 83 79 76 80 78 81 84 82 77 83 79 84 80 85 81 86
REMARK SMILES IDX 82 87 59 88 60 89 68 90 61 91 63 92 69 93 62 94 64 95 65 96
REMARK SMILES IDX 66 97 67 98
REMARK H PARENT 5 18 89 51 57 62
REMARK Flexibility Score: inf
ROOT
ATOM      1  C   UNL     1       5.312  -1.183   1.320  1.00  0.00     0.274 C 
ENDROOT
BRANCH   1   2
ATOM      2  O   UNL     1       6.223  -1.555   0.269  1.00  0.00    -0.462 OA
BRANCH   2   3
ATOM      3  C   UNL     1       6.202  -1.049  -0.980  1.00  0.00     0.308 C 
ATOM      4  O   UNL     1       7.205  -1.130  -1.688  1.00  0.00    -0.252 OA
BRANCH   3   5
ATOM      5  C   UNL     1       4.935  -0.410  -1.512  1.00  0.00     0.152 C 
BRANCH   5   6
ATOM      6  C   UNL     1       3.832  -1.330  -2.083  1.00  0.00     0.123 C 
BRANCH   6   7
ATOM      7  C   UNL     1       4.435  -2.612  -2.667  1.00  0.00    -0.018 A 
ATOM      8  C   UNL     1       4.064  -3.903  -2.258  1.00  0.00     0.006 A 
ATOM      9  C   UNL     1       5.515  -2.493  -3.569  1.00  0.00     0.091 A 
ATOM     10  C   UNL     1       4.831  -5.019  -2.618  1.00  0.00     0.007 A 
ATOM     11  C   UNL     1       6.322  -3.599  -3.863  1.00  0.00     0.269 A 
ATOM     12  C   UNL     1       5.985  -4.867  -3.385  1.00  0.00     0.085 A 
BRANCH  11  13
ATOM     13  N   UNL     1       7.579  -3.404  -4.595  1.00  0.00     0.062 N 
ATOM     14  O   UNL     1       8.414  -4.321  -4.555  1.00  0.00    -0.258 OA
ATOM     15  O   UNL     1       7.726  -2.346  -5.223  1.00  0.00    -0.258 OA
ENDBRANCH  11  13
ENDBRANCH   6   7
BRANCH   6  16
ATOM     16  N   UNL     1       2.805  -1.553  -1.060  1.00  0.00    -0.348 N 
ATOM     17  C   UNL     1       1.837  -0.756  -0.523  1.00  0.00     0.226 C 
ATOM     18  H   UNL     1       2.817  -2.463  -0.685  1.00  0.00     0.164 HD
ATOM     19  O   UNL     1       1.365  -1.188   0.537  1.00  0.00    -0.274 OA
BRANCH  17  20
ATOM     20  C   UNL     1       1.308   0.555  -1.156  1.00  0.00     0.050 C 
ATOM     21  C   UNL     1       0.333   1.248  -0.146  1.00  0.00     0.020 C 
ATOM     22  C   UNL     1       0.497   0.246  -2.434  1.00  0.00     0.020 C 
ATOM     23  C   UNL     1       2.400   1.591  -1.481  1.00  0.00     0.020 C 
ATOM     24  C   UNL     1      -0.266   2.543  -0.727  1.00  0.00    -0.010 C 
ATOM     25  C   UNL     1      -0.100   1.535  -3.031  1.00  0.00    -0.010 C 
ATOM     26  C   UNL     1       1.801   2.869  -2.078  1.00  0.00    -0.010 C 
ATOM     27  C   UNL     1       0.866   3.520  -1.060  1.00  0.00     0.007 C 
ATOM     28  C   UNL     1      -1.036   2.209  -2.015  1.00  0.00     0.007 C 
ATOM     29  C   UNL     1       1.037   2.507  -3.358  1.00  0.00     0.007 C 
ENDBRANCH  17  20
ENDBRANCH   6  16
ENDBRANCH   5   6
ENDBRANCH   3   5
ENDBRANCH   2   3
ENDBRANCH   1   2
BRANCH   1  30
ATOM     30  C   UNL     1       5.736   0.108   2.023  1.00  0.00     0.275 C 
BRANCH  30  31
ATOM     31  O   UNL     1       5.489   1.258   1.193  1.00  0.00    -0.458 OA
BRANCH  31  32
ATOM     32  C   UNL     1       6.553   1.770   0.520  1.00  0.00     0.338 C 
ATOM     33  O   UNL     1       7.705   1.381   0.582  1.00  0.00    -0.246 OA
BRANCH  32  34
ATOM     34  C   UNL     1       6.063   2.775  -0.453  1.00  0.00     0.060 A 
ATOM     35  C   UNL     1       6.563   2.767  -1.765  1.00  0.00     0.016 A 
ATOM     36  C   UNL     1       5.094   3.706  -0.083  1.00  0.00     0.016 A 
ATOM     37  C   UNL     1       6.096   3.694  -2.712  1.00  0.00     0.010 A 
ATOM     38  C   UNL     1       4.636   4.628  -1.025  1.00  0.00     0.010 A 
ATOM     39  C   UNL     1       5.139   4.646  -2.345  1.00  0.00    -0.014 A 
BRANCH  39  40
ATOM     40  C   UNL     1       4.734   5.781  -3.224  1.00  0.00     0.031 A 
ATOM     41  C   UNL     1       5.156   7.163  -2.806  1.00  0.00     0.074 A 
ATOM     42  C   UNL     1       3.904   5.643  -4.277  1.00  0.00     0.049 A 
ATOM     43  N   UNL     1       4.744   8.325  -3.236  1.00  0.00    -0.248 NA
ATOM     44  C   UNL     1       6.171   7.234  -1.741  1.00  0.00     0.031 C 
ATOM     45  C   UNL     1       3.431   4.382  -4.838  1.00  0.00     0.029 A 
ATOM     46  N   UNL     1       3.237   6.600  -5.012  1.00  0.00    -0.354 N 
ATOM     47  C   UNL     1       5.432   9.265  -2.481  1.00  0.00     0.074 A 
ATOM     48  C   UNL     1       6.238   8.537  -1.525  1.00  0.00     0.031 C 
ATOM     49  C   UNL     1       2.464   4.636  -5.740  1.00  0.00     0.029 A 
ATOM     50  C   UNL     1       2.253   6.078  -5.824  1.00  0.00     0.049 A 
ATOM     51  H   UNL     1       3.443   7.561  -4.962  1.00  0.00     0.167 HD
ATOM     52  C   UNL     1       5.439  10.613  -2.599  1.00  0.00     0.034 A 
ATOM     53  C   UNL     1       1.274   6.687  -6.526  1.00  0.00     0.034 A 
ATOM     54  C   UNL     1       4.678  11.344  -3.570  1.00  0.00     0.049 A 
ATOM     55  C   UNL     1       1.231   8.194  -6.591  1.00  0.00     0.074 A 
ATOM     56  C   UNL     1       4.691  12.702  -3.828  1.00  0.00     0.029 A 
ATOM     57  N   UNL     1       3.758  10.778  -4.436  1.00  0.00    -0.354 N 
ATOM     58  N   UNL     1       2.005   9.066  -5.993  1.00  0.00    -0.248 NA
ATOM     59  C   UNL     1       0.229   8.800  -7.484  1.00  0.00     0.031 C 
ATOM     60  C   UNL     1       3.762  12.960  -4.842  1.00  0.00     0.029 A 
ATOM     61  C   UNL     1       3.189  11.759  -5.227  1.00  0.00     0.049 A 
ATOM     62  H   UNL     1       3.540   9.819  -4.482  1.00  0.00     0.167 HD
ATOM     63  C   UNL     1       1.645  10.310  -6.503  1.00  0.00     0.074 A 
ATOM     64  C   UNL     1       0.563  10.084  -7.437  1.00  0.00     0.031 C 
ATOM     65  C   UNL     1       2.178  11.525  -6.226  1.00  0.00     0.034 A 
BRANCH  52  66
ATOM     66  C   UNL     1       6.359  11.365  -1.679  1.00  0.00     0.023 A 
ATOM     67  C   UNL     1       7.753  11.277  -1.875  1.00  0.00     0.012 A 
ATOM     68  C   UNL     1       5.854  12.140  -0.620  1.00  0.00     0.148 A 
ATOM     69  C   UNL     1       8.633  11.902  -0.996  1.00  0.00     0.002 A 
ATOM     70  C   UNL     1       6.737  12.799   0.225  1.00  0.00     0.091 A 
ATOM     71  F   UNL     1       4.527  12.188  -0.435  1.00  0.00    -0.205 F 
ATOM     72  C   UNL     1       8.126  12.668   0.049  1.00  0.00     0.022 A 
BRANCH  70  73
ATOM     73  S   UNL     1       6.175  13.865   1.555  1.00  0.00     0.127 S 
ATOM     74  O   UNL     1       6.390  13.016   2.725  1.00  0.00    -0.237 OA
ATOM     75  O   UNL     1       7.090  15.002   1.450  1.00  0.00    -0.237 OA
ATOM     76  O   UNL     1       4.786  14.179   1.250  1.00  0.00    -0.744 OA
ENDBRANCH  70  73
ENDBRANCH  52  66
BRANCH  53  77
ATOM     77  C   UNL     1       0.276   5.880  -7.287  1.00  0.00     0.023 A 
ATOM     78  C   UNL     1       0.368   5.815  -8.690  1.00  0.00     0.012 A 
ATOM     79  C   UNL     1      -0.772   5.201  -6.634  1.00  0.00     0.148 A 
ATOM     80  C   UNL     1      -0.587   5.123  -9.436  1.00  0.00     0.002 A 
ATOM     81  C   UNL     1      -1.702   4.483  -7.381  1.00  0.00     0.091 A 
ATOM     82  F   UNL     1      -0.841   5.275  -5.297  1.00  0.00    -0.205 F 
ATOM     83  C   UNL     1      -1.620   4.457  -8.782  1.00  0.00     0.022 A 
BRANCH  81  84
ATOM     84  S   UNL     1      -3.028   3.526  -6.635  1.00  0.00     0.127 S 
ATOM     85  O   UNL     1      -4.215   4.191  -7.168  1.00  0.00    -0.237 OA
ATOM     86  O   UNL     1      -2.772   2.192  -7.178  1.00  0.00    -0.237 OA
ATOM     87  O   UNL     1      -2.840   3.642  -5.195  1.00  0.00    -0.744 OA
ENDBRANCH  81  84
ENDBRANCH  53  77
BRANCH  65  88
ATOM     88  C   UNL     1       1.696  12.720  -7.005  1.00  0.00     0.023 A 
ATOM     89  C   UNL     1       0.444  13.296  -6.721  1.00  0.00     0.012 A 
ATOM     90  C   UNL     1       2.553  13.347  -7.934  1.00  0.00     0.148 A 
ATOM     91  C   UNL     1       0.048  14.474  -7.357  1.00  0.00     0.002 A 
ATOM     92  C   UNL     1       2.173  14.546  -8.525  1.00  0.00     0.091 A 
ATOM     93  F   UNL     1       3.732  12.769  -8.207  1.00  0.00    -0.205 F 
ATOM     94  C   UNL     1       0.917  15.107  -8.244  1.00  0.00     0.022 A 
BRANCH  92  95
ATOM     95  S   UNL     1       3.272  15.483  -9.594  1.00  0.00     0.127 S 
ATOM     96  O   UNL     1       2.651  15.291 -10.903  1.00  0.00    -0.237 OA
ATOM     97  O   UNL     1       3.150  16.838  -9.054  1.00  0.00    -0.237 OA
ATOM     98  O   UNL     1       4.592  14.887  -9.436  1.00  0.00    -0.744 OA
ENDBRANCH  92  95
ENDBRANCH  65  88
ENDBRANCH  39  40
ENDBRANCH  32  34
ENDBRANCH  31  32
ENDBRANCH  30  31
ENDBRANCH   1  30
TORSDOF 19
