REMARK SMILES Cc1cc(-n2cnc(C(=O)OCCOC(=O)c3ccc(-c4c5nc(c(-c6cccc(S(=O)(=O)[O-])c6F)c6ccc([nH]6)c(-c6cccc(S(=O)(=O)[O-])c6F)c6nc(c(-c7cccc(S(=O)(=O)[O-])c7F)c7ccc4[nH]7)C=C6)C=C5)cc3)c2)nc(Cl)n1
REMARK SMILES IDX 13 1 12 2 11 3 9 4 10 5 8 6 5 7 6 8 80 9 7 10 4 11 1 12 2 13
REMARK SMILES IDX 3 14 84 15 82 16 81 17 83 18 14 19 15 20 16 21 17 22 18 23
REMARK SMILES IDX 79 24 19 25 78 26 20 27 21 28 22 29 72 30 23 31 77 32 71 33
REMARK SMILES IDX 73 34 24 35 76 36 70 37 69 38 25 40 57 41 37 42 56 43 38 44
REMARK SMILES IDX 41 45 55 46 74 47 39 48 40 49 54 51 75 52 42 53 26 54 27 55
REMARK SMILES IDX 35 56 28 57 30 58 36 59 29 60 31 61 32 62 33 63 34 64 58 65
REMARK SMILES IDX 59 66 67 67 60 68 62 69 68 70 61 71 63 72 64 73 65 74 66 75
REMARK SMILES IDX 43 76 44 77 52 78 45 79 47 80 53 81 46 82 48 83 49 84 50 85
REMARK SMILES IDX 51 86
REMARK H PARENT 73 39 41 50
REMARK Flexibility Score: inf
ROOT
ATOM      1  C   UNL     1       5.888  -8.129   1.387  1.00  0.00     0.275 C 
ENDROOT
BRANCH   1   2
ATOM      2  C   UNL     1       5.605  -7.368   0.096  1.00  0.00     0.275 C 
BRANCH   2   3
ATOM      3  O   UNL     1       4.473  -6.491   0.225  1.00  0.00    -0.457 OA
BRANCH   3   4
ATOM      4  C   UNL     1       3.241  -7.055  -0.002  1.00  0.00     0.358 C 
ATOM      5  O   UNL     1       3.071  -8.131  -0.566  1.00  0.00    -0.244 OA
BRANCH   4   6
ATOM      6  C   UNL     1       2.162  -6.242   0.563  1.00  0.00     0.166 A 
ATOM      7  N   UNL     1       1.042  -4.555   1.430  1.00  0.00    -0.289 N 
ATOM      8  C   UNL     1       0.320  -5.713   1.556  1.00  0.00     0.206 A 
ATOM      9  C   UNL     1       2.247  -4.900   0.872  1.00  0.00     0.130 A 
ATOM     10  N   UNL     1       0.922  -6.723   0.958  1.00  0.00    -0.229 NA
BRANCH   7  11
ATOM     11  C   UNL     1       0.614  -3.242   1.728  1.00  0.00     0.143 A 
ATOM     12  C   UNL     1       0.959   0.156   0.223  1.00  0.00     0.067 C 
ATOM     13  C   UNL     1       0.609  -0.958   1.164  1.00  0.00     0.044 A 
ATOM     14  C   UNL     1       1.086  -2.225   0.913  1.00  0.00     0.071 A 
ATOM     15  N   UNL     1      -0.206  -0.693   2.198  1.00  0.00    -0.223 NA
ATOM     16  C   UNL     1      -0.580  -1.754   2.936  1.00  0.00     0.224 A 
ATOM     17  N   UNL     1      -0.260  -3.038   2.730  1.00  0.00    -0.200 NA
ATOM     18  Cl  UNL     1      -1.537  -1.411   4.306  1.00  0.00    -0.041 Cl
ENDBRANCH   7  11
ENDBRANCH   4   6
ENDBRANCH   3   4
ENDBRANCH   2   3
ENDBRANCH   1   2
BRANCH   1  19
ATOM     19  O   UNL     1       4.836  -9.039   1.700  1.00  0.00    -0.458 OA
BRANCH  19  20
ATOM     20  C   UNL     1       3.908  -8.532   2.543  1.00  0.00     0.338 C 
ATOM     21  O   UNL     1       3.742  -7.356   2.828  1.00  0.00    -0.246 OA
BRANCH  20  22
ATOM     22  C   UNL     1       3.256  -9.619   3.266  1.00  0.00     0.060 A 
ATOM     23  C   UNL     1       2.057  -9.330   3.923  1.00  0.00     0.016 A 
ATOM     24  C   UNL     1       4.015 -10.762   3.551  1.00  0.00     0.016 A 
ATOM     25  C   UNL     1       1.696 -10.117   4.995  1.00  0.00     0.010 A 
ATOM     26  C   UNL     1       3.671 -11.524   4.638  1.00  0.00     0.010 A 
ATOM     27  C   UNL     1       2.551 -11.155   5.381  1.00  0.00    -0.014 A 
BRANCH  27  28
ATOM     28  C   UNL     1       2.192 -11.941   6.539  1.00  0.00     0.031 A 
ATOM     29  C   UNL     1       1.151 -12.953   6.248  1.00  0.00     0.074 A 
ATOM     30  C   UNL     1       2.860 -11.841   7.702  1.00  0.00     0.049 A 
ATOM     31  N   UNL     1      -0.058 -13.000   6.701  1.00  0.00    -0.248 NA
ATOM     32  C   UNL     1       1.443 -13.938   5.192  1.00  0.00     0.031 C 
ATOM     33  C   UNL     1       4.100 -11.104   7.965  1.00  0.00     0.029 A 
ATOM     34  N   UNL     1       2.646 -12.511   8.866  1.00  0.00    -0.354 N 
ATOM     35  C   UNL     1      -0.593 -14.167   6.164  1.00  0.00     0.074 A 
ATOM     36  C   UNL     1       0.280 -14.579   5.097  1.00  0.00     0.031 C 
ATOM     37  C   UNL     1       4.650 -11.564   9.112  1.00  0.00     0.029 A 
ATOM     38  C   UNL     1       3.749 -12.529   9.716  1.00  0.00     0.049 A 
ATOM     39  H   UNL     1       1.790 -12.943   9.087  1.00  0.00     0.167 HD
ATOM     40  C   UNL     1      -1.542 -14.883   6.819  1.00  0.00     0.034 A 
ATOM     41  C   UNL     1       3.921 -13.369  10.767  1.00  0.00     0.034 A 
ATOM     42  C   UNL     1      -2.187 -14.124   7.851  1.00  0.00     0.049 A 
ATOM     43  C   UNL     1       2.574 -13.882  11.123  1.00  0.00     0.074 A 
ATOM     44  C   UNL     1      -2.916 -12.954   7.892  1.00  0.00     0.029 A 
ATOM     45  N   UNL     1      -1.780 -14.375   9.137  1.00  0.00    -0.354 N 
ATOM     46  N   UNL     1       1.608 -13.144  11.594  1.00  0.00    -0.248 NA
ATOM     47  C   UNL     1       2.174 -15.174  10.588  1.00  0.00     0.031 C 
ATOM     48  C   UNL     1      -2.539 -12.330   9.115  1.00  0.00     0.029 A 
ATOM     49  C   UNL     1      -1.632 -13.170   9.767  1.00  0.00     0.049 A 
ATOM     50  H   UNL     1      -1.624 -15.262   9.535  1.00  0.00     0.167 HD
ATOM     51  C   UNL     1       0.457 -13.681  11.033  1.00  0.00     0.074 A 
ATOM     52  C   UNL     1       0.854 -14.991  10.526  1.00  0.00     0.031 C 
ATOM     53  C   UNL     1      -0.631 -12.900  10.775  1.00  0.00     0.034 A 
BRANCH  40  54
ATOM     54  C   UNL     1      -1.596 -16.384   6.783  1.00  0.00     0.023 A 
ATOM     55  C   UNL     1      -2.780 -17.017   7.204  1.00  0.00     0.012 A 
ATOM     56  C   UNL     1      -0.453 -17.197   6.601  1.00  0.00     0.148 A 
ATOM     57  C   UNL     1      -2.823 -18.398   7.428  1.00  0.00     0.002 A 
ATOM     58  C   UNL     1      -0.525 -18.575   6.730  1.00  0.00     0.091 A 
ATOM     59  F   UNL     1       0.750 -16.630   6.443  1.00  0.00    -0.205 F 
ATOM     60  C   UNL     1      -1.702 -19.181   7.169  1.00  0.00     0.022 A 
BRANCH  58  61
ATOM     61  S   UNL     1       0.883 -19.619   6.342  1.00  0.00     0.127 S 
ATOM     62  O   UNL     1       1.372 -19.959   7.674  1.00  0.00    -0.237 OA
ATOM     63  O   UNL     1       0.250 -20.718   5.612  1.00  0.00    -0.237 OA
ATOM     64  O   UNL     1       1.759 -18.790   5.522  1.00  0.00    -0.744 OA
ENDBRANCH  58  61
ENDBRANCH  40  54
BRANCH  41  65
ATOM     65  C   UNL     1       5.155 -14.006  11.303  1.00  0.00     0.023 A 
ATOM     66  C   UNL     1       5.074 -14.710  12.525  1.00  0.00     0.012 A 
ATOM     67  C   UNL     1       6.313 -14.194  10.515  1.00  0.00     0.148 A 
ATOM     68  C   UNL     1       6.066 -15.620  12.911  1.00  0.00     0.002 A 
ATOM     69  C   UNL     1       7.307 -15.087  10.912  1.00  0.00     0.091 A 
ATOM     70  F   UNL     1       6.403 -13.581   9.329  1.00  0.00    -0.205 F 
ATOM     71  C   UNL     1       7.177 -15.818  12.099  1.00  0.00     0.022 A 
BRANCH  69  72
ATOM     72  S   UNL     1       8.773 -15.385   9.912  1.00  0.00     0.127 S 
ATOM     73  O   UNL     1       9.832 -15.429  10.922  1.00  0.00    -0.237 OA
ATOM     74  O   UNL     1       8.465 -16.670   9.294  1.00  0.00    -0.237 OA
ATOM     75  O   UNL     1       8.867 -14.247   9.005  1.00  0.00    -0.744 OA
ENDBRANCH  69  72
ENDBRANCH  41  65
BRANCH  53  76
ATOM     76  C   UNL     1      -0.682 -11.523  11.378  1.00  0.00     0.023 A 
ATOM     77  C   UNL     1       0.130 -10.470  10.908  1.00  0.00     0.012 A 
ATOM     78  C   UNL     1      -1.749 -11.237  12.245  1.00  0.00     0.148 A 
ATOM     79  C   UNL     1      -0.131  -9.151  11.289  1.00  0.00     0.002 A 
ATOM     80  C   UNL     1      -2.032  -9.922  12.584  1.00  0.00     0.091 A 
ATOM     81  F   UNL     1      -2.510 -12.260  12.663  1.00  0.00    -0.205 F 
ATOM     82  C   UNL     1      -1.223  -8.875  12.112  1.00  0.00     0.022 A 
BRANCH  80  83
ATOM     83  S   UNL     1      -3.496  -9.482  13.523  1.00  0.00     0.127 S 
ATOM     84  O   UNL     1      -2.920  -8.883  14.726  1.00  0.00    -0.237 OA
ATOM     85  O   UNL     1      -4.162  -8.537  12.627  1.00  0.00    -0.237 OA
ATOM     86  O   UNL     1      -4.229 -10.723  13.744  1.00  0.00    -0.744 OA
ENDBRANCH  80  83
ENDBRANCH  53  76
ENDBRANCH  27  28
ENDBRANCH  20  22
ENDBRANCH  19  20
ENDBRANCH   1  19
TORSDOF 15
