REMARK SMILES CN(Cc1ccc(Cl)cc1Cl)S(=O)(=O)CCCC(=O)OCCOC(=O)c1ccc(-c2c3nc(c(-c4cccc(S(=O)(=O)[O-])c4F)c4ccc([nH]4)c(-c4cccc(S(=O)(=O)[O-])c4F)c4nc(c(-c5cccc(S(=O)(=O)[O-])c5F)c5ccc2[nH]5)C=C4)C=C3)cc1
REMARK SMILES IDX 20 1 18 2 19 3 17 4 16 5 15 6 12 7 13 8 14 9 2 10 1 11 3 12
REMARK SMILES IDX 4 13 5 14 10 15 6 16 9 17 11 18 7 19 8 20 21 21 22 22 23 23
REMARK SMILES IDX 24 24 25 25 26 26 27 27 88 28 28 29 87 30 29 31 30 32 31 33
REMARK SMILES IDX 81 34 32 35 86 36 80 37 82 38 33 39 85 40 79 41 78 42 34 44
REMARK SMILES IDX 66 45 46 46 65 47 47 48 50 49 64 50 83 51 48 52 49 53 63 55
REMARK SMILES IDX 84 56 51 57 35 58 36 59 44 60 37 61 39 62 45 63 38 64 40 65
REMARK SMILES IDX 41 66 42 67 43 68 67 69 68 70 76 71 69 72 71 73 77 74 70 75
REMARK SMILES IDX 72 76 73 77 74 78 75 79 52 80 53 81 61 82 54 83 56 84 62 85
REMARK SMILES IDX 55 86 57 87 58 88 59 89 60 90
REMARK H PARENT 82 43 50 54
REMARK Flexibility Score: inf
ROOT
ATOM      1  O   UNL     1      -1.600  -3.982  -0.035  1.00  0.00    -0.462 OA
ENDROOT
BRANCH   1   2
ATOM      2  C   UNL     1      -0.816  -3.621   1.016  1.00  0.00     0.305 C 
ATOM      3  O   UNL     1      -1.243  -3.191   2.079  1.00  0.00    -0.252 OA
BRANCH   2   4
ATOM      4  C   UNL     1       0.672  -3.727   0.721  1.00  0.00     0.124 C 
BRANCH   4   5
ATOM      5  C   UNL     1       1.080  -4.294  -0.637  1.00  0.00     0.029 C 
BRANCH   5   6
ATOM      6  C   UNL     1       0.704  -3.469  -1.865  1.00  0.00     0.155 C 
BRANCH   6   7
ATOM      7  S   UNL     1       1.451  -1.845  -1.959  1.00  0.00     0.214 S 
ATOM      8  O   UNL     1       1.032  -1.228  -3.201  1.00  0.00    -0.212 OA
ATOM      9  O   UNL     1       2.861  -2.005  -1.679  1.00  0.00    -0.212 OA
BRANCH   7  10
ATOM     10  N   UNL     1       0.764  -0.985  -0.682  1.00  0.00    -0.201 NA
ATOM     11  C   UNL     1       1.604   0.091  -0.124  1.00  0.00     0.124 C 
BRANCH  10  12
ATOM     12  C   UNL     1      -0.692  -0.727  -0.586  1.00  0.00     0.138 C 
BRANCH  12  13
ATOM     13  C   UNL     1      -1.347   0.012  -1.719  1.00  0.00    -0.014 A 
ATOM     14  C   UNL     1      -1.909  -0.739  -2.771  1.00  0.00     0.008 A 
ATOM     15  C   UNL     1      -1.399   1.409  -1.792  1.00  0.00     0.047 A 
ATOM     16  C   UNL     1      -2.413  -0.113  -3.907  1.00  0.00     0.021 A 
ATOM     17  C   UNL     1      -1.906   2.038  -2.930  1.00  0.00     0.041 A 
ATOM     18  Cl  UNL     1      -0.888   2.421  -0.489  1.00  0.00    -0.084 Cl
ATOM     19  C   UNL     1      -2.387   1.274  -3.990  1.00  0.00     0.042 A 
ATOM     20  Cl  UNL     1      -2.954   2.051  -5.415  1.00  0.00    -0.084 Cl
ENDBRANCH  12  13
ENDBRANCH  10  12
ENDBRANCH   7  10
ENDBRANCH   6   7
ENDBRANCH   5   6
ENDBRANCH   4   5
ENDBRANCH   2   4
ENDBRANCH   1   2
BRANCH   1  21
ATOM     21  C   UNL     1      -3.030  -3.826   0.111  1.00  0.00     0.274 C 
BRANCH  21  22
ATOM     22  C   UNL     1      -3.744  -5.174   0.005  1.00  0.00     0.275 C 
BRANCH  22  23
ATOM     23  O   UNL     1      -3.336  -6.043   1.073  1.00  0.00    -0.458 OA
BRANCH  23  24
ATOM     24  C   UNL     1      -2.234  -6.775   0.790  1.00  0.00     0.338 C 
ATOM     25  O   UNL     1      -1.653  -6.855  -0.281  1.00  0.00    -0.246 OA
BRANCH  24  26
ATOM     26  C   UNL     1      -1.672  -7.312   2.032  1.00  0.00     0.060 A 
ATOM     27  C   UNL     1      -0.460  -6.770   2.454  1.00  0.00     0.016 A 
ATOM     28  C   UNL     1      -2.239  -8.389   2.703  1.00  0.00     0.016 A 
ATOM     29  C   UNL     1       0.230  -7.321   3.516  1.00  0.00     0.010 A 
ATOM     30  C   UNL     1      -1.556  -8.935   3.795  1.00  0.00     0.010 A 
ATOM     31  C   UNL     1      -0.304  -8.423   4.186  1.00  0.00    -0.014 A 
BRANCH  31  32
ATOM     32  C   UNL     1       0.515  -9.069   5.235  1.00  0.00     0.031 A 
ATOM     33  C   UNL     1       1.062 -10.448   5.004  1.00  0.00     0.074 A 
ATOM     34  C   UNL     1       0.812  -8.388   6.357  1.00  0.00     0.049 A 
ATOM     35  N   UNL     1       1.752 -11.206   5.813  1.00  0.00    -0.248 NA
ATOM     36  C   UNL     1       0.793 -11.059   3.691  1.00  0.00     0.031 C 
ATOM     37  C   UNL     1       0.355  -7.030   6.665  1.00  0.00     0.029 A 
ATOM     38  N   UNL     1       1.560  -8.744   7.447  1.00  0.00    -0.354 N 
ATOM     39  C   UNL     1       1.960 -12.398   5.131  1.00  0.00     0.074 A 
ATOM     40  C   UNL     1       1.312 -12.269   3.844  1.00  0.00     0.031 C 
ATOM     41  C   UNL     1       0.824  -6.672   7.870  1.00  0.00     0.029 A 
ATOM     42  C   UNL     1       1.563  -7.792   8.440  1.00  0.00     0.049 A 
ATOM     43  H   UNL     1       2.048  -9.596   7.514  1.00  0.00     0.167 HD
ATOM     44  C   UNL     1       2.642 -13.495   5.537  1.00  0.00     0.034 A 
ATOM     45  C   UNL     1       2.068  -7.838   9.687  1.00  0.00     0.034 A 
ATOM     46  C   UNL     1       3.304 -13.597   6.810  1.00  0.00     0.049 A 
ATOM     47  C   UNL     1       2.804  -9.075  10.117  1.00  0.00     0.074 A 
ATOM     48  C   UNL     1       4.034 -14.655   7.320  1.00  0.00     0.029 A 
ATOM     49  N   UNL     1       3.315 -12.601   7.777  1.00  0.00    -0.354 N 
ATOM     50  N   UNL     1       3.039 -10.174   9.441  1.00  0.00    -0.248 NA
ATOM     51  C   UNL     1       3.373  -9.066  11.471  1.00  0.00     0.031 C 
ATOM     52  C   UNL     1       4.463 -14.310   8.606  1.00  0.00     0.029 A 
ATOM     53  C   UNL     1       4.036 -13.020   8.882  1.00  0.00     0.049 A 
ATOM     54  H   UNL     1       2.875 -11.725   7.690  1.00  0.00     0.167 HD
ATOM     55  C   UNL     1       3.804 -10.978  10.275  1.00  0.00     0.074 A 
ATOM     56  C   UNL     1       4.024 -10.221  11.492  1.00  0.00     0.031 C 
ATOM     57  C   UNL     1       4.270 -12.235  10.067  1.00  0.00     0.034 A 
BRANCH  44  58
ATOM     58  C   UNL     1       2.715 -14.664   4.589  1.00  0.00     0.023 A 
ATOM     59  C   UNL     1       3.498 -14.575   3.421  1.00  0.00     0.012 A 
ATOM     60  C   UNL     1       2.041 -15.868   4.877  1.00  0.00     0.148 A 
ATOM     61  C   UNL     1       3.584 -15.651   2.537  1.00  0.00     0.002 A 
ATOM     62  C   UNL     1       2.170 -16.952   4.017  1.00  0.00     0.091 A 
ATOM     63  F   UNL     1       1.282 -15.927   5.981  1.00  0.00    -0.205 F 
ATOM     64  C   UNL     1       2.929 -16.842   2.841  1.00  0.00     0.022 A 
BRANCH  62  65
ATOM     65  S   UNL     1       1.430 -18.554   4.355  1.00  0.00     0.127 S 
ATOM     66  O   UNL     1       0.436 -18.651   3.286  1.00  0.00    -0.237 OA
ATOM     67  O   UNL     1       2.573 -19.455   4.208  1.00  0.00    -0.237 OA
ATOM     68  O   UNL     1       0.885 -18.472   5.702  1.00  0.00    -0.744 OA
ENDBRANCH  62  65
ENDBRANCH  44  58
BRANCH  45  69
ATOM     69  C   UNL     1       1.885  -6.682  10.608  1.00  0.00     0.023 A 
ATOM     70  C   UNL     1       2.998  -5.924  11.018  1.00  0.00     0.012 A 
ATOM     71  C   UNL     1       0.603  -6.321  11.067  1.00  0.00     0.148 A 
ATOM     72  C   UNL     1       2.842  -4.852  11.898  1.00  0.00     0.002 A 
ATOM     73  C   UNL     1       0.446  -5.214  11.891  1.00  0.00     0.091 A 
ATOM     74  F   UNL     1      -0.444  -7.063  10.678  1.00  0.00    -0.205 F 
ATOM     75  C   UNL     1       1.567  -4.490  12.325  1.00  0.00     0.022 A 
BRANCH  73  76
ATOM     76  S   UNL     1      -1.170  -4.596  12.372  1.00  0.00     0.127 S 
ATOM     77  O   UNL     1      -1.212  -4.941  13.790  1.00  0.00    -0.237 OA
ATOM     78  O   UNL     1      -1.044  -3.166  12.088  1.00  0.00    -0.237 OA
ATOM     79  O   UNL     1      -2.126  -5.293  11.522  1.00  0.00    -0.744 OA
ENDBRANCH  73  76
ENDBRANCH  45  69
BRANCH  57  80
ATOM     80  C   UNL     1       5.095 -12.849  11.168  1.00  0.00     0.023 A 
ATOM     81  C   UNL     1       4.486 -13.217  12.384  1.00  0.00     0.012 A 
ATOM     82  C   UNL     1       6.471 -13.085  10.984  1.00  0.00     0.148 A 
ATOM     83  C   UNL     1       5.244 -13.759  13.421  1.00  0.00     0.002 A 
ATOM     84  C   UNL     1       7.209 -13.679  12.000  1.00  0.00     0.091 A 
ATOM     85  F   UNL     1       7.037 -12.712   9.827  1.00  0.00    -0.205 F 
ATOM     86  C   UNL     1       6.602 -13.999  13.225  1.00  0.00     0.022 A 
BRANCH  84  87
ATOM     87  S   UNL     1       8.939 -14.116  11.800  1.00  0.00     0.127 S 
ATOM     88  O   UNL     1       9.598 -13.105  12.624  1.00  0.00    -0.237 OA
ATOM     89  O   UNL     1       8.981 -15.472  12.348  1.00  0.00    -0.237 OA
ATOM     90  O   UNL     1       9.210 -14.034  10.371  1.00  0.00    -0.744 OA
ENDBRANCH  84  87
ENDBRANCH  57  80
ENDBRANCH  31  32
ENDBRANCH  24  26
ENDBRANCH  23  24
ENDBRANCH  22  23
ENDBRANCH  21  22
ENDBRANCH   1  21
TORSDOF 20
