REMARK SMILES O=C(CNC(=O)c1ccco1)N[C@H]1C=C[C@@H](C(=O)OCCOC(=O)c2ccc(-c3c4nc(c(-c5cccc(S(=O)(=O)[O-])c5F)c5ccc([nH]5)c(-c5cccc(S(=O)(=O)[O-])c5F)c5nc(c(-c6cccc(S(=O)(=O)[O-])c6F)c6ccc3[nH]6)C=C5)C=C4)cc2)C1
REMARK SMILES IDX 20 1 19 2 17 3 18 4 16 5 13 6 14 7 88 8 15 9 12 10 1 11 2 12
REMARK SMILES IDX 3 14 4 15 5 16 6 18 7 19 8 20 11 21 9 22 10 23 21 24 22 25
REMARK SMILES IDX 23 26 24 27 25 28 26 29 87 30 27 31 86 32 28 33 29 34 30 35
REMARK SMILES IDX 80 36 31 37 85 38 79 39 81 40 32 41 84 42 78 43 77 44 33 46
REMARK SMILES IDX 65 47 45 48 64 49 46 50 49 51 63 52 82 53 47 54 48 55 62 57
REMARK SMILES IDX 83 58 50 59 34 60 35 61 43 62 36 63 38 64 44 65 37 66 39 67
REMARK SMILES IDX 40 68 41 69 42 70 66 71 67 72 75 73 68 74 70 75 76 76 69 77
REMARK SMILES IDX 71 78 72 79 73 80 74 81 51 82 52 83 60 84 53 85 55 86 61 87
REMARK SMILES IDX 54 88 56 89 57 90 58 91 59 92
REMARK H PARENT 12 13 4 17 81 45 49 56
REMARK Flexibility Score: inf
ROOT
ATOM      1  C   UNL     1       5.507   6.668   0.234  1.00  0.00     0.274 C 
ENDROOT
BRANCH   1   2
ATOM      2  O   UNL     1       4.661   5.524   0.455  1.00  0.00    -0.462 OA
BRANCH   2   3
ATOM      3  C   UNL     1       3.727   5.638   1.432  1.00  0.00     0.312 C 
ATOM      4  O   UNL     1       3.659   6.574   2.222  1.00  0.00    -0.252 OA
BRANCH   3   5
ATOM      5  C   UNL     1       2.752   4.470   1.476  1.00  0.00     0.124 C 
ATOM      6  C   UNL     1       2.271   2.176   0.870  1.00  0.00     0.106 C 
ATOM      7  C   UNL     1       2.768   2.270   2.279  1.00  0.00    -0.006 C 
ATOM      8  C   UNL     1       2.726   3.513   0.279  1.00  0.00     0.048 C 
ATOM      9  C   UNL     1       3.035   3.537   2.619  1.00  0.00    -0.014 C 
BRANCH   6  10
ATOM     10  N   UNL     1       2.875   1.040   0.226  1.00  0.00    -0.348 N 
ATOM     11  O   UNL     1       0.998  -0.278   0.325  1.00  0.00    -0.273 OA
ATOM     12  C   UNL     1       2.166  -0.115  -0.018  1.00  0.00     0.239 C 
ATOM     13  H   UNL     1       3.820   1.089  -0.047  1.00  0.00     0.164 HD
BRANCH  12  14
ATOM     14  C   UNL     1       2.997  -1.279  -0.560  1.00  0.00     0.216 C 
BRANCH  14  15
ATOM     15  N   UNL     1       4.051  -0.854  -1.469  1.00  0.00    -0.340 N 
ATOM     16  C   UNL     1       5.417  -0.929  -1.355  1.00  0.00     0.287 C 
ATOM     17  H   UNL     1       3.732  -0.443  -2.305  1.00  0.00     0.164 HD
ATOM     18  O   UNL     1       6.075  -0.323  -2.201  1.00  0.00    -0.266 OA
BRANCH  16  19
ATOM     19  C   UNL     1       6.019  -1.672  -0.269  1.00  0.00     0.191 A 
ATOM     20  C   UNL     1       5.713  -2.862   0.369  1.00  0.00     0.056 A 
ATOM     21  O   UNL     1       7.174  -1.168   0.272  1.00  0.00    -0.459 OA
ATOM     22  C   UNL     1       6.695  -3.061   1.370  1.00  0.00     0.043 A 
ATOM     23  C   UNL     1       7.564  -2.004   1.265  1.00  0.00     0.196 A 
ENDBRANCH  16  19
ENDBRANCH  14  15
ENDBRANCH  12  14
ENDBRANCH   6  10
ENDBRANCH   3   5
ENDBRANCH   2   3
ENDBRANCH   1   2
BRANCH   1  24
ATOM     24  C   UNL     1       5.207   7.293  -1.131  1.00  0.00     0.275 C 
BRANCH  24  25
ATOM     25  O   UNL     1       3.884   7.861  -1.175  1.00  0.00    -0.458 OA
BRANCH  25  26
ATOM     26  C   UNL     1       2.911   7.016  -1.591  1.00  0.00     0.338 C 
ATOM     27  O   UNL     1       3.042   5.855  -1.940  1.00  0.00    -0.246 OA
BRANCH  26  28
ATOM     28  C   UNL     1       1.595   7.656  -1.449  1.00  0.00     0.060 A 
ATOM     29  C   UNL     1       0.662   7.058  -0.598  1.00  0.00     0.016 A 
ATOM     30  C   UNL     1       1.247   8.772  -2.211  1.00  0.00     0.016 A 
ATOM     31  C   UNL     1      -0.632   7.566  -0.512  1.00  0.00     0.010 A 
ATOM     32  C   UNL     1      -0.053   9.283  -2.122  1.00  0.00     0.010 A 
ATOM     33  C   UNL     1      -1.004   8.674  -1.284  1.00  0.00    -0.014 A 
BRANCH  33  34
ATOM     34  C   UNL     1      -2.401   9.168  -1.237  1.00  0.00     0.031 A 
ATOM     35  C   UNL     1      -3.327   8.917  -2.394  1.00  0.00     0.074 A 
ATOM     36  C   UNL     1      -2.832   9.850  -0.159  1.00  0.00     0.049 A 
ATOM     37  N   UNL     1      -4.562   9.312  -2.562  1.00  0.00    -0.248 NA
ATOM     38  C   UNL     1      -2.795   8.119  -3.511  1.00  0.00     0.031 C 
ATOM     39  C   UNL     1      -2.025  10.155   1.023  1.00  0.00     0.029 A 
ATOM     40  N   UNL     1      -4.048  10.426   0.108  1.00  0.00    -0.354 N 
ATOM     41  C   UNL     1      -4.943   8.850  -3.816  1.00  0.00     0.074 A 
ATOM     42  C   UNL     1      -3.809   8.139  -4.367  1.00  0.00     0.031 C 
ATOM     43  C   UNL     1      -2.762  10.879   1.881  1.00  0.00     0.029 A 
ATOM     44  C   UNL     1      -4.080  11.115   1.298  1.00  0.00     0.049 A 
ATOM     45  H   UNL     1      -4.823  10.354  -0.494  1.00  0.00     0.167 HD
ATOM     46  C   UNL     1      -6.134   8.995  -4.444  1.00  0.00     0.034 A 
ATOM     47  C   UNL     1      -5.054  11.868   1.846  1.00  0.00     0.034 A 
ATOM     48  C   UNL     1      -7.274   9.659  -3.873  1.00  0.00     0.049 A 
ATOM     49  C   UNL     1      -6.367  12.005   1.124  1.00  0.00     0.074 A 
ATOM     50  C   UNL     1      -8.543   9.802  -4.409  1.00  0.00     0.029 A 
ATOM     51  N   UNL     1      -7.288  10.293  -2.641  1.00  0.00    -0.354 N 
ATOM     52  N   UNL     1      -6.750  11.459  -0.005  1.00  0.00    -0.248 NA
ATOM     53  C   UNL     1      -7.395  12.840   1.764  1.00  0.00     0.031 C 
ATOM     54  C   UNL     1      -9.319  10.535  -3.506  1.00  0.00     0.029 A 
ATOM     55  C   UNL     1      -8.538  10.837  -2.403  1.00  0.00     0.049 A 
ATOM     56  H   UNL     1      -6.521  10.349  -2.026  1.00  0.00     0.167 HD
ATOM     57  C   UNL     1      -8.068  11.856  -0.194  1.00  0.00     0.074 A 
ATOM     58  C   UNL     1      -8.428  12.670   0.949  1.00  0.00     0.031 C 
ATOM     59  C   UNL     1      -8.901  11.589  -1.230  1.00  0.00     0.034 A 
BRANCH  46  60
ATOM     60  C   UNL     1      -6.287   8.394  -5.814  1.00  0.00     0.023 A 
ATOM     61  C   UNL     1      -6.479   7.004  -5.945  1.00  0.00     0.012 A 
ATOM     62  C   UNL     1      -6.333   9.212  -6.960  1.00  0.00     0.148 A 
ATOM     63  C   UNL     1      -6.699   6.435  -7.199  1.00  0.00     0.002 A 
ATOM     64  C   UNL     1      -6.587   8.642  -8.202  1.00  0.00     0.091 A 
ATOM     65  F   UNL     1      -6.126  10.528  -6.814  1.00  0.00    -0.205 F 
ATOM     66  C   UNL     1      -6.764   7.254  -8.324  1.00  0.00     0.022 A 
BRANCH  64  67
ATOM     67  S   UNL     1      -6.758   9.618  -9.701  1.00  0.00     0.127 S 
ATOM     68  O   UNL     1      -5.544   9.254 -10.430  1.00  0.00    -0.237 OA
ATOM     69  O   UNL     1      -7.996   9.088 -10.274  1.00  0.00    -0.237 OA
ATOM     70  O   UNL     1      -6.834  11.007  -9.270  1.00  0.00    -0.744 OA
ENDBRANCH  64  67
ENDBRANCH  46  60
BRANCH  47  71
ATOM     71  C   UNL     1      -4.838  12.524   3.166  1.00  0.00     0.023 A 
ATOM     72  C   UNL     1      -5.560  12.074   4.289  1.00  0.00     0.012 A 
ATOM     73  C   UNL     1      -3.917  13.578   3.321  1.00  0.00     0.148 A 
ATOM     74  C   UNL     1      -5.390  12.681   5.534  1.00  0.00     0.002 A 
ATOM     75  C   UNL     1      -3.713  14.142   4.576  1.00  0.00     0.091 A 
ATOM     76  F   UNL     1      -3.257  14.014   2.238  1.00  0.00    -0.205 F 
ATOM     77  C   UNL     1      -4.459  13.707   5.680  1.00  0.00     0.022 A 
BRANCH  75  78
ATOM     78  S   UNL     1      -2.435  15.373   4.859  1.00  0.00     0.127 S 
ATOM     79  O   UNL     1      -3.200  16.616   4.816  1.00  0.00    -0.237 OA
ATOM     80  O   UNL     1      -1.935  15.004   6.185  1.00  0.00    -0.237 OA
ATOM     81  O   UNL     1      -1.471  15.173   3.786  1.00  0.00    -0.744 OA
ENDBRANCH  75  78
ENDBRANCH  47  71
BRANCH  59  82
ATOM     82  C   UNL     1     -10.295  12.154  -1.170  1.00  0.00     0.023 A 
ATOM     83  C   UNL     1     -10.498  13.527  -1.409  1.00  0.00     0.012 A 
ATOM     84  C   UNL     1     -11.406  11.316  -0.957  1.00  0.00     0.148 A 
ATOM     85  C   UNL     1     -11.786  14.063  -1.411  1.00  0.00     0.002 A 
ATOM     86  C   UNL     1     -12.689  11.848  -1.003  1.00  0.00     0.091 A 
ATOM     87  F   UNL     1     -11.190  10.015  -0.710  1.00  0.00    -0.205 F 
ATOM     88  C   UNL     1     -12.880  13.222  -1.220  1.00  0.00     0.022 A 
BRANCH  86  89
ATOM     89  S   UNL     1     -14.156  10.821  -0.860  1.00  0.00     0.127 S 
ATOM     90  O   UNL     1     -14.571  11.083   0.517  1.00  0.00    -0.237 OA
ATOM     91  O   UNL     1     -15.039  11.388  -1.881  1.00  0.00    -0.237 OA
ATOM     92  O   UNL     1     -13.716   9.460  -1.137  1.00  0.00    -0.744 OA
ENDBRANCH  86  89
ENDBRANCH  59  82
ENDBRANCH  33  34
ENDBRANCH  26  28
ENDBRANCH  25  26
ENDBRANCH  24  25
ENDBRANCH   1  24
TORSDOF 18
