REMARK SMILES Cc1ccc([C@H](C)NC(=O)[C@H]2[C@@H]3CC[C@@H](C3)[C@@H]2C(=O)OCCOC(=O)c2ccc(-c3c4nc(c(-c5cccc(S(=O)(=O)[O-])c5F)c5ccc([nH]5)c(-c5cccc(S(=O)(=O)[O-])c5F)c5nc(c(-c6cccc(S(=O)(=O)[O-])c6F)c6ccc3[nH]6)C=C5)C=C4)cc2)cc1
REMARK SMILES IDX 21 1 20 2 18 3 19 4 17 5 11 6 12 7 13 8 16 9 15 10 14 11
REMARK SMILES IDX 9 12 8 13 10 15 6 16 7 17 5 18 1 19 2 20 3 21 90 22 4 23
REMARK SMILES IDX 89 24 22 25 23 26 24 27 25 28 26 29 27 30 88 31 28 32 87 33
REMARK SMILES IDX 29 34 30 35 31 36 81 37 32 38 86 39 80 40 82 41 33 42 85 43
REMARK SMILES IDX 79 44 78 45 34 47 66 48 46 49 65 50 47 51 50 52 64 53 83 54
REMARK SMILES IDX 48 55 49 56 63 58 84 59 51 60 35 61 36 62 44 63 37 64 39 65
REMARK SMILES IDX 45 66 38 67 40 68 41 69 42 70 43 71 67 72 68 73 76 74 69 75
REMARK SMILES IDX 71 76 77 77 70 78 72 79 73 80 74 81 75 82 52 83 53 84 61 85
REMARK SMILES IDX 54 86 56 87 62 88 55 89 57 90 58 91 59 92 60 93
REMARK H PARENT 8 14 82 46 50 57
REMARK Flexibility Score: inf
ROOT
ATOM      1  C   UNL     1     -10.100   1.714  -0.005  1.00  0.00     0.274 C 
ENDROOT
BRANCH   1   2
ATOM      2  O   UNL     1      -8.767   1.224   0.140  1.00  0.00    -0.462 OA
BRANCH   2   3
ATOM      3  C   UNL     1      -7.676   1.903  -0.603  1.00  0.00     0.310 C 
ATOM      4  O   UNL     1      -8.236   2.321  -1.651  1.00  0.00    -0.252 OA
BRANCH   3   5
ATOM      5  C   UNL     1      -5.636   2.100   0.216  1.00  0.00     0.115 C 
ATOM      6  C   UNL     1      -4.870   1.473   1.761  1.00  0.00     0.096 C 
ATOM      7  C   UNL     1      -3.829   2.524   2.221  1.00  0.00     0.002 C 
ATOM      8  C   UNL     1      -4.566   3.767   2.760  1.00  0.00     0.005 C 
ATOM      9  C   UNL     1      -3.223   3.063   0.953  1.00  0.00     0.009 C 
ATOM     10  C   UNL     1      -4.555   3.557   0.356  1.00  0.00     0.004 C 
ATOM     11  C   UNL     1      -4.848   4.565   1.492  1.00  0.00     0.005 C 
BRANCH   6  12
ATOM     12  C   UNL     1      -4.304   0.031   1.967  1.00  0.00     0.224 C 
ATOM     13  N   UNL     1      -3.379  -0.631   1.242  1.00  0.00    -0.349 N 
ATOM     14  H   UNL     1      -3.179  -1.534   1.580  1.00  0.00     0.164 HD
ATOM     15  O   UNL     1      -4.681  -0.578   2.985  1.00  0.00    -0.275 OA
BRANCH  13  16
ATOM     16  C   UNL     1      -2.628  -0.267   0.069  1.00  0.00     0.109 C 
ATOM     17  C   UNL     1      -1.119  -0.239   0.310  1.00  0.00     0.036 C 
BRANCH  16  18
ATOM     18  C   UNL     1      -2.936  -1.113  -1.129  1.00  0.00    -0.026 A 
ATOM     19  C   UNL     1      -3.230  -2.960  -4.942  1.00  0.00     0.044 C 
ATOM     20  C   UNL     1      -3.148  -2.381  -3.584  1.00  0.00    -0.051 A 
ATOM     21  C   UNL     1      -3.460  -1.035  -3.481  1.00  0.00     0.004 A 
ATOM     22  C   UNL     1      -2.837  -3.129  -2.448  1.00  0.00     0.004 A 
ATOM     23  C   UNL     1      -3.338  -0.412  -2.268  1.00  0.00     0.006 A 
ATOM     24  C   UNL     1      -2.727  -2.493  -1.212  1.00  0.00     0.006 A 
ENDBRANCH  16  18
ENDBRANCH  13  16
ENDBRANCH   6  12
ENDBRANCH   3   5
ENDBRANCH   2   3
ENDBRANCH   1   2
BRANCH   1  25
ATOM     25  C   UNL     1     -10.253   3.118   0.595  1.00  0.00     0.275 C 
BRANCH  25  26
ATOM     26  O   UNL     1      -9.466   4.162  -0.015  1.00  0.00    -0.458 OA
BRANCH  26  27
ATOM     27  C   UNL     1      -8.293   4.593   0.535  1.00  0.00     0.338 C 
ATOM     28  O   UNL     1      -8.017   5.779   0.637  1.00  0.00    -0.246 OA
BRANCH  27  29
ATOM     29  C   UNL     1      -7.219   3.565   0.486  1.00  0.00     0.060 A 
ATOM     30  C   UNL     1      -7.300   2.045   1.429  1.00  0.00     0.016 A 
ATOM     31  C   UNL     1      -6.490   3.559  -1.143  1.00  0.00     0.016 A 
ATOM     32  C   UNL     1      -6.835   0.454   0.604  1.00  0.00     0.010 A 
ATOM     33  C   UNL     1      -6.007   2.029  -1.911  1.00  0.00     0.010 A 
ATOM     34  C   UNL     1      -6.312   0.454  -1.130  1.00  0.00    -0.014 A 
BRANCH  34  35
ATOM     35  C   UNL     1      -6.884  -0.570  -2.110  1.00  0.00     0.031 A 
ATOM     36  C   UNL     1      -6.706  -2.013  -1.827  1.00  0.00     0.074 A 
ATOM     37  C   UNL     1      -7.510  -0.231  -3.287  1.00  0.00     0.049 A 
ATOM     38  N   UNL     1      -6.794  -2.944  -2.715  1.00  0.00    -0.248 NA
ATOM     39  C   UNL     1      -6.305  -2.516  -0.523  1.00  0.00     0.031 C 
ATOM     40  C   UNL     1      -8.281  -1.070  -4.222  1.00  0.00     0.029 A 
ATOM     41  N   UNL     1      -7.471   0.988  -3.987  1.00  0.00    -0.354 N 
ATOM     42  C   UNL     1      -6.597  -4.158  -2.093  1.00  0.00     0.074 A 
ATOM     43  C   UNL     1      -6.228  -3.827  -0.748  1.00  0.00     0.031 C 
ATOM     44  C   UNL     1      -8.370  -0.461  -5.420  1.00  0.00     0.029 A 
ATOM     45  C   UNL     1      -7.570   0.741  -5.360  1.00  0.00     0.049 A 
ATOM     46  H   UNL     1      -7.386   1.878  -3.574  1.00  0.00     0.167 HD
ATOM     47  C   UNL     1      -6.849  -5.306  -2.776  1.00  0.00     0.034 A 
ATOM     48  C   UNL     1      -6.594   1.108  -6.245  1.00  0.00     0.034 A 
ATOM     49  C   UNL     1      -7.099  -4.995  -4.198  1.00  0.00     0.049 A 
ATOM     50  C   UNL     1      -6.002  -0.085  -6.988  1.00  0.00     0.074 A 
ATOM     51  C   UNL     1      -8.234  -4.616  -4.893  1.00  0.00     0.029 A 
ATOM     52  N   UNL     1      -6.029  -4.676  -5.022  1.00  0.00    -0.354 N 
ATOM     53  N   UNL     1      -6.293  -1.335  -6.726  1.00  0.00    -0.248 NA
ATOM     54  C   UNL     1      -5.053   0.026  -8.090  1.00  0.00     0.031 C 
ATOM     55  C   UNL     1      -7.820  -3.987  -6.107  1.00  0.00     0.029 A 
ATOM     56  C   UNL     1      -6.437  -4.042  -6.200  1.00  0.00     0.049 A 
ATOM     57  H   UNL     1      -5.090  -4.874  -4.803  1.00  0.00     0.167 HD
ATOM     58  C   UNL     1      -5.516  -2.188  -7.473  1.00  0.00     0.074 A 
ATOM     59  C   UNL     1      -4.829  -1.270  -8.377  1.00  0.00     0.031 C 
ATOM     60  C   UNL     1      -5.450  -3.545  -7.199  1.00  0.00     0.034 A 
BRANCH  47  61
ATOM     61  C   UNL     1      -7.105  -6.680  -2.151  1.00  0.00     0.023 A 
ATOM     62  C   UNL     1      -7.694  -7.639  -3.005  1.00  0.00     0.012 A 
ATOM     63  C   UNL     1      -6.936  -7.095  -0.800  1.00  0.00     0.148 A 
ATOM     64  C   UNL     1      -8.155  -8.881  -2.550  1.00  0.00     0.002 A 
ATOM     65  C   UNL     1      -7.402  -8.335  -0.339  1.00  0.00     0.091 A 
ATOM     66  F   UNL     1      -6.316  -6.313   0.080  1.00  0.00    -0.205 F 
ATOM     67  C   UNL     1      -8.026  -9.225  -1.214  1.00  0.00     0.022 A 
BRANCH  65  68
ATOM     68  S   UNL     1      -7.286  -8.865   1.387  1.00  0.00     0.127 S 
ATOM     69  O   UNL     1      -8.694  -9.038   1.749  1.00  0.00    -0.237 OA
ATOM     70  O   UNL     1      -6.532 -10.114   1.283  1.00  0.00    -0.237 OA
ATOM     71  O   UNL     1      -6.604  -7.798   2.108  1.00  0.00    -0.744 OA
ENDBRANCH  65  68
ENDBRANCH  47  61
BRANCH  48  72
ATOM     72  C   UNL     1      -5.920   2.409  -5.894  1.00  0.00     0.023 A 
ATOM     73  C   UNL     1      -6.771   3.538  -5.749  1.00  0.00     0.012 A 
ATOM     74  C   UNL     1      -4.632   2.480  -5.333  1.00  0.00     0.148 A 
ATOM     75  C   UNL     1      -6.435   4.600  -4.903  1.00  0.00     0.002 A 
ATOM     76  C   UNL     1      -4.294   3.554  -4.497  1.00  0.00     0.091 A 
ATOM     77  F   UNL     1      -3.796   1.452  -5.516  1.00  0.00    -0.205 F 
ATOM     78  C   UNL     1      -5.207   4.592  -4.252  1.00  0.00     0.022 A 
BRANCH  76  79
ATOM     79  S   UNL     1      -2.749   3.575  -3.567  1.00  0.00     0.127 S 
ATOM     80  O   UNL     1      -2.522   5.004  -3.351  1.00  0.00    -0.237 OA
ATOM     81  O   UNL     1      -3.092   2.843  -2.356  1.00  0.00    -0.237 OA
ATOM     82  O   UNL     1      -1.787   2.936  -4.453  1.00  0.00    -0.744 OA
ENDBRANCH  76  79
ENDBRANCH  48  72
BRANCH  60  83
ATOM     83  C   UNL     1      -4.354  -4.504  -7.729  1.00  0.00     0.023 A 
ATOM     84  C   UNL     1      -3.334  -4.098  -8.611  1.00  0.00     0.012 A 
ATOM     85  C   UNL     1      -4.236  -5.848  -7.269  1.00  0.00     0.148 A 
ATOM     86  C   UNL     1      -2.287  -4.937  -9.021  1.00  0.00     0.002 A 
ATOM     87  C   UNL     1      -3.143  -6.652  -7.600  1.00  0.00     0.091 A 
ATOM     88  F   UNL     1      -5.201  -6.391  -6.519  1.00  0.00    -0.205 F 
ATOM     89  C   UNL     1      -2.177  -6.209  -8.497  1.00  0.00     0.022 A 
BRANCH  87  90
ATOM     90  S   UNL     1      -2.869  -8.252  -6.822  1.00  0.00     0.127 S 
ATOM     91  O   UNL     1      -3.299  -9.168  -7.876  1.00  0.00    -0.237 OA
ATOM     92  O   UNL     1      -1.425  -8.232  -6.581  1.00  0.00    -0.237 OA
ATOM     93  O   UNL     1      -3.678  -8.238  -5.612  1.00  0.00    -0.744 OA
ENDBRANCH  87  90
ENDBRANCH  60  83
ENDBRANCH  34  35
ENDBRANCH  27  29
ENDBRANCH  26  27
ENDBRANCH  25  26
ENDBRANCH   1  25
TORSDOF 17
