REMARK SMILES CC(C)C[C@H](Nc1ncnc2scc(-c3ccccc3)c12)C(=O)OCCOC(=O)c1ccc(-c2c3nc(c(-c4cccc(S(=O)(=O)[O-])c4F)c4ccc([nH]4)c(-c4cccc(S(=O)(=O)[O-])c4F)c4nc(c(-c5cccc(S(=O)(=O)[O-])c5F)c5ccc2[nH]5)C=C4)C=C3)cc1
REMARK SMILES IDX 25 1 24 2 22 3 23 4 5 5 4 6 2 7 1 8 3 9 6 10 7 12 8 13 21 14
REMARK SMILES IDX 9 15 11 16 14 17 10 18 12 19 13 20 15 21 16 22 20 23 17 24
REMARK SMILES IDX 19 25 18 26 26 27 27 28 28 29 29 30 30 31 31 32 92 33 32 34
REMARK SMILES IDX 91 35 33 36 34 37 35 38 85 39 36 40 90 41 84 42 86 43 37 44
REMARK SMILES IDX 89 45 83 46 82 47 38 49 70 50 50 51 69 52 51 53 54 54 68 55
REMARK SMILES IDX 87 56 52 57 53 58 67 60 88 61 55 62 39 63 40 64 48 65 41 66
REMARK SMILES IDX 43 67 49 68 42 69 44 70 45 71 46 72 47 73 71 74 72 75 80 76
REMARK SMILES IDX 73 77 75 78 81 79 74 80 76 81 77 82 78 83 79 84 56 85 57 86
REMARK SMILES IDX 65 87 58 88 60 89 66 90 59 91 61 92 62 93 63 94 64 95
REMARK H PARENT 6 11 86 48 54 59
REMARK Flexibility Score: inf
ROOT
ATOM      1  C   UNL     1      -5.261  -2.111   0.625  1.00  0.00     0.274 C 
ENDROOT
BRANCH   1   2
ATOM      2  O   UNL     1      -3.903  -1.893   1.043  1.00  0.00    -0.461 OA
BRANCH   2   3
ATOM      3  C   UNL     1      -2.958  -2.024   0.064  1.00  0.00     0.328 C 
ATOM      4  O   UNL     1      -3.215  -2.288  -1.107  1.00  0.00    -0.250 OA
BRANCH   3   5
ATOM      5  C   UNL     1      -1.521  -1.865   0.592  1.00  0.00     0.191 C 
BRANCH   5   6
ATOM      6  C   UNL     1      -0.785  -3.191   0.318  1.00  0.00     0.040 C 
BRANCH   6   7
ATOM      7  C   UNL     1      -1.377  -4.454   0.983  1.00  0.00    -0.015 C 
ATOM      8  C   UNL     1      -2.433  -5.137   0.101  1.00  0.00     0.007 C 
ATOM      9  C   UNL     1      -0.258  -5.462   1.260  1.00  0.00     0.007 C 
ENDBRANCH   6   7
ENDBRANCH   5   6
BRANCH   5  10
ATOM     10  N   UNL     1      -1.512  -1.346   1.970  1.00  0.00    -0.356 N 
ATOM     11  H   UNL     1      -2.354  -0.945   2.286  1.00  0.00     0.163 HD
BRANCH  10  12
ATOM     12  C   UNL     1      -0.473  -1.354   2.867  1.00  0.00     0.139 A 
ATOM     13  N   UNL     1       0.665  -2.008   2.548  1.00  0.00    -0.219 NA
ATOM     14  C   UNL     1      -0.555  -0.765   4.157  1.00  0.00     0.062 A 
ATOM     15  C   UNL     1       1.633  -2.156   3.458  1.00  0.00     0.225 A 
ATOM     16  C   UNL     1       0.504  -1.055   5.013  1.00  0.00     0.129 A 
ATOM     17  C   UNL     1      -1.495   0.114   4.831  1.00  0.00     0.006 A 
ATOM     18  N   UNL     1       1.617  -1.746   4.722  1.00  0.00    -0.225 NA
ATOM     19  S   UNL     1       0.288  -0.457   6.593  1.00  0.00    -0.123 S 
ATOM     20  C   UNL     1      -1.168   0.308   6.161  1.00  0.00     0.076 A 
BRANCH  17  21
ATOM     21  C   UNL     1      -2.633   0.847   4.293  1.00  0.00    -0.017 A 
ATOM     22  C   UNL     1      -2.554   2.244   4.173  1.00  0.00     0.009 A 
ATOM     23  C   UNL     1      -3.815   0.193   3.942  1.00  0.00     0.009 A 
ATOM     24  C   UNL     1      -3.637   2.976   3.687  1.00  0.00     0.001 A 
ATOM     25  C   UNL     1      -4.899   0.932   3.465  1.00  0.00     0.001 A 
ATOM     26  C   UNL     1      -4.808   2.317   3.326  1.00  0.00     0.000 A 
ENDBRANCH  17  21
ENDBRANCH  10  12
ENDBRANCH   5  10
ENDBRANCH   3   5
ENDBRANCH   2   3
ENDBRANCH   1   2
BRANCH   1  27
ATOM     27  C   UNL     1      -5.975  -0.830   0.185  1.00  0.00     0.275 C 
BRANCH  27  28
ATOM     28  O   UNL     1      -5.360  -0.184  -0.935  1.00  0.00    -0.458 OA
BRANCH  28  29
ATOM     29  C   UNL     1      -4.323   0.631  -0.642  1.00  0.00     0.338 C 
ATOM     30  O   UNL     1      -3.833   0.862   0.454  1.00  0.00    -0.246 OA
BRANCH  29  31
ATOM     31  C   UNL     1      -3.754   1.128  -1.890  1.00  0.00     0.060 A 
ATOM     32  C   UNL     1      -2.529   0.613  -2.324  1.00  0.00     0.016 A 
ATOM     33  C   UNL     1      -4.431   2.105  -2.615  1.00  0.00     0.016 A 
ATOM     34  C   UNL     1      -1.980   1.053  -3.517  1.00  0.00     0.010 A 
ATOM     35  C   UNL     1      -3.886   2.538  -3.817  1.00  0.00     0.010 A 
ATOM     36  C   UNL     1      -2.669   2.003  -4.274  1.00  0.00    -0.014 A 
BRANCH  36  37
ATOM     37  C   UNL     1      -2.148   2.424  -5.583  1.00  0.00     0.031 A 
ATOM     38  C   UNL     1      -1.594   3.800  -5.740  1.00  0.00     0.074 A 
ATOM     39  C   UNL     1      -2.290   1.586  -6.625  1.00  0.00     0.049 A 
ATOM     40  N   UNL     1      -1.274   4.436  -6.832  1.00  0.00    -0.248 NA
ATOM     41  C   UNL     1      -1.395   4.574  -4.503  1.00  0.00     0.031 C 
ATOM     42  C   UNL     1      -2.839   0.230  -6.543  1.00  0.00     0.029 A 
ATOM     43  N   UNL     1      -2.044   1.771  -7.959  1.00  0.00    -0.354 N 
ATOM     44  C   UNL     1      -0.890   5.705  -6.424  1.00  0.00     0.074 A 
ATOM     45  C   UNL     1      -1.006   5.746  -4.983  1.00  0.00     0.031 C 
ATOM     46  C   UNL     1      -2.937  -0.277  -7.781  1.00  0.00     0.029 A 
ATOM     47  C   UNL     1      -2.503   0.735  -8.738  1.00  0.00     0.049 A 
ATOM     48  H   UNL     1      -1.586   2.563  -8.322  1.00  0.00     0.167 HD
ATOM     49  C   UNL     1      -0.480   6.738  -7.196  1.00  0.00     0.034 A 
ATOM     50  C   UNL     1      -2.611   0.640 -10.076  1.00  0.00     0.034 A 
ATOM     51  C   UNL     1      -0.358   6.653  -8.626  1.00  0.00     0.049 A 
ATOM     52  C   UNL     1      -2.130   1.792 -10.910  1.00  0.00     0.074 A 
ATOM     53  C   UNL     1       0.115   7.604  -9.508  1.00  0.00     0.029 A 
ATOM     54  N   UNL     1      -0.729   5.549  -9.383  1.00  0.00    -0.354 N 
ATOM     55  N   UNL     1      -1.651   2.948 -10.514  1.00  0.00    -0.248 NA
ATOM     56  C   UNL     1      -2.174   1.625 -12.367  1.00  0.00     0.031 C 
ATOM     57  C   UNL     1       0.007   7.085 -10.803  1.00  0.00     0.029 A 
ATOM     58  C   UNL     1      -0.509   5.799 -10.724  1.00  0.00     0.049 A 
ATOM     59  H   UNL     1      -1.095   4.711  -9.017  1.00  0.00     0.167 HD
ATOM     60  C   UNL     1      -1.307   3.636 -11.669  1.00  0.00     0.074 A 
ATOM     61  C   UNL     1      -1.622   2.759 -12.781  1.00  0.00     0.031 C 
ATOM     62  C   UNL     1      -0.789   4.882 -11.803  1.00  0.00     0.034 A 
BRANCH  49  63
ATOM     63  C   UNL     1      -0.135   8.029  -6.505  1.00  0.00     0.023 A 
ATOM     64  C   UNL     1       1.037   8.118  -5.727  1.00  0.00     0.012 A 
ATOM     65  C   UNL     1      -0.962   9.161  -6.640  1.00  0.00     0.148 A 
ATOM     66  C   UNL     1       1.361   9.301  -5.063  1.00  0.00     0.002 A 
ATOM     67  C   UNL     1      -0.611  10.349  -6.010  1.00  0.00     0.091 A 
ATOM     68  F   UNL     1      -2.089   9.049  -7.357  1.00  0.00    -0.205 F 
ATOM     69  C   UNL     1       0.543  10.418  -5.212  1.00  0.00     0.022 A 
BRANCH  67  70
ATOM     70  S   UNL     1      -1.567  11.857  -6.200  1.00  0.00     0.127 S 
ATOM     71  O   UNL     1      -2.260  11.933  -4.915  1.00  0.00    -0.237 OA
ATOM     72  O   UNL     1      -0.523  12.865  -6.389  1.00  0.00    -0.237 OA
ATOM     73  O   UNL     1      -2.418  11.645  -7.362  1.00  0.00    -0.744 OA
ENDBRANCH  67  70
ENDBRANCH  49  63
BRANCH  50  74
ATOM     74  C   UNL     1      -3.175  -0.600 -10.676  1.00  0.00     0.023 A 
ATOM     75  C   UNL     1      -2.318  -1.501 -11.335  1.00  0.00     0.012 A 
ATOM     76  C   UNL     1      -4.535  -0.934 -10.515  1.00  0.00     0.148 A 
ATOM     77  C   UNL     1      -2.808  -2.708 -11.835  1.00  0.00     0.002 A 
ATOM     78  C   UNL     1      -5.005  -2.162 -10.969  1.00  0.00     0.091 A 
ATOM     79  F   UNL     1      -5.335  -0.058  -9.892  1.00  0.00    -0.205 F 
ATOM     80  C   UNL     1      -4.146  -3.044 -11.641  1.00  0.00     0.022 A 
BRANCH  78  81
ATOM     81  S   UNL     1      -6.676  -2.737 -10.640  1.00  0.00     0.127 S 
ATOM     82  O   UNL     1      -7.276  -2.688 -11.970  1.00  0.00    -0.237 OA
ATOM     83  O   UNL     1      -6.435  -4.085 -10.123  1.00  0.00    -0.237 OA
ATOM     84  O   UNL     1      -7.228  -1.810  -9.662  1.00  0.00    -0.744 OA
ENDBRANCH  78  81
ENDBRANCH  50  74
BRANCH  62  85
ATOM     85  C   UNL     1      -0.496   5.365 -13.196  1.00  0.00     0.023 A 
ATOM     86  C   UNL     1      -1.554   5.780 -14.028  1.00  0.00     0.012 A 
ATOM     87  C   UNL     1       0.834   5.509 -13.633  1.00  0.00     0.148 A 
ATOM     88  C   UNL     1      -1.290   6.318 -15.286  1.00  0.00     0.002 A 
ATOM     89  C   UNL     1       1.091   6.091 -14.868  1.00  0.00     0.091 A 
ATOM     90  F   UNL     1       1.821   5.089 -12.829  1.00  0.00    -0.205 F 
ATOM     91  C   UNL     1       0.031   6.487 -15.699  1.00  0.00     0.022 A 
BRANCH  89  92
ATOM     92  S   UNL     1       2.757   6.441 -15.438  1.00  0.00     0.127 S 
ATOM     93  O   UNL     1       2.910   5.473 -16.523  1.00  0.00    -0.237 OA
ATOM     94  O   UNL     1       2.649   7.834 -15.873  1.00  0.00    -0.237 OA
ATOM     95  O   UNL     1       3.629   6.232 -14.290  1.00  0.00    -0.744 OA
ENDBRANCH  89  92
ENDBRANCH  62  85
ENDBRANCH  36  37
ENDBRANCH  29  31
ENDBRANCH  28  29
ENDBRANCH  27  28
ENDBRANCH   1  27
TORSDOF 19
