REMARK SMILES C[NH+]1CCN(c2nc3c(cc2F)c(=O)c(C(=O)OCCOC(=O)c2ccc(-c4c5nc(c(-c6cccc(S(=O)(=O)[O-])c6F)c6ccc([nH]6)c(-c6cccc(S(=O)(=O)[O-])c6F)c6nc(c(-c7cccc(S(=O)(=O)[O-])c7F)c7ccc4[nH]7)C=C6)C=C5)cc2)cn3-c2ccc(F)cc2F)CC1
REMARK SMILES IDX 20 1 19 2 18 3 16 4 17 5 15 6 6 7 7 8 11 9 8 10 10 11 12 12
REMARK SMILES IDX 9 13 88 14 13 15 87 16 14 17 5 18 1 19 2 20 3 21 98 22 4 24
REMARK SMILES IDX 97 25 89 26 90 27 95 28 91 29 94 30 96 31 92 32 93 33 21 34
REMARK SMILES IDX 22 35 23 36 24 37 25 38 86 39 26 40 85 41 27 42 28 43 29 44
REMARK SMILES IDX 79 45 30 46 84 47 78 48 80 49 31 50 83 51 77 52 76 53 32 55
REMARK SMILES IDX 64 56 44 57 63 58 45 59 48 60 62 61 81 62 46 63 47 64 61 66
REMARK SMILES IDX 82 67 49 68 33 69 34 70 42 71 35 72 37 73 43 74 36 75 38 76
REMARK SMILES IDX 39 77 40 78 41 79 65 80 66 81 74 82 67 83 69 84 75 85 68 86
REMARK SMILES IDX 70 87 71 88 72 89 73 90 50 91 51 92 59 93 52 94 54 95 60 96
REMARK SMILES IDX 53 97 55 98 56 99 57 100 58 101
REMARK H PARENT 2 23 80 54 48 65
REMARK Flexibility Score: inf
ROOT
ATOM      1  C   UNL     1     -11.255   1.189   4.559  1.00  0.00     0.275 C 
ENDROOT
BRANCH   1   2
ATOM      2  C   UNL     1     -10.690  -0.198   4.258  1.00  0.00     0.275 C 
BRANCH   2   3
ATOM      3  O   UNL     1      -9.347  -0.091   3.752  1.00  0.00    -0.458 OA
BRANCH   3   4
ATOM      4  C   UNL     1      -9.171  -0.337   2.434  1.00  0.00     0.343 C 
ATOM      5  O   UNL     1     -10.041  -0.662   1.640  1.00  0.00    -0.246 OA
BRANCH   4   6
ATOM      6  C   UNL     1      -7.777  -0.088   2.032  1.00  0.00     0.124 A 
ATOM      7  C   UNL     1      -2.826  -0.146   0.992  1.00  0.00     0.167 A 
ATOM      8  N   UNL     1      -3.897   0.423   0.392  1.00  0.00    -0.209 NA
ATOM      9  C   UNL     1      -2.948  -0.809   2.220  1.00  0.00     0.166 A 
ATOM     10  C   UNL     1      -5.125   0.290   0.966  1.00  0.00     0.151 A 
ATOM     11  C   UNL     1      -4.171  -0.893   2.849  1.00  0.00     0.059 A 
ATOM     12  F   UNL     1      -1.877  -1.360   2.814  1.00  0.00    -0.203 F 
ATOM     13  C   UNL     1      -5.277  -0.349   2.207  1.00  0.00     0.069 A 
ATOM     14  N   UNL     1      -6.293   0.769   0.291  1.00  0.00    -0.297 N 
ATOM     15  C   UNL     1      -6.610  -0.513   2.823  1.00  0.00     0.205 A 
ATOM     16  C   UNL     1      -7.536   0.498   0.850  1.00  0.00     0.113 A 
ATOM     17  O   UNL     1      -6.713  -1.060   3.915  1.00  0.00    -0.288 OA
BRANCH   7  18
ATOM     18  N   UNL     1      -1.601  -0.075   0.378  1.00  0.00    -0.343 N 
ATOM     19  C   UNL     1       2.567   0.155  -0.008  1.00  0.00     0.332 C 
ATOM     20  N   UNL     1       1.167   0.041  -0.411  1.00  0.00    -0.334 N 
ATOM     21  C   UNL     1       0.406   1.250   0.006  1.00  0.00     0.283 C 
ATOM     22  C   UNL     1       0.569  -1.175   0.191  1.00  0.00     0.283 C 
ATOM     23  H   UNL     1       1.120  -0.034  -1.427  1.00  0.00     0.347 HD
ATOM     24  C   UNL     1      -1.125   1.152  -0.245  1.00  0.00     0.179 C 
ATOM     25  C   UNL     1      -0.945  -1.299  -0.066  1.00  0.00     0.179 C 
ENDBRANCH   7  18
BRANCH  14  26
ATOM     26  C   UNL     1      -6.232   1.454  -0.962  1.00  0.00     0.083 A 
ATOM     27  C   UNL     1      -5.794   0.788  -2.118  1.00  0.00     0.033 A 
ATOM     28  C   UNL     1      -6.642   2.796  -1.081  1.00  0.00     0.150 A 
ATOM     29  C   UNL     1      -5.776   1.449  -3.349  1.00  0.00     0.041 A 
ATOM     30  C   UNL     1      -6.610   3.464  -2.301  1.00  0.00     0.080 A 
ATOM     31  F   UNL     1      -7.068   3.462   0.004  1.00  0.00    -0.205 F 
ATOM     32  C   UNL     1      -6.177   2.779  -3.426  1.00  0.00     0.126 A 
ATOM     33  F   UNL     1      -6.139   3.405  -4.609  1.00  0.00    -0.207 F 
ENDBRANCH  14  26
ENDBRANCH   4   6
ENDBRANCH   3   4
ENDBRANCH   2   3
ENDBRANCH   1   2
BRANCH   1  34
ATOM     34  O   UNL     1     -11.483   1.905   3.333  1.00  0.00    -0.458 OA
BRANCH  34  35
ATOM     35  C   UNL     1     -10.543   2.825   3.018  1.00  0.00     0.338 C 
ATOM     36  O   UNL     1      -9.561   3.138   3.668  1.00  0.00    -0.246 OA
BRANCH  35  37
ATOM     37  C   UNL     1     -10.829   3.377   1.688  1.00  0.00     0.060 A 
ATOM     38  C   UNL     1     -10.543   2.602   0.566  1.00  0.00     0.016 A 
ATOM     39  C   UNL     1     -11.240   4.700   1.548  1.00  0.00     0.016 A 
ATOM     40  C   UNL     1     -10.552   3.178  -0.700  1.00  0.00     0.010 A 
ATOM     41  C   UNL     1     -11.345   5.248   0.267  1.00  0.00     0.010 A 
ATOM     42  C   UNL     1     -10.957   4.508  -0.865  1.00  0.00    -0.014 A 
BRANCH  42  43
ATOM     43  C   UNL     1     -10.942   5.139  -2.210  1.00  0.00     0.031 A 
ATOM     44  C   UNL     1     -10.066   6.337  -2.466  1.00  0.00     0.074 A 
ATOM     45  C   UNL     1     -11.708   4.644  -3.202  1.00  0.00     0.049 A 
ATOM     46  N   UNL     1     -10.038   7.127  -3.507  1.00  0.00    -0.248 NA
ATOM     47  C   UNL     1      -9.097   6.696  -1.415  1.00  0.00     0.031 C 
ATOM     48  C   UNL     1     -12.570   3.464  -3.099  1.00  0.00     0.029 A 
ATOM     49  N   UNL     1     -11.890   5.075  -4.492  1.00  0.00    -0.354 N 
ATOM     50  C   UNL     1      -9.102   8.111  -3.212  1.00  0.00     0.074 A 
ATOM     51  C   UNL     1      -8.569   7.812  -1.902  1.00  0.00     0.031 C 
ATOM     52  C   UNL     1     -13.170   3.252  -4.281  1.00  0.00     0.029 A 
ATOM     53  C   UNL     1     -12.793   4.318  -5.202  1.00  0.00     0.049 A 
ATOM     54  H   UNL     1     -11.419   5.851  -4.873  1.00  0.00     0.167 HD
ATOM     55  C   UNL     1      -8.717   9.163  -3.971  1.00  0.00     0.034 A 
ATOM     56  C   UNL     1     -13.288   4.478  -6.445  1.00  0.00     0.034 A 
ATOM     57  C   UNL     1      -9.198   9.421  -5.301  1.00  0.00     0.049 A 
ATOM     58  C   UNL     1     -12.848   5.657  -7.264  1.00  0.00     0.074 A 
ATOM     59  C   UNL     1      -8.866  10.465  -6.146  1.00  0.00     0.029 A 
ATOM     60  N   UNL     1     -10.092   8.616  -5.988  1.00  0.00    -0.354 N 
ATOM     61  N   UNL     1     -11.974   6.586  -6.962  1.00  0.00    -0.248 NA
ATOM     62  C   UNL     1     -13.458   5.812  -8.592  1.00  0.00     0.031 C 
ATOM     63  C   UNL     1      -9.552  10.286  -7.350  1.00  0.00     0.029 A 
ATOM     64  C   UNL     1     -10.310   9.129  -7.253  1.00  0.00     0.049 A 
ATOM     65  H   UNL     1     -10.509   7.800  -5.629  1.00  0.00     0.167 HD
ATOM     66  C   UNL     1     -11.913   7.423  -8.069  1.00  0.00     0.074 A 
ATOM     67  C   UNL     1     -12.829   6.886  -9.054  1.00  0.00     0.031 C 
ATOM     68  C   UNL     1     -11.178   8.548  -8.242  1.00  0.00     0.034 A 
BRANCH  55  69
ATOM     69  C   UNL     1      -7.689  10.103  -3.408  1.00  0.00     0.023 A 
ATOM     70  C   UNL     1      -6.327   9.753  -3.474  1.00  0.00     0.012 A 
ATOM     71  C   UNL     1      -8.061  11.367  -2.910  1.00  0.00     0.148 A 
ATOM     72  C   UNL     1      -5.346  10.647  -3.044  1.00  0.00     0.002 A 
ATOM     73  C   UNL     1      -7.077  12.263  -2.509  1.00  0.00     0.091 A 
ATOM     74  F   UNL     1      -9.365  11.669  -2.848  1.00  0.00    -0.205 F 
ATOM     75  C   UNL     1      -5.720  11.903  -2.572  1.00  0.00     0.022 A 
BRANCH  73  76
ATOM     76  S   UNL     1      -7.446  13.926  -1.937  1.00  0.00     0.127 S 
ATOM     77  O   UNL     1      -6.992  13.867  -0.548  1.00  0.00    -0.237 OA
ATOM     78  O   UNL     1      -6.613  14.745  -2.817  1.00  0.00    -0.237 OA
ATOM     79  O   UNL     1      -8.880  14.104  -2.110  1.00  0.00    -0.744 OA
ENDBRANCH  73  76
ENDBRANCH  55  69
BRANCH  56  80
ATOM     80  C   UNL     1     -14.232   3.467  -6.995  1.00  0.00     0.023 A 
ATOM     81  C   UNL     1     -13.772   2.565  -7.972  1.00  0.00     0.012 A 
ATOM     82  C   UNL     1     -15.549   3.350  -6.511  1.00  0.00     0.148 A 
ATOM     83  C   UNL     1     -14.610   1.565  -8.464  1.00  0.00     0.002 A 
ATOM     84  C   UNL     1     -16.365   2.324  -6.973  1.00  0.00     0.091 A 
ATOM     85  F   UNL     1     -15.966   4.228  -5.588  1.00  0.00    -0.205 F 
ATOM     86  C   UNL     1     -15.900   1.436  -7.956  1.00  0.00     0.022 A 
BRANCH  84  87
ATOM     87  S   UNL     1     -18.000   2.009  -6.299  1.00  0.00     0.127 S 
ATOM     88  O   UNL     1     -18.858   2.325  -7.438  1.00  0.00    -0.237 OA
ATOM     89  O   UNL     1     -17.918   0.586  -5.965  1.00  0.00    -0.237 OA
ATOM     90  O   UNL     1     -18.131   2.892  -5.148  1.00  0.00    -0.744 OA
ENDBRANCH  84  87
ENDBRANCH  56  80
BRANCH  68  91
ATOM     91  C   UNL     1     -11.301   9.273  -9.552  1.00  0.00     0.023 A 
ATOM     92  C   UNL     1     -12.390  10.139  -9.760  1.00  0.00     0.012 A 
ATOM     93  C   UNL     1     -10.279   9.190 -10.517  1.00  0.00     0.148 A 
ATOM     94  C   UNL     1     -12.465  10.912 -10.917  1.00  0.00     0.002 A 
ATOM     95  C   UNL     1     -10.344   9.987 -11.653  1.00  0.00     0.091 A 
ATOM     96  F   UNL     1      -9.260   8.347 -10.297  1.00  0.00    -0.205 F 
ATOM     97  C   UNL     1     -11.437  10.845 -11.856  1.00  0.00     0.022 A 
BRANCH  95  98
ATOM     98  S   UNL     1      -9.035  10.024 -12.883  1.00  0.00     0.127 S 
ATOM     99  O   UNL     1      -9.682   9.379 -14.025  1.00  0.00    -0.237 OA
ATOM    100  O   UNL     1      -8.803  11.460 -13.044  1.00  0.00    -0.237 OA
ATOM    101  O   UNL     1      -7.918   9.290 -12.306  1.00  0.00    -0.744 OA
ENDBRANCH  95  98
ENDBRANCH  68  91
ENDBRANCH  42  43
ENDBRANCH  35  37
ENDBRANCH  34  35
ENDBRANCH   1  34
TORSDOF 16
