REMARK SMILES O=C(OCCOC(=O)c1cc(S[C@H]2CCO[C@@]3(CCOC3)C2)cs1)c1ccc(-c2c3nc(c(-c4cccc(S(=O)(=O)[O-])c4F)c4ccc([nH]4)c(-c4cccc(S(=O)(=O)[O-])c4F)c4nc(c(-c5cccc(S(=O)(=O)[O-])c5F)c5ccc2[nH]5)C=C4)C=C3)cc1
REMARK SMILES IDX 4 1 3 2 2 3 1 4 25 5 26 6 87 7 27 8 86 9 28 10 29 11 30 12
REMARK SMILES IDX 80 13 31 14 85 15 79 16 81 17 32 18 84 19 78 20 77 21 33 23
REMARK SMILES IDX 65 24 45 25 64 26 46 27 49 28 63 29 82 30 47 31 48 32 62 34
REMARK SMILES IDX 83 35 50 36 34 37 35 38 43 39 36 40 38 41 44 42 37 43 39 44
REMARK SMILES IDX 40 45 41 46 42 47 66 48 67 49 75 50 68 51 70 52 76 53 69 54
REMARK SMILES IDX 71 55 72 56 73 57 74 58 51 59 52 60 60 61 53 62 55 63 61 64
REMARK SMILES IDX 54 65 56 66 57 67 58 68 59 69 5 70 6 71 7 72 8 73 9 74 10 75
REMARK SMILES IDX 24 76 11 77 23 78 12 79 13 80 14 81 22 82 15 83 17 84 16 85
REMARK SMILES IDX 18 86 21 87 19 88 20 89
REMARK H PARENT 81 22 49 33
REMARK Flexibility Score: inf
ROOT
ATOM      1  C   UNL     1      -3.402  -6.960   6.415  1.00  0.00     0.275 C 
ENDROOT
BRANCH   1   2
ATOM      2  O   UNL     1      -2.971  -8.066   7.223  1.00  0.00    -0.458 OA
BRANCH   2   3
ATOM      3  C   UNL     1      -2.103  -9.074   6.970  1.00  0.00     0.338 C 
ATOM      4  O   UNL     1      -2.065 -10.005   7.775  1.00  0.00    -0.246 OA
BRANCH   3   5
ATOM      5  C   UNL     1      -1.130  -9.109   5.821  1.00  0.00     0.060 A 
ATOM      6  C   UNL     1      -1.181  -8.346   4.651  1.00  0.00     0.016 A 
ATOM      7  C   UNL     1      -0.057 -10.012   5.950  1.00  0.00     0.016 A 
ATOM      8  C   UNL     1      -0.209  -8.474   3.647  1.00  0.00     0.010 A 
ATOM      9  C   UNL     1       0.928 -10.131   4.960  1.00  0.00     0.010 A 
ATOM     10  C   UNL     1       0.846  -9.374   3.787  1.00  0.00    -0.014 A 
BRANCH  10  11
ATOM     11  C   UNL     1       1.805  -9.593   2.679  1.00  0.00     0.031 A 
ATOM     12  C   UNL     1       1.635 -10.765   1.780  1.00  0.00     0.074 A 
ATOM     13  C   UNL     1       2.816  -8.744   2.426  1.00  0.00     0.049 A 
ATOM     14  N   UNL     1       2.252 -11.000   0.656  1.00  0.00    -0.248 NA
ATOM     15  C   UNL     1       0.611 -11.752   2.143  1.00  0.00     0.031 C 
ATOM     16  C   UNL     1       2.983  -7.474   3.100  1.00  0.00     0.029 A 
ATOM     17  N   UNL     1       3.877  -8.799   1.546  1.00  0.00    -0.354 N 
ATOM     18  C   UNL     1       1.693 -12.161   0.165  1.00  0.00     0.074 A 
ATOM     19  C   UNL     1       0.697 -12.595   1.125  1.00  0.00     0.031 C 
ATOM     20  C   UNL     1       4.114  -6.915   2.657  1.00  0.00     0.029 A 
ATOM     21  C   UNL     1       4.769  -7.759   1.694  1.00  0.00     0.049 A 
ATOM     22  H   UNL     1       3.986  -9.512   0.877  1.00  0.00     0.167 HD
ATOM     23  C   UNL     1       1.981 -12.791  -0.993  1.00  0.00     0.034 A 
ATOM     24  C   UNL     1       5.946  -7.451   1.109  1.00  0.00     0.034 A 
ATOM     25  C   UNL     1       2.995 -12.374  -1.921  1.00  0.00     0.049 A 
ATOM     26  C   UNL     1       6.262  -8.218  -0.140  1.00  0.00     0.074 A 
ATOM     27  C   UNL     1       3.369 -12.978  -3.108  1.00  0.00     0.029 A 
ATOM     28  N   UNL     1       3.830 -11.279  -1.751  1.00  0.00    -0.354 N 
ATOM     29  N   UNL     1       5.538  -9.139  -0.724  1.00  0.00    -0.248 NA
ATOM     30  C   UNL     1       7.447  -7.806  -0.904  1.00  0.00     0.031 C 
ATOM     31  C   UNL     1       4.466 -12.284  -3.627  1.00  0.00     0.029 A 
ATOM     32  C   UNL     1       4.752 -11.223  -2.785  1.00  0.00     0.049 A 
ATOM     33  H   UNL     1       3.775 -10.636  -1.007  1.00  0.00     0.167 HD
ATOM     34  C   UNL     1       6.120  -9.338  -1.961  1.00  0.00     0.074 A 
ATOM     35  C   UNL     1       7.216  -8.397  -2.065  1.00  0.00     0.031 C 
ATOM     36  C   UNL     1       5.794 -10.241  -2.913  1.00  0.00     0.034 A 
BRANCH  23  37
ATOM     37  C   UNL     1       1.215 -14.046  -1.263  1.00  0.00     0.023 A 
ATOM     38  C   UNL     1      -0.136 -13.986  -1.655  1.00  0.00     0.012 A 
ATOM     39  C   UNL     1       1.845 -15.290  -1.092  1.00  0.00     0.148 A 
ATOM     40  C   UNL     1      -0.863 -15.160  -1.839  1.00  0.00     0.002 A 
ATOM     41  C   UNL     1       1.129 -16.452  -1.323  1.00  0.00     0.091 A 
ATOM     42  F   UNL     1       3.121 -15.307  -0.681  1.00  0.00    -0.205 F 
ATOM     43  C   UNL     1      -0.228 -16.391  -1.682  1.00  0.00     0.022 A 
BRANCH  41  44
ATOM     44  S   UNL     1       1.878 -18.076  -1.206  1.00  0.00     0.127 S 
ATOM     45  O   UNL     1       1.159 -18.649  -0.069  1.00  0.00    -0.237 OA
ATOM     46  O   UNL     1       1.537 -18.658  -2.503  1.00  0.00    -0.237 OA
ATOM     47  O   UNL     1       3.300 -17.852  -0.991  1.00  0.00    -0.744 OA
ENDBRANCH  41  44
ENDBRANCH  23  37
BRANCH  24  48
ATOM     48  C   UNL     1       6.802  -6.279   1.519  1.00  0.00     0.023 A 
ATOM     49  C   UNL     1       7.041  -5.246   0.587  1.00  0.00     0.012 A 
ATOM     50  C   UNL     1       7.427  -6.185   2.783  1.00  0.00     0.148 A 
ATOM     51  C   UNL     1       7.968  -4.232   0.839  1.00  0.00     0.002 A 
ATOM     52  C   UNL     1       8.261  -5.098   3.072  1.00  0.00     0.091 A 
ATOM     53  F   UNL     1       7.182  -7.140   3.690  1.00  0.00    -0.205 F 
ATOM     54  C   UNL     1       8.571  -4.152   2.085  1.00  0.00     0.022 A 
BRANCH  52  55
ATOM     55  S   UNL     1       8.885  -4.727   4.719  1.00  0.00     0.127 S 
ATOM     56  O   UNL     1      10.330  -4.705   4.500  1.00  0.00    -0.237 OA
ATOM     57  O   UNL     1       8.287  -3.415   4.967  1.00  0.00    -0.237 OA
ATOM     58  O   UNL     1       8.401  -5.795   5.580  1.00  0.00    -0.744 OA
ENDBRANCH  52  55
ENDBRANCH  24  48
BRANCH  36  59
ATOM     59  C   UNL     1       6.647 -10.246  -4.150  1.00  0.00     0.023 A 
ATOM     60  C   UNL     1       8.013 -10.588  -4.051  1.00  0.00     0.012 A 
ATOM     61  C   UNL     1       6.102  -9.923  -5.405  1.00  0.00     0.148 A 
ATOM     62  C   UNL     1       8.840 -10.539  -5.168  1.00  0.00     0.002 A 
ATOM     63  C   UNL     1       6.918  -9.948  -6.528  1.00  0.00     0.091 A 
ATOM     64  F   UNL     1       4.807  -9.584  -5.475  1.00  0.00    -0.205 F 
ATOM     65  C   UNL     1       8.290 -10.230  -6.408  1.00  0.00     0.022 A 
BRANCH  63  66
ATOM     66  S   UNL     1       6.286  -9.683  -8.186  1.00  0.00     0.127 S 
ATOM     67  O   UNL     1       6.943  -8.431  -8.559  1.00  0.00    -0.237 OA
ATOM     68  O   UNL     1       6.780 -10.866  -8.889  1.00  0.00    -0.237 OA
ATOM     69  O   UNL     1       4.837  -9.610  -8.061  1.00  0.00    -0.744 OA
ENDBRANCH  63  66
ENDBRANCH  36  59
ENDBRANCH  10  11
ENDBRANCH   3   5
ENDBRANCH   2   3
ENDBRANCH   1   2
BRANCH   1  70
ATOM     70  C   UNL     1      -2.553  -5.698   6.589  1.00  0.00     0.275 C 
BRANCH  70  71
ATOM     71  O   UNL     1      -1.143  -5.934   6.471  1.00  0.00    -0.458 OA
BRANCH  71  72
ATOM     72  C   UNL     1      -0.509  -6.277   7.642  1.00  0.00     0.348 C 
ATOM     73  O   UNL     1      -1.058  -6.320   8.727  1.00  0.00    -0.245 OA
BRANCH  72  74
ATOM     74  C   UNL     1       0.881  -6.577   7.367  1.00  0.00     0.113 A 
ATOM     75  C   UNL     1       1.730  -5.997   6.446  1.00  0.00     0.042 A 
ATOM     76  S   UNL     1       1.682  -7.787   8.274  1.00  0.00    -0.136 S 
ATOM     77  C   UNL     1       3.084  -6.402   6.628  1.00  0.00     0.019 A 
ATOM     78  C   UNL     1       3.167  -7.486   7.475  1.00  0.00     0.080 A 
BRANCH  77  79
ATOM     79  S   UNL     1       4.517  -5.644   5.924  1.00  0.00    -0.122 SA
BRANCH  79  80
ATOM     80  C   UNL     1       3.872  -4.312   4.862  1.00  0.00     0.057 C 
ATOM     81  C   UNL     1       3.308  -3.144   5.657  1.00  0.00     0.043 C 
ATOM     82  C   UNL     1       4.921  -3.705   3.916  1.00  0.00     0.053 C 
ATOM     83  C   UNL     1       2.637  -2.211   4.658  1.00  0.00     0.162 C 
ATOM     84  C   UNL     1       4.265  -2.701   2.943  1.00  0.00     0.095 C 
ATOM     85  O   UNL     1       3.562  -1.698   3.699  1.00  0.00    -0.372 OA
ATOM     86  C   UNL     1       5.338  -2.010   2.096  1.00  0.00     0.066 C 
ATOM     87  C   UNL     1       3.348  -3.325   1.873  1.00  0.00     0.195 C 
ATOM     88  C   UNL     1       4.978  -2.306   0.653  1.00  0.00     0.163 C 
ATOM     89  O   UNL     1       4.113  -3.438   0.670  1.00  0.00    -0.378 OA
ENDBRANCH  79  80
ENDBRANCH  77  79
ENDBRANCH  72  74
ENDBRANCH  71  72
ENDBRANCH  70  71
ENDBRANCH   1  70
TORSDOF 16
