REMARK SMILES COc1ccc(C2=NN(C(=O)CCC(=O)OCCOC(=O)c3ccc(-c4c5nc(c(-c6cccc(S(=O)(=O)[O-])c6F)c6ccc([nH]6)c(-c6cccc(S(=O)(=O)[O-])c6F)c6nc(c(-c7cccc(S(=O)(=O)[O-])c7F)c7ccc4[nH]7)C=C6)C=C5)cc3)[C@H](c3ccc(Cl)cc3Cl)C2)cc1
REMARK SMILES IDX 17 1 16 2 14 3 15 4 13 5 12 6 10 7 11 8 9 9 7 10 8 11 94 12
REMARK SMILES IDX 85 13 6 14 3 15 4 16 96 17 5 18 95 19 2 20 1 21 86 22 87 23
REMARK SMILES IDX 92 24 88 25 91 26 93 27 89 28 90 29 18 30 19 31 20 32 21 33
REMARK SMILES IDX 22 34 23 35 84 36 24 37 83 38 25 39 26 40 27 41 77 42 28 43
REMARK SMILES IDX 82 44 76 45 78 46 29 47 81 48 75 49 74 50 30 52 62 53 42 54
REMARK SMILES IDX 61 55 43 56 46 57 60 58 79 59 44 60 45 61 59 63 80 64 47 65
REMARK SMILES IDX 31 66 32 67 40 68 33 69 35 70 41 71 34 72 36 73 37 74 38 75
REMARK SMILES IDX 39 76 63 77 64 78 72 79 65 80 67 81 73 82 66 83 68 84 69 85
REMARK SMILES IDX 70 86 71 87 48 88 49 89 57 90 50 91 52 92 58 93 51 94 53 95
REMARK SMILES IDX 54 96 55 97 56 98
REMARK H PARENT 78 51 46 62
REMARK Flexibility Score: inf
ROOT
ATOM      1  C   UNL     1       5.955  -5.982   4.405  1.00  0.00     0.274 C 
ENDROOT
BRANCH   1   2
ATOM      2  O   UNL     1       4.918  -6.937   4.093  1.00  0.00    -0.462 OA
BRANCH   2   3
ATOM      3  C   UNL     1       5.295  -8.244   4.080  1.00  0.00     0.306 C 
ATOM      4  O   UNL     1       6.417  -8.646   4.358  1.00  0.00    -0.252 OA
BRANCH   3   5
ATOM      5  C   UNL     1       4.185  -9.155   3.619  1.00  0.00     0.132 C 
BRANCH   5   6
ATOM      6  C   UNL     1       2.970  -9.175   4.542  1.00  0.00     0.114 C 
BRANCH   6   7
ATOM      7  C   UNL     1       1.790  -8.490   3.879  1.00  0.00     0.243 C 
ATOM      8  O   UNL     1       1.317  -9.006   2.858  1.00  0.00    -0.273 OA
BRANCH   7   9
ATOM      9  N   UNL     1       1.352  -7.264   4.381  1.00  0.00    -0.225 N 
ATOM     10  C   UNL     1       0.953  -5.214   3.838  1.00  0.00     0.071 C 
ATOM     11  N   UNL     1       0.806  -6.421   3.410  1.00  0.00    -0.174 NA
ATOM     12  C   UNL     1       1.440  -5.056   5.230  1.00  0.00     0.091 C 
ATOM     13  C   UNL     1       1.862  -6.492   5.534  1.00  0.00     0.149 C 
BRANCH  10  14
ATOM     14  C   UNL     1       0.742  -4.016   3.036  1.00  0.00    -0.002 A 
ATOM     15  C   UNL     1       0.489  -1.583   1.726  1.00  0.00     0.118 A 
ATOM     16  C   UNL     1      -0.588  -2.114   2.446  1.00  0.00     0.047 A 
ATOM     17  C   UNL     1       1.703  -2.272   1.675  1.00  0.00     0.047 A 
ATOM     18  C   UNL     1      -0.469  -3.338   3.102  1.00  0.00     0.014 A 
ATOM     19  C   UNL     1       1.831  -3.498   2.329  1.00  0.00     0.014 A 
BRANCH  15  20
ATOM     20  O   UNL     1       0.258  -0.364   1.149  1.00  0.00    -0.497 OA
ATOM     21  C   UNL     1       1.018  -0.093  -0.023  1.00  0.00     0.278 C 
ENDBRANCH  15  20
ENDBRANCH  10  14
BRANCH  13  22
ATOM     22  C   UNL     1       1.585  -6.842   7.002  1.00  0.00    -0.004 A 
ATOM     23  C   UNL     1       2.049  -5.881   7.950  1.00  0.00     0.009 A 
ATOM     24  C   UNL     1       1.143  -8.065   7.527  1.00  0.00     0.047 A 
ATOM     25  C   UNL     1       2.160  -6.158   9.313  1.00  0.00     0.021 A 
ATOM     26  C   UNL     1       1.290  -8.357   8.897  1.00  0.00     0.041 A 
ATOM     27  Cl  UNL     1       0.365  -9.286   6.594  1.00  0.00    -0.084 Cl
ATOM     28  C   UNL     1       1.818  -7.416   9.774  1.00  0.00     0.042 A 
ATOM     29  Cl  UNL     1       2.060  -7.810  11.430  1.00  0.00    -0.084 Cl
ENDBRANCH  13  22
ENDBRANCH   7   9
ENDBRANCH   6   7
ENDBRANCH   5   6
ENDBRANCH   3   5
ENDBRANCH   2   3
ENDBRANCH   1   2
BRANCH   1  30
ATOM     30  C   UNL     1       5.960  -5.544   5.877  1.00  0.00     0.275 C 
BRANCH  30  31
ATOM     31  O   UNL     1       6.468  -6.556   6.768  1.00  0.00    -0.458 OA
BRANCH  31  32
ATOM     32  C   UNL     1       5.524  -7.401   7.226  1.00  0.00     0.338 C 
ATOM     33  O   UNL     1       4.340  -7.368   6.951  1.00  0.00    -0.246 OA
BRANCH  32  34
ATOM     34  C   UNL     1       6.038  -8.476   8.059  1.00  0.00     0.060 A 
ATOM     35  C   UNL     1       5.856  -9.784   7.598  1.00  0.00     0.016 A 
ATOM     36  C   UNL     1       6.539  -8.213   9.333  1.00  0.00     0.016 A 
ATOM     37  C   UNL     1       6.236 -10.848   8.400  1.00  0.00     0.010 A 
ATOM     38  C   UNL     1       6.935  -9.284  10.132  1.00  0.00     0.010 A 
ATOM     39  C   UNL     1       6.810 -10.600   9.656  1.00  0.00    -0.014 A 
BRANCH  39  40
ATOM     40  C   UNL     1       7.460 -11.714  10.371  1.00  0.00     0.031 A 
ATOM     41  C   UNL     1       6.841 -12.346  11.575  1.00  0.00     0.074 A 
ATOM     42  C   UNL     1       8.655 -12.118   9.901  1.00  0.00     0.049 A 
ATOM     43  N   UNL     1       7.278 -13.356  12.277  1.00  0.00    -0.248 NA
ATOM     44  C   UNL     1       5.578 -11.771  12.059  1.00  0.00     0.031 C 
ATOM     45  C   UNL     1       9.350 -11.514   8.759  1.00  0.00     0.029 A 
ATOM     46  N   UNL     1       9.497 -13.111  10.317  1.00  0.00    -0.354 N 
ATOM     47  C   UNL     1       6.360 -13.531  13.303  1.00  0.00     0.074 A 
ATOM     48  C   UNL     1       5.341 -12.515  13.134  1.00  0.00     0.031 C 
ATOM     49  C   UNL     1      10.511 -12.154   8.563  1.00  0.00     0.029 A 
ATOM     50  C   UNL     1      10.651 -13.193   9.575  1.00  0.00     0.049 A 
ATOM     51  H   UNL     1       9.297 -13.708  11.074  1.00  0.00     0.167 HD
ATOM     52  C   UNL     1       6.370 -14.465  14.284  1.00  0.00     0.034 A 
ATOM     53  C   UNL     1      11.706 -14.018   9.698  1.00  0.00     0.034 A 
ATOM     54  C   UNL     1       7.390 -15.473  14.421  1.00  0.00     0.049 A 
ATOM     55  C   UNL     1      11.661 -15.072  10.764  1.00  0.00     0.074 A 
ATOM     56  C   UNL     1       7.471 -16.500  15.345  1.00  0.00     0.029 A 
ATOM     57  N   UNL     1       8.516 -15.575  13.614  1.00  0.00    -0.354 N 
ATOM     58  N   UNL     1      10.715 -15.316  11.639  1.00  0.00    -0.248 NA
ATOM     59  C   UNL     1      12.807 -15.985  10.839  1.00  0.00     0.031 C 
ATOM     60  C   UNL     1       8.652 -17.214  15.104  1.00  0.00     0.029 A 
ATOM     61  C   UNL     1       9.303 -16.639  14.023  1.00  0.00     0.049 A 
ATOM     62  H   UNL     1       8.725 -14.976  12.861  1.00  0.00     0.167 HD
ATOM     63  C   UNL     1      11.143 -16.417  12.365  1.00  0.00     0.074 A 
ATOM     64  C   UNL     1      12.418 -16.816  11.797  1.00  0.00     0.031 C 
ATOM     65  C   UNL     1      10.554 -17.029  13.422  1.00  0.00     0.034 A 
BRANCH  52  66
ATOM     66  C   UNL     1       5.222 -14.468  15.259  1.00  0.00     0.023 A 
ATOM     67  C   UNL     1       3.967 -14.960  14.847  1.00  0.00     0.012 A 
ATOM     68  C   UNL     1       5.393 -14.041  16.590  1.00  0.00     0.148 A 
ATOM     69  C   UNL     1       2.894 -15.006  15.737  1.00  0.00     0.002 A 
ATOM     70  C   UNL     1       4.327 -14.120  17.481  1.00  0.00     0.091 A 
ATOM     71  F   UNL     1       6.585 -13.552  16.958  1.00  0.00    -0.205 F 
ATOM     72  C   UNL     1       3.076 -14.596  17.055  1.00  0.00     0.022 A 
BRANCH  70  73
ATOM     73  S   UNL     1       4.481 -13.672  19.215  1.00  0.00     0.127 S 
ATOM     74  O   UNL     1       3.780 -12.389  19.252  1.00  0.00    -0.237 OA
ATOM     75  O   UNL     1       3.779 -14.768  19.884  1.00  0.00    -0.237 OA
ATOM     76  O   UNL     1       5.910 -13.616  19.486  1.00  0.00    -0.744 OA
ENDBRANCH  70  73
ENDBRANCH  52  66
BRANCH  53  77
ATOM     77  C   UNL     1      12.832 -13.914   8.731  1.00  0.00     0.023 A 
ATOM     78  C   UNL     1      13.002 -14.917   7.759  1.00  0.00     0.012 A 
ATOM     79  C   UNL     1      13.678 -12.787   8.711  1.00  0.00     0.148 A 
ATOM     80  C   UNL     1      14.004 -14.809   6.795  1.00  0.00     0.002 A 
ATOM     81  C   UNL     1      14.637 -12.658   7.713  1.00  0.00     0.091 A 
ATOM     82  F   UNL     1      13.512 -11.848   9.654  1.00  0.00    -0.205 F 
ATOM     83  C   UNL     1      14.812 -13.674   6.763  1.00  0.00     0.022 A 
BRANCH  81  84
ATOM     84  S   UNL     1      15.605 -11.156   7.520  1.00  0.00     0.127 S 
ATOM     85  O   UNL     1      16.871 -11.532   8.143  1.00  0.00    -0.237 OA
ATOM     86  O   UNL     1      15.657 -11.003   6.065  1.00  0.00    -0.237 OA
ATOM     87  O   UNL     1      14.840 -10.118   8.198  1.00  0.00    -0.744 OA
ENDBRANCH  81  84
ENDBRANCH  53  77
BRANCH  65  88
ATOM     88  C   UNL     1      11.301 -18.181  14.036  1.00  0.00     0.023 A 
ATOM     89  C   UNL     1      12.442 -17.920  14.821  1.00  0.00     0.012 A 
ATOM     90  C   UNL     1      10.863 -19.507  13.869  1.00  0.00     0.148 A 
ATOM     91  C   UNL     1      13.159 -18.966  15.399  1.00  0.00     0.002 A 
ATOM     92  C   UNL     1      11.558 -20.542  14.484  1.00  0.00     0.091 A 
ATOM     93  F   UNL     1       9.791 -19.739  13.097  1.00  0.00    -0.205 F 
ATOM     94  C   UNL     1      12.711 -20.275  15.239  1.00  0.00     0.022 A 
BRANCH  92  95
ATOM     95  S   UNL     1      10.994 -22.245  14.391  1.00  0.00     0.127 S 
ATOM     96  O   UNL     1      11.811 -22.773  13.300  1.00  0.00    -0.237 OA
ATOM     97  O   UNL     1      11.335 -22.766  15.715  1.00  0.00    -0.237 OA
ATOM     98  O   UNL     1       9.562 -22.165  14.132  1.00  0.00    -0.744 OA
ENDBRANCH  92  95
ENDBRANCH  65  88
ENDBRANCH  39  40
ENDBRANCH  32  34
ENDBRANCH  31  32
ENDBRANCH  30  31
ENDBRANCH   1  30
TORSDOF 20
