REMARK SMILES CC[NH+]1CCC2(CC1)OC[C@@H](C(=O)OCCOC(=O)c1ccc(-c3c4nc(c(-c5cccc(S(=O)(=O)[O-])c5F)c5ccc([nH]5)c(-c5cccc(S(=O)(=O)[O-])c5F)c5nc(c(-c6cccc(S(=O)(=O)[O-])c6F)c6ccc3[nH]6)C=C5)C=C4)cc1)N2C(=O)c1ccc(Cl)c([N+](=O)[O-])c1
REMARK SMILES IDX 15 1 14 2 12 3 13 4 11 5 3 6 4 7 8 8 5 10 7 11 6 12 9 13
REMARK SMILES IDX 83 14 10 15 2 16 1 17 84 18 85 19 86 20 87 21 95 22 88 23
REMARK SMILES IDX 91 24 89 25 90 26 92 27 93 28 94 29 16 30 17 31 18 32 19 33
REMARK SMILES IDX 20 34 21 35 82 36 22 37 81 38 23 39 24 40 25 41 75 42 26 43
REMARK SMILES IDX 80 44 74 45 76 46 27 47 79 48 73 49 72 50 28 52 60 53 40 54
REMARK SMILES IDX 59 55 41 56 44 57 58 58 77 59 42 60 43 61 57 63 78 64 45 65
REMARK SMILES IDX 29 66 30 67 38 68 31 69 33 70 39 71 32 72 34 73 35 74 36 75
REMARK SMILES IDX 37 76 61 77 62 78 70 79 63 80 65 81 71 82 64 83 66 84 67 85
REMARK SMILES IDX 68 86 69 87 46 88 47 89 55 90 48 91 50 92 56 93 49 94 51 95
REMARK SMILES IDX 52 96 53 97 54 98
REMARK H PARENT 3 9 76 51 44 62
REMARK Flexibility Score: inf
ROOT
ATOM      1  C   UNL     1       3.043  -8.825  -4.234  1.00  0.00     0.274 C 
ENDROOT
BRANCH   1   2
ATOM      2  O   UNL     1       2.221  -7.664  -3.995  1.00  0.00    -0.460 OA
BRANCH   2   3
ATOM      3  C   UNL     1       1.289  -7.849  -3.030  1.00  0.00     0.331 C 
ATOM      4  O   UNL     1       0.892  -8.951  -2.654  1.00  0.00    -0.250 OA
BRANCH   3   5
ATOM      5  C   UNL     1       0.754  -6.568  -2.394  1.00  0.00     0.224 C 
ATOM      6  N   UNL     1       0.207  -1.527  -1.562  1.00  0.00    -0.335 N 
ATOM      7  C   UNL     1       0.164  -2.596  -0.587  1.00  0.00     0.267 C 
ATOM      8  C   UNL     1       0.094  -1.799  -2.982  1.00  0.00     0.267 C 
ATOM      9  H   UNL     1       1.221  -1.439  -1.502  1.00  0.00     0.348 HD
ATOM     10  C   UNL     1      -0.321  -3.961  -1.038  1.00  0.00     0.120 C 
ATOM     11  C   UNL     1      -0.339  -3.181  -3.443  1.00  0.00     0.120 C 
ATOM     12  C   UNL     1      -0.070  -4.345  -2.503  1.00  0.00     0.155 C 
ATOM     13  O   UNL     1      -1.167  -5.258  -2.814  1.00  0.00    -0.352 OA
ATOM     14  N   UNL     1       1.116  -5.189  -2.718  1.00  0.00    -0.293 N 
ATOM     15  C   UNL     1      -0.739  -6.606  -2.633  1.00  0.00     0.200 C 
BRANCH   6  16
ATOM     16  C   UNL     1      -0.345  -0.233  -1.157  1.00  0.00     0.258 C 
ATOM     17  C   UNL     1       0.127   0.281   0.199  1.00  0.00     0.071 C 
ENDBRANCH   6  16
BRANCH  14  18
ATOM     18  C   UNL     1       2.463  -4.874  -2.661  1.00  0.00     0.257 C 
ATOM     19  O   UNL     1       3.337  -5.710  -2.448  1.00  0.00    -0.269 OA
BRANCH  18  20
ATOM     20  C   UNL     1       2.953  -3.507  -2.860  1.00  0.00     0.047 A 
ATOM     21  C   UNL     1       3.218  -3.021  -4.144  1.00  0.00     0.016 A 
ATOM     22  C   UNL     1       3.333  -2.772  -1.738  1.00  0.00     0.101 A 
ATOM     23  C   UNL     1       3.796  -1.753  -4.298  1.00  0.00     0.028 A 
ATOM     24  C   UNL     1       3.854  -1.480  -1.902  1.00  0.00     0.288 A 
ATOM     25  C   UNL     1       4.103  -0.965  -3.178  1.00  0.00     0.118 A 
ATOM     26  Cl  UNL     1       4.840   0.568  -3.482  1.00  0.00    -0.077 Cl
BRANCH  24  27
ATOM     27  N   UNL     1       4.090  -0.699  -0.699  1.00  0.00     0.064 N 
ATOM     28  O   UNL     1       3.733   0.486  -0.697  1.00  0.00    -0.258 OA
ATOM     29  O   UNL     1       4.579  -1.294   0.270  1.00  0.00    -0.258 OA
ENDBRANCH  24  27
ENDBRANCH  18  20
ENDBRANCH  14  18
ENDBRANCH   3   5
ENDBRANCH   2   3
ENDBRANCH   1   2
BRANCH   1  30
ATOM     30  C   UNL     1       4.243  -8.812  -3.285  1.00  0.00     0.275 C 
BRANCH  30  31
ATOM     31  O   UNL     1       3.795  -8.860  -1.918  1.00  0.00    -0.458 OA
BRANCH  31  32
ATOM     32  C   UNL     1       4.679  -8.359  -1.026  1.00  0.00     0.338 C 
ATOM     33  O   UNL     1       5.804  -7.934  -1.280  1.00  0.00    -0.246 OA
BRANCH  32  34
ATOM     34  C   UNL     1       4.160  -8.473   0.353  1.00  0.00     0.060 A 
ATOM     35  C   UNL     1       2.830  -8.194   0.683  1.00  0.00     0.016 A 
ATOM     36  C   UNL     1       5.063  -8.822   1.359  1.00  0.00     0.016 A 
ATOM     37  C   UNL     1       2.420  -8.200   2.022  1.00  0.00     0.010 A 
ATOM     38  C   UNL     1       4.639  -8.891   2.687  1.00  0.00     0.010 A 
ATOM     39  C   UNL     1       3.325  -8.544   3.038  1.00  0.00    -0.014 A 
BRANCH  39  40
ATOM     40  C   UNL     1       2.941  -8.523   4.475  1.00  0.00     0.031 A 
ATOM     41  C   UNL     1       3.619  -7.561   5.416  1.00  0.00     0.074 A 
ATOM     42  C   UNL     1       2.056  -9.418   4.954  1.00  0.00     0.049 A 
ATOM     43  N   UNL     1       3.557  -7.495   6.721  1.00  0.00    -0.248 NA
ATOM     44  C   UNL     1       4.498  -6.547   4.808  1.00  0.00     0.031 C 
ATOM     45  C   UNL     1       1.349 -10.417   4.153  1.00  0.00     0.029 A 
ATOM     46  N   UNL     1       1.628  -9.655   6.237  1.00  0.00    -0.354 N 
ATOM     47  C   UNL     1       4.428  -6.478   7.094  1.00  0.00     0.074 A 
ATOM     48  C   UNL     1       5.006  -5.949   5.878  1.00  0.00     0.031 C 
ATOM     49  C   UNL     1       0.588 -11.170   4.963  1.00  0.00     0.029 A 
ATOM     50  C   UNL     1       0.785 -10.738   6.343  1.00  0.00     0.049 A 
ATOM     51  H   UNL     1       1.899  -9.105   7.007  1.00  0.00     0.167 HD
ATOM     52  C   UNL     1       4.712  -6.015   8.335  1.00  0.00     0.034 A 
ATOM     53  C   UNL     1       0.253 -11.334   7.429  1.00  0.00     0.034 A 
ATOM     54  C   UNL     1       4.092  -6.501   9.540  1.00  0.00     0.049 A 
ATOM     55  C   UNL     1       0.557 -10.779   8.794  1.00  0.00     0.074 A 
ATOM     56  C   UNL     1       4.265  -6.053  10.838  1.00  0.00     0.029 A 
ATOM     57  N   UNL     1       3.176  -7.540   9.593  1.00  0.00    -0.354 N 
ATOM     58  N   UNL     1       1.303  -9.751   9.117  1.00  0.00    -0.248 NA
ATOM     59  C   UNL     1      -0.071 -11.451   9.941  1.00  0.00     0.031 C 
ATOM     60  C   UNL     1       3.453  -6.824  11.678  1.00  0.00     0.029 A 
ATOM     61  C   UNL     1       2.773  -7.748  10.901  1.00  0.00     0.049 A 
ATOM     62  H   UNL     1       2.859  -8.053   8.816  1.00  0.00     0.167 HD
ATOM     63  C   UNL     1       1.219  -9.639  10.500  1.00  0.00     0.074 A 
ATOM     64  C   UNL     1       0.328 -10.688  10.951  1.00  0.00     0.031 C 
ATOM     65  C   UNL     1       1.841  -8.761  11.325  1.00  0.00     0.034 A 
BRANCH  52  66
ATOM     66  C   UNL     1       5.703  -4.888   8.454  1.00  0.00     0.023 A 
ATOM     67  C   UNL     1       5.303  -3.579   8.119  1.00  0.00     0.012 A 
ATOM     68  C   UNL     1       7.002  -5.108   8.951  1.00  0.00     0.148 A 
ATOM     69  C   UNL     1       6.189  -2.510   8.255  1.00  0.00     0.002 A 
ATOM     70  C   UNL     1       7.868  -4.032   9.117  1.00  0.00     0.091 A 
ATOM     71  F   UNL     1       7.374  -6.364   9.239  1.00  0.00    -0.205 F 
ATOM     72  C   UNL     1       7.465  -2.734   8.763  1.00  0.00     0.022 A 
BRANCH  70  73
ATOM     73  S   UNL     1       9.508  -4.220   9.829  1.00  0.00     0.127 S 
ATOM     74  O   UNL     1      10.356  -4.170   8.640  1.00  0.00    -0.237 OA
ATOM     75  O   UNL     1       9.608  -3.046  10.698  1.00  0.00    -0.237 OA
ATOM     76  O   UNL     1       9.487  -5.492  10.538  1.00  0.00    -0.744 OA
ENDBRANCH  70  73
ENDBRANCH  52  66
BRANCH  53  77
ATOM     77  C   UNL     1      -0.666 -12.494   7.254  1.00  0.00     0.023 A 
ATOM     78  C   UNL     1      -2.042 -12.323   7.496  1.00  0.00     0.012 A 
ATOM     79  C   UNL     1      -0.200 -13.739   6.789  1.00  0.00     0.148 A 
ATOM     80  C   UNL     1      -2.936 -13.374   7.290  1.00  0.00     0.002 A 
ATOM     81  C   UNL     1      -1.104 -14.765   6.532  1.00  0.00     0.091 A 
ATOM     82  F   UNL     1       1.117 -13.895   6.590  1.00  0.00    -0.205 F 
ATOM     83  C   UNL     1      -2.471 -14.589   6.793  1.00  0.00     0.022 A 
BRANCH  81  84
ATOM     84  S   UNL     1      -0.594 -16.302   5.752  1.00  0.00     0.127 S 
ATOM     85  O   UNL     1      -0.494 -17.202   6.897  1.00  0.00    -0.237 OA
ATOM     86  O   UNL     1      -1.712 -16.578   4.848  1.00  0.00    -0.237 OA
ATOM     87  O   UNL     1       0.654 -15.987   5.071  1.00  0.00    -0.744 OA
ENDBRANCH  81  84
ENDBRANCH  53  77
BRANCH  65  88
ATOM     88  C   UNL     1       1.573  -8.885  12.800  1.00  0.00     0.023 A 
ATOM     89  C   UNL     1       2.200  -9.913  13.531  1.00  0.00     0.012 A 
ATOM     90  C   UNL     1       0.765  -7.949  13.473  1.00  0.00     0.148 A 
ATOM     91  C   UNL     1       2.008 -10.022  14.908  1.00  0.00     0.002 A 
ATOM     92  C   UNL     1       0.607  -8.042  14.852  1.00  0.00     0.091 A 
ATOM     93  F   UNL     1       0.157  -6.992  12.757  1.00  0.00    -0.205 F 
ATOM     94  C   UNL     1       1.221  -9.081  15.569  1.00  0.00     0.022 A 
BRANCH  92  95
ATOM     95  S   UNL     1      -0.326  -6.821  15.783  1.00  0.00     0.127 S 
ATOM     96  O   UNL     1      -1.617  -7.487  15.943  1.00  0.00    -0.237 OA
ATOM     97  O   UNL     1       0.453  -6.699  17.017  1.00  0.00    -0.237 OA
ATOM     98  O   UNL     1      -0.330  -5.620  14.959  1.00  0.00    -0.744 OA
ENDBRANCH  92  95
ENDBRANCH  65  88
ENDBRANCH  39  40
ENDBRANCH  32  34
ENDBRANCH  31  32
ENDBRANCH  30  31
ENDBRANCH   1  30
TORSDOF 18
