REMARK SMILES Cc1ccc(OCCC[N@H+]2CCCC[C@@H]2C(=O)OCCOC(=O)c2ccc(-c3c4nc(c(-c5cccc(S(=O)(=O)[O-])c5F)c5ccc([nH]5)c(-c5cccc(S(=O)(=O)[O-])c5F)c5nc(c(-c6cccc(S(=O)(=O)[O-])c6F)c6ccc3[nH]6)C=C5)C=C4)cc2)cc1C
REMARK SMILES IDX 19 1 18 2 16 3 17 4 15 5 10 6 11 7 12 9 14 10 13 11 9 12
REMARK SMILES IDX 8 13 7 14 6 15 5 16 1 17 2 18 3 19 88 20 4 21 87 22 89 23
REMARK SMILES IDX 20 24 21 25 22 26 23 27 24 28 25 29 86 30 26 31 85 32 27 33
REMARK SMILES IDX 28 34 29 35 79 36 30 37 84 38 78 39 80 40 31 41 83 42 77 43
REMARK SMILES IDX 76 44 32 46 64 47 44 48 63 49 45 50 48 51 62 52 81 53 46 54
REMARK SMILES IDX 47 55 61 57 82 58 49 59 33 60 34 61 42 62 35 63 37 64 43 65
REMARK SMILES IDX 36 66 38 67 39 68 40 69 41 70 65 71 66 72 74 73 67 74 69 75
REMARK SMILES IDX 75 76 68 77 70 78 71 79 72 80 73 81 50 82 51 83 59 84 52 85
REMARK SMILES IDX 54 86 60 87 53 88 55 89 56 90 57 91 58 92
REMARK H PARENT 10 8 80 45 48 56
REMARK Flexibility Score: inf
ROOT
ATOM      1  C   UNL     1      -0.289   0.487  -2.253  1.00  0.00     0.274 C 
ENDROOT
BRANCH   1   2
ATOM      2  O   UNL     1      -1.358   1.439  -2.079  1.00  0.00    -0.458 OA
BRANCH   2   3
ATOM      3  C   UNL     1      -1.537   1.881  -0.805  1.00  0.00     0.365 C 
ATOM      4  O   UNL     1      -0.836   1.536   0.139  1.00  0.00    -0.245 OA
BRANCH   3   5
ATOM      5  C   UNL     1      -2.692   2.867  -0.624  1.00  0.00     0.295 C 
ATOM      6  N   UNL     1      -3.995   2.201  -0.285  1.00  0.00    -0.323 N 
ATOM      7  C   UNL     1      -5.026   3.254  -0.087  1.00  0.00     0.262 C 
ATOM      8  H   UNL     1      -4.237   1.569  -1.048  1.00  0.00     0.348 HD
ATOM      9  C   UNL     1      -5.168   4.224  -1.263  1.00  0.00     0.062 C 
ATOM     10  C   UNL     1      -2.802   3.783  -1.851  1.00  0.00     0.078 C 
ATOM     11  C   UNL     1      -3.836   4.869  -1.614  1.00  0.00     0.013 C 
BRANCH   6  12
ATOM     12  C   UNL     1      -3.898   1.417   0.979  1.00  0.00     0.266 C 
BRANCH  12  13
ATOM     13  C   UNL     1      -4.441  -0.018   0.864  1.00  0.00     0.103 C 
BRANCH  13  14
ATOM     14  C   UNL     1      -3.573  -0.982   0.047  1.00  0.00     0.235 C 
BRANCH  14  15
ATOM     15  O   UNL     1      -2.954  -1.989   0.879  1.00  0.00    -0.493 OA
BRANCH  15  16
ATOM     16  C   UNL     1      -1.651  -1.677   1.162  1.00  0.00     0.119 A 
ATOM     17  C   UNL     1       2.379  -0.295   1.720  1.00  0.00     0.044 C 
ATOM     18  C   UNL     1       1.004  -0.881   1.560  1.00  0.00    -0.048 A 
ATOM     19  C   UNL     1      -0.037  -0.328   2.323  1.00  0.00     0.007 A 
ATOM     20  C   UNL     1       0.721  -1.955   0.692  1.00  0.00    -0.045 A 
ATOM     21  C   UNL     1      -1.355  -0.742   2.142  1.00  0.00     0.047 A 
ATOM     22  C   UNL     1      -0.621  -2.340   0.496  1.00  0.00     0.050 A 
ATOM     23  C   UNL     1       1.814  -2.731   0.012  1.00  0.00     0.045 C 
ENDBRANCH  15  16
ENDBRANCH  14  15
ENDBRANCH  13  14
ENDBRANCH  12  13
ENDBRANCH   6  12
ENDBRANCH   3   5
ENDBRANCH   2   3
ENDBRANCH   1   2
BRANCH   1  24
ATOM     24  C   UNL     1       1.081   1.134  -2.506  1.00  0.00     0.275 C 
BRANCH  24  25
ATOM     25  O   UNL     1       1.621   1.769  -1.330  1.00  0.00    -0.458 OA
BRANCH  25  26
ATOM     26  C   UNL     1       1.323   3.086  -1.211  1.00  0.00     0.338 C 
ATOM     27  O   UNL     1       0.762   3.777  -2.047  1.00  0.00    -0.246 OA
BRANCH  26  28
ATOM     28  C   UNL     1       1.598   3.572   0.158  1.00  0.00     0.060 A 
ATOM     29  C   UNL     1       0.594   4.331   0.772  1.00  0.00     0.016 A 
ATOM     30  C   UNL     1       2.818   3.371   0.806  1.00  0.00     0.016 A 
ATOM     31  C   UNL     1       0.808   4.914   2.016  1.00  0.00     0.010 A 
ATOM     32  C   UNL     1       3.042   3.975   2.052  1.00  0.00     0.010 A 
ATOM     33  C   UNL     1       2.052   4.783   2.642  1.00  0.00    -0.014 A 
BRANCH  33  34
ATOM     34  C   UNL     1       2.354   5.695   3.773  1.00  0.00     0.031 A 
ATOM     35  C   UNL     1       3.098   6.972   3.478  1.00  0.00     0.074 A 
ATOM     36  C   UNL     1       1.907   5.451   5.019  1.00  0.00     0.049 A 
ATOM     37  N   UNL     1       3.372   7.973   4.272  1.00  0.00    -0.248 NA
ATOM     38  C   UNL     1       3.595   7.144   2.102  1.00  0.00     0.031 C 
ATOM     39  C   UNL     1       1.179   4.256   5.442  1.00  0.00     0.029 A 
ATOM     40  N   UNL     1       2.010   6.205   6.162  1.00  0.00    -0.354 N 
ATOM     41  C   UNL     1       4.094   8.878   3.504  1.00  0.00     0.074 A 
ATOM     42  C   UNL     1       4.229   8.304   2.184  1.00  0.00     0.031 C 
ATOM     43  C   UNL     1       0.920   4.348   6.760  1.00  0.00     0.029 A 
ATOM     44  C   UNL     1       1.459   5.608   7.272  1.00  0.00     0.049 A 
ATOM     45  H   UNL     1       2.438   7.091   6.185  1.00  0.00     0.167 HD
ATOM     46  C   UNL     1       4.582  10.090   3.853  1.00  0.00     0.034 A 
ATOM     47  C   UNL     1       1.398   6.034   8.550  1.00  0.00     0.034 A 
ATOM     48  C   UNL     1       4.416  10.689   5.147  1.00  0.00     0.049 A 
ATOM     49  C   UNL     1       1.933   7.401   8.904  1.00  0.00     0.074 A 
ATOM     50  C   UNL     1       4.825  11.941   5.572  1.00  0.00     0.029 A 
ATOM     51  N   UNL     1       3.799  10.079   6.226  1.00  0.00    -0.354 N 
ATOM     52  N   UNL     1       2.465   8.311   8.123  1.00  0.00    -0.248 NA
ATOM     53  C   UNL     1       1.815   7.819  10.310  1.00  0.00     0.031 C 
ATOM     54  C   UNL     1       4.469  12.081   6.918  1.00  0.00     0.029 A 
ATOM     55  C   UNL     1       3.822  10.924   7.321  1.00  0.00     0.049 A 
ATOM     56  H   UNL     1       3.403   9.178   6.215  1.00  0.00     0.167 HD
ATOM     57  C   UNL     1       2.706   9.417   8.934  1.00  0.00     0.074 A 
ATOM     58  C   UNL     1       2.236   9.075  10.259  1.00  0.00     0.031 C 
ATOM     59  C   UNL     1       3.284  10.602   8.616  1.00  0.00     0.034 A 
BRANCH  46  60
ATOM     60  C   UNL     1       5.319  10.871   2.801  1.00  0.00     0.023 A 
ATOM     61  C   UNL     1       4.597  11.508   1.772  1.00  0.00     0.012 A 
ATOM     62  C   UNL     1       6.718  11.021   2.865  1.00  0.00     0.148 A 
ATOM     63  C   UNL     1       5.259  12.264   0.807  1.00  0.00     0.002 A 
ATOM     64  C   UNL     1       7.366  11.809   1.923  1.00  0.00     0.091 A 
ATOM     65  F   UNL     1       7.384  10.385   3.840  1.00  0.00    -0.205 F 
ATOM     66  C   UNL     1       6.640  12.423   0.889  1.00  0.00     0.022 A 
BRANCH  64  67
ATOM     67  S   UNL     1       9.131  12.133   1.980  1.00  0.00     0.127 S 
ATOM     68  O   UNL     1       9.599  11.426   0.788  1.00  0.00    -0.237 OA
ATOM     69  O   UNL     1       9.177  13.592   1.881  1.00  0.00    -0.237 OA
ATOM     70  O   UNL     1       9.601  11.592   3.247  1.00  0.00    -0.744 OA
ENDBRANCH  64  67
ENDBRANCH  46  60
BRANCH  47  71
ATOM     71  C   UNL     1       0.768   5.184   9.602  1.00  0.00     0.023 A 
ATOM     72  C   UNL     1      -0.437   5.598  10.205  1.00  0.00     0.012 A 
ATOM     73  C   UNL     1       1.380   3.994  10.040  1.00  0.00     0.148 A 
ATOM     74  C   UNL     1      -0.994   4.868  11.256  1.00  0.00     0.002 A 
ATOM     75  C   UNL     1       0.791   3.244  11.052  1.00  0.00     0.091 A 
ATOM     76  F   UNL     1       2.538   3.627   9.473  1.00  0.00    -0.205 F 
ATOM     77  C   UNL     1      -0.385   3.688  11.675  1.00  0.00     0.022 A 
BRANCH  75  78
ATOM     78  S   UNL     1       1.454   1.657  11.569  1.00  0.00     0.127 S 
ATOM     79  O   UNL     1       2.135   2.007  12.812  1.00  0.00    -0.237 OA
ATOM     80  O   UNL     1       0.240   0.856  11.736  1.00  0.00    -0.237 OA
ATOM     81  O   UNL     1       2.308   1.222  10.472  1.00  0.00    -0.744 OA
ENDBRANCH  75  78
ENDBRANCH  47  71
BRANCH  59  82
ATOM     82  C   UNL     1       3.409  11.642   9.701  1.00  0.00     0.023 A 
ATOM     83  C   UNL     1       4.345  11.460  10.738  1.00  0.00     0.012 A 
ATOM     84  C   UNL     1       2.658  12.833   9.650  1.00  0.00     0.148 A 
ATOM     85  C   UNL     1       4.506  12.431  11.726  1.00  0.00     0.002 A 
ATOM     86  C   UNL     1       2.860  13.818  10.611  1.00  0.00     0.091 A 
ATOM     87  F   UNL     1       1.757  12.983   8.668  1.00  0.00    -0.205 F 
ATOM     88  C   UNL     1       3.774  13.614  11.656  1.00  0.00     0.022 A 
BRANCH  86  89
ATOM     89  S   UNL     1       2.028  15.409  10.528  1.00  0.00     0.127 S 
ATOM     90  O   UNL     1       0.934  15.226  11.480  1.00  0.00    -0.237 OA
ATOM     91  O   UNL     1       3.072  16.336  10.971  1.00  0.00    -0.237 OA
ATOM     92  O   UNL     1       1.635  15.574   9.135  1.00  0.00    -0.744 OA
ENDBRANCH  86  89
ENDBRANCH  59  82
ENDBRANCH  33  34
ENDBRANCH  26  28
ENDBRANCH  25  26
ENDBRANCH  24  25
ENDBRANCH   1  24
TORSDOF 19
