REMARK SMILES O=C(OCCOC(=O)[C@@H]1CC2(CC[NH2+]CC2)C[N@@H+]1Cc1cccc2nonc12)c1ccc(-c2c3nc(c(-c4cccc(S(=O)(=O)[O-])c4F)c4ccc([nH]4)c(-c4cccc(S(=O)(=O)[O-])c4F)c4nc(c(-c5cccc(S(=O)(=O)[O-])c5F)c5ccc2[nH]5)C=C4)C=C3)cc1
REMARK SMILES IDX 4 1 3 2 2 3 1 4 29 5 30 6 91 7 31 8 90 9 32 10 33 11 34 12
REMARK SMILES IDX 84 13 35 14 89 15 83 16 85 17 36 18 88 19 82 20 81 21 37 23
REMARK SMILES IDX 69 24 49 25 68 26 50 27 53 28 67 29 86 30 51 31 52 32 66 34
REMARK SMILES IDX 87 35 54 36 38 37 39 38 47 39 40 40 42 41 48 42 41 43 43 44
REMARK SMILES IDX 44 45 45 46 46 47 70 48 71 49 79 50 72 51 74 52 80 53 73 54
REMARK SMILES IDX 75 55 76 56 77 57 78 58 55 59 56 60 64 61 57 62 59 63 65 64
REMARK SMILES IDX 58 65 60 66 61 67 62 68 63 69 5 70 6 71 7 72 8 73 9 74 10 75
REMARK SMILES IDX 18 76 11 77 17 78 12 80 16 81 13 82 15 83 14 84 19 87 20 88
REMARK SMILES IDX 21 89 28 90 22 91 24 92 27 93 23 94 25 95 26 96
REMARK H PARENT 85 22 53 33 18 79 14 85 14 86
REMARK Flexibility Score: inf
ROOT
ATOM      1  C   UNL     1       3.718  -0.870  -1.659  1.00  0.00     0.275 C 
ENDROOT
BRANCH   1   2
ATOM      2  O   UNL     1       2.829  -1.115  -0.567  1.00  0.00    -0.458 OA
BRANCH   2   3
ATOM      3  C   UNL     1       2.638  -0.313   0.498  1.00  0.00     0.338 C 
ATOM      4  O   UNL     1       1.965  -0.742   1.438  1.00  0.00    -0.246 OA
BRANCH   3   5
ATOM      5  C   UNL     1       3.069   1.122   0.590  1.00  0.00     0.060 A 
ATOM      6  C   UNL     1       1.989   1.994   1.756  1.00  0.00     0.016 A 
ATOM      7  C   UNL     1       4.442   2.040  -0.213  1.00  0.00     0.016 A 
ATOM      8  C   UNL     1       2.261   3.708   2.154  1.00  0.00     0.010 A 
ATOM      9  C   UNL     1       4.791   3.789   0.322  1.00  0.00     0.010 A 
ATOM     10  C   UNL     1       3.602   4.640   1.435  1.00  0.00    -0.014 A 
BRANCH  10  11
ATOM     11  C   UNL     1       3.638   6.102   1.661  1.00  0.00     0.031 A 
ATOM     12  C   UNL     1       4.979   6.703   1.561  1.00  0.00     0.074 A 
ATOM     13  C   UNL     1       2.579   6.926   1.480  1.00  0.00     0.049 A 
ATOM     14  N   UNL     1       5.532   6.992   0.424  1.00  0.00    -0.248 NA
ATOM     15  C   UNL     1       5.852   6.815   2.725  1.00  0.00     0.031 C 
ATOM     16  C   UNL     1       1.221   6.566   1.060  1.00  0.00     0.029 A 
ATOM     17  N   UNL     1       2.554   8.297   1.440  1.00  0.00    -0.354 N 
ATOM     18  C   UNL     1       6.862   7.210   0.692  1.00  0.00     0.074 A 
ATOM     19  C   UNL     1       7.014   7.115   2.132  1.00  0.00     0.031 C 
ATOM     20  C   UNL     1       0.582   7.662   0.597  1.00  0.00     0.029 A 
ATOM     21  C   UNL     1       1.444   8.811   0.793  1.00  0.00     0.049 A 
ATOM     22  H   UNL     1       3.259   8.861   1.834  1.00  0.00     0.167 HD
ATOM     23  C   UNL     1       7.790   7.416  -0.273  1.00  0.00     0.034 A 
ATOM     24  C   UNL     1       1.238  10.043   0.251  1.00  0.00     0.034 A 
ATOM     25  C   UNL     1       7.338   7.480  -1.630  1.00  0.00     0.049 A 
ATOM     26  C   UNL     1       2.452  10.293  -0.616  1.00  0.00     0.074 A 
ATOM     27  C   UNL     1       7.347   6.663  -2.738  1.00  0.00     0.029 A 
ATOM     28  N   UNL     1       6.731   8.632  -2.072  1.00  0.00    -0.354 N 
ATOM     29  N   UNL     1       2.576   9.929  -1.877  1.00  0.00    -0.248 NA
ATOM     30  C   UNL     1       3.716  10.576   0.051  1.00  0.00     0.031 C 
ATOM     31  C   UNL     1       6.387   7.215  -3.647  1.00  0.00     0.029 A 
ATOM     32  C   UNL     1       5.781   8.299  -3.013  1.00  0.00     0.049 A 
ATOM     33  H   UNL     1       6.941   9.544  -1.767  1.00  0.00     0.167 HD
ATOM     34  C   UNL     1       3.935   9.622  -2.050  1.00  0.00     0.074 A 
ATOM     35  C   UNL     1       4.543   9.953  -0.775  1.00  0.00     0.031 C 
ATOM     36  C   UNL     1       4.509   9.011  -3.141  1.00  0.00     0.034 A 
BRANCH  23  37
ATOM     37  C   UNL     1       9.190   7.672   0.092  1.00  0.00     0.023 A 
ATOM     38  C   UNL     1       9.567   9.009   0.298  1.00  0.00     0.012 A 
ATOM     39  C   UNL     1      10.135   6.641   0.193  1.00  0.00     0.148 A 
ATOM     40  C   UNL     1      10.890   9.328   0.572  1.00  0.00     0.002 A 
ATOM     41  C   UNL     1      11.457   6.967   0.460  1.00  0.00     0.091 A 
ATOM     42  F   UNL     1       9.723   5.375   0.024  1.00  0.00    -0.205 F 
ATOM     43  C   UNL     1      11.836   8.309   0.644  1.00  0.00     0.022 A 
BRANCH  41  44
ATOM     44  S   UNL     1      12.757   5.736   0.573  1.00  0.00     0.127 S 
ATOM     45  O   UNL     1      13.601   6.087  -0.567  1.00  0.00    -0.237 OA
ATOM     46  O   UNL     1      13.337   6.033   1.883  1.00  0.00    -0.237 OA
ATOM     47  O   UNL     1      12.091   4.443   0.482  1.00  0.00    -0.744 OA
ENDBRANCH  41  44
ENDBRANCH  23  37
BRANCH  24  48
ATOM     48  C   UNL     1       0.693  10.948   1.327  1.00  0.00     0.023 A 
ATOM     49  C   UNL     1      -0.573  10.586   1.853  1.00  0.00     0.012 A 
ATOM     50  C   UNL     1       1.407  11.953   2.005  1.00  0.00     0.148 A 
ATOM     51  C   UNL     1      -1.028  11.071   3.080  1.00  0.00     0.002 A 
ATOM     52  C   UNL     1       0.968  12.409   3.250  1.00  0.00     0.091 A 
ATOM     53  F   UNL     1       2.530  12.441   1.470  1.00  0.00    -0.205 F 
ATOM     54  C   UNL     1      -0.238  11.955   3.799  1.00  0.00     0.022 A 
BRANCH  52  55
ATOM     55  S   UNL     1       1.968  13.511   4.263  1.00  0.00     0.127 S 
ATOM     56  O   UNL     1       0.958  14.349   4.909  1.00  0.00    -0.237 OA
ATOM     57  O   UNL     1       2.639  12.562   5.148  1.00  0.00    -0.237 OA
ATOM     58  O   UNL     1       2.828  14.219   3.324  1.00  0.00    -0.744 OA
ENDBRANCH  52  55
ENDBRANCH  24  48
BRANCH  36  59
ATOM     59  C   UNL     1       3.757   9.019  -4.463  1.00  0.00     0.023 A 
ATOM     60  C   UNL     1       3.368  10.267  -4.995  1.00  0.00     0.012 A 
ATOM     61  C   UNL     1       3.550   7.881  -5.275  1.00  0.00     0.148 A 
ATOM     62  C   UNL     1       2.793  10.380  -6.268  1.00  0.00     0.002 A 
ATOM     63  C   UNL     1       2.998   7.997  -6.556  1.00  0.00     0.091 A 
ATOM     64  F   UNL     1       3.871   6.673  -4.796  1.00  0.00    -0.205 F 
ATOM     65  C   UNL     1       2.612   9.246  -7.051  1.00  0.00     0.022 A 
BRANCH  63  66
ATOM     66  S   UNL     1       2.767   6.590  -7.660  1.00  0.00     0.127 S 
ATOM     67  O   UNL     1       1.321   6.595  -7.861  1.00  0.00    -0.237 OA
ATOM     68  O   UNL     1       3.547   6.982  -8.833  1.00  0.00    -0.237 OA
ATOM     69  O   UNL     1       3.284   5.434  -6.938  1.00  0.00    -0.744 OA
ENDBRANCH  63  66
ENDBRANCH  36  59
ENDBRANCH  10  11
ENDBRANCH   3   5
ENDBRANCH   2   3
ENDBRANCH   1   2
BRANCH   1  70
ATOM     70  C   UNL     1       3.110   0.047  -2.710  1.00  0.00     0.274 C 
BRANCH  70  71
ATOM     71  O   UNL     1       2.782   1.295  -2.100  1.00  0.00    -0.458 OA
BRANCH  71  72
ATOM     72  C   UNL     1       1.536   1.465  -1.591  1.00  0.00     0.365 C 
ATOM     73  O   UNL     1       0.583   0.741  -1.861  1.00  0.00    -0.245 OA
BRANCH  72  74
ATOM     74  C   UNL     1       1.443   2.654  -0.598  1.00  0.00     0.296 C 
ATOM     75  C   UNL     1       0.894   3.822  -1.439  1.00  0.00     0.091 C 
ATOM     76  N   UNL     1       2.808   3.186   0.137  1.00  0.00    -0.319 N 
ATOM     77  C   UNL     1       2.066   4.450  -2.163  1.00  0.00     0.036 C 
ATOM     78  C   UNL     1       3.210   4.209  -1.189  1.00  0.00     0.270 C 
ATOM     79  H   UNL     1       2.831   3.253   1.154  1.00  0.00     0.349 HD
ATOM     80  C   UNL     1       1.888   5.958  -2.429  1.00  0.00     0.074 C 
ATOM     81  C   UNL     1       2.399   3.887  -3.567  1.00  0.00     0.074 C 
ATOM     82  C   UNL     1       0.777   6.236  -3.433  1.00  0.00     0.261 C 
ATOM     83  C   UNL     1       1.254   4.093  -4.544  1.00  0.00     0.261 C 
ATOM     84  N   UNL     1       0.880   5.493  -4.681  1.00  0.00    -0.346 N 
ATOM     85  H   UNL     1       1.582   5.951  -5.263  1.00  0.00     0.346 HD
ATOM     86  H   UNL     1      -0.055   5.496  -5.089  1.00  0.00     0.346 HD
BRANCH  76  87
ATOM     87  C   UNL     1       4.050   2.552   1.724  1.00  0.00     0.302 C 
BRANCH  87  88
ATOM     88  C   UNL     1       5.590   1.596   1.741  1.00  0.00     0.038 A 
ATOM     89  C   UNL     1       6.818   2.156   1.230  1.00  0.00     0.012 A 
ATOM     90  C   UNL     1       5.652   0.175   1.795  1.00  0.00     0.144 A 
ATOM     91  C   UNL     1       7.758   1.408   0.463  1.00  0.00     0.003 A 
ATOM     92  C   UNL     1       6.645  -0.587   1.027  1.00  0.00     0.135 A 
ATOM     93  N   UNL     1       4.846  -0.706   2.396  1.00  0.00    -0.049 NA
ATOM     94  C   UNL     1       7.658   0.022   0.268  1.00  0.00     0.034 A 
ATOM     95  N   UNL     1       6.344  -1.888   1.125  1.00  0.00    -0.050 NA
ATOM     96  O   UNL     1       5.264  -1.958   1.988  1.00  0.00    -0.243 OA
ENDBRANCH  87  88
ENDBRANCH  76  87
ENDBRANCH  72  74
ENDBRANCH  71  72
ENDBRANCH  70  71
ENDBRANCH   1  70
TORSDOF 16
