REMARK SMILES O=C(OCCOC(=O)c1c(F)cccc1NC(=O)c1ccc[nH]c1=O)c1ccc(-c2c3nc(c(-c4cccc(S(=O)(=O)[O-])c4F)c4ccc([nH]4)c(-c4cccc(S(=O)(=O)[O-])c4F)c4nc(c(-c5cccc(S(=O)(=O)[O-])c5F)c5ccc2[nH]5)C=C4)C=C3)cc1
REMARK SMILES IDX 4 1 3 2 2 3 1 4 26 5 27 6 88 7 28 8 87 9 29 10 30 11 31 12
REMARK SMILES IDX 81 13 32 14 86 15 80 16 82 17 33 18 85 19 79 20 78 21 34 23
REMARK SMILES IDX 66 24 46 25 65 26 47 27 50 28 64 29 83 30 48 31 49 32 63 34
REMARK SMILES IDX 84 35 51 36 35 37 36 38 44 39 37 40 39 41 45 42 38 43 40 44
REMARK SMILES IDX 41 45 42 46 43 47 67 48 68 49 76 50 69 51 71 52 77 53 70 54
REMARK SMILES IDX 72 55 73 56 74 57 75 58 52 59 53 60 61 61 54 62 56 63 62 64
REMARK SMILES IDX 55 65 57 66 58 67 59 68 60 69 5 70 6 71 7 72 8 73 9 74 10 75
REMARK SMILES IDX 15 76 11 77 12 78 14 79 13 80 16 81 17 82 18 84 19 85 20 86
REMARK SMILES IDX 24 87 21 88 23 89 25 90 22 91
REMARK H PARENT 82 22 50 33 16 83 23 92
REMARK Flexibility Score: inf
ROOT
ATOM      1  C   UNL     1       4.073   0.166  -1.692  1.00  0.00     0.275 C 
ENDROOT
BRANCH   1   2
ATOM      2  O   UNL     1       3.149  -0.766  -1.102  1.00  0.00    -0.458 OA
BRANCH   2   3
ATOM      3  C   UNL     1       3.069  -1.231   0.166  1.00  0.00     0.338 C 
ATOM      4  O   UNL     1       2.331  -2.185   0.404  1.00  0.00    -0.246 OA
BRANCH   3   5
ATOM      5  C   UNL     1       3.737  -0.572   1.327  1.00  0.00     0.060 A 
ATOM      6  C   UNL     1       5.021  -0.028   1.318  1.00  0.00     0.016 A 
ATOM      7  C   UNL     1       3.029  -0.577   2.542  1.00  0.00     0.016 A 
ATOM      8  C   UNL     1       5.559   0.559   2.467  1.00  0.00     0.010 A 
ATOM      9  C   UNL     1       3.557   0.018   3.693  1.00  0.00     0.010 A 
ATOM     10  C   UNL     1       4.837   0.580   3.663  1.00  0.00    -0.014 A 
BRANCH  10  11
ATOM     11  C   UNL     1       5.497   1.047   4.902  1.00  0.00     0.031 A 
ATOM     12  C   UNL     1       5.987   0.026   5.887  1.00  0.00     0.074 A 
ATOM     13  C   UNL     1       5.705   2.360   5.121  1.00  0.00     0.049 A 
ATOM     14  N   UNL     1       6.694   0.207   6.969  1.00  0.00    -0.248 NA
ATOM     15  C   UNL     1       5.663  -1.384   5.607  1.00  0.00     0.031 C 
ATOM     16  C   UNL     1       5.300   3.435   4.220  1.00  0.00     0.029 A 
ATOM     17  N   UNL     1       6.295   3.015   6.172  1.00  0.00    -0.354 N 
ATOM     18  C   UNL     1       6.917  -1.061   7.486  1.00  0.00     0.074 A 
ATOM     19  C   UNL     1       6.226  -2.001   6.635  1.00  0.00     0.031 C 
ATOM     20  C   UNL     1       5.594   4.619   4.782  1.00  0.00     0.029 A 
ATOM     21  C   UNL     1       6.239   4.386   6.070  1.00  0.00     0.049 A 
ATOM     22  H   UNL     1       6.718   2.548   6.928  1.00  0.00     0.167 HD
ATOM     23  C   UNL     1       7.675  -1.413   8.548  1.00  0.00     0.034 A 
ATOM     24  C   UNL     1       6.673   5.343   6.914  1.00  0.00     0.034 A 
ATOM     25  C   UNL     1       8.371  -0.474   9.378  1.00  0.00     0.049 A 
ATOM     26  C   UNL     1       7.460   4.928   8.129  1.00  0.00     0.074 A 
ATOM     27  C   UNL     1       9.203  -0.731  10.451  1.00  0.00     0.029 A 
ATOM     28  N   UNL     1       8.303   0.903   9.237  1.00  0.00    -0.354 N 
ATOM     29  N   UNL     1       7.794   3.719   8.513  1.00  0.00    -0.248 NA
ATOM     30  C   UNL     1       7.983   5.997   8.991  1.00  0.00     0.031 C 
ATOM     31  C   UNL     1       9.617   0.495  10.978  1.00  0.00     0.029 A 
ATOM     32  C   UNL     1       9.061   1.513  10.218  1.00  0.00     0.049 A 
ATOM     33  H   UNL     1       7.791   1.375   8.542  1.00  0.00     0.167 HD
ATOM     34  C   UNL     1       8.605   3.882   9.629  1.00  0.00     0.074 A 
ATOM     35  C   UNL     1       8.714   5.309   9.860  1.00  0.00     0.031 C 
ATOM     36  C   UNL     1       9.202   2.937  10.394  1.00  0.00     0.034 A 
BRANCH  23  37
ATOM     37  C   UNL     1       7.827  -2.880   8.834  1.00  0.00     0.023 A 
ATOM     38  C   UNL     1       8.669  -3.658   8.014  1.00  0.00     0.012 A 
ATOM     39  C   UNL     1       7.182  -3.474   9.933  1.00  0.00     0.148 A 
ATOM     40  C   UNL     1       8.848  -5.016   8.271  1.00  0.00     0.002 A 
ATOM     41  C   UNL     1       7.394  -4.820  10.204  1.00  0.00     0.091 A 
ATOM     42  F   UNL     1       6.371  -2.715  10.684  1.00  0.00    -0.205 F 
ATOM     43  C   UNL     1       8.219  -5.594   9.370  1.00  0.00     0.022 A 
BRANCH  41  44
ATOM     44  S   UNL     1       6.675  -5.649  11.625  1.00  0.00     0.127 S 
ATOM     45  O   UNL     1       5.791  -6.621  10.982  1.00  0.00    -0.237 OA
ATOM     46  O   UNL     1       7.854  -6.227  12.268  1.00  0.00    -0.237 OA
ATOM     47  O   UNL     1       5.999  -4.616  12.396  1.00  0.00    -0.744 OA
ENDBRANCH  41  44
ENDBRANCH  23  37
BRANCH  24  48
ATOM     48  C   UNL     1       6.437   6.779   6.593  1.00  0.00     0.023 A 
ATOM     49  C   UNL     1       7.512   7.601   6.206  1.00  0.00     0.012 A 
ATOM     50  C   UNL     1       5.138   7.325   6.635  1.00  0.00     0.148 A 
ATOM     51  C   UNL     1       7.302   8.945   5.890  1.00  0.00     0.002 A 
ATOM     52  C   UNL     1       4.929   8.652   6.276  1.00  0.00     0.091 A 
ATOM     53  F   UNL     1       4.128   6.531   7.019  1.00  0.00    -0.205 F 
ATOM     54  C   UNL     1       6.012   9.468   5.915  1.00  0.00     0.022 A 
BRANCH  52  55
ATOM     55  S   UNL     1       3.285   9.369   6.167  1.00  0.00     0.127 S 
ATOM     56  O   UNL     1       3.255  10.230   7.346  1.00  0.00    -0.237 OA
ATOM     57  O   UNL     1       3.345  10.075   4.887  1.00  0.00    -0.237 OA
ATOM     58  O   UNL     1       2.368   8.236   6.183  1.00  0.00    -0.744 OA
ENDBRANCH  52  55
ENDBRANCH  24  48
BRANCH  36  59
ATOM     59  C   UNL     1      10.052   3.388  11.549  1.00  0.00     0.023 A 
ATOM     60  C   UNL     1       9.433   3.849  12.726  1.00  0.00     0.012 A 
ATOM     61  C   UNL     1      11.448   3.201  11.523  1.00  0.00     0.148 A 
ATOM     62  C   UNL     1      10.193   4.121  13.862  1.00  0.00     0.002 A 
ATOM     63  C   UNL     1      12.192   3.426  12.673  1.00  0.00     0.091 A 
ATOM     64  F   UNL     1      12.014   2.778  10.383  1.00  0.00    -0.205 F 
ATOM     65  C   UNL     1      11.568   3.893  13.841  1.00  0.00     0.022 A 
BRANCH  63  66
ATOM     66  S   UNL     1      13.946   3.047  12.774  1.00  0.00     0.127 S 
ATOM     67  O   UNL     1      14.535   4.384  12.833  1.00  0.00    -0.237 OA
ATOM     68  O   UNL     1      14.027   2.288  14.022  1.00  0.00    -0.237 OA
ATOM     69  O   UNL     1      14.261   2.279  11.577  1.00  0.00    -0.744 OA
ENDBRANCH  63  66
ENDBRANCH  36  59
ENDBRANCH  10  11
ENDBRANCH   3   5
ENDBRANCH   2   3
ENDBRANCH   1   2
BRANCH   1  70
ATOM     70  C   UNL     1       3.631   1.626  -1.641  1.00  0.00     0.275 C 
BRANCH  70  71
ATOM     71  O   UNL     1       3.254   2.067  -0.332  1.00  0.00    -0.458 OA
BRANCH  71  72
ATOM     72  C   UNL     1       1.918   2.096  -0.085  1.00  0.00     0.343 C 
ATOM     73  O   UNL     1       1.040   1.658  -0.812  1.00  0.00    -0.246 OA
BRANCH  72  74
ATOM     74  C   UNL     1       1.675   2.584   1.283  1.00  0.00     0.119 A 
ATOM     75  C   UNL     1       2.318   3.755   1.693  1.00  0.00     0.139 A 
ATOM     76  C   UNL     1       0.838   1.875   2.171  1.00  0.00     0.059 A 
ATOM     77  F   UNL     1       3.060   4.468   0.832  1.00  0.00    -0.206 F 
ATOM     78  C   UNL     1       2.207   4.207   3.000  1.00  0.00     0.040 A 
ATOM     79  C   UNL     1       0.850   2.276   3.513  1.00  0.00     0.027 A 
ATOM     80  C   UNL     1       1.513   3.438   3.924  1.00  0.00     0.005 A 
BRANCH  76  81
ATOM     81  N   UNL     1       0.080   0.775   1.687  1.00  0.00    -0.321 N 
ATOM     82  C   UNL     1      -0.919   0.004   2.216  1.00  0.00     0.261 C 
ATOM     83  H   UNL     1       0.326   0.511   0.771  1.00  0.00     0.170 HD
ATOM     84  O   UNL     1      -1.301  -0.995   1.600  1.00  0.00    -0.269 OA
BRANCH  82  85
ATOM     85  C   UNL     1      -1.539   0.325   3.513  1.00  0.00     0.105 A 
ATOM     86  C   UNL     1      -1.505  -0.615   4.477  1.00  0.00     0.021 A 
ATOM     87  C   UNL     1      -2.200   1.632   3.791  1.00  0.00     0.260 A 
ATOM     88  C   UNL     1      -2.010  -0.333   5.802  1.00  0.00     0.019 A 
ATOM     89  N   UNL     1      -2.589   1.833   5.099  1.00  0.00    -0.328 N 
ATOM     90  O   UNL     1      -2.375   2.487   2.930  1.00  0.00    -0.269 OA
ATOM     91  C   UNL     1      -2.504   0.879   6.081  1.00  0.00     0.086 A 
ATOM     92  H   UNL     1      -2.951   2.716   5.343  1.00  0.00     0.169 HD
ENDBRANCH  82  85
ENDBRANCH  76  81
ENDBRANCH  72  74
ENDBRANCH  71  72
ENDBRANCH  70  71
ENDBRANCH   1  70
TORSDOF 16
