REMARK SMILES CC(C)C[C@@H](NC(=O)Cn1nc(O)ccc1=O)C(=O)OCCOC(=O)c1ccc(-c2c3nc(c(-c4cccc(S(=O)(=O)[O-])c4F)c4ccc([nH]4)c(-c4cccc(S(=O)(=O)[O-])c4F)c4nc(c(-c5cccc(S(=O)(=O)[O-])c5F)c5ccc2[nH]5)C=C4)C=C3)cc1
REMARK SMILES IDX 21 1 20 2 18 3 19 4 5 5 4 6 2 7 1 8 3 9 6 10 7 11 8 13 9 14
REMARK SMILES IDX 10 15 11 16 16 17 12 18 15 19 17 20 14 21 13 22 22 24 23 25
REMARK SMILES IDX 24 26 25 27 26 28 27 29 88 30 28 31 87 32 29 33 30 34 31 35
REMARK SMILES IDX 81 36 32 37 86 38 80 39 82 40 33 41 85 42 79 43 78 44 34 46
REMARK SMILES IDX 66 47 46 48 65 49 47 50 50 51 64 52 83 53 48 54 49 55 63 57
REMARK SMILES IDX 84 58 51 59 35 60 36 61 44 62 37 63 39 64 45 65 38 66 40 67
REMARK SMILES IDX 41 68 42 69 43 70 67 71 68 72 76 73 69 74 71 75 77 76 70 77
REMARK SMILES IDX 72 78 73 79 74 80 75 81 52 82 53 83 61 84 54 85 56 86 62 87
REMARK SMILES IDX 55 88 57 89 58 90 59 91 60 92
REMARK H PARENT 6 12 13 23 82 45 50 56
REMARK Flexibility Score: inf
ROOT
ATOM      1  C   UNL     1      -5.177   0.610  -1.195  1.00  0.00     0.274 C 
ENDROOT
BRANCH   1   2
ATOM      2  O   UNL     1      -3.743   0.467  -1.258  1.00  0.00    -0.461 OA
BRANCH   2   3
ATOM      3  C   UNL     1      -2.996   1.595  -1.167  1.00  0.00     0.328 C 
ATOM      4  O   UNL     1      -3.462   2.712  -0.967  1.00  0.00    -0.250 OA
BRANCH   3   5
ATOM      5  C   UNL     1      -1.513   1.351  -1.515  1.00  0.00     0.192 C 
BRANCH   5   6
ATOM      6  C   UNL     1      -0.985  -0.097  -1.427  1.00  0.00     0.040 C 
BRANCH   6   7
ATOM      7  C   UNL     1       0.548  -0.248  -1.283  1.00  0.00    -0.015 C 
ATOM      8  C   UNL     1       1.067   0.216   0.077  1.00  0.00     0.007 C 
ATOM      9  C   UNL     1       0.942  -1.717  -1.494  1.00  0.00     0.007 C 
ENDBRANCH   6   7
ENDBRANCH   5   6
BRANCH   5  10
ATOM     10  N   UNL     1      -1.101   2.006  -2.769  1.00  0.00    -0.341 N 
ATOM     11  C   UNL     1      -1.617   1.897  -4.032  1.00  0.00     0.242 C 
ATOM     12  H   UNL     1      -0.334   2.617  -2.685  1.00  0.00     0.164 HD
ATOM     13  O   UNL     1      -0.835   2.053  -4.977  1.00  0.00    -0.273 OA
BRANCH  11  14
ATOM     14  C   UNL     1      -3.114   1.679  -4.284  1.00  0.00     0.248 C 
BRANCH  14  15
ATOM     15  N   UNL     1      -3.621   0.320  -4.466  1.00  0.00    -0.217 N 
ATOM     16  N   UNL     1      -3.072  -0.675  -3.691  1.00  0.00    -0.131 NA
ATOM     17  C   UNL     1      -4.792   0.137  -5.201  1.00  0.00     0.267 A 
ATOM     18  C   UNL     1      -3.655  -1.817  -3.710  1.00  0.00     0.229 A 
ATOM     19  C   UNL     1      -5.351  -1.240  -5.219  1.00  0.00     0.079 A 
ATOM     20  O   UNL     1      -5.400   1.022  -5.796  1.00  0.00    -0.268 OA
ATOM     21  C   UNL     1      -4.808  -2.218  -4.492  1.00  0.00     0.075 A 
BRANCH  18  22
ATOM     22  O   UNL     1      -3.249  -2.798  -2.897  1.00  0.00    -0.492 OA
ATOM     23  H   UNL     1      -2.510  -2.665  -2.336  1.00  0.00     0.295 HD
ENDBRANCH  18  22
ENDBRANCH  14  15
ENDBRANCH  11  14
ENDBRANCH   5  10
ENDBRANCH   3   5
ENDBRANCH   2   3
ENDBRANCH   1   2
BRANCH   1  24
ATOM     24  C   UNL     1      -5.770  -0.620  -0.506  1.00  0.00     0.275 C 
BRANCH  24  25
ATOM     25  O   UNL     1      -5.454  -0.556   0.891  1.00  0.00    -0.458 OA
BRANCH  25  26
ATOM     26  C   UNL     1      -4.191  -0.935   1.208  1.00  0.00     0.338 C 
ATOM     27  O   UNL     1      -3.457  -1.661   0.556  1.00  0.00    -0.246 OA
BRANCH  26  28
ATOM     28  C   UNL     1      -3.753  -0.085   2.333  1.00  0.00     0.060 A 
ATOM     29  C   UNL     1      -4.636   0.246   3.363  1.00  0.00     0.016 A 
ATOM     30  C   UNL     1      -2.456   0.444   2.312  1.00  0.00     0.016 A 
ATOM     31  C   UNL     1      -4.216   1.107   4.371  1.00  0.00     0.010 A 
ATOM     32  C   UNL     1      -2.034   1.304   3.323  1.00  0.00     0.010 A 
ATOM     33  C   UNL     1      -2.911   1.631   4.363  1.00  0.00    -0.014 A 
BRANCH  33  34
ATOM     34  C   UNL     1      -2.445   2.374   5.550  1.00  0.00     0.031 A 
ATOM     35  C   UNL     1      -2.369   3.866   5.566  1.00  0.00     0.074 A 
ATOM     36  C   UNL     1      -2.137   1.652   6.642  1.00  0.00     0.049 A 
ATOM     37  N   UNL     1      -2.231   4.657   6.596  1.00  0.00    -0.248 NA
ATOM     38  C   UNL     1      -2.449   4.564   4.274  1.00  0.00     0.031 C 
ATOM     39  C   UNL     1      -2.107   0.187   6.692  1.00  0.00     0.029 A 
ATOM     40  N   UNL     1      -1.825   2.038   7.918  1.00  0.00    -0.354 N 
ATOM     41  C   UNL     1      -2.203   5.946   6.084  1.00  0.00     0.074 A 
ATOM     42  C   UNL     1      -2.318   5.833   4.646  1.00  0.00     0.031 C 
ATOM     43  C   UNL     1      -1.847  -0.202   7.948  1.00  0.00     0.029 A 
ATOM     44  C   UNL     1      -1.695   0.982   8.787  1.00  0.00     0.049 A 
ATOM     45  H   UNL     1      -1.705   2.978   8.185  1.00  0.00     0.167 HD
ATOM     46  C   UNL     1      -2.114   7.111   6.767  1.00  0.00     0.034 A 
ATOM     47  C   UNL     1      -1.521   0.968  10.122  1.00  0.00     0.034 A 
ATOM     48  C   UNL     1      -2.029   7.194   8.200  1.00  0.00     0.049 A 
ATOM     49  C   UNL     1      -1.490   2.273  10.860  1.00  0.00     0.074 A 
ATOM     50  C   UNL     1      -2.031   8.327   8.995  1.00  0.00     0.029 A 
ATOM     51  N   UNL     1      -1.911   6.106   9.051  1.00  0.00    -0.354 N 
ATOM     52  N   UNL     1      -1.646   3.484  10.385  1.00  0.00    -0.248 NA
ATOM     53  C   UNL     1      -1.293   2.214  12.314  1.00  0.00     0.031 C 
ATOM     54  C   UNL     1      -1.898   7.923  10.327  1.00  0.00     0.029 A 
ATOM     55  C   UNL     1      -1.824   6.538  10.361  1.00  0.00     0.049 A 
ATOM     56  H   UNL     1      -1.892   5.164   8.764  1.00  0.00     0.167 HD
ATOM     57  C   UNL     1      -1.584   4.334  11.480  1.00  0.00     0.074 A 
ATOM     58  C   UNL     1      -1.389   3.496  12.648  1.00  0.00     0.031 C 
ATOM     59  C   UNL     1      -1.668   5.685  11.512  1.00  0.00     0.034 A 
BRANCH  46  60
ATOM     60  C   UNL     1      -2.170   8.399   5.995  1.00  0.00     0.023 A 
ATOM     61  C   UNL     1      -3.418   8.875   5.547  1.00  0.00     0.012 A 
ATOM     62  C   UNL     1      -1.020   9.194   5.822  1.00  0.00     0.148 A 
ATOM     63  C   UNL     1      -3.522  10.121   4.931  1.00  0.00     0.002 A 
ATOM     64  C   UNL     1      -1.136  10.447   5.230  1.00  0.00     0.091 A 
ATOM     65  F   UNL     1       0.157   8.715   6.248  1.00  0.00    -0.205 F 
ATOM     66  C   UNL     1      -2.385  10.911   4.782  1.00  0.00     0.022 A 
BRANCH  64  67
ATOM     67  S   UNL     1       0.256  11.568   5.039  1.00  0.00     0.127 S 
ATOM     68  O   UNL     1       0.381  11.635   3.583  1.00  0.00    -0.237 OA
ATOM     69  O   UNL     1      -0.247  12.790   5.665  1.00  0.00    -0.237 OA
ATOM     70  O   UNL     1       1.376  10.942   5.728  1.00  0.00    -0.744 OA
ENDBRANCH  64  67
ENDBRANCH  46  60
BRANCH  47  71
ATOM     71  C   UNL     1      -1.497  -0.340  10.828  1.00  0.00     0.023 A 
ATOM     72  C   UNL     1      -2.645  -0.764  11.523  1.00  0.00     0.012 A 
ATOM     73  C   UNL     1      -0.396  -1.209  10.712  1.00  0.00     0.148 A 
ATOM     74  C   UNL     1      -2.696  -2.036  12.094  1.00  0.00     0.002 A 
ATOM     75  C   UNL     1      -0.468  -2.488  11.249  1.00  0.00     0.091 A 
ATOM     76  F   UNL     1       0.681  -0.779  10.039  1.00  0.00    -0.205 F 
ATOM     77  C   UNL     1      -1.615  -2.901  11.948  1.00  0.00     0.022 A 
BRANCH  75  78
ATOM     78  S   UNL     1       0.825  -3.712  11.015  1.00  0.00     0.127 S 
ATOM     79  O   UNL     1       1.292  -3.917  12.384  1.00  0.00    -0.237 OA
ATOM     80  O   UNL     1       0.076  -4.832  10.445  1.00  0.00    -0.237 OA
ATOM     81  O   UNL     1       1.788  -3.104  10.108  1.00  0.00    -0.744 OA
ENDBRANCH  75  78
ENDBRANCH  47  71
BRANCH  59  82
ATOM     82  C   UNL     1      -1.546   6.369  12.844  1.00  0.00     0.023 A 
ATOM     83  C   UNL     1      -0.266   6.581  13.389  1.00  0.00     0.012 A 
ATOM     84  C   UNL     1      -2.675   6.934  13.466  1.00  0.00     0.148 A 
ATOM     85  C   UNL     1      -0.110   7.351  14.540  1.00  0.00     0.002 A 
ATOM     86  C   UNL     1      -2.509   7.728  14.593  1.00  0.00     0.091 A 
ATOM     87  F   UNL     1      -3.881   6.708  12.924  1.00  0.00    -0.205 F 
ATOM     88  C   UNL     1      -1.228   7.935  15.132  1.00  0.00     0.022 A 
BRANCH  86  89
ATOM     89  S   UNL     1      -3.873   8.590  15.382  1.00  0.00     0.127 S 
ATOM     90  O   UNL     1      -3.897   7.963  16.703  1.00  0.00    -0.237 OA
ATOM     91  O   UNL     1      -3.408   9.976  15.371  1.00  0.00    -0.237 OA
ATOM     92  O   UNL     1      -5.047   8.332  14.558  1.00  0.00    -0.744 OA
ENDBRANCH  86  89
ENDBRANCH  59  82
ENDBRANCH  33  34
ENDBRANCH  26  28
ENDBRANCH  25  26
ENDBRANCH  24  25
ENDBRANCH   1  24
TORSDOF 20
