REMARK SMILES O=C(OCCOC(=O)[C@H](C[NH+]1CCCC1)c1ccc(Br)cc1)c1ccc(-c2c3nc(c(-c4cccc(S(=O)(=O)[O-])c4F)c4ccc([nH]4)c(-c4cccc(S(=O)(=O)[O-])c4F)c4nc(c(-c5cccc(S(=O)(=O)[O-])c5F)c5ccc2[nH]5)C=C4)C=C3)cc1
REMARK SMILES IDX 4 1 3 2 2 3 1 4 23 5 24 6 85 7 25 8 84 9 26 10 27 11 28 12
REMARK SMILES IDX 78 13 29 14 83 15 77 16 79 17 30 18 82 19 76 20 75 21 31 23
REMARK SMILES IDX 63 24 43 25 62 26 44 27 47 28 61 29 80 30 45 31 46 32 60 34
REMARK SMILES IDX 81 35 48 36 32 37 33 38 41 39 34 40 36 41 42 42 35 43 37 44
REMARK SMILES IDX 38 45 39 46 40 47 64 48 65 49 73 50 66 51 68 52 74 53 67 54
REMARK SMILES IDX 69 55 70 56 71 57 72 58 49 59 50 60 58 61 51 62 53 63 59 64
REMARK SMILES IDX 52 65 54 66 55 67 56 68 57 69 5 70 6 71 7 72 8 73 9 74 16 75
REMARK SMILES IDX 17 76 22 77 18 78 21 79 19 80 20 81 10 82 11 83 12 84 15 85
REMARK SMILES IDX 13 87 14 88
REMARK H PARENT 79 22 47 33 11 86
REMARK Flexibility Score: inf
ROOT
ATOM      1  C   UNL     1       3.416  -5.065  -1.110  1.00  0.00     0.275 C 
ENDROOT
BRANCH   1   2
ATOM      2  O   UNL     1       3.242  -3.784  -1.733  1.00  0.00    -0.458 OA
BRANCH   2   3
ATOM      3  C   UNL     1       2.311  -2.827  -1.520  1.00  0.00     0.338 C 
ATOM      4  O   UNL     1       2.401  -1.798  -2.190  1.00  0.00    -0.246 OA
BRANCH   3   5
ATOM      5  C   UNL     1       1.217  -2.886  -0.485  1.00  0.00     0.060 A 
ATOM      6  C   UNL     1       0.851  -3.972   0.320  1.00  0.00     0.016 A 
ATOM      7  C   UNL     1       0.531  -1.682  -0.269  1.00  0.00     0.016 A 
ATOM      8  C   UNL     1      -0.069  -3.838   1.373  1.00  0.00     0.010 A 
ATOM      9  C   UNL     1      -0.393  -1.550   0.772  1.00  0.00     0.010 A 
ATOM     10  C   UNL     1      -0.671  -2.612   1.639  1.00  0.00    -0.014 A 
BRANCH  10  11
ATOM     11  C   UNL     1      -1.621  -2.453   2.774  1.00  0.00     0.031 A 
ATOM     12  C   UNL     1      -3.041  -2.069   2.471  1.00  0.00     0.074 A 
ATOM     13  C   UNL     1      -1.223  -2.609   4.057  1.00  0.00     0.049 A 
ATOM     14  N   UNL     1      -4.038  -1.890   3.294  1.00  0.00    -0.248 NA
ATOM     15  C   UNL     1      -3.376  -1.817   1.058  1.00  0.00     0.031 C 
ATOM     16  C   UNL     1       0.147  -2.883   4.496  1.00  0.00     0.029 A 
ATOM     17  N   UNL     1      -1.925  -2.547   5.237  1.00  0.00    -0.354 N 
ATOM     18  C   UNL     1      -5.102  -1.482   2.502  1.00  0.00     0.074 A 
ATOM     19  C   UNL     1      -4.607  -1.347   1.153  1.00  0.00     0.031 C 
ATOM     20  C   UNL     1       0.185  -2.973   5.838  1.00  0.00     0.029 A 
ATOM     21  C   UNL     1      -1.159  -2.772   6.363  1.00  0.00     0.049 A 
ATOM     22  H   UNL     1      -2.891  -2.357   5.276  1.00  0.00     0.167 HD
ATOM     23  C   UNL     1      -6.397  -1.307   2.844  1.00  0.00     0.034 A 
ATOM     24  C   UNL     1      -1.510  -2.831   7.665  1.00  0.00     0.034 A 
ATOM     25  C   UNL     1      -6.899  -1.496   4.171  1.00  0.00     0.049 A 
ATOM     26  C   UNL     1      -2.970  -2.670   8.016  1.00  0.00     0.074 A 
ATOM     27  C   UNL     1      -8.202  -1.405   4.621  1.00  0.00     0.029 A 
ATOM     28  N   UNL     1      -6.112  -1.818   5.266  1.00  0.00    -0.354 N 
ATOM     29  N   UNL     1      -3.992  -2.460   7.221  1.00  0.00    -0.248 NA
ATOM     30  C   UNL     1      -3.334  -2.805   9.435  1.00  0.00     0.031 C 
ATOM     31  C   UNL     1      -8.200  -1.658   5.996  1.00  0.00     0.029 A 
ATOM     32  C   UNL     1      -6.901  -1.935   6.394  1.00  0.00     0.049 A 
ATOM     33  H   UNL     1      -5.136  -1.945   5.243  1.00  0.00     0.167 HD
ATOM     34  C   UNL     1      -5.119  -2.479   8.035  1.00  0.00     0.074 A 
ATOM     35  C   UNL     1      -4.657  -2.751   9.381  1.00  0.00     0.031 C 
ATOM     36  C   UNL     1      -6.419  -2.273   7.708  1.00  0.00     0.034 A 
BRANCH  23  37
ATOM     37  C   UNL     1      -7.347  -0.958   1.732  1.00  0.00     0.023 A 
ATOM     38  C   UNL     1      -7.641  -1.924   0.745  1.00  0.00     0.012 A 
ATOM     39  C   UNL     1      -7.917   0.323   1.641  1.00  0.00     0.148 A 
ATOM     40  C   UNL     1      -8.439  -1.601  -0.349  1.00  0.00     0.002 A 
ATOM     41  C   UNL     1      -8.755   0.622   0.574  1.00  0.00     0.091 A 
ATOM     42  F   UNL     1      -7.609   1.228   2.580  1.00  0.00    -0.205 F 
ATOM     43  C   UNL     1      -9.000  -0.330  -0.431  1.00  0.00     0.022 A 
BRANCH  41  44
ATOM     44  S   UNL     1      -9.583   2.205   0.404  1.00  0.00     0.127 S 
ATOM     45  O   UNL     1      -8.998   2.712  -0.837  1.00  0.00    -0.237 OA
ATOM     46  O   UNL     1     -10.984   1.801   0.298  1.00  0.00    -0.237 OA
ATOM     47  O   UNL     1      -9.251   2.966   1.599  1.00  0.00    -0.744 OA
ENDBRANCH  41  44
ENDBRANCH  23  37
BRANCH  24  48
ATOM     48  C   UNL     1      -0.516  -3.140   8.741  1.00  0.00     0.023 A 
ATOM     49  C   UNL     1      -0.596  -4.375   9.419  1.00  0.00     0.012 A 
ATOM     50  C   UNL     1       0.442  -2.198   9.163  1.00  0.00     0.148 A 
ATOM     51  C   UNL     1       0.212  -4.641  10.528  1.00  0.00     0.002 A 
ATOM     52  C   UNL     1       1.265  -2.481  10.252  1.00  0.00     0.091 A 
ATOM     53  F   UNL     1       0.504  -1.020   8.525  1.00  0.00    -0.205 F 
ATOM     54  C   UNL     1       1.144  -3.695  10.944  1.00  0.00     0.022 A 
BRANCH  52  55
ATOM     55  S   UNL     1       2.505  -1.308  10.822  1.00  0.00     0.127 S 
ATOM     56  O   UNL     1       1.758  -0.543  11.816  1.00  0.00    -0.237 OA
ATOM     57  O   UNL     1       3.541  -2.179  11.379  1.00  0.00    -0.237 OA
ATOM     58  O   UNL     1       2.912  -0.584   9.624  1.00  0.00    -0.744 OA
ENDBRANCH  52  55
ENDBRANCH  24  48
BRANCH  36  59
ATOM     59  C   UNL     1      -7.444  -2.380   8.804  1.00  0.00     0.023 A 
ATOM     60  C   UNL     1      -7.529  -1.377   9.788  1.00  0.00     0.012 A 
ATOM     61  C   UNL     1      -8.388  -3.425   8.792  1.00  0.00     0.148 A 
ATOM     62  C   UNL     1      -8.523  -1.429  10.764  1.00  0.00     0.002 A 
ATOM     63  C   UNL     1      -9.410  -3.438   9.730  1.00  0.00     0.091 A 
ATOM     64  F   UNL     1      -8.275  -4.380   7.856  1.00  0.00    -0.205 F 
ATOM     65  C   UNL     1      -9.471  -2.449  10.726  1.00  0.00     0.022 A 
BRANCH  63  66
ATOM     66  S   UNL     1     -10.740  -4.643   9.682  1.00  0.00     0.127 S 
ATOM     67  O   UNL     1     -10.416  -5.492  10.827  1.00  0.00    -0.237 OA
ATOM     68  O   UNL     1     -11.926  -3.804   9.860  1.00  0.00    -0.237 OA
ATOM     69  O   UNL     1     -10.649  -5.289   8.379  1.00  0.00    -0.744 OA
ENDBRANCH  63  66
ENDBRANCH  36  59
ENDBRANCH  10  11
ENDBRANCH   3   5
ENDBRANCH   2   3
ENDBRANCH   1   2
BRANCH   1  70
ATOM     70  C   UNL     1       4.169  -4.985   0.219  1.00  0.00     0.274 C 
BRANCH  70  71
ATOM     71  O   UNL     1       3.623  -3.988   1.095  1.00  0.00    -0.461 OA
BRANCH  71  72
ATOM     72  C   UNL     1       4.336  -2.834   1.298  1.00  0.00     0.319 C 
ATOM     73  O   UNL     1       5.425  -2.594   0.781  1.00  0.00    -0.251 OA
BRANCH  72  74
ATOM     74  C   UNL     1       3.584  -1.923   2.268  1.00  0.00     0.184 C 
BRANCH  74  75
ATOM     75  C   UNL     1       3.923  -2.255   3.726  1.00  0.00    -0.028 A 
ATOM     76  C   UNL     1       4.300  -1.285   4.668  1.00  0.00     0.006 A 
ATOM     77  C   UNL     1       3.770  -3.575   4.190  1.00  0.00     0.006 A 
ATOM     78  C   UNL     1       4.511  -1.608   6.012  1.00  0.00     0.016 A 
ATOM     79  C   UNL     1       4.014  -3.911   5.523  1.00  0.00     0.016 A 
ATOM     80  C   UNL     1       4.389  -2.926   6.428  1.00  0.00     0.017 A 
ATOM     81  Br  UNL     1       4.754  -3.404   8.214  1.00  0.00    -0.051 Br
ENDBRANCH  74  75
BRANCH  74  82
ATOM     82  C   UNL     1       3.726  -0.436   1.803  1.00  0.00     0.282 C 
BRANCH  82  83
ATOM     83  N   UNL     1       2.837   0.449   2.526  1.00  0.00    -0.334 N 
ATOM     84  C   UNL     1       3.198   1.766   2.984  1.00  0.00     0.262 C 
ATOM     85  C   UNL     1       1.403   0.336   2.458  1.00  0.00     0.262 C 
ATOM     86  H   UNL     1       3.224  -0.212   3.200  1.00  0.00     0.348 HD
ATOM     87  C   UNL     1       2.171   1.907   4.104  1.00  0.00     0.067 C 
ATOM     88  C   UNL     1       0.901   1.306   3.517  1.00  0.00     0.067 C 
ENDBRANCH  82  83
ENDBRANCH  74  82
ENDBRANCH  72  74
ENDBRANCH  71  72
ENDBRANCH  70  71
ENDBRANCH   1  70
TORSDOF 17
