REMARK SMILES Cc1cccc(C[N@H+]2CC[C@@](C)(C(=O)OCCOC(=O)c3ccc(-c4c5nc(c(-c6cccc(S(=O)(=O)[O-])c6F)c6ccc([nH]6)c(-c6cccc(S(=O)(=O)[O-])c6F)c6nc(c(-c7cccc(S(=O)(=O)[O-])c7F)c7ccc4[nH]7)C=C6)C=C5)cc3)C2)n1
REMARK SMILES IDX 17 1 16 2 15 3 13 4 14 5 11 6 8 7 9 8 84 9 10 11 12 12 7 13
REMARK SMILES IDX 6 14 1 15 2 16 3 17 85 18 4 19 5 20 18 21 19 22 20 23 21 24
REMARK SMILES IDX 22 25 83 26 23 27 82 28 24 29 25 30 26 31 76 32 27 33 81 34
REMARK SMILES IDX 75 35 77 36 28 37 80 38 74 39 73 40 29 42 61 43 41 44 60 45
REMARK SMILES IDX 42 46 45 47 59 48 78 49 43 50 44 51 58 53 79 54 46 55 30 56
REMARK SMILES IDX 31 57 39 58 32 59 34 60 40 61 33 62 35 63 36 64 37 65 38 66
REMARK SMILES IDX 62 67 63 68 71 69 64 70 66 71 72 72 65 73 67 74 68 75 69 76
REMARK SMILES IDX 70 77 47 78 48 79 56 80 49 81 51 82 57 83 50 84 52 85 53 86
REMARK SMILES IDX 54 87 55 88
REMARK H PARENT 8 10 77 41 45 52
REMARK Flexibility Score: inf
ROOT
ATOM      1  C   UNL     1       3.779   0.345   2.256  1.00  0.00     0.275 C 
ENDROOT
BRANCH   1   2
ATOM      2  C   UNL     1       2.329   0.169   2.697  1.00  0.00     0.274 C 
BRANCH   2   3
ATOM      3  O   UNL     1       1.527   1.289   2.264  1.00  0.00    -0.461 OA
BRANCH   3   4
ATOM      4  C   UNL     1       1.049   2.120   3.224  1.00  0.00     0.317 C 
ATOM      5  O   UNL     1       1.294   1.987   4.420  1.00  0.00    -0.251 OA
BRANCH   4   6
ATOM      6  C   UNL     1       0.129   3.233   2.699  1.00  0.00     0.119 C 
ATOM      7  N   UNL     1      -1.555   2.893   1.027  1.00  0.00    -0.329 N 
ATOM      8  C   UNL     1      -1.978   2.200   2.235  1.00  0.00     0.263 C 
ATOM      9  C   UNL     1      -0.127   3.217   1.181  1.00  0.00     0.281 C 
ATOM     10  H   UNL     1      -2.100   3.751   0.936  1.00  0.00     0.348 HD
ATOM     11  C   UNL     1      -1.263   2.998   3.309  1.00  0.00     0.086 C 
ATOM     12  C   UNL     1       0.685   4.594   3.126  1.00  0.00     0.030 C 
BRANCH   7  13
ATOM     13  C   UNL     1      -1.887   2.220  -0.237  1.00  0.00     0.319 C 
BRANCH  13  14
ATOM     14  C   UNL     1      -1.300   0.833  -0.436  1.00  0.00     0.095 A 
ATOM     15  C   UNL     1       2.041  -0.450  -1.281  1.00  0.00     0.067 C 
ATOM     16  C   UNL     1       0.596  -0.442  -0.888  1.00  0.00     0.038 A 
ATOM     17  C   UNL     1      -0.070  -1.617  -0.566  1.00  0.00     0.023 A 
ATOM     18  N   UNL     1      -0.014   0.762  -0.864  1.00  0.00    -0.252 NA
ATOM     19  C   UNL     1      -1.403  -1.544  -0.173  1.00  0.00     0.004 A 
ATOM     20  C   UNL     1      -2.028  -0.303  -0.099  1.00  0.00     0.030 A 
ENDBRANCH  13  14
ENDBRANCH   7  13
ENDBRANCH   4   6
ENDBRANCH   3   4
ENDBRANCH   2   3
ENDBRANCH   1   2
BRANCH   1  21
ATOM     21  O   UNL     1       4.312   1.514   2.890  1.00  0.00    -0.458 OA
BRANCH  21  22
ATOM     22  C   UNL     1       4.760   2.487   2.067  1.00  0.00     0.338 C 
ATOM     23  O   UNL     1       4.889   2.435   0.853  1.00  0.00    -0.246 OA
BRANCH  22  24
ATOM     24  C   UNL     1       5.062   3.681   2.871  1.00  0.00     0.060 A 
ATOM     25  C   UNL     1       4.095   4.187   3.740  1.00  0.00     0.016 A 
ATOM     26  C   UNL     1       6.272   4.348   2.704  1.00  0.00     0.016 A 
ATOM     27  C   UNL     1       4.296   5.407   4.377  1.00  0.00     0.010 A 
ATOM     28  C   UNL     1       6.518   5.515   3.433  1.00  0.00     0.010 A 
ATOM     29  C   UNL     1       5.522   6.075   4.255  1.00  0.00    -0.014 A 
BRANCH  29  30
ATOM     30  C   UNL     1       5.765   7.353   4.979  1.00  0.00     0.031 A 
ATOM     31  C   UNL     1       6.162   8.589   4.214  1.00  0.00     0.074 A 
ATOM     32  C   UNL     1       5.658   7.401   6.322  1.00  0.00     0.049 A 
ATOM     33  N   UNL     1       6.620   9.727   4.666  1.00  0.00    -0.248 NA
ATOM     34  C   UNL     1       6.050   8.530   2.747  1.00  0.00     0.031 C 
ATOM     35  C   UNL     1       5.269   6.281   7.183  1.00  0.00     0.029 A 
ATOM     36  N   UNL     1       5.878   8.431   7.205  1.00  0.00    -0.354 N 
ATOM     37  C   UNL     1       6.930  10.485   3.542  1.00  0.00     0.074 A 
ATOM     38  C   UNL     1       6.590   9.686   2.386  1.00  0.00     0.031 C 
ATOM     39  C   UNL     1       5.252   6.689   8.461  1.00  0.00     0.029 A 
ATOM     40  C   UNL     1       5.708   8.071   8.523  1.00  0.00     0.049 A 
ATOM     41  H   UNL     1       6.132   9.339   6.922  1.00  0.00     0.167 HD
ATOM     42  C   UNL     1       7.443  11.737   3.483  1.00  0.00     0.034 A 
ATOM     43  C   UNL     1       5.931   8.761   9.658  1.00  0.00     0.034 A 
ATOM     44  C   UNL     1       7.697  12.557   4.637  1.00  0.00     0.049 A 
ATOM     45  C   UNL     1       6.458  10.165   9.561  1.00  0.00     0.074 A 
ATOM     46  C   UNL     1       8.197  13.847   4.685  1.00  0.00     0.029 A 
ATOM     47  N   UNL     1       7.442  12.179   5.946  1.00  0.00    -0.354 N 
ATOM     48  N   UNL     1       6.729  10.870   8.489  1.00  0.00    -0.248 NA
ATOM     49  C   UNL     1       6.706  10.871  10.826  1.00  0.00     0.031 C 
ATOM     50  C   UNL     1       8.238  14.250   6.024  1.00  0.00     0.029 A 
ATOM     51  C   UNL     1       7.759  13.213   6.809  1.00  0.00     0.049 A 
ATOM     52  H   UNL     1       7.087  11.303   6.222  1.00  0.00     0.167 HD
ATOM     53  C   UNL     1       7.165  12.106   8.948  1.00  0.00     0.074 A 
ATOM     54  C   UNL     1       7.089  12.065  10.395  1.00  0.00     0.031 C 
ATOM     55  C   UNL     1       7.617  13.170   8.241  1.00  0.00     0.034 A 
BRANCH  42  56
ATOM     56  C   UNL     1       7.736  12.315   2.123  1.00  0.00     0.023 A 
ATOM     57  C   UNL     1       6.675  12.782   1.323  1.00  0.00     0.012 A 
ATOM     58  C   UNL     1       9.061  12.452   1.665  1.00  0.00     0.148 A 
ATOM     59  C   UNL     1       6.927  13.357   0.077  1.00  0.00     0.002 A 
ATOM     60  C   UNL     1       9.307  13.059   0.439  1.00  0.00     0.091 A 
ATOM     61  F   UNL     1      10.055  11.980   2.432  1.00  0.00    -0.205 F 
ATOM     62  C   UNL     1       8.242  13.505  -0.360  1.00  0.00     0.022 A 
BRANCH  60  63
ATOM     63  S   UNL     1      10.969  13.358  -0.177  1.00  0.00     0.127 S 
ATOM     64  O   UNL     1      11.077  12.356  -1.236  1.00  0.00    -0.237 OA
ATOM     65  O   UNL     1      10.880  14.739  -0.653  1.00  0.00    -0.237 OA
ATOM     66  O   UNL     1      11.857  13.167   0.961  1.00  0.00    -0.744 OA
ENDBRANCH  60  63
ENDBRANCH  42  56
BRANCH  43  67
ATOM     67  C   UNL     1       5.630   8.137  10.979  1.00  0.00     0.023 A 
ATOM     68  C   UNL     1       4.554   8.628  11.743  1.00  0.00     0.012 A 
ATOM     69  C   UNL     1       6.359   7.031  11.458  1.00  0.00     0.148 A 
ATOM     70  C   UNL     1       4.221   8.041  12.965  1.00  0.00     0.002 A 
ATOM     71  C   UNL     1       5.983   6.412  12.645  1.00  0.00     0.091 A 
ATOM     72  F   UNL     1       7.400   6.590  10.737  1.00  0.00    -0.205 F 
ATOM     73  C   UNL     1       4.925   6.924  13.409  1.00  0.00     0.022 A 
BRANCH  71  74
ATOM     74  S   UNL     1       6.747   4.877  13.182  1.00  0.00     0.127 S 
ATOM     75  O   UNL     1       7.772   5.355  14.105  1.00  0.00    -0.237 OA
ATOM     76  O   UNL     1       5.631   4.173  13.815  1.00  0.00    -0.237 OA
ATOM     77  O   UNL     1       7.224   4.247  11.957  1.00  0.00    -0.744 OA
ENDBRANCH  71  74
ENDBRANCH  43  67
BRANCH  55  78
ATOM     78  C   UNL     1       8.046  14.382   9.018  1.00  0.00     0.023 A 
ATOM     79  C   UNL     1       9.290  14.374   9.680  1.00  0.00     0.012 A 
ATOM     80  C   UNL     1       7.254  15.546   9.040  1.00  0.00     0.148 A 
ATOM     81  C   UNL     1       9.729  15.500  10.373  1.00  0.00     0.002 A 
ATOM     82  C   UNL     1       7.716  16.677   9.702  1.00  0.00     0.091 A 
ATOM     83  F   UNL     1       6.063  15.523   8.425  1.00  0.00    -0.205 F 
ATOM     84  C   UNL     1       8.948  16.654  10.375  1.00  0.00     0.022 A 
BRANCH  82  85
ATOM     85  S   UNL     1       6.807  18.226   9.684  1.00  0.00     0.127 S 
ATOM     86  O   UNL     1       6.156  18.207  10.992  1.00  0.00    -0.237 OA
ATOM     87  O   UNL     1       7.875  19.218   9.549  1.00  0.00    -0.237 OA
ATOM     88  O   UNL     1       5.916  18.146   8.534  1.00  0.00    -0.744 OA
ENDBRANCH  82  85
ENDBRANCH  55  78
ENDBRANCH  29  30
ENDBRANCH  22  24
ENDBRANCH  21  22
ENDBRANCH   1  21
TORSDOF 16
