REMARK SMILES CC[C@H](C)CN(CC)c1nc(C(=O)OCCOC(=O)c2ccc(-c3c4nc(c(-c5cccc(S(=O)(=O)[O-])c5F)c5ccc([nH]5)c(-c5cccc(S(=O)(=O)[O-])c5F)c5nc(c(-c6cccc(S(=O)(=O)[O-])c6F)c6ccc3[nH]6)C=C5)C=C4)cc2)cc2ccccc12
REMARK SMILES IDX 15 1 14 2 12 3 13 4 11 5 9 6 10 7 89 8 84 9 88 10 83 11
REMARK SMILES IDX 85 12 87 13 86 14 6 15 5 16 3 17 4 18 2 19 1 20 7 21 8 22
REMARK SMILES IDX 16 23 17 24 18 25 19 26 20 27 21 28 82 29 22 30 81 31 23 32
REMARK SMILES IDX 24 33 25 34 75 35 26 36 80 37 74 38 76 39 27 40 79 41 73 42
REMARK SMILES IDX 72 43 28 45 60 46 40 47 59 48 41 49 44 50 58 51 77 52 42 53
REMARK SMILES IDX 43 54 57 56 78 57 45 58 29 59 30 60 38 61 31 62 33 63 39 64
REMARK SMILES IDX 32 65 34 66 35 67 36 68 37 69 61 70 62 71 70 72 63 73 65 74
REMARK SMILES IDX 71 75 64 76 66 77 67 78 68 79 69 80 46 81 47 82 55 83 48 84
REMARK SMILES IDX 50 85 56 86 49 87 51 88 52 89 53 90 54 91
REMARK H PARENT 76 44 44 55
REMARK Flexibility Score: inf
ROOT
ATOM      1  C   UNL     1      -1.534  -4.826  -7.154  1.00  0.00     0.275 C 
ENDROOT
BRANCH   1   2
ATOM      2  O   UNL     1      -1.127  -4.303  -5.872  1.00  0.00    -0.457 OA
BRANCH   2   3
ATOM      3  C   UNL     1      -0.354  -3.187  -5.946  1.00  0.00     0.357 C 
ATOM      4  O   UNL     1      -0.002  -2.630  -6.970  1.00  0.00    -0.244 OA
BRANCH   3   5
ATOM      5  C   UNL     1       0.009  -2.647  -4.609  1.00  0.00     0.151 A 
ATOM      6  C   UNL     1       1.148  -2.949  -2.623  1.00  0.00     0.137 A 
ATOM      7  N   UNL     1       0.518  -3.494  -3.690  1.00  0.00    -0.223 NA
ATOM      8  C   UNL     1       1.365  -1.541  -2.513  1.00  0.00     0.024 A 
ATOM      9  C   UNL     1       0.649  -0.703  -3.381  1.00  0.00    -0.012 A 
ATOM     10  C   UNL     1       2.237  -0.903  -1.598  1.00  0.00     0.012 A 
ATOM     11  C   UNL     1      -0.022  -1.273  -4.448  1.00  0.00     0.045 A 
ATOM     12  C   UNL     1       0.641   0.690  -3.203  1.00  0.00     0.009 A 
ATOM     13  C   UNL     1       2.252   0.486  -1.438  1.00  0.00     0.001 A 
ATOM     14  C   UNL     1       1.419   1.280  -2.213  1.00  0.00     0.001 A 
BRANCH   6  15
ATOM     15  N   UNL     1       1.493  -3.808  -1.564  1.00  0.00    -0.356 N 
BRANCH  15  16
ATOM     16  C   UNL     1       0.482  -3.903  -0.475  1.00  0.00     0.121 C 
BRANCH  16  17
ATOM     17  C   UNL     1       0.460  -2.664   0.453  1.00  0.00     0.005 C 
ATOM     18  C   UNL     1      -0.715  -1.734   0.112  1.00  0.00     0.009 C 
BRANCH  17  19
ATOM     19  C   UNL     1       0.439  -3.017   1.953  1.00  0.00     0.002 C 
ATOM     20  C   UNL     1       0.938  -1.849   2.803  1.00  0.00     0.004 C 
ENDBRANCH  17  19
ENDBRANCH  16  17
ENDBRANCH  15  16
BRANCH  15  21
ATOM     21  C   UNL     1       2.159  -5.060  -1.956  1.00  0.00     0.114 C 
ATOM     22  C   UNL     1       1.254  -6.098  -2.614  1.00  0.00     0.027 C 
ENDBRANCH  15  21
ENDBRANCH   6  15
ENDBRANCH   3   5
ENDBRANCH   2   3
ENDBRANCH   1   2
BRANCH   1  23
ATOM     23  C   UNL     1      -2.940  -4.361  -7.536  1.00  0.00     0.275 C 
BRANCH  23  24
ATOM     24  O   UNL     1      -2.979  -2.932  -7.709  1.00  0.00    -0.458 OA
BRANCH  24  25
ATOM     25  C   UNL     1      -3.731  -2.256  -6.813  1.00  0.00     0.338 C 
ATOM     26  O   UNL     1      -4.397  -2.730  -5.902  1.00  0.00    -0.246 OA
BRANCH  25  27
ATOM     27  C   UNL     1      -3.622  -0.803  -7.025  1.00  0.00     0.060 A 
ATOM     28  C   UNL     1      -2.377  -0.194  -6.934  1.00  0.00     0.016 A 
ATOM     29  C   UNL     1      -4.768  -0.017  -7.122  1.00  0.00     0.016 A 
ATOM     30  C   UNL     1      -2.284   1.185  -6.756  1.00  0.00     0.010 A 
ATOM     31  C   UNL     1      -4.653   1.380  -7.113  1.00  0.00     0.010 A 
ATOM     32  C   UNL     1      -3.416   2.004  -6.870  1.00  0.00    -0.014 A 
BRANCH  32  33
ATOM     33  C   UNL     1      -3.306   3.491  -6.734  1.00  0.00     0.031 A 
ATOM     34  C   UNL     1      -4.226   4.252  -5.804  1.00  0.00     0.074 A 
ATOM     35  C   UNL     1      -2.394   4.179  -7.455  1.00  0.00     0.049 A 
ATOM     36  N   UNL     1      -4.424   5.543  -5.712  1.00  0.00    -0.248 NA
ATOM     37  C   UNL     1      -5.047   3.460  -4.873  1.00  0.00     0.031 C 
ATOM     38  C   UNL     1      -1.432   3.592  -8.391  1.00  0.00     0.029 A 
ATOM     39  N   UNL     1      -2.129   5.528  -7.524  1.00  0.00    -0.354 N 
ATOM     40  C   UNL     1      -5.456   5.710  -4.793  1.00  0.00     0.074 A 
ATOM     41  C   UNL     1      -5.829   4.388  -4.337  1.00  0.00     0.031 C 
ATOM     42  C   UNL     1      -0.658   4.558  -8.901  1.00  0.00     0.029 A 
ATOM     43  C   UNL     1      -1.135   5.848  -8.422  1.00  0.00     0.049 A 
ATOM     44  H   UNL     1      -2.604   6.199  -6.982  1.00  0.00     0.167 HD
ATOM     45  C   UNL     1      -6.036   6.857  -4.363  1.00  0.00     0.034 A 
ATOM     46  C   UNL     1      -0.686   7.039  -8.864  1.00  0.00     0.034 A 
ATOM     47  C   UNL     1      -5.596   8.175  -4.739  1.00  0.00     0.049 A 
ATOM     48  C   UNL     1      -1.318   8.296  -8.342  1.00  0.00     0.074 A 
ATOM     49  C   UNL     1      -6.089   9.398  -4.318  1.00  0.00     0.029 A 
ATOM     50  N   UNL     1      -4.548   8.444  -5.605  1.00  0.00    -0.354 N 
ATOM     51  N   UNL     1      -2.275   8.429  -7.458  1.00  0.00    -0.248 NA
ATOM     52  C   UNL     1      -0.807   9.568  -8.874  1.00  0.00     0.031 C 
ATOM     53  C   UNL     1      -5.342  10.408  -4.934  1.00  0.00     0.029 A 
ATOM     54  C   UNL     1      -4.374   9.813  -5.726  1.00  0.00     0.049 A 
ATOM     55  H   UNL     1      -4.008   7.763  -6.067  1.00  0.00     0.167 HD
ATOM     56  C   UNL     1      -2.469   9.796  -7.311  1.00  0.00     0.074 A 
ATOM     57  C   UNL     1      -1.511  10.451  -8.178  1.00  0.00     0.031 C 
ATOM     58  C   UNL     1      -3.375  10.450  -6.545  1.00  0.00     0.034 A 
BRANCH  45  59
ATOM     59  C   UNL     1      -7.200   6.751  -3.410  1.00  0.00     0.023 A 
ATOM     60  C   UNL     1      -6.977   6.416  -2.060  1.00  0.00     0.012 A 
ATOM     61  C   UNL     1      -8.508   7.060  -3.837  1.00  0.00     0.148 A 
ATOM     62  C   UNL     1      -8.039   6.362  -1.157  1.00  0.00     0.002 A 
ATOM     63  C   UNL     1      -9.556   7.044  -2.922  1.00  0.00     0.091 A 
ATOM     64  F   UNL     1      -8.707   7.358  -5.129  1.00  0.00    -0.205 F 
ATOM     65  C   UNL     1      -9.325   6.686  -1.584  1.00  0.00     0.022 A 
BRANCH  63  66
ATOM     66  S   UNL     1     -11.230   7.527  -3.362  1.00  0.00     0.127 S 
ATOM     67  O   UNL     1     -11.906   6.231  -3.416  1.00  0.00    -0.237 OA
ATOM     68  O   UNL     1     -11.620   8.370  -2.231  1.00  0.00    -0.237 OA
ATOM     69  O   UNL     1     -11.121   8.232  -4.631  1.00  0.00    -0.744 OA
ENDBRANCH  63  66
ENDBRANCH  45  59
BRANCH  46  70
ATOM     70  C   UNL     1       0.431   7.087  -9.852  1.00  0.00     0.023 A 
ATOM     71  C   UNL     1       1.690   7.571  -9.450  1.00  0.00     0.012 A 
ATOM     72  C   UNL     1       0.273   6.593 -11.162  1.00  0.00     0.148 A 
ATOM     73  C   UNL     1       2.767   7.573 -10.337  1.00  0.00     0.002 A 
ATOM     74  C   UNL     1       1.366   6.535 -12.018  1.00  0.00     0.091 A 
ATOM     75  F   UNL     1      -0.939   6.161 -11.538  1.00  0.00    -0.205 F 
ATOM     76  C   UNL     1       2.611   7.040 -11.614  1.00  0.00     0.022 A 
BRANCH  74  77
ATOM     77  S   UNL     1       1.280   5.711 -13.613  1.00  0.00     0.127 S 
ATOM     78  O   UNL     1       1.196   6.843 -14.532  1.00  0.00    -0.237 OA
ATOM     79  O   UNL     1       2.547   4.980 -13.650  1.00  0.00    -0.237 OA
ATOM     80  O   UNL     1       0.103   4.856 -13.541  1.00  0.00    -0.744 OA
ENDBRANCH  74  77
ENDBRANCH  46  70
BRANCH  58  81
ATOM     81  C   UNL     1      -3.354  11.953  -6.573  1.00  0.00     0.023 A 
ATOM     82  C   UNL     1      -3.883  12.638  -7.684  1.00  0.00     0.012 A 
ATOM     83  C   UNL     1      -2.880  12.685  -5.467  1.00  0.00     0.148 A 
ATOM     84  C   UNL     1      -3.919  14.031  -7.704  1.00  0.00     0.002 A 
ATOM     85  C   UNL     1      -2.958  14.072  -5.476  1.00  0.00     0.091 A 
ATOM     86  F   UNL     1      -2.360  12.012  -4.430  1.00  0.00    -0.205 F 
ATOM     87  C   UNL     1      -3.468  14.747  -6.597  1.00  0.00     0.022 A 
BRANCH  85  88
ATOM     88  S   UNL     1      -2.481  15.069  -4.060  1.00  0.00     0.127 S 
ATOM     89  O   UNL     1      -1.217  15.645  -4.513  1.00  0.00    -0.237 OA
ATOM     90  O   UNL     1      -3.587  16.023  -3.964  1.00  0.00    -0.237 OA
ATOM     91  O   UNL     1      -2.382  14.146  -2.937  1.00  0.00    -0.744 OA
ENDBRANCH  85  88
ENDBRANCH  58  81
ENDBRANCH  32  33
ENDBRANCH  25  27
ENDBRANCH  24  25
ENDBRANCH  23  24
ENDBRANCH   1  23
TORSDOF 19
