REMARK SMILES CCOc1ccc(-c2ccc(N3CCC[C@H](C(=O)OCCOC(=O)c4ccc(-c5c6nc(c(-c7cccc(S(=O)(=O)[O-])c7F)c7ccc([nH]7)c(-c7cccc(S(=O)(=O)[O-])c7F)c7nc(c(-c8cccc(S(=O)(=O)[O-])c8F)c8ccc5[nH]8)C=C7)C=C6)cc4)C3)nn2)cc1
REMARK SMILES IDX 20 1 19 2 17 3 18 4 16 5 12 6 13 7 88 8 14 9 15 10 11 11
REMARK SMILES IDX 8 12 9 13 90 14 10 15 89 16 7 17 4 18 5 19 92 20 6 21 91 22
REMARK SMILES IDX 3 23 2 24 1 25 21 26 22 27 23 28 24 29 25 30 26 31 87 32
REMARK SMILES IDX 27 33 86 34 28 35 29 36 30 37 80 38 31 39 85 40 79 41 81 42
REMARK SMILES IDX 32 43 84 44 78 45 77 46 33 48 65 49 45 50 64 51 46 52 49 53
REMARK SMILES IDX 63 54 82 55 47 56 48 57 62 59 83 60 50 61 34 62 35 63 43 64
REMARK SMILES IDX 36 65 38 66 44 67 37 68 39 69 40 70 41 71 42 72 66 73 67 74
REMARK SMILES IDX 75 75 68 76 70 77 76 78 69 79 71 80 72 81 73 82 74 83 51 84
REMARK SMILES IDX 52 85 60 86 53 87 55 88 61 89 54 90 56 91 57 92 58 93 59 94
REMARK H PARENT 81 47 49 58
REMARK Flexibility Score: inf
ROOT
ATOM      1  C   UNL     1       9.435  -7.000   2.043  1.00  0.00     0.274 C 
ENDROOT
BRANCH   1   2
ATOM      2  O   UNL     1      10.491  -6.027   2.137  1.00  0.00    -0.462 OA
BRANCH   2   3
ATOM      3  C   UNL     1      10.651  -5.379   3.316  1.00  0.00     0.310 C 
ATOM      4  O   UNL     1       9.966  -5.561   4.316  1.00  0.00    -0.252 OA
BRANCH   3   5
ATOM      5  C   UNL     1      11.801  -4.383   3.291  1.00  0.00     0.118 C 
ATOM      6  N   UNL     1      10.640  -2.460   2.298  1.00  0.00    -0.354 N 
ATOM      7  C   UNL     1      11.464  -2.446   1.093  1.00  0.00     0.118 C 
ATOM      8  C   UNL     1      11.265  -2.972   3.517  1.00  0.00     0.133 C 
ATOM      9  C   UNL     1      12.068  -3.819   0.812  1.00  0.00     0.022 C 
ATOM     10  C   UNL     1      12.711  -4.434   2.057  1.00  0.00     0.019 C 
BRANCH   6  11
ATOM     11  C   UNL     1       9.259  -2.555   2.178  1.00  0.00     0.151 A 
ATOM     12  C   UNL     1       6.511  -2.623   1.907  1.00  0.00     0.093 A 
ATOM     13  C   UNL     1       7.062  -2.114   3.070  1.00  0.00     0.035 A 
ATOM     14  N   UNL     1       7.299  -3.104   0.926  1.00  0.00    -0.148 NA
ATOM     15  C   UNL     1       8.444  -2.082   3.200  1.00  0.00     0.051 A 
ATOM     16  N   UNL     1       8.680  -3.055   1.064  1.00  0.00    -0.132 NA
BRANCH  12  17
ATOM     17  C   UNL     1       5.080  -2.510   1.638  1.00  0.00     0.002 A 
ATOM     18  C   UNL     1       2.320  -2.185   1.245  1.00  0.00     0.119 A 
ATOM     19  C   UNL     1       2.855  -3.464   1.394  1.00  0.00     0.047 A 
ATOM     20  C   UNL     1       3.143  -1.068   1.318  1.00  0.00     0.047 A 
ATOM     21  C   UNL     1       4.234  -3.627   1.580  1.00  0.00     0.014 A 
ATOM     22  C   UNL     1       4.514  -1.231   1.495  1.00  0.00     0.014 A 
BRANCH  18  23
ATOM     23  O   UNL     1       0.965  -2.042   1.139  1.00  0.00    -0.494 OA
BRANCH  23  24
ATOM     24  C   UNL     1       0.554  -1.661  -0.180  1.00  0.00     0.226 C 
ATOM     25  C   UNL     1       0.437  -0.151  -0.323  1.00  0.00     0.049 C 
ENDBRANCH  23  24
ENDBRANCH  18  23
ENDBRANCH  12  17
ENDBRANCH   6  11
ENDBRANCH   3   5
ENDBRANCH   2   3
ENDBRANCH   1   2
BRANCH   1  26
ATOM     26  C   UNL     1      10.027  -8.392   1.819  1.00  0.00     0.275 C 
BRANCH  26  27
ATOM     27  O   UNL     1      10.774  -8.816   2.974  1.00  0.00    -0.458 OA
BRANCH  27  28
ATOM     28  C   UNL     1      12.101  -8.552   2.925  1.00  0.00     0.338 C 
ATOM     29  O   UNL     1      12.736  -8.088   1.995  1.00  0.00    -0.246 OA
BRANCH  28  30
ATOM     30  C   UNL     1      12.682  -8.768   4.258  1.00  0.00     0.060 A 
ATOM     31  C   UNL     1      13.107  -7.646   4.971  1.00  0.00     0.016 A 
ATOM     32  C   UNL     1      12.879 -10.051   4.765  1.00  0.00     0.016 A 
ATOM     33  C   UNL     1      13.745  -7.796   6.197  1.00  0.00     0.010 A 
ATOM     34  C   UNL     1      13.518 -10.202   5.999  1.00  0.00     0.010 A 
ATOM     35  C   UNL     1      13.969  -9.077   6.714  1.00  0.00    -0.014 A 
BRANCH  35  36
ATOM     36  C   UNL     1      14.729  -9.233   7.976  1.00  0.00     0.031 A 
ATOM     37  C   UNL     1      16.143  -9.738   7.934  1.00  0.00     0.074 A 
ATOM     38  C   UNL     1      14.153  -8.914   9.149  1.00  0.00     0.049 A 
ATOM     39  N   UNL     1      16.955  -9.997   8.925  1.00  0.00    -0.248 NA
ATOM     40  C   UNL     1      16.720  -9.983   6.602  1.00  0.00     0.031 C 
ATOM     41  C   UNL     1      12.791  -8.400   9.308  1.00  0.00     0.029 A 
ATOM     42  N   UNL     1      14.634  -8.989  10.431  1.00  0.00    -0.354 N 
ATOM     43  C   UNL     1      18.122 -10.475   8.342  1.00  0.00     0.074 A 
ATOM     44  C   UNL     1      17.914 -10.470   6.910  1.00  0.00     0.031 C 
ATOM     45  C   UNL     1      12.542  -8.221  10.615  1.00  0.00     0.029 A 
ATOM     46  C   UNL     1      13.710  -8.638  11.386  1.00  0.00     0.049 A 
ATOM     47  H   UNL     1      15.554  -9.269  10.646  1.00  0.00     0.167 HD
ATOM     48  C   UNL     1      19.268 -10.869   8.946  1.00  0.00     0.034 A 
ATOM     49  C   UNL     1      13.791  -8.669  12.731  1.00  0.00     0.034 A 
ATOM     50  C   UNL     1      19.484 -10.835  10.367  1.00  0.00     0.049 A 
ATOM     51  C   UNL     1      15.076  -9.117  13.374  1.00  0.00     0.074 A 
ATOM     52  C   UNL     1      20.622 -11.183  11.074  1.00  0.00     0.029 A 
ATOM     53  N   UNL     1      18.542 -10.428  11.300  1.00  0.00    -0.354 N 
ATOM     54  N   UNL     1      16.201  -9.479  12.806  1.00  0.00    -0.248 NA
ATOM     55  C   UNL     1      15.112  -9.135  14.844  1.00  0.00     0.031 C 
ATOM     56  C   UNL     1      20.364 -10.994  12.436  1.00  0.00     0.029 A 
ATOM     57  C   UNL     1      19.071 -10.517  12.576  1.00  0.00     0.049 A 
ATOM     58  H   UNL     1      17.632 -10.121  11.086  1.00  0.00     0.167 HD
ATOM     59  C   UNL     1      17.085  -9.742  13.845  1.00  0.00     0.074 A 
ATOM     60  C   UNL     1      16.373  -9.472  15.078  1.00  0.00     0.031 C 
ATOM     61  C   UNL     1      18.365 -10.188  13.788  1.00  0.00     0.034 A 
BRANCH  48  62
ATOM     62  C   UNL     1      20.395 -11.338   8.066  1.00  0.00     0.023 A 
ATOM     63  C   UNL     1      21.154 -10.393   7.347  1.00  0.00     0.012 A 
ATOM     64  C   UNL     1      20.737 -12.703   7.991  1.00  0.00     0.148 A 
ATOM     65  C   UNL     1      22.221 -10.800   6.547  1.00  0.00     0.002 A 
ATOM     66  C   UNL     1      21.825 -13.097   7.221  1.00  0.00     0.091 A 
ATOM     67  F   UNL     1      19.986 -13.588   8.661  1.00  0.00    -0.205 F 
ATOM     68  C   UNL     1      22.563 -12.149   6.492  1.00  0.00     0.022 A 
BRANCH  66  69
ATOM     69  S   UNL     1      22.383 -14.803   7.140  1.00  0.00     0.127 S 
ATOM     70  O   UNL     1      21.941 -15.195   5.803  1.00  0.00    -0.237 OA
ATOM     71  O   UNL     1      23.832 -14.663   7.285  1.00  0.00    -0.237 OA
ATOM     72  O   UNL     1      21.729 -15.490   8.245  1.00  0.00    -0.744 OA
ENDBRANCH  66  69
ENDBRANCH  48  62
BRANCH  49  73
ATOM     73  C   UNL     1      12.632  -8.225  13.556  1.00  0.00     0.023 A 
ATOM     74  C   UNL     1      12.726  -7.029  14.293  1.00  0.00     0.012 A 
ATOM     75  C   UNL     1      11.432  -8.962  13.593  1.00  0.00     0.148 A 
ATOM     76  C   UNL     1      11.655  -6.587  15.070  1.00  0.00     0.002 A 
ATOM     77  C   UNL     1      10.350  -8.487  14.326  1.00  0.00     0.091 A 
ATOM     78  F   UNL     1      11.369 -10.112  12.907  1.00  0.00    -0.205 F 
ATOM     79  C   UNL     1      10.464  -7.308  15.077  1.00  0.00     0.022 A 
BRANCH  77  80
ATOM     80  S   UNL     1       8.743  -9.288  14.278  1.00  0.00     0.127 S 
ATOM     81  O   UNL     1       8.727 -10.005  15.550  1.00  0.00    -0.237 OA
ATOM     82  O   UNL     1       7.831  -8.146  14.203  1.00  0.00    -0.237 OA
ATOM     83  O   UNL     1       8.761 -10.114  13.078  1.00  0.00    -0.744 OA
ENDBRANCH  77  80
ENDBRANCH  49  73
BRANCH  61  84
ATOM     84  C   UNL     1      19.089 -10.390  15.092  1.00  0.00     0.023 A 
ATOM     85  C   UNL     1      18.775 -11.503  15.896  1.00  0.00     0.012 A 
ATOM     86  C   UNL     1      20.127  -9.522  15.485  1.00  0.00     0.148 A 
ATOM     87  C   UNL     1      19.463 -11.734  17.086  1.00  0.00     0.002 A 
ATOM     88  C   UNL     1      20.837  -9.782  16.651  1.00  0.00     0.091 A 
ATOM     89  F   UNL     1      20.396  -8.455  14.718  1.00  0.00    -0.205 F 
ATOM     90  C   UNL     1      20.500 -10.882  17.458  1.00  0.00     0.022 A 
BRANCH  88  91
ATOM     91  S   UNL     1      22.244  -8.785  17.153  1.00  0.00     0.127 S 
ATOM     92  O   UNL     1      21.658  -7.941  18.193  1.00  0.00    -0.237 OA
ATOM     93  O   UNL     1      23.186  -9.792  17.645  1.00  0.00    -0.237 OA
ATOM     94  O   UNL     1      22.685  -8.090  15.951  1.00  0.00    -0.744 OA
ENDBRANCH  88  91
ENDBRANCH  61  84
ENDBRANCH  35  36
ENDBRANCH  28  30
ENDBRANCH  27  28
ENDBRANCH  26  27
ENDBRANCH   1  26
TORSDOF 18
