REMARK SMILES O=C(CCC(=O)N1N=C(c2ccc(F)cc2)C[C@@H]1c1ccc2nccnc2c1)OCCOC(=O)c1ccc(-c2c3nc(c(-c4cccc(S(=O)(=O)[O-])c4F)c4ccc([nH]4)c(-c4cccc(S(=O)(=O)[O-])c4F)c4nc(c(-c5cccc(S(=O)(=O)[O-])c5F)c5ccc2[nH]5)C=C4)C=C3)cc1
REMARK SMILES IDX 30 1 29 2 2 3 1 4 3 5 4 6 5 7 6 8 7 9 8 10 18 11 9 12 17 13
REMARK SMILES IDX 19 14 20 15 28 16 21 17 27 18 22 19 26 20 23 21 25 22 24 23
REMARK SMILES IDX 10 24 11 25 16 26 12 27 15 28 13 29 14 30 31 31 32 32 33 33
REMARK SMILES IDX 34 34 35 35 36 36 97 37 37 38 96 39 38 40 39 41 40 42 90 43
REMARK SMILES IDX 41 44 95 45 89 46 91 47 42 48 94 49 88 50 87 51 43 53 75 54
REMARK SMILES IDX 55 55 74 56 56 57 59 58 73 59 92 60 57 61 58 62 72 64 93 65
REMARK SMILES IDX 60 66 44 67 45 68 53 69 46 70 48 71 54 72 47 73 49 74 50 75
REMARK SMILES IDX 51 76 52 77 76 78 77 79 85 80 78 81 80 82 86 83 79 84 81 85
REMARK SMILES IDX 82 86 83 87 84 88 61 89 62 90 70 91 63 92 65 93 71 94 64 95
REMARK SMILES IDX 66 96 67 97 68 98 69 99
REMARK H PARENT 91 52 59 63
REMARK Flexibility Score: inf
ROOT
ATOM      1  C   UNL     1       5.366   0.693  -0.619  1.00  0.00     0.274 C 
ENDROOT
BRANCH   1   2
ATOM      2  O   UNL     1       3.995   0.221  -0.602  1.00  0.00    -0.462 OA
BRANCH   2   3
ATOM      3  C   UNL     1       2.879   0.872  -0.234  1.00  0.00     0.306 C 
ATOM      4  O   UNL     1       1.762   0.362  -0.289  1.00  0.00    -0.252 OA
BRANCH   3   5
ATOM      5  C   UNL     1       3.079   2.146   0.455  1.00  0.00     0.132 C 
BRANCH   5   6
ATOM      6  C   UNL     1       3.418   1.801   1.882  1.00  0.00     0.114 C 
BRANCH   6   7
ATOM      7  C   UNL     1       4.343   0.621   2.242  1.00  0.00     0.243 C 
ATOM      8  O   UNL     1       5.359   0.997   2.866  1.00  0.00    -0.273 OA
BRANCH   7   9
ATOM      9  N   UNL     1       4.134  -0.760   2.060  1.00  0.00    -0.225 N 
ATOM     10  N   UNL     1       4.911  -1.445   2.971  1.00  0.00    -0.174 NA
ATOM     11  C   UNL     1       3.088  -1.744   1.483  1.00  0.00     0.147 C 
ATOM     12  C   UNL     1       4.347  -2.564   3.250  1.00  0.00     0.071 C 
ATOM     13  C   UNL     1       3.175  -2.958   2.429  1.00  0.00     0.091 C 
BRANCH  11  14
ATOM     14  C   UNL     1       3.203  -2.364   0.057  1.00  0.00    -0.021 A 
ATOM     15  C   UNL     1       2.020  -2.836  -0.547  1.00  0.00     0.008 A 
ATOM     16  C   UNL     1       4.380  -2.517  -0.701  1.00  0.00     0.036 A 
ATOM     17  C   UNL     1       1.995  -3.273  -1.881  1.00  0.00     0.031 A 
ATOM     18  C   UNL     1       4.355  -2.851  -2.078  1.00  0.00     0.089 A 
ATOM     19  C   UNL     1       3.120  -3.205  -2.680  1.00  0.00     0.089 A 
ATOM     20  N   UNL     1       5.458  -2.696  -2.853  1.00  0.00    -0.253 NA
ATOM     21  N   UNL     1       2.979  -3.369  -4.016  1.00  0.00    -0.253 NA
ATOM     22  C   UNL     1       5.254  -2.688  -4.197  1.00  0.00     0.132 A 
ATOM     23  C   UNL     1       4.040  -3.011  -4.766  1.00  0.00     0.132 A 
ENDBRANCH  11  14
BRANCH  12  24
ATOM     24  C   UNL     1       4.803  -3.322   4.409  1.00  0.00    -0.002 A 
ATOM     25  C   UNL     1       5.299  -4.614   4.277  1.00  0.00     0.013 A 
ATOM     26  C   UNL     1       4.851  -2.636   5.633  1.00  0.00     0.013 A 
ATOM     27  C   UNL     1       5.869  -5.223   5.395  1.00  0.00     0.040 A 
ATOM     28  C   UNL     1       5.405  -3.256   6.746  1.00  0.00     0.040 A 
ATOM     29  C   UNL     1       5.917  -4.542   6.614  1.00  0.00     0.123 A 
ATOM     30  F   UNL     1       6.486  -5.131   7.673  1.00  0.00    -0.207 F 
ENDBRANCH  12  24
ENDBRANCH   7   9
ENDBRANCH   6   7
ENDBRANCH   5   6
ENDBRANCH   3   5
ENDBRANCH   2   3
ENDBRANCH   1   2
BRANCH   1  31
ATOM     31  C   UNL     1       5.870   0.615  -2.048  1.00  0.00     0.275 C 
BRANCH  31  32
ATOM     32  O   UNL     1       4.985   1.327  -2.915  1.00  0.00    -0.458 OA
BRANCH  32  33
ATOM     33  C   UNL     1       3.826   0.720  -3.272  1.00  0.00     0.338 C 
ATOM     34  O   UNL     1       3.451  -0.422  -3.108  1.00  0.00    -0.246 OA
BRANCH  33  35
ATOM     35  C   UNL     1       2.934   1.768  -3.709  1.00  0.00     0.060 A 
ATOM     36  C   UNL     1       1.676   1.911  -3.104  1.00  0.00     0.016 A 
ATOM     37  C   UNL     1       3.451   2.681  -4.616  1.00  0.00     0.016 A 
ATOM     38  C   UNL     1       0.966   3.074  -3.315  1.00  0.00     0.010 A 
ATOM     39  C   UNL     1       2.742   3.827  -4.837  1.00  0.00     0.010 A 
ATOM     40  C   UNL     1       1.523   4.027  -4.165  1.00  0.00    -0.014 A 
BRANCH  40  41
ATOM     41  C   UNL     1       0.844   5.278  -4.467  1.00  0.00     0.031 A 
ATOM     42  C   UNL     1       0.205   5.377  -5.803  1.00  0.00     0.074 A 
ATOM     43  C   UNL     1       1.062   6.314  -3.646  1.00  0.00     0.049 A 
ATOM     44  N   UNL     1      -0.147   6.440  -6.458  1.00  0.00    -0.248 NA
ATOM     45  C   UNL     1      -0.010   4.105  -6.519  1.00  0.00     0.031 C 
ATOM     46  C   UNL     1       1.727   6.235  -2.342  1.00  0.00     0.029 A 
ATOM     47  N   UNL     1       0.823   7.643  -3.830  1.00  0.00    -0.354 N 
ATOM     48  C   UNL     1      -0.597   5.975  -7.682  1.00  0.00     0.074 A 
ATOM     49  C   UNL     1      -0.450   4.538  -7.690  1.00  0.00     0.031 C 
ATOM     50  C   UNL     1       1.878   7.477  -1.858  1.00  0.00     0.029 A 
ATOM     51  C   UNL     1       1.367   8.425  -2.841  1.00  0.00     0.049 A 
ATOM     52  H   UNL     1       0.313   8.005  -4.591  1.00  0.00     0.167 HD
ATOM     53  C   UNL     1      -1.093   6.707  -8.701  1.00  0.00     0.034 A 
ATOM     54  C   UNL     1       1.466   9.764  -2.775  1.00  0.00     0.034 A 
ATOM     55  C   UNL     1      -1.182   8.138  -8.644  1.00  0.00     0.049 A 
ATOM     56  C   UNL     1       0.908  10.558  -3.920  1.00  0.00     0.074 A 
ATOM     57  C   UNL     1      -1.690   9.008  -9.586  1.00  0.00     0.029 A 
ATOM     58  N   UNL     1      -0.730   8.911  -7.579  1.00  0.00    -0.354 N 
ATOM     59  N   UNL     1       0.394  10.123  -5.048  1.00  0.00    -0.248 NA
ATOM     60  C   UNL     1       0.907  12.017  -3.777  1.00  0.00     0.031 C 
ATOM     61  C   UNL     1      -1.515  10.309  -9.104  1.00  0.00     0.029 A 
ATOM     62  C   UNL     1      -0.948  10.249  -7.837  1.00  0.00     0.049 A 
ATOM     63  H   UNL     1      -0.314   8.554  -6.761  1.00  0.00     0.167 HD
ATOM     64  C   UNL     1      -0.041  11.249  -5.732  1.00  0.00     0.074 A 
ATOM     65  C   UNL     1       0.277  12.387  -4.886  1.00  0.00     0.031 C 
ATOM     66  C   UNL     1      -0.647  11.342  -6.942  1.00  0.00     0.034 A 
BRANCH  53  67
ATOM     67  C   UNL     1      -1.570   5.964  -9.916  1.00  0.00     0.023 A 
ATOM     68  C   UNL     1      -2.697   5.120  -9.822  1.00  0.00     0.012 A 
ATOM     69  C   UNL     1      -0.913   6.102 -11.152  1.00  0.00     0.148 A 
ATOM     70  C   UNL     1      -3.140   4.397 -10.928  1.00  0.00     0.002 A 
ATOM     71  C   UNL     1      -1.394   5.422 -12.264  1.00  0.00     0.091 A 
ATOM     72  F   UNL     1       0.181   6.873 -11.213  1.00  0.00    -0.205 F 
ATOM     73  C   UNL     1      -2.497   4.559 -12.151  1.00  0.00     0.022 A 
BRANCH  71  74
ATOM     74  S   UNL     1      -0.689   5.628 -13.902  1.00  0.00     0.127 S 
ATOM     75  O   UNL     1      -0.091   4.313 -14.133  1.00  0.00    -0.237 OA
ATOM     76  O   UNL     1      -1.875   5.909 -14.710  1.00  0.00    -0.237 OA
ATOM     77  O   UNL     1       0.255   6.731 -13.799  1.00  0.00    -0.744 OA
ENDBRANCH  71  74
ENDBRANCH  53  67
BRANCH  54  78
ATOM     78  C   UNL     1       2.021  10.390  -1.547  1.00  0.00     0.023 A 
ATOM     79  C   UNL     1       1.131  10.987  -0.634  1.00  0.00     0.012 A 
ATOM     80  C   UNL     1       3.385  10.283  -1.212  1.00  0.00     0.148 A 
ATOM     81  C   UNL     1       1.590  11.477   0.589  1.00  0.00     0.002 A 
ATOM     82  C   UNL     1       3.827  10.728   0.029  1.00  0.00     0.091 A 
ATOM     83  F   UNL     1       4.209   9.697  -2.092  1.00  0.00    -0.205 F 
ATOM     84  C   UNL     1       2.934  11.337   0.925  1.00  0.00     0.022 A 
BRANCH  82  85
ATOM     85  S   UNL     1       5.506  10.467   0.614  1.00  0.00     0.127 S 
ATOM     86  O   UNL     1       5.978  11.839   0.789  1.00  0.00    -0.237 OA
ATOM     87  O   UNL     1       5.274   9.731   1.857  1.00  0.00    -0.237 OA
ATOM     88  O   UNL     1       6.176   9.703  -0.428  1.00  0.00    -0.744 OA
ENDBRANCH  82  85
ENDBRANCH  54  78
BRANCH  66  89
ATOM     89  C   UNL     1      -1.062  12.712  -7.402  1.00  0.00     0.023 A 
ATOM     90  C   UNL     1      -0.095  13.641  -7.829  1.00  0.00     0.012 A 
ATOM     91  C   UNL     1      -2.431  13.028  -7.513  1.00  0.00     0.148 A 
ATOM     92  C   UNL     1      -0.485  14.879  -8.335  1.00  0.00     0.002 A 
ATOM     93  C   UNL     1      -2.812  14.237  -8.076  1.00  0.00     0.091 A 
ATOM     94  F   UNL     1      -3.332  12.133  -7.081  1.00  0.00    -0.205 F 
ATOM     95  C   UNL     1      -1.841  15.169  -8.474  1.00  0.00     0.022 A 
BRANCH  93  96
ATOM     96  S   UNL     1      -4.530  14.640  -8.406  1.00  0.00     0.127 S 
ATOM     97  O   UNL     1      -4.788  15.676  -7.407  1.00  0.00    -0.237 OA
ATOM     98  O   UNL     1      -4.473  15.123  -9.787  1.00  0.00    -0.237 OA
ATOM     99  O   UNL     1      -5.276  13.402  -8.229  1.00  0.00    -0.744 OA
ENDBRANCH  93  96
ENDBRANCH  66  89
ENDBRANCH  40  41
ENDBRANCH  33  35
ENDBRANCH  32  33
ENDBRANCH  31  32
ENDBRANCH   1  31
TORSDOF 19
