REMARK SMILES COc1ccc(-c2ncn(CC(=O)OCCOC(=O)c3ccc(-c4c5nc(c(-c6cccc(S(=O)(=O)[O-])c6F)c6ccc([nH]6)c(-c6cccc(S(=O)(=O)[O-])c6F)c6nc(c(-c7cccc(S(=O)(=O)[O-])c7F)c7ccc4[nH]7)C=C6)C=C5)cc3)c2-c2ccc(OC)cc2)cc1
REMARK SMILES IDX 15 1 14 2 12 3 13 4 11 5 10 6 7 7 8 8 83 9 9 10 6 11 3 12
REMARK SMILES IDX 4 13 93 14 5 15 92 16 2 17 1 18 84 19 85 20 91 21 86 22
REMARK SMILES IDX 90 23 87 24 88 25 89 26 16 27 17 28 18 29 19 30 20 31 21 32
REMARK SMILES IDX 82 33 22 34 81 35 23 36 24 37 25 38 75 39 26 40 80 41 74 42
REMARK SMILES IDX 76 43 27 44 79 45 73 46 72 47 28 49 60 50 40 51 59 52 41 53
REMARK SMILES IDX 44 54 58 55 77 56 42 57 43 58 57 60 78 61 45 62 29 63 30 64
REMARK SMILES IDX 38 65 31 66 33 67 39 68 32 69 34 70 35 71 36 72 37 73 61 74
REMARK SMILES IDX 62 75 70 76 63 77 65 78 71 79 64 80 66 81 67 82 68 83 69 84
REMARK SMILES IDX 46 85 47 86 55 87 48 88 50 89 56 90 49 91 51 92 52 93 53 94
REMARK SMILES IDX 54 95
REMARK H PARENT 76 48 44 59
REMARK Flexibility Score: inf
ROOT
ATOM      1  C   UNL     1      -0.869   9.337   5.634  1.00  0.00     0.274 C 
ENDROOT
BRANCH   1   2
ATOM      2  O   UNL     1       0.300   8.515   5.439  1.00  0.00    -0.461 OA
BRANCH   2   3
ATOM      3  C   UNL     1       1.279   8.612   6.379  1.00  0.00     0.326 C 
ATOM      4  O   UNL     1       1.362   9.522   7.201  1.00  0.00    -0.250 OA
BRANCH   3   5
ATOM      5  C   UNL     1       2.222   7.428   6.376  1.00  0.00     0.246 C 
BRANCH   5   6
ATOM      6  N   UNL     1       2.431   6.802   5.081  1.00  0.00    -0.319 N 
ATOM      7  C   UNL     1       2.450   5.539   3.298  1.00  0.00     0.096 A 
ATOM      8  N   UNL     1       3.430   6.475   3.107  1.00  0.00    -0.236 NA
ATOM      9  C   UNL     1       1.858   5.669   4.553  1.00  0.00     0.076 A 
ATOM     10  C   UNL     1       3.397   7.214   4.194  1.00  0.00     0.201 A 
BRANCH   7  11
ATOM     11  C   UNL     1       2.070   4.499   2.351  1.00  0.00     0.003 A 
ATOM     12  C   UNL     1       1.129   2.305   0.850  1.00  0.00     0.118 A 
ATOM     13  C   UNL     1       0.321   3.422   1.052  1.00  0.00     0.047 A 
ATOM     14  C   UNL     1       2.418   2.293   1.388  1.00  0.00     0.047 A 
ATOM     15  C   UNL     1       0.791   4.517   1.779  1.00  0.00     0.014 A 
ATOM     16  C   UNL     1       2.888   3.386   2.137  1.00  0.00     0.014 A 
BRANCH  12  17
ATOM     17  O   UNL     1       0.553   1.327   0.089  1.00  0.00    -0.497 OA
ATOM     18  C   UNL     1       1.155   0.040   0.101  1.00  0.00     0.278 C 
ENDBRANCH  12  17
ENDBRANCH   7  11
BRANCH   9  19
ATOM     19  C   UNL     1       0.854   4.761   5.103  1.00  0.00     0.001 A 
ATOM     20  C   UNL     1      -0.474   4.925   4.704  1.00  0.00     0.014 A 
ATOM     21  C   UNL     1       1.277   3.504   5.563  1.00  0.00     0.014 A 
ATOM     22  C   UNL     1      -1.319   3.817   4.628  1.00  0.00     0.047 A 
ATOM     23  C   UNL     1       0.417   2.400   5.508  1.00  0.00     0.047 A 
ATOM     24  C   UNL     1      -0.873   2.550   5.006  1.00  0.00     0.118 A 
BRANCH  24  25
ATOM     25  O   UNL     1      -1.776   1.546   4.823  1.00  0.00    -0.497 OA
ATOM     26  C   UNL     1      -1.550   0.325   5.521  1.00  0.00     0.278 C 
ENDBRANCH  24  25
ENDBRANCH   9  19
ENDBRANCH   5   6
ENDBRANCH   3   5
ENDBRANCH   2   3
ENDBRANCH   1   2
BRANCH   1  27
ATOM     27  C   UNL     1      -2.096   8.432   5.667  1.00  0.00     0.275 C 
BRANCH  27  28
ATOM     28  O   UNL     1      -2.447   7.955   6.980  1.00  0.00    -0.458 OA
BRANCH  28  29
ATOM     29  C   UNL     1      -1.627   7.036   7.551  1.00  0.00     0.338 C 
ATOM     30  O   UNL     1      -0.428   7.098   7.656  1.00  0.00    -0.246 OA
BRANCH  29  31
ATOM     31  C   UNL     1      -2.387   5.805   7.829  1.00  0.00     0.060 A 
ATOM     32  C   UNL     1      -1.643   4.631   7.945  1.00  0.00     0.016 A 
ATOM     33  C   UNL     1      -3.783   5.775   7.731  1.00  0.00     0.016 A 
ATOM     34  C   UNL     1      -2.285   3.431   7.734  1.00  0.00     0.010 A 
ATOM     35  C   UNL     1      -4.419   4.568   7.510  1.00  0.00     0.010 A 
ATOM     36  C   UNL     1      -3.645   3.419   7.393  1.00  0.00    -0.014 A 
BRANCH  36  37
ATOM     37  C   UNL     1      -4.234   2.124   7.057  1.00  0.00     0.031 A 
ATOM     38  C   UNL     1      -4.094   1.174   8.189  1.00  0.00     0.074 A 
ATOM     39  C   UNL     1      -4.811   1.861   5.862  1.00  0.00     0.049 A 
ATOM     40  N   UNL     1      -3.483   0.033   8.203  1.00  0.00    -0.248 NA
ATOM     41  C   UNL     1      -4.473   1.671   9.528  1.00  0.00     0.031 C 
ATOM     42  C   UNL     1      -5.064   2.820   4.780  1.00  0.00     0.029 A 
ATOM     43  N   UNL     1      -5.386   0.712   5.379  1.00  0.00    -0.354 N 
ATOM     44  C   UNL     1      -3.654  -0.437   9.500  1.00  0.00     0.074 A 
ATOM     45  C   UNL     1      -4.046   0.683  10.312  1.00  0.00     0.031 C 
ATOM     46  C   UNL     1      -5.937   2.288   3.899  1.00  0.00     0.029 A 
ATOM     47  C   UNL     1      -6.270   0.942   4.320  1.00  0.00     0.049 A 
ATOM     48  H   UNL     1      -5.196  -0.183   5.742  1.00  0.00     0.167 HD
ATOM     49  C   UNL     1      -3.859  -1.759   9.723  1.00  0.00     0.034 A 
ATOM     50  C   UNL     1      -7.298   0.153   3.904  1.00  0.00     0.034 A 
ATOM     51  C   UNL     1      -3.296  -2.578   8.687  1.00  0.00     0.049 A 
ATOM     52  C   UNL     1      -7.051  -1.206   4.424  1.00  0.00     0.074 A 
ATOM     53  C   UNL     1      -2.033  -2.829   8.198  1.00  0.00     0.029 A 
ATOM     54  N   UNL     1      -4.179  -3.043   7.750  1.00  0.00    -0.354 N 
ATOM     55  N   UNL     1      -6.090  -1.980   4.011  1.00  0.00    -0.248 NA
ATOM     56  C   UNL     1      -7.616  -1.539   5.720  1.00  0.00     0.031 C 
ATOM     57  C   UNL     1      -2.210  -3.124   6.816  1.00  0.00     0.029 A 
ATOM     58  C   UNL     1      -3.575  -3.065   6.525  1.00  0.00     0.049 A 
ATOM     59  H   UNL     1      -5.107  -3.318   7.931  1.00  0.00     0.167 HD
ATOM     60  C   UNL     1      -5.613  -2.575   5.170  1.00  0.00     0.074 A 
ATOM     61  C   UNL     1      -6.658  -2.353   6.167  1.00  0.00     0.031 C 
ATOM     62  C   UNL     1      -4.300  -2.933   5.278  1.00  0.00     0.034 A 
BRANCH  49  63
ATOM     63  C   UNL     1      -4.994  -2.231  10.603  1.00  0.00     0.023 A 
ATOM     64  C   UNL     1      -5.028  -3.590  10.965  1.00  0.00     0.012 A 
ATOM     65  C   UNL     1      -6.163  -1.469  10.859  1.00  0.00     0.148 A 
ATOM     66  C   UNL     1      -6.167  -4.155  11.550  1.00  0.00     0.002 A 
ATOM     67  C   UNL     1      -7.246  -2.006  11.536  1.00  0.00     0.091 A 
ATOM     68  F   UNL     1      -6.311  -0.259  10.311  1.00  0.00    -0.205 F 
ATOM     69  C   UNL     1      -7.268  -3.360  11.858  1.00  0.00     0.022 A 
BRANCH  67  70
ATOM     70  S   UNL     1      -8.646  -0.982  12.006  1.00  0.00     0.127 S 
ATOM     71  O   UNL     1      -9.653  -1.399  11.037  1.00  0.00    -0.237 OA
ATOM     72  O   UNL     1      -8.886  -1.419  13.382  1.00  0.00    -0.237 OA
ATOM     73  O   UNL     1      -8.174   0.394  11.897  1.00  0.00    -0.744 OA
ENDBRANCH  67  70
ENDBRANCH  49  63
BRANCH  50  74
ATOM     74  C   UNL     1      -8.646   0.567   3.416  1.00  0.00     0.023 A 
ATOM     75  C   UNL     1      -9.506  -0.372   2.805  1.00  0.00     0.012 A 
ATOM     76  C   UNL     1      -9.204   1.811   3.789  1.00  0.00     0.148 A 
ATOM     77  C   UNL     1     -10.865  -0.086   2.595  1.00  0.00     0.002 A 
ATOM     78  C   UNL     1     -10.545   2.101   3.556  1.00  0.00     0.091 A 
ATOM     79  F   UNL     1      -8.454   2.682   4.473  1.00  0.00    -0.205 F 
ATOM     80  C   UNL     1     -11.385   1.149   2.971  1.00  0.00     0.022 A 
BRANCH  78  81
ATOM     81  S   UNL     1     -11.261   3.682   4.028  1.00  0.00     0.127 S 
ATOM     82  O   UNL     1     -12.017   4.043   2.828  1.00  0.00    -0.237 OA
ATOM     83  O   UNL     1     -12.079   3.312   5.180  1.00  0.00    -0.237 OA
ATOM     84  O   UNL     1     -10.133   4.563   4.307  1.00  0.00    -0.744 OA
ENDBRANCH  78  81
ENDBRANCH  50  74
BRANCH  62  85
ATOM     85  C   UNL     1      -3.487  -3.005   4.009  1.00  0.00     0.023 A 
ATOM     86  C   UNL     1      -3.206  -1.881   3.204  1.00  0.00     0.012 A 
ATOM     87  C   UNL     1      -2.878  -4.232   3.698  1.00  0.00     0.148 A 
ATOM     88  C   UNL     1      -2.340  -1.984   2.110  1.00  0.00     0.002 A 
ATOM     89  C   UNL     1      -1.990  -4.322   2.635  1.00  0.00     0.091 A 
ATOM     90  F   UNL     1      -3.159  -5.290   4.473  1.00  0.00    -0.205 F 
ATOM     91  C   UNL     1      -1.723  -3.202   1.832  1.00  0.00     0.022 A 
BRANCH  89  92
ATOM     92  S   UNL     1      -1.081  -5.831   2.297  1.00  0.00     0.127 S 
ATOM     93  O   UNL     1      -1.696  -6.287   1.053  1.00  0.00    -0.237 OA
ATOM     94  O   UNL     1       0.292  -5.341   2.159  1.00  0.00    -0.237 OA
ATOM     95  O   UNL     1      -1.290  -6.697   3.451  1.00  0.00    -0.744 OA
ENDBRANCH  89  92
ENDBRANCH  62  85
ENDBRANCH  36  37
ENDBRANCH  29  31
ENDBRANCH  28  29
ENDBRANCH  27  28
ENDBRANCH   1  27
TORSDOF 19
