REMARK SMILES N#Cc1ccc(C[N@H+]2CCCC[C@H]2C(=O)OCCOC(=O)c2ccc(-c3c4nc(c(-c5cccc(S(=O)(=O)[O-])c5F)c5ccc([nH]5)c(-c5cccc(S(=O)(=O)[O-])c5F)c5nc(c(-c6cccc(S(=O)(=O)[O-])c6F)c6ccc3[nH]6)C=C5)C=C4)cc2)c(F)c1
REMARK SMILES IDX 17 1 16 2 14 3 15 4 13 5 8 6 9 7 10 9 12 10 11 11 7 12 6 13
REMARK SMILES IDX 3 14 4 15 87 16 5 17 85 18 86 19 2 20 1 21 18 22 19 23 20 24
REMARK SMILES IDX 21 25 22 26 23 27 84 28 24 29 83 30 25 31 26 32 27 33 77 34
REMARK SMILES IDX 28 35 82 36 76 37 78 38 29 39 81 40 75 41 74 42 30 44 62 45
REMARK SMILES IDX 42 46 61 47 43 48 46 49 60 50 79 51 44 52 45 53 59 55 80 56
REMARK SMILES IDX 47 57 31 58 32 59 40 60 33 61 35 62 41 63 34 64 36 65 37 66
REMARK SMILES IDX 38 67 39 68 63 69 64 70 72 71 65 72 67 73 73 74 66 75 68 76
REMARK SMILES IDX 69 77 70 78 71 79 48 80 49 81 57 82 50 83 52 84 58 85 51 86
REMARK SMILES IDX 53 87 54 88 55 89 56 90
REMARK H PARENT 8 8 78 43 46 54
REMARK Flexibility Score: inf
ROOT
ATOM      1  C   UNL     1       0.692  -2.868   2.058  1.00  0.00     0.274 C 
ENDROOT
BRANCH   1   2
ATOM      2  O   UNL     1       2.138  -2.720   1.996  1.00  0.00    -0.458 OA
BRANCH   2   3
ATOM      3  C   UNL     1       2.481  -1.510   1.500  1.00  0.00     0.365 C 
ATOM      4  O   UNL     1       1.619  -0.666   1.332  1.00  0.00    -0.245 OA
BRANCH   3   5
ATOM      5  C   UNL     1       3.941  -1.283   1.084  1.00  0.00     0.295 C 
ATOM      6  N   UNL     1       4.220   0.160   0.805  1.00  0.00    -0.319 N 
ATOM      7  C   UNL     1       4.151   0.984   2.020  1.00  0.00     0.263 C 
ATOM      8  H   UNL     1       5.197   0.151   0.515  1.00  0.00     0.349 HD
ATOM      9  C   UNL     1       4.967   0.474   3.219  1.00  0.00     0.062 C 
ATOM     10  C   UNL     1       4.907  -1.787   2.169  1.00  0.00     0.078 C 
ATOM     11  C   UNL     1       4.753  -1.012   3.473  1.00  0.00     0.013 C 
BRANCH   6  12
ATOM     12  C   UNL     1       3.666   0.778  -0.453  1.00  0.00     0.302 C 
BRANCH  12  13
ATOM     13  C   UNL     1       2.203   0.638  -0.893  1.00  0.00     0.042 A 
ATOM     14  C   UNL     1      -0.592   0.185  -0.995  1.00  0.00     0.055 A 
ATOM     15  C   UNL     1      -0.102   1.475  -0.803  1.00  0.00     0.020 A 
ATOM     16  C   UNL     1       0.298  -0.824  -1.364  1.00  0.00     0.059 A 
ATOM     17  C   UNL     1       1.288   1.703  -0.795  1.00  0.00     0.014 A 
ATOM     18  C   UNL     1       1.678  -0.583  -1.334  1.00  0.00     0.133 A 
ATOM     19  F   UNL     1       2.499  -1.616  -1.572  1.00  0.00    -0.206 F 
BRANCH  14  20
ATOM     20  C   UNL     1      -1.965  -0.141  -0.715  1.00  0.00     0.099 C 
ATOM     21  N   UNL     1      -3.043  -0.466  -0.443  1.00  0.00    -0.192 NA
ENDBRANCH  14  20
ENDBRANCH  12  13
ENDBRANCH   6  12
ENDBRANCH   3   5
ENDBRANCH   2   3
ENDBRANCH   1   2
BRANCH   1  22
ATOM     22  C   UNL     1      -0.046  -2.077   3.182  1.00  0.00     0.275 C 
BRANCH  22  23
ATOM     23  O   UNL     1      -0.167  -0.636   2.982  1.00  0.00    -0.458 OA
BRANCH  23  24
ATOM     24  C   UNL     1       0.329   0.175   3.961  1.00  0.00     0.338 C 
ATOM     25  O   UNL     1       0.783  -0.215   5.029  1.00  0.00    -0.246 OA
BRANCH  24  26
ATOM     26  C   UNL     1       0.389   1.632   3.598  1.00  0.00     0.060 A 
ATOM     27  C   UNL     1       1.027   2.006   2.433  1.00  0.00     0.016 A 
ATOM     28  C   UNL     1       0.131   2.647   4.515  1.00  0.00     0.016 A 
ATOM     29  C   UNL     1       1.608   3.265   2.263  1.00  0.00     0.010 A 
ATOM     30  C   UNL     1       0.542   3.981   4.250  1.00  0.00     0.010 A 
ATOM     31  C   UNL     1       1.347   4.304   3.139  1.00  0.00    -0.014 A 
BRANCH  31  32
ATOM     32  C   UNL     1       1.983   5.648   2.916  1.00  0.00     0.031 A 
ATOM     33  C   UNL     1       2.690   6.333   4.056  1.00  0.00     0.074 A 
ATOM     34  C   UNL     1       1.999   6.261   1.708  1.00  0.00     0.049 A 
ATOM     35  N   UNL     1       3.033   7.587   4.189  1.00  0.00    -0.248 NA
ATOM     36  C   UNL     1       3.046   5.490   5.207  1.00  0.00     0.031 C 
ATOM     37  C   UNL     1       1.504   5.698   0.450  1.00  0.00     0.029 A 
ATOM     38  N   UNL     1       2.446   7.512   1.335  1.00  0.00    -0.354 N 
ATOM     39  C   UNL     1       3.522   7.711   5.484  1.00  0.00     0.074 A 
ATOM     40  C   UNL     1       3.468   6.393   6.080  1.00  0.00     0.031 C 
ATOM     41  C   UNL     1       1.705   6.567  -0.550  1.00  0.00     0.029 A 
ATOM     42  C   UNL     1       2.185   7.818   0.015  1.00  0.00     0.049 A 
ATOM     43  H   UNL     1       2.907   8.127   1.950  1.00  0.00     0.167 HD
ATOM     44  C   UNL     1       3.952   8.828   6.122  1.00  0.00     0.034 A 
ATOM     45  C   UNL     1       2.221   8.986  -0.658  1.00  0.00     0.034 A 
ATOM     46  C   UNL     1       4.058  10.119   5.494  1.00  0.00     0.049 A 
ATOM     47  C   UNL     1       2.597  10.235   0.086  1.00  0.00     0.074 A 
ATOM     48  C   UNL     1       4.489  11.313   6.044  1.00  0.00     0.029 A 
ATOM     49  N   UNL     1       3.727  10.387   4.173  1.00  0.00    -0.354 N 
ATOM     50  N   UNL     1       2.989  10.363   1.330  1.00  0.00    -0.248 NA
ATOM     51  C   UNL     1       2.533  11.498  -0.661  1.00  0.00     0.031 C 
ATOM     52  C   UNL     1       4.360  12.313   5.074  1.00  0.00     0.029 A 
ATOM     53  C   UNL     1       3.918  11.731   3.897  1.00  0.00     0.049 A 
ATOM     54  H   UNL     1       3.403   9.719   3.526  1.00  0.00     0.167 HD
ATOM     55  C   UNL     1       3.258  11.714   1.506  1.00  0.00     0.074 A 
ATOM     56  C   UNL     1       2.994  12.360   0.235  1.00  0.00     0.031 C 
ATOM     57  C   UNL     1       3.684  12.359   2.620  1.00  0.00     0.034 A 
BRANCH  44  58
ATOM     58  C   UNL     1       4.258   8.708   7.596  1.00  0.00     0.023 A 
ATOM     59  C   UNL     1       5.356   7.953   8.055  1.00  0.00     0.012 A 
ATOM     60  C   UNL     1       3.420   9.343   8.537  1.00  0.00     0.148 A 
ATOM     61  C   UNL     1       5.571   7.772   9.423  1.00  0.00     0.002 A 
ATOM     62  C   UNL     1       3.677   9.209   9.895  1.00  0.00     0.091 A 
ATOM     63  F   UNL     1       2.371  10.046   8.088  1.00  0.00    -0.205 F 
ATOM     64  C   UNL     1       4.736   8.404  10.341  1.00  0.00     0.022 A 
BRANCH  62  65
ATOM     65  S   UNL     1       2.710  10.057  11.149  1.00  0.00     0.127 S 
ATOM     66  O   UNL     1       1.977   8.948  11.757  1.00  0.00    -0.237 OA
ATOM     67  O   UNL     1       3.752  10.637  11.997  1.00  0.00    -0.237 OA
ATOM     68  O   UNL     1       1.895  11.032  10.438  1.00  0.00    -0.744 OA
ENDBRANCH  62  65
ENDBRANCH  44  58
BRANCH  45  69
ATOM     69  C   UNL     1       1.846   9.040  -2.104  1.00  0.00     0.023 A 
ATOM     70  C   UNL     1       2.831   9.355  -3.060  1.00  0.00     0.012 A 
ATOM     71  C   UNL     1       0.537   8.749  -2.542  1.00  0.00     0.148 A 
ATOM     72  C   UNL     1       2.518   9.392  -4.421  1.00  0.00     0.002 A 
ATOM     73  C   UNL     1       0.247   8.728  -3.902  1.00  0.00     0.091 A 
ATOM     74  F   UNL     1      -0.393   8.468  -1.619  1.00  0.00    -0.205 F 
ATOM     75  C   UNL     1       1.232   9.065  -4.842  1.00  0.00     0.022 A 
BRANCH  73  76
ATOM     76  S   UNL     1      -1.343   8.194  -4.548  1.00  0.00     0.127 S 
ATOM     77  O   UNL     1      -1.820   9.406  -5.209  1.00  0.00    -0.237 OA
ATOM     78  O   UNL     1      -0.947   7.113  -5.451  1.00  0.00    -0.237 OA
ATOM     79  O   UNL     1      -2.117   7.763  -3.393  1.00  0.00    -0.744 OA
ENDBRANCH  73  76
ENDBRANCH  45  69
BRANCH  57  80
ATOM     80  C   UNL     1       3.962  13.834   2.502  1.00  0.00     0.023 A 
ATOM     81  C   UNL     1       2.906  14.754   2.350  1.00  0.00     0.012 A 
ATOM     82  C   UNL     1       5.285  14.310   2.599  1.00  0.00     0.148 A 
ATOM     83  C   UNL     1       3.167  16.121   2.256  1.00  0.00     0.002 A 
ATOM     84  C   UNL     1       5.532  15.675   2.565  1.00  0.00     0.091 A 
ATOM     85  F   UNL     1       6.277  13.416   2.722  1.00  0.00    -0.205 F 
ATOM     86  C   UNL     1       4.476  16.582   2.376  1.00  0.00     0.022 A 
BRANCH  84  87
ATOM     87  S   UNL     1       7.171  16.364   2.813  1.00  0.00     0.127 S 
ATOM     88  O   UNL     1       7.464  16.920   1.493  1.00  0.00    -0.237 OA
ATOM     89  O   UNL     1       6.930  17.361   3.857  1.00  0.00    -0.237 OA
ATOM     90  O   UNL     1       8.021  15.252   3.220  1.00  0.00    -0.744 OA
ENDBRANCH  84  87
ENDBRANCH  57  80
ENDBRANCH  31  32
ENDBRANCH  24  26
ENDBRANCH  23  24
ENDBRANCH  22  23
ENDBRANCH   1  22
TORSDOF 17
