REMARK SMILES Cc1cc(NC(=O)Nc2sc(C)c(C)c2C(=O)OCCOC(=O)c2ccc(-c3c4nc(c(-c5cccc(S(=O)(=O)[O-])c5F)c5ccc([nH]5)c(-c5cccc(S(=O)(=O)[O-])c5F)c5nc(c(-c6cccc(S(=O)(=O)[O-])c6F)c6ccc3[nH]6)C=C5)C=C4)cc2)ccn1
REMARK SMILES IDX 20 1 19 2 18 3 16 4 17 5 15 6 9 7 10 8 11 9 13 10 12 11
REMARK SMILES IDX 14 12 8 13 5 14 6 15 7 17 4 19 1 20 2 21 3 22 89 23 88 24
REMARK SMILES IDX 87 25 21 26 22 27 23 28 24 29 25 30 86 31 26 32 85 33 27 34
REMARK SMILES IDX 28 35 29 36 79 37 30 38 84 39 78 40 80 41 31 42 83 43 77 44
REMARK SMILES IDX 76 45 32 47 64 48 44 49 63 50 45 51 48 52 62 53 81 54 46 55
REMARK SMILES IDX 47 56 61 58 82 59 49 60 33 61 34 62 42 63 35 64 37 65 43 66
REMARK SMILES IDX 36 67 38 68 39 69 40 70 41 71 65 72 66 73 74 74 67 75 69 76
REMARK SMILES IDX 75 77 68 78 70 79 71 80 72 81 73 82 50 83 51 84 59 85 52 86
REMARK SMILES IDX 54 87 60 88 53 89 55 90 56 91 57 92 58 93
REMARK H PARENT 5 16 8 18 80 46 48 57
REMARK Flexibility Score: inf
ROOT
ATOM      1  C   UNL     1      -5.943   0.643   3.846  1.00  0.00     0.275 C 
ENDROOT
BRANCH   1   2
ATOM      2  C   UNL     1      -6.502   0.538   2.429  1.00  0.00     0.275 C 
BRANCH   2   3
ATOM      3  O   UNL     1      -5.431   0.407   1.468  1.00  0.00    -0.458 OA
BRANCH   3   4
ATOM      4  C   UNL     1      -5.092   1.535   0.762  1.00  0.00     0.341 C 
ATOM      5  O   UNL     1      -5.655   2.607   0.895  1.00  0.00    -0.246 OA
BRANCH   4   6
ATOM      6  C   UNL     1      -3.980   1.319  -0.178  1.00  0.00     0.098 A 
ATOM      7  C   UNL     1      -3.526   0.075  -0.587  1.00  0.00     0.112 A 
ATOM      8  S   UNL     1      -2.446   0.184  -1.899  1.00  0.00    -0.122 S 
ATOM      9  C   UNL     1      -2.155   1.828  -1.587  1.00  0.00     0.007 A 
ATOM     10  C   UNL     1      -3.090   2.355  -0.708  1.00  0.00    -0.021 A 
ATOM     11  C   UNL     1      -0.987   2.511  -2.223  1.00  0.00     0.057 C 
ATOM     12  C   UNL     1      -3.062   3.789  -0.280  1.00  0.00     0.046 C 
BRANCH   7  13
ATOM     13  N   UNL     1      -3.914  -1.175  -0.139  1.00  0.00    -0.298 N 
ATOM     14  N   UNL     1      -1.851  -2.361  -0.099  1.00  0.00    -0.308 N 
ATOM     15  C   UNL     1      -3.211  -2.338  -0.159  1.00  0.00     0.324 C 
ATOM     16  H   UNL     1      -1.438  -3.152  -0.514  1.00  0.00     0.171 HD
ATOM     17  O   UNL     1      -3.822  -3.409  -0.213  1.00  0.00    -0.248 OA
ATOM     18  H   UNL     1      -4.818  -1.229   0.246  1.00  0.00     0.172 HD
BRANCH  14  19
ATOM     19  C   UNL     1      -0.928  -1.446   0.457  1.00  0.00     0.046 A 
ATOM     20  C   UNL     1       2.692  -0.515  -0.100  1.00  0.00     0.067 C 
ATOM     21  C   UNL     1       1.298  -0.548   0.449  1.00  0.00     0.039 A 
ATOM     22  C   UNL     1       0.388  -1.499  -0.003  1.00  0.00     0.049 A 
ATOM     23  N   UNL     1       0.964   0.415   1.336  1.00  0.00    -0.261 NA
ATOM     24  C   UNL     1      -0.299   0.413   1.809  1.00  0.00     0.113 A 
ATOM     25  C   UNL     1      -1.266  -0.497   1.418  1.00  0.00     0.046 A 
ENDBRANCH  14  19
ENDBRANCH   7  13
ENDBRANCH   4   6
ENDBRANCH   3   4
ENDBRANCH   2   3
ENDBRANCH   1   2
BRANCH   1  26
ATOM     26  O   UNL     1      -5.314   1.925   4.001  1.00  0.00    -0.458 OA
BRANCH  26  27
ATOM     27  C   UNL     1      -4.088   1.932   4.573  1.00  0.00     0.338 C 
ATOM     28  O   UNL     1      -3.478   0.979   5.026  1.00  0.00    -0.246 OA
BRANCH  27  29
ATOM     29  C   UNL     1      -3.542   3.300   4.512  1.00  0.00     0.060 A 
ATOM     30  C   UNL     1      -3.470   3.939   3.278  1.00  0.00     0.016 A 
ATOM     31  C   UNL     1      -2.995   3.907   5.641  1.00  0.00     0.016 A 
ATOM     32  C   UNL     1      -2.777   5.140   3.150  1.00  0.00     0.010 A 
ATOM     33  C   UNL     1      -2.381   5.163   5.523  1.00  0.00     0.010 A 
ATOM     34  C   UNL     1      -2.221   5.777   4.267  1.00  0.00    -0.014 A 
BRANCH  34  35
ATOM     35  C   UNL     1      -1.412   7.024   4.090  1.00  0.00     0.031 A 
ATOM     36  C   UNL     1       0.006   7.088   4.604  1.00  0.00     0.074 A 
ATOM     37  C   UNL     1      -1.907   8.090   3.426  1.00  0.00     0.049 A 
ATOM     38  N   UNL     1       0.807   8.119   4.695  1.00  0.00    -0.248 NA
ATOM     39  C   UNL     1       0.597   5.832   5.094  1.00  0.00     0.031 C 
ATOM     40  C   UNL     1      -3.242   8.176   2.832  1.00  0.00     0.029 A 
ATOM     41  N   UNL     1      -1.336   9.305   3.121  1.00  0.00    -0.354 N 
ATOM     42  C   UNL     1       1.949   7.660   5.342  1.00  0.00     0.074 A 
ATOM     43  C   UNL     1       1.749   6.250   5.599  1.00  0.00     0.031 C 
ATOM     44  C   UNL     1      -3.364   9.344   2.183  1.00  0.00     0.029 A 
ATOM     45  C   UNL     1      -2.160  10.138   2.398  1.00  0.00     0.049 A 
ATOM     46  H   UNL     1      -0.424   9.554   3.394  1.00  0.00     0.167 HD
ATOM     47  C   UNL     1       3.068   8.343   5.683  1.00  0.00     0.034 A 
ATOM     48  C   UNL     1      -1.990  11.411   1.985  1.00  0.00     0.034 A 
ATOM     49  C   UNL     1       3.323   9.714   5.327  1.00  0.00     0.049 A 
ATOM     50  C   UNL     1      -0.728  12.141   2.349  1.00  0.00     0.074 A 
ATOM     51  C   UNL     1       4.440  10.482   5.610  1.00  0.00     0.029 A 
ATOM     52  N   UNL     1       2.469  10.511   4.584  1.00  0.00    -0.354 N 
ATOM     53  N   UNL     1       0.332  11.694   2.977  1.00  0.00    -0.248 NA
ATOM     54  C   UNL     1      -0.641  13.555   1.955  1.00  0.00     0.031 C 
ATOM     55  C   UNL     1       4.261  11.745   5.034  1.00  0.00     0.029 A 
ATOM     56  C   UNL     1       3.036  11.760   4.388  1.00  0.00     0.049 A 
ATOM     57  H   UNL     1       1.588  10.232   4.244  1.00  0.00     0.167 HD
ATOM     58  C   UNL     1       1.211  12.768   3.052  1.00  0.00     0.074 A 
ATOM     59  C   UNL     1       0.578  13.877   2.369  1.00  0.00     0.031 C 
ATOM     60  C   UNL     1       2.419  12.839   3.663  1.00  0.00     0.034 A 
BRANCH  47  61
ATOM     61  C   UNL     1       4.122   7.611   6.471  1.00  0.00     0.023 A 
ATOM     62  C   UNL     1       4.964   6.683   5.829  1.00  0.00     0.012 A 
ATOM     63  C   UNL     1       4.309   7.883   7.841  1.00  0.00     0.148 A 
ATOM     64  C   UNL     1       5.958   6.015   6.544  1.00  0.00     0.002 A 
ATOM     65  C   UNL     1       5.328   7.244   8.538  1.00  0.00     0.091 A 
ATOM     66  F   UNL     1       3.480   8.748   8.442  1.00  0.00    -0.205 F 
ATOM     67  C   UNL     1       6.147   6.303   7.894  1.00  0.00     0.022 A 
BRANCH  65  68
ATOM     68  S   UNL     1       5.689   7.616  10.259  1.00  0.00     0.127 S 
ATOM     69  O   UNL     1       5.061   6.488  10.944  1.00  0.00    -0.237 OA
ATOM     70  O   UNL     1       7.152   7.606  10.283  1.00  0.00    -0.237 OA
ATOM     71  O   UNL     1       5.094   8.921  10.512  1.00  0.00    -0.744 OA
ENDBRANCH  65  68
ENDBRANCH  47  61
BRANCH  48  72
ATOM     72  C   UNL     1      -3.051  12.076   1.173  1.00  0.00     0.023 A 
ATOM     73  C   UNL     1      -2.793  12.396  -0.174  1.00  0.00     0.012 A 
ATOM     74  C   UNL     1      -4.326  12.344   1.707  1.00  0.00     0.148 A 
ATOM     75  C   UNL     1      -3.782  12.976  -0.970  1.00  0.00     0.002 A 
ATOM     76  C   UNL     1      -5.327  12.856   0.890  1.00  0.00     0.091 A 
ATOM     77  F   UNL     1      -4.545  12.072   3.001  1.00  0.00    -0.205 F 
ATOM     78  C   UNL     1      -5.054  13.189  -0.444  1.00  0.00     0.022 A 
BRANCH  76  79
ATOM     79  S   UNL     1      -7.029  12.991   1.452  1.00  0.00     0.127 S 
ATOM     80  O   UNL     1      -7.140  14.418   1.735  1.00  0.00    -0.237 OA
ATOM     81  O   UNL     1      -7.778  12.533   0.281  1.00  0.00    -0.237 OA
ATOM     82  O   UNL     1      -7.123  12.100   2.602  1.00  0.00    -0.744 OA
ENDBRANCH  76  79
ENDBRANCH  48  72
BRANCH  60  83
ATOM     83  C   UNL     1       3.143  14.157   3.617  1.00  0.00     0.023 A 
ATOM     84  C   UNL     1       2.714  15.210   4.449  1.00  0.00     0.012 A 
ATOM     85  C   UNL     1       4.280  14.335   2.805  1.00  0.00     0.148 A 
ATOM     86  C   UNL     1       3.390  16.429   4.456  1.00  0.00     0.002 A 
ATOM     87  C   UNL     1       4.972  15.541   2.845  1.00  0.00     0.091 A 
ATOM     88  F   UNL     1       4.659  13.329   2.003  1.00  0.00    -0.205 F 
ATOM     89  C   UNL     1       4.524  16.591   3.663  1.00  0.00     0.022 A 
BRANCH  87  90
ATOM     90  S   UNL     1       6.487  15.806   1.916  1.00  0.00     0.127 S 
ATOM     91  O   UNL     1       6.013  16.623   0.800  1.00  0.00    -0.237 OA
ATOM     92  O   UNL     1       7.327  16.519   2.880  1.00  0.00    -0.237 OA
ATOM     93  O   UNL     1       6.972  14.479   1.562  1.00  0.00    -0.744 OA
ENDBRANCH  87  90
ENDBRANCH  60  83
ENDBRANCH  34  35
ENDBRANCH  27  29
ENDBRANCH  26  27
ENDBRANCH   1  26
TORSDOF 16
