REMARK SMILES Cc1cc(=O)n2nc(C)c(C(=O)OCCOC(=O)c3ccc(-c4c5nc(c(-c6cccc(S(=O)(=O)[O-])c6F)c6ccc([nH]6)c(-c6cccc(S(=O)(=O)[O-])c6F)c6nc(c(-c7cccc(S(=O)(=O)[O-])c7F)c7ccc4[nH]7)C=C6)C=C5)cc3)c2[nH]1
REMARK SMILES IDX 16 1 15 2 14 3 13 4 11 5 12 6 10 7 1 8 2 9 3 10 83 11 4 12
REMARK SMILES IDX 82 13 5 15 6 16 7 17 8 18 9 19 17 20 18 21 19 22 20 23 81 24
REMARK SMILES IDX 21 25 80 26 22 27 23 28 24 29 74 30 25 31 79 32 73 33 75 34
REMARK SMILES IDX 26 35 78 36 72 37 71 38 27 40 59 41 39 42 58 43 40 44 43 45
REMARK SMILES IDX 57 46 76 47 41 48 42 49 56 51 77 52 44 53 28 54 29 55 37 56
REMARK SMILES IDX 30 57 32 58 38 59 31 60 33 61 34 62 35 63 36 64 60 65 61 66
REMARK SMILES IDX 69 67 62 68 64 69 70 70 63 71 65 72 66 73 67 74 68 75 45 76
REMARK SMILES IDX 46 77 54 78 47 79 49 80 55 81 48 82 50 83 51 84 52 85 53 86
REMARK H PARENT 83 14 75 39 43 50
REMARK Flexibility Score: inf
ROOT
ATOM      1  O   UNL     1      -0.721   6.173  -2.711  1.00  0.00    -0.458 OA
ENDROOT
BRANCH   1   2
ATOM      2  C   UNL     1      -0.682   6.673  -4.046  1.00  0.00     0.275 C 
BRANCH   2   3
ATOM      3  C   UNL     1       0.492   6.087  -4.824  1.00  0.00     0.275 C 
BRANCH   3   4
ATOM      4  O   UNL     1       0.273   4.702  -5.149  1.00  0.00    -0.458 OA
BRANCH   4   5
ATOM      5  C   UNL     1       0.705   3.776  -4.242  1.00  0.00     0.343 C 
ATOM      6  O   UNL     1       1.425   4.035  -3.282  1.00  0.00    -0.246 OA
BRANCH   5   7
ATOM      7  C   UNL     1       0.186   2.445  -4.501  1.00  0.00     0.125 A 
ATOM      8  C   UNL     1       1.039  -0.123  -0.302  1.00  0.00     0.064 C 
ATOM      9  C   UNL     1       0.570  -0.039  -1.728  1.00  0.00     0.019 A 
ATOM     10  C   UNL     1      -0.000  -1.100  -2.333  1.00  0.00     0.095 A 
ATOM     11  N   UNL     1       0.725   1.173  -2.387  1.00  0.00    -0.343 N 
ATOM     12  C   UNL     1      -0.498  -0.983  -3.730  1.00  0.00     0.274 A 
ATOM     13  C   UNL     1       0.251   1.365  -3.644  1.00  0.00     0.152 A 
ATOM     14  H   UNL     1       1.191   1.911  -1.931  1.00  0.00     0.168 HD
ATOM     15  O   UNL     1      -0.982  -1.919  -4.356  1.00  0.00    -0.267 OA
ATOM     16  N   UNL     1      -0.361   0.303  -4.280  1.00  0.00    -0.179 N 
ATOM     17  N   UNL     1      -0.834   0.641  -5.506  1.00  0.00    -0.168 NA
ATOM     18  C   UNL     1      -0.576   1.954  -5.602  1.00  0.00     0.077 A 
ATOM     19  C   UNL     1      -1.107   2.712  -6.765  1.00  0.00     0.070 C 
ENDBRANCH   5   7
ENDBRANCH   4   5
ENDBRANCH   3   4
ENDBRANCH   2   3
ENDBRANCH   1   2
BRANCH   1  20
ATOM     20  C   UNL     1      -1.480   5.068  -2.546  1.00  0.00     0.338 C 
ATOM     21  O   UNL     1      -1.952   4.357  -3.417  1.00  0.00    -0.246 OA
BRANCH  20  22
ATOM     22  C   UNL     1      -1.764   4.886  -1.126  1.00  0.00     0.060 A 
ATOM     23  C   UNL     1      -2.076   3.600  -0.671  1.00  0.00     0.016 A 
ATOM     24  C   UNL     1      -1.943   6.025  -0.332  1.00  0.00     0.016 A 
ATOM     25  C   UNL     1      -2.694   3.468   0.555  1.00  0.00     0.010 A 
ATOM     26  C   UNL     1      -2.563   5.891   0.886  1.00  0.00     0.010 A 
ATOM     27  C   UNL     1      -2.992   4.623   1.284  1.00  0.00    -0.014 A 
BRANCH  27  28
ATOM     28  C   UNL     1      -3.762   4.492   2.506  1.00  0.00     0.031 A 
ATOM     29  C   UNL     1      -3.005   3.967   3.670  1.00  0.00     0.074 A 
ATOM     30  C   UNL     1      -5.004   5.010   2.587  1.00  0.00     0.049 A 
ATOM     31  N   UNL     1      -3.299   2.969   4.438  1.00  0.00    -0.248 NA
ATOM     32  C   UNL     1      -1.695   4.579   3.950  1.00  0.00     0.031 C 
ATOM     33  C   UNL     1      -5.685   5.844   1.587  1.00  0.00     0.029 A 
ATOM     34  N   UNL     1      -5.843   5.061   3.656  1.00  0.00    -0.354 N 
ATOM     35  C   UNL     1      -2.314   2.962   5.425  1.00  0.00     0.074 A 
ATOM     36  C   UNL     1      -1.276   3.856   4.986  1.00  0.00     0.031 C 
ATOM     37  C   UNL     1      -6.676   6.532   2.193  1.00  0.00     0.029 A 
ATOM     38  C   UNL     1      -6.776   6.090   3.572  1.00  0.00     0.049 A 
ATOM     39  H   UNL     1      -5.795   4.433   4.413  1.00  0.00     0.167 HD
ATOM     40  C   UNL     1      -2.515   2.404   6.647  1.00  0.00     0.034 A 
ATOM     41  C   UNL     1      -7.483   6.612   4.601  1.00  0.00     0.034 A 
ATOM     42  C   UNL     1      -3.617   1.485   6.654  1.00  0.00     0.049 A 
ATOM     43  C   UNL     1      -7.433   5.636   5.714  1.00  0.00     0.074 A 
ATOM     44  C   UNL     1      -3.913   0.312   5.991  1.00  0.00     0.029 A 
ATOM     45  N   UNL     1      -4.797   1.921   7.200  1.00  0.00    -0.354 N 
ATOM     46  N   UNL     1      -7.990   4.459   5.685  1.00  0.00    -0.248 NA
ATOM     47  C   UNL     1      -6.427   5.828   6.746  1.00  0.00     0.031 C 
ATOM     48  C   UNL     1      -5.323   0.349   5.787  1.00  0.00     0.029 A 
ATOM     49  C   UNL     1      -5.806   1.528   6.360  1.00  0.00     0.049 A 
ATOM     50  H   UNL     1      -4.901   2.424   8.040  1.00  0.00     0.167 HD
ATOM     51  C   UNL     1      -7.119   3.642   6.392  1.00  0.00     0.074 A 
ATOM     52  C   UNL     1      -6.253   4.561   7.126  1.00  0.00     0.031 C 
ATOM     53  C   UNL     1      -6.992   2.315   6.092  1.00  0.00     0.034 A 
BRANCH  40  54
ATOM     54  C   UNL     1      -1.898   2.931   7.918  1.00  0.00     0.023 A 
ATOM     55  C   UNL     1      -1.956   2.120   9.070  1.00  0.00     0.012 A 
ATOM     56  C   UNL     1      -1.479   4.270   8.094  1.00  0.00     0.148 A 
ATOM     57  C   UNL     1      -1.623   2.621  10.333  1.00  0.00     0.002 A 
ATOM     58  C   UNL     1      -1.056   4.734   9.333  1.00  0.00     0.091 A 
ATOM     59  F   UNL     1      -1.612   5.150   7.094  1.00  0.00    -0.205 F 
ATOM     60  C   UNL     1      -1.153   3.923  10.463  1.00  0.00     0.022 A 
BRANCH  58  61
ATOM     61  S   UNL     1      -0.356   6.378   9.520  1.00  0.00     0.127 S 
ATOM     62  O   UNL     1      -1.479   7.116  10.088  1.00  0.00    -0.237 OA
ATOM     63  O   UNL     1       0.754   6.130  10.443  1.00  0.00    -0.237 OA
ATOM     64  O   UNL     1       0.066   6.765   8.179  1.00  0.00    -0.744 OA
ENDBRANCH  58  61
ENDBRANCH  40  54
BRANCH  41  65
ATOM     65  C   UNL     1      -7.925   8.011   4.819  1.00  0.00     0.023 A 
ATOM     66  C   UNL     1      -8.944   8.264   5.758  1.00  0.00     0.012 A 
ATOM     67  C   UNL     1      -7.171   9.106   4.340  1.00  0.00     0.148 A 
ATOM     68  C   UNL     1      -9.175   9.557   6.241  1.00  0.00     0.002 A 
ATOM     69  C   UNL     1      -7.413  10.392   4.814  1.00  0.00     0.091 A 
ATOM     70  F   UNL     1      -6.153   8.878   3.501  1.00  0.00    -0.205 F 
ATOM     71  C   UNL     1      -8.404  10.620   5.777  1.00  0.00     0.022 A 
BRANCH  69  72
ATOM     72  S   UNL     1      -6.441  11.806   4.272  1.00  0.00     0.127 S 
ATOM     73  O   UNL     1      -7.473  12.822   4.057  1.00  0.00    -0.237 OA
ATOM     74  O   UNL     1      -5.581  12.041   5.428  1.00  0.00    -0.237 OA
ATOM     75  O   UNL     1      -5.767  11.376   3.053  1.00  0.00    -0.744 OA
ENDBRANCH  69  72
ENDBRANCH  41  65
BRANCH  53  76
ATOM     76  C   UNL     1      -8.001   1.696   5.152  1.00  0.00     0.023 A 
ATOM     77  C   UNL     1      -8.138   2.129   3.816  1.00  0.00     0.012 A 
ATOM     78  C   UNL     1      -8.681   0.534   5.557  1.00  0.00     0.148 A 
ATOM     79  C   UNL     1      -8.950   1.437   2.913  1.00  0.00     0.002 A 
ATOM     80  C   UNL     1      -9.447  -0.182   4.643  1.00  0.00     0.091 A 
ATOM     81  F   UNL     1      -8.539   0.126   6.828  1.00  0.00    -0.205 F 
ATOM     82  C   UNL     1      -9.593   0.272   3.323  1.00  0.00     0.022 A 
BRANCH  80  83
ATOM     83  S   UNL     1     -10.182  -1.764   5.067  1.00  0.00     0.127 S 
ATOM     84  O   UNL     1     -11.587  -1.410   5.254  1.00  0.00    -0.237 OA
ATOM     85  O   UNL     1      -9.908  -2.570   3.875  1.00  0.00    -0.237 OA
ATOM     86  O   UNL     1      -9.482  -2.220   6.262  1.00  0.00    -0.744 OA
ENDBRANCH  80  83
ENDBRANCH  53  76
ENDBRANCH  27  28
ENDBRANCH  20  22
ENDBRANCH   1  20
TORSDOF 14
