REMARK SMILES CCCc1nnc(SCC(=O)OCCOC(=O)c2ccc(-c3c4nc(c(-c5cccc(S(=O)(=O)[O-])c5F)c5ccc([nH]5)c(-c5cccc(S(=O)(=O)[O-])c5F)c5nc(c(-c6cccc(S(=O)(=O)[O-])c6F)c6ccc3[nH]6)C=C5)C=C4)cc2)n1C[C@H]1CCCO1
REMARK SMILES IDX 13 1 12 2 10 3 11 4 9 5 8 6 7 7 4 8 5 9 81 10 6 11 3 12 2 13
REMARK SMILES IDX 1 14 82 15 83 16 84 17 87 18 85 19 86 20 14 21 15 22 16 23
REMARK SMILES IDX 17 24 18 25 19 26 80 27 20 28 79 29 21 30 22 31 23 32 73 33
REMARK SMILES IDX 24 34 78 35 72 36 74 37 25 38 77 39 71 40 70 41 26 43 58 44
REMARK SMILES IDX 38 45 57 46 39 47 42 48 56 49 75 50 40 51 41 52 55 54 76 55
REMARK SMILES IDX 43 56 27 57 28 58 36 59 29 60 31 61 37 62 30 63 32 64 33 65
REMARK SMILES IDX 34 66 35 67 59 68 60 69 68 70 61 71 63 72 69 73 62 74 64 75
REMARK SMILES IDX 65 76 66 77 67 78 44 79 45 80 53 81 46 82 48 83 54 84 47 85
REMARK SMILES IDX 49 86 50 87 51 88 52 89
REMARK H PARENT 74 42 42 53
REMARK Flexibility Score: inf
ROOT
ATOM      1  C   UNL     1      -4.669  -0.871  -9.990  1.00  0.00     0.274 C 
ENDROOT
BRANCH   1   2
ATOM      2  O   UNL     1      -4.690  -1.819  -8.911  1.00  0.00    -0.461 OA
BRANCH   2   3
ATOM      3  C   UNL     1      -3.494  -2.274  -8.466  1.00  0.00     0.316 C 
ATOM      4  O   UNL     1      -2.440  -2.184  -9.091  1.00  0.00    -0.251 OA
BRANCH   3   5
ATOM      5  C   UNL     1      -3.550  -2.861  -7.078  1.00  0.00     0.200 C 
BRANCH   5   6
ATOM      6  S   UNL     1      -5.174  -3.099  -6.359  1.00  0.00    -0.074 SA
BRANCH   6   7
ATOM      7  C   UNL     1      -5.028  -2.507  -4.714  1.00  0.00     0.191 A 
ATOM      8  C   UNL     1      -5.716  -0.678  -3.828  1.00  0.00     0.133 A 
ATOM      9  N   UNL     1      -6.432  -1.650  -3.304  1.00  0.00    -0.134 NA
ATOM     10  N   UNL     1      -4.572  -1.244  -4.404  1.00  0.00    -0.303 N 
ATOM     11  N   UNL     1      -5.951  -2.828  -3.827  1.00  0.00    -0.123 NA
BRANCH   8  12
ATOM     12  C   UNL     1      -6.027   0.771  -3.868  1.00  0.00     0.077 C 
BRANCH  12  13
ATOM     13  C   UNL     1      -6.581   1.139  -5.245  1.00  0.00     0.005 C 
ATOM     14  C   UNL     1      -8.067   0.864  -5.399  1.00  0.00     0.004 C 
ENDBRANCH  12  13
ENDBRANCH   8  12
BRANCH  10  15
ATOM     15  C   UNL     1      -3.291  -0.858  -3.818  1.00  0.00     0.158 C 
BRANCH  15  16
ATOM     16  C   UNL     1      -1.955  -1.588  -4.037  1.00  0.00     0.138 C 
ATOM     17  C   UNL     1      -1.886  -3.102  -3.960  1.00  0.00     0.036 C 
ATOM     18  O   UNL     1      -1.330  -1.203  -5.268  1.00  0.00    -0.376 OA
ATOM     19  C   UNL     1      -0.821  -3.490  -4.969  1.00  0.00     0.031 C 
ATOM     20  C   UNL     1      -0.349  -2.190  -5.587  1.00  0.00     0.160 C 
ENDBRANCH  15  16
ENDBRANCH  10  15
ENDBRANCH   6   7
ENDBRANCH   5   6
ENDBRANCH   3   5
ENDBRANCH   2   3
ENDBRANCH   1   2
BRANCH   1  21
ATOM     21  C   UNL     1      -5.098   0.478  -9.431  1.00  0.00     0.275 C 
BRANCH  21  22
ATOM     22  O   UNL     1      -3.971   1.313  -9.117  1.00  0.00    -0.458 OA
BRANCH  22  23
ATOM     23  C   UNL     1      -3.563   1.212  -7.833  1.00  0.00     0.338 C 
ATOM     24  O   UNL     1      -3.321   0.180  -7.232  1.00  0.00    -0.246 OA
BRANCH  23  25
ATOM     25  C   UNL     1      -3.741   2.496  -7.132  1.00  0.00     0.060 A 
ATOM     26  C   UNL     1      -3.282   2.567  -5.814  1.00  0.00     0.016 A 
ATOM     27  C   UNL     1      -4.617   3.460  -7.646  1.00  0.00     0.016 A 
ATOM     28  C   UNL     1      -3.855   3.487  -4.955  1.00  0.00     0.010 A 
ATOM     29  C   UNL     1      -5.169   4.395  -6.790  1.00  0.00     0.010 A 
ATOM     30  C   UNL     1      -4.858   4.344  -5.430  1.00  0.00    -0.014 A 
BRANCH  30  31
ATOM     31  C   UNL     1      -5.456   5.300  -4.494  1.00  0.00     0.031 A 
ATOM     32  C   UNL     1      -4.446   6.208  -3.897  1.00  0.00     0.074 A 
ATOM     33  C   UNL     1      -6.791   5.443  -4.330  1.00  0.00     0.049 A 
ATOM     34  N   UNL     1      -4.257   6.494  -2.650  1.00  0.00    -0.248 NA
ATOM     35  C   UNL     1      -3.414   6.749  -4.806  1.00  0.00     0.031 C 
ATOM     36  C   UNL     1      -7.825   4.694  -5.051  1.00  0.00     0.029 A 
ATOM     37  N   UNL     1      -7.521   6.378  -3.631  1.00  0.00    -0.354 N 
ATOM     38  C   UNL     1      -3.276   7.480  -2.675  1.00  0.00     0.074 A 
ATOM     39  C   UNL     1      -2.639   7.425  -3.963  1.00  0.00     0.031 C 
ATOM     40  C   UNL     1      -9.002   5.337  -4.952  1.00  0.00     0.029 A 
ATOM     41  C   UNL     1      -8.819   6.513  -4.128  1.00  0.00     0.049 A 
ATOM     42  H   UNL     1      -7.168   6.893  -2.869  1.00  0.00     0.167 HD
ATOM     43  C   UNL     1      -3.341   8.536  -1.827  1.00  0.00     0.034 A 
ATOM     44  C   UNL     1      -9.679   7.551  -3.996  1.00  0.00     0.034 A 
ATOM     45  C   UNL     1      -4.124   8.274  -0.659  1.00  0.00     0.049 A 
ATOM     46  C   UNL     1      -9.270   8.367  -2.839  1.00  0.00     0.074 A 
ATOM     47  C   UNL     1      -3.997   7.517   0.482  1.00  0.00     0.029 A 
ATOM     48  N   UNL     1      -5.432   8.656  -0.762  1.00  0.00    -0.354 N 
ATOM     49  N   UNL     1      -9.395   7.979  -1.601  1.00  0.00    -0.248 NA
ATOM     50  C   UNL     1      -8.455   9.559  -3.044  1.00  0.00     0.031 C 
ATOM     51  C   UNL     1      -5.310   7.363   1.008  1.00  0.00     0.029 A 
ATOM     52  C   UNL     1      -6.207   8.023   0.170  1.00  0.00     0.049 A 
ATOM     53  H   UNL     1      -5.772   9.303  -1.422  1.00  0.00     0.167 HD
ATOM     54  C   UNL     1      -8.334   8.587  -0.958  1.00  0.00     0.074 A 
ATOM     55  C   UNL     1      -7.930   9.683  -1.823  1.00  0.00     0.031 C 
ATOM     56  C   UNL     1      -7.644   7.928   0.013  1.00  0.00     0.034 A 
BRANCH  43  57
ATOM     57  C   UNL     1      -3.118   9.948  -2.311  1.00  0.00     0.023 A 
ATOM     58  C   UNL     1      -2.874  10.950  -1.356  1.00  0.00     0.012 A 
ATOM     59  C   UNL     1      -3.408  10.370  -3.631  1.00  0.00     0.148 A 
ATOM     60  C   UNL     1      -2.890  12.305  -1.711  1.00  0.00     0.002 A 
ATOM     61  C   UNL     1      -3.310  11.702  -4.000  1.00  0.00     0.091 A 
ATOM     62  F   UNL     1      -3.934   9.508  -4.510  1.00  0.00    -0.205 F 
ATOM     63  C   UNL     1      -3.076  12.681  -3.038  1.00  0.00     0.022 A 
BRANCH  61  64
ATOM     64  S   UNL     1      -3.451  12.174  -5.726  1.00  0.00     0.127 S 
ATOM     65  O   UNL     1      -4.854  12.564  -5.814  1.00  0.00    -0.237 OA
ATOM     66  O   UNL     1      -2.490  13.274  -5.823  1.00  0.00    -0.237 OA
ATOM     67  O   UNL     1      -3.058  10.980  -6.468  1.00  0.00    -0.744 OA
ENDBRANCH  61  64
ENDBRANCH  43  57
BRANCH  44  68
ATOM     68  C   UNL     1     -10.788   7.962  -4.894  1.00  0.00     0.023 A 
ATOM     69  C   UNL     1     -11.848   8.736  -4.385  1.00  0.00     0.012 A 
ATOM     70  C   UNL     1     -10.720   7.773  -6.294  1.00  0.00     0.148 A 
ATOM     71  C   UNL     1     -12.797   9.313  -5.238  1.00  0.00     0.002 A 
ATOM     72  C   UNL     1     -11.683   8.321  -7.136  1.00  0.00     0.091 A 
ATOM     73  F   UNL     1      -9.666   7.131  -6.815  1.00  0.00    -0.205 F 
ATOM     74  C   UNL     1     -12.717   9.104  -6.612  1.00  0.00     0.022 A 
BRANCH  72  75
ATOM     75  S   UNL     1     -11.647   8.066  -8.916  1.00  0.00     0.127 S 
ATOM     76  O   UNL     1     -13.049   7.769  -9.213  1.00  0.00    -0.237 OA
ATOM     77  O   UNL     1     -11.180   9.362  -9.400  1.00  0.00    -0.237 OA
ATOM     78  O   UNL     1     -10.744   6.941  -9.135  1.00  0.00    -0.744 OA
ENDBRANCH  72  75
ENDBRANCH  44  68
BRANCH  56  79
ATOM     79  C   UNL     1      -8.364   6.870   0.795  1.00  0.00     0.023 A 
ATOM     80  C   UNL     1      -8.841   5.683   0.207  1.00  0.00     0.012 A 
ATOM     81  C   UNL     1      -8.468   7.034   2.187  1.00  0.00     0.148 A 
ATOM     82  C   UNL     1      -9.434   4.691   0.991  1.00  0.00     0.002 A 
ATOM     83  C   UNL     1      -9.010   6.023   2.969  1.00  0.00     0.091 A 
ATOM     84  F   UNL     1      -8.020   8.177   2.729  1.00  0.00    -0.205 F 
ATOM     85  C   UNL     1      -9.505   4.854   2.374  1.00  0.00     0.022 A 
BRANCH  83  86
ATOM     86  S   UNL     1      -9.000   6.130   4.760  1.00  0.00     0.127 S 
ATOM     87  O   UNL     1     -10.367   6.554   5.052  1.00  0.00    -0.237 OA
ATOM     88  O   UNL     1      -8.686   4.757   5.160  1.00  0.00    -0.237 OA
ATOM     89  O   UNL     1      -7.955   7.093   5.090  1.00  0.00    -0.744 OA
ENDBRANCH  83  86
ENDBRANCH  56  79
ENDBRANCH  30  31
ENDBRANCH  23  25
ENDBRANCH  22  23
ENDBRANCH  21  22
ENDBRANCH   1  21
TORSDOF 20
