REMARK SMILES O=C(OCCOC(=O)[C@H]1CC(=O)N(Cc2ccc(OCc3ccccc3)cc2)C1)c1ccc(-c2c3nc(c(-c4cccc(S(=O)(=O)[O-])c4F)c4ccc([nH]4)c(-c4cccc(S(=O)(=O)[O-])c4F)c4nc(c(-c5cccc(S(=O)(=O)[O-])c5F)c5ccc2[nH]5)C=C4)C=C3)cc1
REMARK SMILES IDX 5 1 4 2 3 3 2 4 1 5 30 6 31 7 92 8 32 9 91 10 33 11 34 12
REMARK SMILES IDX 35 13 85 14 36 15 90 16 84 17 86 18 37 19 89 20 83 21 82 22
REMARK SMILES IDX 38 24 70 25 50 26 69 27 51 28 54 29 68 30 87 31 52 32 53 33
REMARK SMILES IDX 67 35 88 36 55 37 39 38 40 39 48 40 41 41 43 42 49 43 42 44
REMARK SMILES IDX 44 45 45 46 46 47 47 48 71 49 72 50 80 51 73 52 75 53 81 54
REMARK SMILES IDX 74 55 76 56 77 57 78 58 79 59 56 60 57 61 65 62 58 63 60 64
REMARK SMILES IDX 66 65 59 66 61 67 62 68 63 69 64 70 6 71 7 72 8 73 9 74
REMARK SMILES IDX 10 75 29 76 11 77 13 78 12 79 14 80 15 81 16 82 28 83 17 84
REMARK SMILES IDX 27 85 18 86 19 87 20 88 21 89 22 90 26 91 23 92 25 93 24 94
REMARK H PARENT 86 23 54 34
REMARK Flexibility Score: inf
ROOT
ATOM      1  C   UNL     1       5.194   2.585   3.983  1.00  0.00     0.274 C 
ENDROOT
BRANCH   1   2
ATOM      2  C   UNL     1       4.708   1.719   5.144  1.00  0.00     0.275 C 
BRANCH   2   3
ATOM      3  O   UNL     1       4.061   0.506   4.734  1.00  0.00    -0.458 OA
BRANCH   3   4
ATOM      4  C   UNL     1       2.797   0.275   4.307  1.00  0.00     0.338 C 
ATOM      5  O   UNL     1       2.526  -0.874   3.957  1.00  0.00    -0.246 OA
BRANCH   4   6
ATOM      6  C   UNL     1       1.721   1.320   4.149  1.00  0.00     0.060 A 
ATOM      7  C   UNL     1       1.756   2.646   4.587  1.00  0.00     0.016 A 
ATOM      8  C   UNL     1       0.595   0.931   3.393  1.00  0.00     0.016 A 
ATOM      9  C   UNL     1       0.751   3.563   4.231  1.00  0.00     0.010 A 
ATOM     10  C   UNL     1      -0.367   1.867   2.974  1.00  0.00     0.010 A 
ATOM     11  C   UNL     1      -0.301   3.202   3.391  1.00  0.00    -0.014 A 
BRANCH  11  12
ATOM     12  C   UNL     1      -1.407   4.161   3.105  1.00  0.00     0.031 A 
ATOM     13  C   UNL     1      -2.704   3.961   3.816  1.00  0.00     0.074 A 
ATOM     14  C   UNL     1      -1.272   5.304   2.399  1.00  0.00     0.049 A 
ATOM     15  N   UNL     1      -3.668   4.827   3.973  1.00  0.00    -0.248 NA
ATOM     16  C   UNL     1      -2.893   2.696   4.540  1.00  0.00     0.031 C 
ATOM     17  C   UNL     1       0.001   5.851   1.961  1.00  0.00     0.029 A 
ATOM     18  N   UNL     1      -2.194   6.262   2.003  1.00  0.00    -0.354 N 
ATOM     19  C   UNL     1      -4.557   4.233   4.841  1.00  0.00     0.074 A 
ATOM     20  C   UNL     1      -4.048   2.913   5.144  1.00  0.00     0.031 C 
ATOM     21  C   UNL     1      -0.235   7.037   1.380  1.00  0.00     0.029 A 
ATOM     22  C   UNL     1      -1.648   7.294   1.267  1.00  0.00     0.049 A 
ATOM     23  H   UNL     1      -3.151   6.210   2.227  1.00  0.00     0.167 HD
ATOM     24  C   UNL     1      -5.682   4.755   5.371  1.00  0.00     0.034 A 
ATOM     25  C   UNL     1      -2.169   8.364   0.624  1.00  0.00     0.034 A 
ATOM     26  C   UNL     1      -6.228   6.040   5.046  1.00  0.00     0.049 A 
ATOM     27  C   UNL     1      -3.540   8.782   1.039  1.00  0.00     0.074 A 
ATOM     28  C   UNL     1      -7.402   6.606   5.506  1.00  0.00     0.029 A 
ATOM     29  N   UNL     1      -5.679   6.934   4.139  1.00  0.00    -0.354 N 
ATOM     30  N   UNL     1      -4.283   8.267   1.982  1.00  0.00    -0.248 NA
ATOM     31  C   UNL     1      -4.053  10.034   0.466  1.00  0.00     0.031 C 
ATOM     32  C   UNL     1      -7.605   7.808   4.822  1.00  0.00     0.029 A 
ATOM     33  C   UNL     1      -6.527   8.019   3.981  1.00  0.00     0.049 A 
ATOM     34  H   UNL     1      -4.817   6.816   3.677  1.00  0.00     0.167 HD
ATOM     35  C   UNL     1      -5.280   9.195   2.207  1.00  0.00     0.074 A 
ATOM     36  C   UNL     1      -5.038  10.305   1.308  1.00  0.00     0.031 C 
ATOM     37  C   UNL     1      -6.289   9.133   3.104  1.00  0.00     0.034 A 
BRANCH  24  38
ATOM     38  C   UNL     1      -6.436   3.841   6.280  1.00  0.00     0.023 A 
ATOM     39  C   UNL     1      -5.969   3.568   7.581  1.00  0.00     0.012 A 
ATOM     40  C   UNL     1      -7.565   3.175   5.778  1.00  0.00     0.148 A 
ATOM     41  C   UNL     1      -6.596   2.594   8.355  1.00  0.00     0.002 A 
ATOM     42  C   UNL     1      -8.210   2.244   6.571  1.00  0.00     0.091 A 
ATOM     43  F   UNL     1      -7.949   3.431   4.520  1.00  0.00    -0.205 F 
ATOM     44  C   UNL     1      -7.718   1.937   7.851  1.00  0.00     0.022 A 
BRANCH  42  45
ATOM     45  S   UNL     1      -9.685   1.389   6.022  1.00  0.00     0.127 S 
ATOM     46  O   UNL     1      -9.213   0.007   5.946  1.00  0.00    -0.237 OA
ATOM     47  O   UNL     1     -10.613   1.661   7.119  1.00  0.00    -0.237 OA
ATOM     48  O   UNL     1     -10.052   1.990   4.747  1.00  0.00    -0.744 OA
ENDBRANCH  42  45
ENDBRANCH  24  38
BRANCH  25  49
ATOM     49  C   UNL     1      -1.392   9.280  -0.282  1.00  0.00     0.023 A 
ATOM     50  C   UNL     1      -1.011  10.562   0.174  1.00  0.00     0.012 A 
ATOM     51  C   UNL     1      -1.097   8.931  -1.618  1.00  0.00     0.148 A 
ATOM     52  C   UNL     1      -0.370  11.475  -0.674  1.00  0.00     0.002 A 
ATOM     53  C   UNL     1      -0.379   9.815  -2.436  1.00  0.00     0.091 A 
ATOM     54  F   UNL     1      -1.500   7.736  -2.070  1.00  0.00    -0.205 F 
ATOM     55  C   UNL     1      -0.036  11.096  -1.972  1.00  0.00     0.022 A 
BRANCH  53  56
ATOM     56  S   UNL     1       0.375   9.296  -3.995  1.00  0.00     0.127 S 
ATOM     57  O   UNL     1      -0.406  10.038  -4.979  1.00  0.00    -0.237 OA
ATOM     58  O   UNL     1       1.755   9.755  -3.832  1.00  0.00    -0.237 OA
ATOM     59  O   UNL     1       0.234   7.846  -4.028  1.00  0.00    -0.744 OA
ENDBRANCH  53  56
ENDBRANCH  25  49
BRANCH  37  60
ATOM     60  C   UNL     1      -7.214  10.313   3.153  1.00  0.00     0.023 A 
ATOM     61  C   UNL     1      -8.009  10.628   2.031  1.00  0.00     0.012 A 
ATOM     62  C   UNL     1      -7.293  11.111   4.308  1.00  0.00     0.148 A 
ATOM     63  C   UNL     1      -8.814  11.763   2.032  1.00  0.00     0.002 A 
ATOM     64  C   UNL     1      -8.155  12.197   4.328  1.00  0.00     0.091 A 
ATOM     65  F   UNL     1      -6.511  10.808   5.354  1.00  0.00    -0.205 F 
ATOM     66  C   UNL     1      -8.896  12.540   3.184  1.00  0.00     0.022 A 
BRANCH  64  67
ATOM     67  S   UNL     1      -8.421  13.188   5.799  1.00  0.00     0.127 S 
ATOM     68  O   UNL     1      -7.855  14.475   5.400  1.00  0.00    -0.237 OA
ATOM     69  O   UNL     1      -9.880  13.170   5.915  1.00  0.00    -0.237 OA
ATOM     70  O   UNL     1      -7.718  12.508   6.879  1.00  0.00    -0.744 OA
ENDBRANCH  64  67
ENDBRANCH  37  60
ENDBRANCH  11  12
ENDBRANCH   4   6
ENDBRANCH   3   4
ENDBRANCH   2   3
ENDBRANCH   1   2
BRANCH   1  71
ATOM     71  O   UNL     1       4.287   2.616   2.870  1.00  0.00    -0.462 OA
BRANCH  71  72
ATOM     72  C   UNL     1       4.647   1.887   1.774  1.00  0.00     0.311 C 
ATOM     73  O   UNL     1       5.600   1.119   1.738  1.00  0.00    -0.252 OA
BRANCH  72  74
ATOM     74  C   UNL     1       3.798   2.193   0.560  1.00  0.00     0.128 C 
ATOM     75  C   UNL     1       2.346   1.788   0.656  1.00  0.00     0.117 C 
ATOM     76  C   UNL     1       3.725   3.685   0.357  1.00  0.00     0.135 C 
ATOM     77  C   UNL     1       1.612   2.839  -0.144  1.00  0.00     0.223 C 
ATOM     78  N   UNL     1       2.460   3.935  -0.254  1.00  0.00    -0.337 N 
ATOM     79  O   UNL     1       0.481   2.711  -0.562  1.00  0.00    -0.275 OA
BRANCH  78  80
ATOM     80  C   UNL     1       2.155   5.154  -0.999  1.00  0.00     0.155 C 
BRANCH  80  81
ATOM     81  C   UNL     1       2.655   6.482  -0.440  1.00  0.00    -0.028 A 
ATOM     82  C   UNL     1       1.967   7.612  -0.860  1.00  0.00     0.009 A 
ATOM     83  C   UNL     1       3.707   6.723   0.458  1.00  0.00     0.009 A 
ATOM     84  C   UNL     1       2.116   8.824  -0.181  1.00  0.00     0.047 A 
ATOM     85  C   UNL     1       3.816   7.930   1.178  1.00  0.00     0.047 A 
ATOM     86  C   UNL     1       2.890   8.923   0.962  1.00  0.00     0.119 A 
BRANCH  86  87
ATOM     87  O   UNL     1       2.505   9.920   1.801  1.00  0.00    -0.489 OA
BRANCH  87  88
ATOM     88  C   UNL     1       3.104  10.150   3.072  1.00  0.00     0.265 C 
BRANCH  88  89
ATOM     89  C   UNL     1       2.912   9.200   4.249  1.00  0.00    -0.011 A 
ATOM     90  C   UNL     1       2.574   7.850   4.137  1.00  0.00     0.007 A 
ATOM     91  C   UNL     1       3.196   9.692   5.540  1.00  0.00     0.007 A 
ATOM     92  C   UNL     1       2.620   7.001   5.248  1.00  0.00     0.000 A 
ATOM     93  C   UNL     1       3.200   8.852   6.658  1.00  0.00     0.000 A 
ATOM     94  C   UNL     1       2.937   7.497   6.508  1.00  0.00     0.000 A 
ENDBRANCH  88  89
ENDBRANCH  87  88
ENDBRANCH  86  87
ENDBRANCH  80  81
ENDBRANCH  78  80
ENDBRANCH  72  74
ENDBRANCH  71  72
ENDBRANCH   1  71
TORSDOF 19
