REMARK SMILES CC[C@@](C)(C(=O)OCCOC(=O)c1ccc(-c2c3nc(c(-c4cccc(S(=O)(=O)[O-])c4F)c4ccc([nH]4)c(-c4cccc(S(=O)(=O)[O-])c4F)c4nc(c(-c5cccc(S(=O)(=O)[O-])c5F)c5ccc2[nH]5)C=C4)C=C3)cc1)n1nnnc1Cc1cccs1
REMARK SMILES IDX 8 1 7 2 5 3 6 4 3 5 4 6 2 7 1 8 76 9 77 10 80 11 78 12 79 13
REMARK SMILES IDX 81 14 82 15 83 16 86 17 84 18 85 19 9 20 10 21 11 22 12 23
REMARK SMILES IDX 13 24 14 25 75 26 15 27 74 28 16 29 17 30 18 31 68 32 19 33
REMARK SMILES IDX 73 34 67 35 69 36 20 37 72 38 66 39 65 40 21 42 53 43 33 44
REMARK SMILES IDX 52 45 34 46 37 47 51 48 70 49 35 50 36 51 50 53 71 54 38 55
REMARK SMILES IDX 22 56 23 57 31 58 24 59 26 60 32 61 25 62 27 63 28 64 29 65
REMARK SMILES IDX 30 66 54 67 55 68 63 69 56 70 58 71 64 72 57 73 59 74 60 75
REMARK SMILES IDX 61 76 62 77 39 78 40 79 48 80 41 81 43 82 49 83 42 84 44 85
REMARK SMILES IDX 45 86 46 87 47 88
REMARK H PARENT 69 41 37 52
REMARK Flexibility Score: inf
ROOT
ATOM      1  C   UNL     1      -0.853   5.254  -0.932  1.00  0.00     0.274 C 
ENDROOT
BRANCH   1   2
ATOM      2  O   UNL     1      -0.288   3.935  -0.804  1.00  0.00    -0.460 OA
BRANCH   2   3
ATOM      3  C   UNL     1       0.170   3.327  -1.935  1.00  0.00     0.334 C 
ATOM      4  O   UNL     1       0.072   3.833  -3.048  1.00  0.00    -0.249 OA
BRANCH   3   5
ATOM      5  C   UNL     1       0.711   1.879  -1.656  1.00  0.00     0.160 C 
ATOM      6  C   UNL     1      -0.092   1.008  -2.638  1.00  0.00     0.050 C 
BRANCH   5   7
ATOM      7  C   UNL     1       0.398   1.519  -0.161  1.00  0.00     0.039 C 
ATOM      8  C   UNL     1       0.390   0.070   0.298  1.00  0.00     0.007 C 
ENDBRANCH   5   7
BRANCH   5   9
ATOM      9  N   UNL     1       2.144   1.819  -1.980  1.00  0.00    -0.212 N 
ATOM     10  N   UNL     1       2.757   2.926  -2.455  1.00  0.00    -0.044 NA
ATOM     11  C   UNL     1       3.094   0.820  -1.892  1.00  0.00     0.157 A 
ATOM     12  N   UNL     1       4.041   2.639  -2.540  1.00  0.00    -0.024 NA
ATOM     13  N   UNL     1       4.273   1.364  -2.135  1.00  0.00    -0.113 NA
BRANCH  11  14
ATOM     14  C   UNL     1       2.907  -0.641  -1.676  1.00  0.00     0.125 C 
BRANCH  14  15
ATOM     15  C   UNL     1       3.431  -1.417  -2.852  1.00  0.00     0.012 A 
ATOM     16  C   UNL     1       4.749  -1.648  -3.197  1.00  0.00     0.016 A 
ATOM     17  S   UNL     1       2.352  -2.074  -4.009  1.00  0.00    -0.148 S 
ATOM     18  C   UNL     1       4.870  -2.292  -4.460  1.00  0.00     0.012 A 
ATOM     19  C   UNL     1       3.641  -2.571  -5.015  1.00  0.00     0.065 A 
ENDBRANCH  14  15
ENDBRANCH  11  14
ENDBRANCH   5   9
ENDBRANCH   3   5
ENDBRANCH   2   3
ENDBRANCH   1   2
BRANCH   1  20
ATOM     20  C   UNL     1      -0.594   6.026   0.363  1.00  0.00     0.275 C 
BRANCH  20  21
ATOM     21  O   UNL     1       0.825   6.188   0.558  1.00  0.00    -0.458 OA
BRANCH  21  22
ATOM     22  C   UNL     1       1.403   5.287   1.385  1.00  0.00     0.338 C 
ATOM     23  O   UNL     1       0.840   4.441   2.071  1.00  0.00    -0.246 OA
BRANCH  22  24
ATOM     24  C   UNL     1       2.857   5.318   1.188  1.00  0.00     0.060 A 
ATOM     25  C   UNL     1       3.417   4.275   0.453  1.00  0.00     0.016 A 
ATOM     26  C   UNL     1       3.674   6.295   1.754  1.00  0.00     0.016 A 
ATOM     27  C   UNL     1       4.791   4.199   0.262  1.00  0.00     0.010 A 
ATOM     28  C   UNL     1       5.061   6.219   1.562  1.00  0.00     0.010 A 
ATOM     29  C   UNL     1       5.628   5.168   0.816  1.00  0.00    -0.014 A 
BRANCH  29  30
ATOM     30  C   UNL     1       7.096   5.014   0.674  1.00  0.00     0.031 A 
ATOM     31  C   UNL     1       7.904   4.538   1.845  1.00  0.00     0.074 A 
ATOM     32  C   UNL     1       7.697   5.246  -0.509  1.00  0.00     0.049 A 
ATOM     33  N   UNL     1       9.199   4.403   1.957  1.00  0.00    -0.248 NA
ATOM     34  C   UNL     1       7.151   4.154   3.051  1.00  0.00     0.031 C 
ATOM     35  C   UNL     1       7.014   5.634  -1.743  1.00  0.00     0.029 A 
ATOM     36  N   UNL     1       9.023   5.192  -0.862  1.00  0.00    -0.354 N 
ATOM     37  C   UNL     1       9.423   3.964   3.255  1.00  0.00     0.074 A 
ATOM     38  C   UNL     1       8.128   3.843   3.891  1.00  0.00     0.031 C 
ATOM     39  C   UNL     1       7.928   5.797  -2.715  1.00  0.00     0.029 A 
ATOM     40  C   UNL     1       9.261   5.567  -2.164  1.00  0.00     0.049 A 
ATOM     41  H   UNL     1       9.736   4.912  -0.243  1.00  0.00     0.167 HD
ATOM     42  C   UNL     1      10.600   3.681   3.860  1.00  0.00     0.034 A 
ATOM     43  C   UNL     1      10.422   5.730  -2.828  1.00  0.00     0.034 A 
ATOM     44  C   UNL     1      11.882   3.760   3.216  1.00  0.00     0.049 A 
ATOM     45  C   UNL     1      11.720   5.455  -2.115  1.00  0.00     0.074 A 
ATOM     46  C   UNL     1      13.130   3.485   3.747  1.00  0.00     0.029 A 
ATOM     47  N   UNL     1      12.084   4.142   1.898  1.00  0.00    -0.354 N 
ATOM     48  N   UNL     1      11.916   4.992  -0.903  1.00  0.00    -0.248 NA
ATOM     49  C   UNL     1      12.959   5.710  -2.865  1.00  0.00     0.031 C 
ATOM     50  C   UNL     1      14.088   3.714   2.754  1.00  0.00     0.029 A 
ATOM     51  C   UNL     1      13.436   4.120   1.601  1.00  0.00     0.049 A 
ATOM     52  H   UNL     1      11.370   4.392   1.267  1.00  0.00     0.167 HD
ATOM     53  C   UNL     1      13.294   4.878  -0.755  1.00  0.00     0.074 A 
ATOM     54  C   UNL     1      13.885   5.296  -2.010  1.00  0.00     0.031 C 
ATOM     55  C   UNL     1      14.007   4.484   0.329  1.00  0.00     0.034 A 
BRANCH  42  56
ATOM     56  C   UNL     1      10.550   3.250   5.299  1.00  0.00     0.023 A 
ATOM     57  C   UNL     1      10.161   1.936   5.622  1.00  0.00     0.012 A 
ATOM     58  C   UNL     1      10.924   4.137   6.327  1.00  0.00     0.148 A 
ATOM     59  C   UNL     1      10.121   1.517   6.951  1.00  0.00     0.002 A 
ATOM     60  C   UNL     1      10.915   3.702   7.646  1.00  0.00     0.091 A 
ATOM     61  F   UNL     1      11.261   5.393   5.999  1.00  0.00    -0.205 F 
ATOM     62  C   UNL     1      10.507   2.395   7.961  1.00  0.00     0.022 A 
BRANCH  60  63
ATOM     63  S   UNL     1      11.454   4.746   9.005  1.00  0.00     0.127 S 
ATOM     64  O   UNL     1      10.178   5.128   9.607  1.00  0.00    -0.237 OA
ATOM     65  O   UNL     1      12.254   3.822   9.810  1.00  0.00    -0.237 OA
ATOM     66  O   UNL     1      12.213   5.829   8.397  1.00  0.00    -0.744 OA
ENDBRANCH  60  63
ENDBRANCH  42  56
BRANCH  43  67
ATOM     67  C   UNL     1      10.414   6.162  -4.255  1.00  0.00     0.023 A 
ATOM     68  C   UNL     1      10.833   5.262  -5.254  1.00  0.00     0.012 A 
ATOM     69  C   UNL     1       9.986   7.451  -4.630  1.00  0.00     0.148 A 
ATOM     70  C   UNL     1      10.846   5.644  -6.596  1.00  0.00     0.002 A 
ATOM     71  C   UNL     1       9.952   7.808  -5.974  1.00  0.00     0.091 A 
ATOM     72  F   UNL     1       9.622   8.307  -3.664  1.00  0.00    -0.205 F 
ATOM     73  C   UNL     1      10.395   6.911  -6.957  1.00  0.00     0.022 A 
BRANCH  71  74
ATOM     74  S   UNL     1       9.277   9.377  -6.530  1.00  0.00     0.127 S 
ATOM     75  O   UNL     1      10.488  10.123  -6.863  1.00  0.00    -0.237 OA
ATOM     76  O   UNL     1       8.468   8.973  -7.682  1.00  0.00    -0.237 OA
ATOM     77  O   UNL     1       8.503   9.889  -5.407  1.00  0.00    -0.744 OA
ENDBRANCH  71  74
ENDBRANCH  43  67
BRANCH  55  78
ATOM     78  C   UNL     1      15.508   4.466   0.212  1.00  0.00     0.023 A 
ATOM     79  C   UNL     1      16.219   5.683   0.233  1.00  0.00     0.012 A 
ATOM     80  C   UNL     1      16.218   3.251   0.169  1.00  0.00     0.148 A 
ATOM     81  C   UNL     1      17.613   5.690   0.188  1.00  0.00     0.002 A 
ATOM     82  C   UNL     1      17.609   3.264   0.169  1.00  0.00     0.091 A 
ATOM     83  F   UNL     1      15.524   2.104   0.130  1.00  0.00    -0.205 F 
ATOM     84  C   UNL     1      18.307   4.483   0.169  1.00  0.00     0.022 A 
BRANCH  82  85
ATOM     85  S   UNL     1      18.582   1.755   0.238  1.00  0.00     0.127 S 
ATOM     86  O   UNL     1      19.036   1.628  -1.145  1.00  0.00    -0.237 OA
ATOM     87  O   UNL     1      19.633   2.103   1.196  1.00  0.00    -0.237 OA
ATOM     88  O   UNL     1      17.670   0.716   0.700  1.00  0.00    -0.744 OA
ENDBRANCH  82  85
ENDBRANCH  55  78
ENDBRANCH  29  30
ENDBRANCH  22  24
ENDBRANCH  21  22
ENDBRANCH  20  21
ENDBRANCH   1  20
TORSDOF 18
