REMARK SMILES O=C(Cc1ccc(=O)n(C(F)F)c1)OCCOC(=O)c1ccc(-c2c3nc(c(-c4cccc(S(=O)(=O)[O-])c4F)c4ccc([nH]4)c(-c4cccc(S(=O)(=O)[O-])c4F)c4nc(c(-c5cccc(S(=O)(=O)[O-])c5F)c5ccc2[nH]5)C=C4)C=C3)cc1
REMARK SMILES IDX 16 1 15 2 14 3 2 4 1 5 3 6 4 7 5 8 13 9 6 10 9 11 7 12 8 13
REMARK SMILES IDX 10 14 11 15 12 16 17 17 18 18 19 19 20 20 21 21 82 22 22 23
REMARK SMILES IDX 81 24 23 25 24 26 25 27 75 28 26 29 80 30 74 31 76 32 27 33
REMARK SMILES IDX 79 34 73 35 72 36 28 38 60 39 40 40 59 41 41 42 44 43 58 44
REMARK SMILES IDX 77 45 42 46 43 47 57 49 78 50 45 51 29 52 30 53 38 54 31 55
REMARK SMILES IDX 33 56 39 57 32 58 34 59 35 60 36 61 37 62 61 63 62 64 70 65
REMARK SMILES IDX 63 66 65 67 71 68 64 69 66 70 67 71 68 72 69 73 46 74 47 75
REMARK SMILES IDX 55 76 48 77 50 78 56 79 49 80 51 81 52 82 53 83 54 84
REMARK H PARENT 76 37 44 48
REMARK Flexibility Score: inf
ROOT
ATOM      1  C   UNL     1       4.278   1.529   1.563  1.00  0.00     0.275 C 
ENDROOT
BRANCH   1   2
ATOM      2  C   UNL     1       4.358   1.182   0.076  1.00  0.00     0.274 C 
BRANCH   2   3
ATOM      3  O   UNL     1       3.044   1.032  -0.509  1.00  0.00    -0.462 OA
BRANCH   3   4
ATOM      4  C   UNL     1       2.450  -0.141  -0.842  1.00  0.00     0.310 C 
ATOM      5  O   UNL     1       1.446  -0.142  -1.551  1.00  0.00    -0.252 OA
BRANCH   4   6
ATOM      6  C   UNL     1       3.059  -1.436  -0.334  1.00  0.00     0.159 C 
BRANCH   6   7
ATOM      7  C   UNL     1       3.760  -2.274  -1.367  1.00  0.00    -0.020 A 
ATOM      8  C   UNL     1       4.568  -1.644  -2.391  1.00  0.00     0.011 A 
ATOM      9  C   UNL     1       3.700  -3.617  -1.329  1.00  0.00     0.099 A 
ATOM     10  C   UNL     1       5.264  -2.381  -3.264  1.00  0.00     0.072 A 
ATOM     11  N   UNL     1       4.416  -4.403  -2.216  1.00  0.00    -0.258 N 
ATOM     12  C   UNL     1       5.227  -3.867  -3.203  1.00  0.00     0.254 A 
ATOM     13  O   UNL     1       5.907  -4.496  -4.007  1.00  0.00    -0.269 OA
BRANCH  11  14
ATOM     14  C   UNL     1       4.350  -5.842  -2.138  1.00  0.00     0.451 C 
ATOM     15  F   UNL     1       3.844  -6.358  -3.282  1.00  0.00    -0.185 F 
ATOM     16  F   UNL     1       5.585  -6.369  -1.949  1.00  0.00    -0.185 F 
ENDBRANCH  11  14
ENDBRANCH   6   7
ENDBRANCH   4   6
ENDBRANCH   3   4
ENDBRANCH   2   3
ENDBRANCH   1   2
BRANCH   1  17
ATOM     17  O   UNL     1       3.946   0.359   2.329  1.00  0.00    -0.458 OA
BRANCH  17  18
ATOM     18  C   UNL     1       2.632   0.195   2.634  1.00  0.00     0.338 C 
ATOM     19  O   UNL     1       1.737   0.984   2.401  1.00  0.00    -0.246 OA
BRANCH  18  20
ATOM     20  C   UNL     1       2.416  -1.195   3.112  1.00  0.00     0.060 A 
ATOM     21  C   UNL     1       3.438  -1.938   3.713  1.00  0.00     0.016 A 
ATOM     22  C   UNL     1       1.163  -1.783   2.894  1.00  0.00     0.016 A 
ATOM     23  C   UNL     1       3.205  -3.261   4.093  1.00  0.00     0.010 A 
ATOM     24  C   UNL     1       0.928  -3.105   3.283  1.00  0.00     0.010 A 
ATOM     25  C   UNL     1       1.946  -3.852   3.890  1.00  0.00    -0.014 A 
BRANCH  25  26
ATOM     26  C   UNL     1       1.672  -5.193   4.459  1.00  0.00     0.031 A 
ATOM     27  C   UNL     1       1.635  -6.428   3.611  1.00  0.00     0.074 A 
ATOM     28  C   UNL     1       1.452  -5.285   5.784  1.00  0.00     0.049 A 
ATOM     29  N   UNL     1       1.584  -7.677   3.994  1.00  0.00    -0.248 NA
ATOM     30  C   UNL     1       1.656  -6.247   2.151  1.00  0.00     0.031 C 
ATOM     31  C   UNL     1       1.395  -4.146   6.702  1.00  0.00     0.029 A 
ATOM     32  N   UNL     1       1.242  -6.375   6.587  1.00  0.00    -0.354 N 
ATOM     33  C   UNL     1       1.563  -8.435   2.833  1.00  0.00     0.074 A 
ATOM     34  C   UNL     1       1.593  -7.504   1.723  1.00  0.00     0.031 C 
ATOM     35  C   UNL     1       1.191  -4.599   7.948  1.00  0.00     0.029 A 
ATOM     36  C   UNL     1       1.098  -6.057   7.916  1.00  0.00     0.049 A 
ATOM     37  H   UNL     1       1.198  -7.298   6.245  1.00  0.00     0.167 HD
ATOM     38  C   UNL     1       1.541  -9.783   2.708  1.00  0.00     0.034 A 
ATOM     39  C   UNL     1       0.935  -6.846   8.995  1.00  0.00     0.034 A 
ATOM     40  C   UNL     1       1.513 -10.705   3.813  1.00  0.00     0.049 A 
ATOM     41  C   UNL     1       0.930  -8.336   8.830  1.00  0.00     0.074 A 
ATOM     42  C   UNL     1       1.581 -12.088   3.777  1.00  0.00     0.029 A 
ATOM     43  N   UNL     1       1.381 -10.346   5.144  1.00  0.00    -0.354 N 
ATOM     44  N   UNL     1       1.103  -9.039   7.737  1.00  0.00    -0.248 NA
ATOM     45  C   UNL     1       0.742  -9.144  10.043  1.00  0.00     0.031 C 
ATOM     46  C   UNL     1       1.470 -12.566   5.086  1.00  0.00     0.029 A 
ATOM     47  C   UNL     1       1.346 -11.480   5.938  1.00  0.00     0.049 A 
ATOM     48  H   UNL     1       1.321  -9.422   5.478  1.00  0.00     0.167 HD
ATOM     49  C   UNL     1       1.067 -10.370   8.133  1.00  0.00     0.074 A 
ATOM     50  C   UNL     1       0.866 -10.377   9.568  1.00  0.00     0.031 C 
ATOM     51  C   UNL     1       1.184 -11.483   7.369  1.00  0.00     0.034 A 
BRANCH  38  52
ATOM     52  C   UNL     1       1.609 -10.370   1.325  1.00  0.00     0.023 A 
ATOM     53  C   UNL     1       2.861 -10.455   0.683  1.00  0.00     0.012 A 
ATOM     54  C   UNL     1       0.476 -10.949   0.723  1.00  0.00     0.148 A 
ATOM     55  C   UNL     1       2.983 -11.103  -0.545  1.00  0.00     0.002 A 
ATOM     56  C   UNL     1       0.611 -11.618  -0.488  1.00  0.00     0.091 A 
ATOM     57  F   UNL     1      -0.704 -10.841   1.349  1.00  0.00    -0.205 F 
ATOM     58  C   UNL     1       1.862 -11.693  -1.124  1.00  0.00     0.022 A 
BRANCH  56  59
ATOM     59  S   UNL     1      -0.758 -12.463  -1.288  1.00  0.00     0.127 S 
ATOM     60  O   UNL     1      -0.975 -11.620  -2.463  1.00  0.00    -0.237 OA
ATOM     61  O   UNL     1      -0.184 -13.777  -1.575  1.00  0.00    -0.237 OA
ATOM     62  O   UNL     1      -1.845 -12.471  -0.319  1.00  0.00    -0.744 OA
ENDBRANCH  56  59
ENDBRANCH  38  52
BRANCH  39  63
ATOM     63  C   UNL     1       0.875  -6.215  10.339  1.00  0.00     0.023 A 
ATOM     64  C   UNL     1       2.019  -6.245  11.158  1.00  0.00     0.012 A 
ATOM     65  C   UNL     1      -0.263  -5.501  10.759  1.00  0.00     0.148 A 
ATOM     66  C   UNL     1       2.031  -5.573  12.379  1.00  0.00     0.002 A 
ATOM     67  C   UNL     1      -0.230  -4.802  11.959  1.00  0.00     0.091 A 
ATOM     68  F   UNL     1      -1.333  -5.486   9.953  1.00  0.00    -0.205 F 
ATOM     69  C   UNL     1       0.912  -4.844  12.774  1.00  0.00     0.022 A 
BRANCH  67  70
ATOM     70  S   UNL     1      -1.577  -3.747  12.505  1.00  0.00     0.127 S 
ATOM     71  O   UNL     1      -1.966  -4.386  13.760  1.00  0.00    -0.237 OA
ATOM     72  O   UNL     1      -0.902  -2.458  12.652  1.00  0.00    -0.237 OA
ATOM     73  O   UNL     1      -2.575  -3.796  11.445  1.00  0.00    -0.744 OA
ENDBRANCH  67  70
ENDBRANCH  39  63
BRANCH  51  74
ATOM     74  C   UNL     1       1.103 -12.822   8.047  1.00  0.00     0.023 A 
ATOM     75  C   UNL     1      -0.159 -13.346   8.389  1.00  0.00     0.012 A 
ATOM     76  C   UNL     1       2.256 -13.613   8.221  1.00  0.00     0.148 A 
ATOM     77  C   UNL     1      -0.272 -14.639   8.898  1.00  0.00     0.002 A 
ATOM     78  C   UNL     1       2.131 -14.912   8.699  1.00  0.00     0.091 A 
ATOM     79  F   UNL     1       3.445 -13.086   7.895  1.00  0.00    -0.205 F 
ATOM     80  C   UNL     1       0.869 -15.425   9.041  1.00  0.00     0.022 A 
BRANCH  78  81
ATOM     81  S   UNL     1       3.530 -16.030   8.849  1.00  0.00     0.127 S 
ATOM     82  O   UNL     1       3.599 -16.229  10.296  1.00  0.00    -0.237 OA
ATOM     83  O   UNL     1       3.075 -17.196   8.092  1.00  0.00    -0.237 OA
ATOM     84  O   UNL     1       4.670 -15.333   8.267  1.00  0.00    -0.744 OA
ENDBRANCH  78  81
ENDBRANCH  51  74
ENDBRANCH  25  26
ENDBRANCH  18  20
ENDBRANCH  17  18
ENDBRANCH   1  17
TORSDOF 16
