REMARK SMILES CC[NH2+][C@]1(C(=O)OCCOC(=O)c2ccc(-c3c4nc(c(-c5cccc(S(=O)(=O)[O-])c5F)c5ccc([nH]5)c(-c5cccc(S(=O)(=O)[O-])c5F)c5nc(c(-c6cccc(S(=O)(=O)[O-])c6F)c6ccc3[nH]6)C=C5)C=C4)cc2)CCC[C@H]1CCOC1CCC1
REMARK SMILES IDX 8 1 7 2 5 3 6 4 4 5 76 6 79 7 77 8 78 9 3 10 2 13 1 14 80 15
REMARK SMILES IDX 81 16 82 17 83 18 84 19 86 20 85 21 9 22 10 23 11 24 12 25
REMARK SMILES IDX 13 26 14 27 75 28 15 29 74 30 16 31 17 32 18 33 68 34 19 35
REMARK SMILES IDX 73 36 67 37 69 38 20 39 72 40 66 41 65 42 21 44 53 45 33 46
REMARK SMILES IDX 52 47 34 48 37 49 51 50 70 51 35 52 36 53 50 55 71 56 38 57
REMARK SMILES IDX 22 58 23 59 31 60 24 61 26 62 32 63 25 64 27 65 28 66 29 67
REMARK SMILES IDX 30 68 54 69 55 70 63 71 56 72 58 73 64 74 57 75 59 76 60 77
REMARK SMILES IDX 61 78 62 79 39 80 40 81 48 82 41 83 43 84 49 85 42 86 44 87
REMARK SMILES IDX 45 88 46 89 47 90
REMARK H PARENT 3 11 3 12 69 43 37 54
REMARK Flexibility Score: inf
ROOT
ATOM      1  C   UNL     1       1.795  -0.143  -0.447  1.00  0.00     0.274 C 
ENDROOT
BRANCH   1   2
ATOM      2  O   UNL     1       1.710  -0.922  -1.663  1.00  0.00    -0.457 OA
BRANCH   2   3
ATOM      3  C   UNL     1       1.229  -2.176  -1.444  1.00  0.00     0.368 C 
ATOM      4  O   UNL     1       0.825  -2.525  -0.349  1.00  0.00    -0.245 OA
BRANCH   3   5
ATOM      5  C   UNL     1       1.061  -3.057  -2.700  1.00  0.00     0.197 C 
ATOM      6  C   UNL     1       2.118  -2.872  -3.790  1.00  0.00     0.081 C 
ATOM      7  C   UNL     1       1.287  -4.568  -2.299  1.00  0.00     0.065 C 
ATOM      8  C   UNL     1       2.105  -4.181  -4.588  1.00  0.00     0.008 C 
ATOM      9  C   UNL     1       1.520  -5.254  -3.667  1.00  0.00     0.011 C 
BRANCH   5  10
ATOM     10  N   UNL     1      -0.287  -2.696  -3.194  1.00  0.00    -0.332 N 
ATOM     11  H   UNL     1      -0.907  -2.801  -2.391  1.00  0.00     0.347 HD
ATOM     12  H   UNL     1      -0.091  -1.785  -3.608  1.00  0.00     0.347 HD
BRANCH  10  13
ATOM     13  C   UNL     1      -0.971  -3.336  -4.293  1.00  0.00     0.257 C 
ATOM     14  C   UNL     1      -2.420  -2.847  -4.343  1.00  0.00     0.071 C 
ENDBRANCH  10  13
ENDBRANCH   5  10
BRANCH   7  15
ATOM     15  C   UNL     1       2.551  -4.937  -1.437  1.00  0.00     0.039 C 
BRANCH  15  16
ATOM     16  C   UNL     1       2.690  -4.598   0.054  1.00  0.00     0.161 C 
BRANCH  16  17
ATOM     17  O   UNL     1       1.839  -5.373   0.881  1.00  0.00    -0.378 OA
BRANCH  17  18
ATOM     18  C   UNL     1       0.533  -4.857   1.196  1.00  0.00     0.118 C 
ATOM     19  C   UNL     1      -0.313  -5.795   2.074  1.00  0.00     0.032 C 
ATOM     20  C   UNL     1       0.386  -3.810   2.338  1.00  0.00     0.032 C 
ATOM     21  C   UNL     1      -0.915  -4.530   2.723  1.00  0.00     0.005 C 
ENDBRANCH  17  18
ENDBRANCH  16  17
ENDBRANCH  15  16
ENDBRANCH   7  15
ENDBRANCH   3   5
ENDBRANCH   2   3
ENDBRANCH   1   2
BRANCH   1  22
ATOM     22  C   UNL     1       0.480   0.545  -0.017  1.00  0.00     0.275 C 
BRANCH  22  23
ATOM     23  O   UNL     1      -0.554  -0.354   0.446  1.00  0.00    -0.458 OA
BRANCH  23  24
ATOM     24  C   UNL     1      -1.447  -0.750  -0.496  1.00  0.00     0.338 C 
ATOM     25  O   UNL     1      -1.473  -0.360  -1.659  1.00  0.00    -0.246 OA
BRANCH  24  26
ATOM     26  C   UNL     1      -2.339  -1.825   0.009  1.00  0.00     0.060 A 
ATOM     27  C   UNL     1      -2.357  -3.037  -0.685  1.00  0.00     0.016 A 
ATOM     28  C   UNL     1      -3.228  -1.645   1.067  1.00  0.00     0.016 A 
ATOM     29  C   UNL     1      -3.273  -4.042  -0.395  1.00  0.00     0.010 A 
ATOM     30  C   UNL     1      -4.146  -2.668   1.384  1.00  0.00     0.010 A 
ATOM     31  C   UNL     1      -4.197  -3.860   0.631  1.00  0.00    -0.014 A 
BRANCH  31  32
ATOM     32  C   UNL     1      -5.278  -4.872   0.788  1.00  0.00     0.031 A 
ATOM     33  C   UNL     1      -6.647  -4.538   0.299  1.00  0.00     0.074 A 
ATOM     34  C   UNL     1      -5.035  -6.101   1.284  1.00  0.00     0.049 A 
ATOM     35  N   UNL     1      -7.719  -5.281   0.294  1.00  0.00    -0.248 NA
ATOM     36  C   UNL     1      -6.838  -3.184  -0.240  1.00  0.00     0.031 C 
ATOM     37  C   UNL     1      -3.745  -6.523   1.791  1.00  0.00     0.029 A 
ATOM     38  N   UNL     1      -5.824  -7.209   1.459  1.00  0.00    -0.354 N 
ATOM     39  C   UNL     1      -8.726  -4.473  -0.206  1.00  0.00     0.074 A 
ATOM     40  C   UNL     1      -8.140  -3.177  -0.473  1.00  0.00     0.031 C 
ATOM     41  C   UNL     1      -3.803  -7.790   2.220  1.00  0.00     0.029 A 
ATOM     42  C   UNL     1      -5.168  -8.265   2.057  1.00  0.00     0.049 A 
ATOM     43  H   UNL     1      -6.769  -7.247   1.185  1.00  0.00     0.167 HD
ATOM     44  C   UNL     1     -10.023  -4.786  -0.427  1.00  0.00     0.034 A 
ATOM     45  C   UNL     1      -5.617  -9.471   2.456  1.00  0.00     0.034 A 
ATOM     46  C   UNL     1     -10.594  -6.072  -0.137  1.00  0.00     0.049 A 
ATOM     47  C   UNL     1      -7.059  -9.798   2.202  1.00  0.00     0.074 A 
ATOM     48  C   UNL     1     -11.895  -6.499  -0.323  1.00  0.00     0.029 A 
ATOM     49  N   UNL     1      -9.899  -7.135   0.426  1.00  0.00    -0.354 N 
ATOM     50  N   UNL     1      -7.981  -9.049   1.646  1.00  0.00    -0.248 NA
ATOM     51  C   UNL     1      -7.523 -11.133   2.599  1.00  0.00     0.031 C 
ATOM     52  C   UNL     1     -11.995  -7.808   0.163  1.00  0.00     0.029 A 
ATOM     53  C   UNL     1     -10.745  -8.216   0.605  1.00  0.00     0.049 A 
ATOM     54  H   UNL     1      -8.943  -7.122   0.663  1.00  0.00     0.167 HD
ATOM     55  C   UNL     1      -9.129  -9.826   1.601  1.00  0.00     0.074 A 
ATOM     56  C   UNL     1      -8.778 -11.115   2.168  1.00  0.00     0.031 C 
ATOM     57  C   UNL     1     -10.362  -9.499   1.142  1.00  0.00     0.034 A 
BRANCH  44  58
ATOM     58  C   UNL     1     -10.883  -3.681  -0.972  1.00  0.00     0.023 A 
ATOM     59  C   UNL     1     -10.674  -3.206  -2.285  1.00  0.00     0.012 A 
ATOM     60  C   UNL     1     -11.834  -3.048  -0.151  1.00  0.00     0.148 A 
ATOM     61  C   UNL     1     -11.342  -2.072  -2.744  1.00  0.00     0.002 A 
ATOM     62  C   UNL     1     -12.534  -1.950  -0.634  1.00  0.00     0.091 A 
ATOM     63  F   UNL     1     -11.999  -3.497   1.101  1.00  0.00    -0.205 F 
ATOM     64  C   UNL     1     -12.274  -1.447  -1.919  1.00  0.00     0.022 A 
BRANCH  62  65
ATOM     65  S   UNL     1     -13.797  -1.114   0.328  1.00  0.00     0.127 S 
ATOM     66  O   UNL     1     -13.137   0.151   0.646  1.00  0.00    -0.237 OA
ATOM     67  O   UNL     1     -14.892  -1.005  -0.636  1.00  0.00    -0.237 OA
ATOM     68  O   UNL     1     -14.075  -1.980   1.466  1.00  0.00    -0.744 OA
ENDBRANCH  62  65
ENDBRANCH  44  58
BRANCH  45  69
ATOM     69  C   UNL     1      -4.694 -10.444   3.115  1.00  0.00     0.023 A 
ATOM     70  C   UNL     1      -4.328 -11.630   2.449  1.00  0.00     0.012 A 
ATOM     71  C   UNL     1      -4.150 -10.182   4.389  1.00  0.00     0.148 A 
ATOM     72  C   UNL     1      -3.459 -12.547   3.048  1.00  0.00     0.002 A 
ATOM     73  C   UNL     1      -3.244 -11.072   4.957  1.00  0.00     0.091 A 
ATOM     74  F   UNL     1      -4.517  -9.055   5.014  1.00  0.00    -0.205 F 
ATOM     75  C   UNL     1      -2.910 -12.263   4.296  1.00  0.00     0.022 A 
BRANCH  73  76
ATOM     76  S   UNL     1      -2.396 -10.736   6.506  1.00  0.00     0.127 S 
ATOM     77  O   UNL     1      -2.953 -11.765   7.381  1.00  0.00    -0.237 OA
ATOM     78  O   UNL     1      -0.996 -10.938   6.132  1.00  0.00    -0.237 OA
ATOM     79  O   UNL     1      -2.736  -9.363   6.855  1.00  0.00    -0.744 OA
ENDBRANCH  73  76
ENDBRANCH  45  69
BRANCH  57  80
ATOM     80  C   UNL     1     -11.415 -10.571   1.190  1.00  0.00     0.023 A 
ATOM     81  C   UNL     1     -11.972 -10.970   2.421  1.00  0.00     0.012 A 
ATOM     82  C   UNL     1     -11.900 -11.134  -0.006  1.00  0.00     0.148 A 
ATOM     83  C   UNL     1     -12.973 -11.938   2.462  1.00  0.00     0.002 A 
ATOM     84  C   UNL     1     -12.937 -12.055   0.038  1.00  0.00     0.091 A 
ATOM     85  F   UNL     1     -11.335 -10.761  -1.164  1.00  0.00    -0.205 F 
ATOM     86  C   UNL     1     -13.465 -12.470   1.271  1.00  0.00     0.022 A 
BRANCH  84  87
ATOM     87  S   UNL     1     -13.703 -12.700  -1.452  1.00  0.00     0.127 S 
ATOM     88  O   UNL     1     -13.182 -14.066  -1.487  1.00  0.00    -0.237 OA
ATOM     89  O   UNL     1     -15.128 -12.597  -1.137  1.00  0.00    -0.237 OA
ATOM     90  O   UNL     1     -13.262 -11.833  -2.537  1.00  0.00    -0.744 OA
ENDBRANCH  84  87
ENDBRANCH  57  80
ENDBRANCH  31  32
ENDBRANCH  24  26
ENDBRANCH  23  24
ENDBRANCH  22  23
ENDBRANCH   1  22
TORSDOF 20
