REMARK SMILES C/C=C/C[C@]1(C(=O)OCCOC(=O)c2ccc(-c3c4nc(c(-c5cccc(S(=O)(=O)[O-])c5F)c5ccc([nH]5)c(-c5cccc(S(=O)(=O)[O-])c5F)c5nc(c(-c6cccc(S(=O)(=O)[O-])c6F)c6ccc3[nH]6)C=C5)C=C4)cc2)CCN(C(=O)OC(C)(C)C)C1
REMARK SMILES IDX 9 1 8 2 6 3 7 4 5 5 77 6 87 7 78 8 79 9 4 10 3 11 1 12 2 13
REMARK SMILES IDX 80 14 81 15 82 16 83 17 84 18 85 19 86 20 10 21 11 22 12 23
REMARK SMILES IDX 13 24 14 25 15 26 76 27 16 28 75 29 17 30 18 31 19 32 69 33
REMARK SMILES IDX 20 34 74 35 68 36 70 37 21 38 73 39 67 40 66 41 22 43 54 44
REMARK SMILES IDX 34 45 53 46 35 47 38 48 52 49 71 50 36 51 37 52 51 54 72 55
REMARK SMILES IDX 39 56 23 57 24 58 32 59 25 60 27 61 33 62 26 63 28 64 29 65
REMARK SMILES IDX 30 66 31 67 55 68 56 69 64 70 57 71 59 72 65 73 58 74 60 75
REMARK SMILES IDX 61 76 62 77 63 78 40 79 41 80 49 81 42 82 44 83 50 84 43 85
REMARK SMILES IDX 45 86 46 87 47 88 48 89
REMARK H PARENT 70 42 38 53
REMARK Flexibility Score: inf
ROOT
ATOM      1  C   UNL     1       0.701   4.453  -3.359  1.00  0.00     0.274 C 
ENDROOT
BRANCH   1   2
ATOM      2  O   UNL     1       0.729   4.751  -1.949  1.00  0.00    -0.462 OA
BRANCH   2   3
ATOM      3  C   UNL     1      -0.413   4.470  -1.272  1.00  0.00     0.314 C 
ATOM      4  O   UNL     1      -1.383   3.905  -1.765  1.00  0.00    -0.252 OA
BRANCH   3   5
ATOM      5  C   UNL     1      -0.421   5.002   0.155  1.00  0.00     0.091 C 
ATOM      6  C   UNL     1       0.855   5.712   0.668  1.00  0.00     0.042 C 
ATOM      7  C   UNL     1      -1.441   6.152   0.121  1.00  0.00     0.142 C 
ATOM      8  C   UNL     1       0.301   6.726   1.660  1.00  0.00     0.124 C 
ATOM      9  N   UNL     1      -0.901   7.175   0.993  1.00  0.00    -0.307 N 
BRANCH   5  10
ATOM     10  C   UNL     1      -0.845   3.872   1.120  1.00  0.00     0.047 C 
BRANCH  10  11
ATOM     11  C   UNL     1       0.249   2.849   1.211  1.00  0.00    -0.030 C 
ATOM     12  C   UNL     1       1.926   1.347   2.224  1.00  0.00     0.035 C 
ATOM     13  C   UNL     1       0.836   2.368   2.313  1.00  0.00    -0.035 C 
ENDBRANCH  10  11
ENDBRANCH   5  10
BRANCH   9  14
ATOM     14  C   UNL     1      -1.358   8.464   0.943  1.00  0.00     0.410 C 
ATOM     15  O   UNL     1      -2.199   8.843   0.141  1.00  0.00    -0.224 OA
BRANCH  14  16
ATOM     16  O   UNL     1      -0.743   9.248   1.861  1.00  0.00    -0.444 OA
BRANCH  16  17
ATOM     17  C   UNL     1      -0.981  10.675   1.878  1.00  0.00     0.106 C 
ATOM     18  C   UNL     1      -0.326  11.319   0.652  1.00  0.00     0.056 C 
ATOM     19  C   UNL     1      -2.469  11.028   1.993  1.00  0.00     0.056 C 
ATOM     20  C   UNL     1      -0.269  11.173   3.145  1.00  0.00     0.056 C 
ENDBRANCH  16  17
ENDBRANCH  14  16
ENDBRANCH   9  14
ENDBRANCH   3   5
ENDBRANCH   2   3
ENDBRANCH   1   2
BRANCH   1  21
ATOM     21  C   UNL     1       1.403   3.136  -3.673  1.00  0.00     0.275 C 
BRANCH  21  22
ATOM     22  O   UNL     1       0.697   2.023  -3.091  1.00  0.00    -0.458 OA
BRANCH  22  23
ATOM     23  C   UNL     1       1.427   1.282  -2.227  1.00  0.00     0.338 C 
ATOM     24  O   UNL     1       2.597   1.472  -1.924  1.00  0.00    -0.246 OA
BRANCH  23  25
ATOM     25  C   UNL     1       0.644   0.214  -1.568  1.00  0.00     0.060 A 
ATOM     26  C   UNL     1      -0.520   0.536  -0.883  1.00  0.00     0.016 A 
ATOM     27  C   UNL     1       1.276  -1.008  -1.319  1.00  0.00     0.016 A 
ATOM     28  C   UNL     1      -0.879  -0.233   0.229  1.00  0.00     0.010 A 
ATOM     29  C   UNL     1       0.802  -1.856  -0.309  1.00  0.00     0.010 A 
ATOM     30  C   UNL     1      -0.218  -1.435   0.556  1.00  0.00    -0.014 A 
BRANCH  30  31
ATOM     31  C   UNL     1      -0.559  -2.205   1.805  1.00  0.00     0.031 A 
ATOM     32  C   UNL     1       0.510  -2.680   2.782  1.00  0.00     0.074 A 
ATOM     33  C   UNL     1      -1.849  -2.473   2.105  1.00  0.00     0.049 A 
ATOM     34  N   UNL     1       0.383  -3.433   3.851  1.00  0.00    -0.248 NA
ATOM     35  C   UNL     1       1.898  -2.251   2.542  1.00  0.00     0.031 C 
ATOM     36  C   UNL     1      -3.006  -2.081   1.299  1.00  0.00     0.029 A 
ATOM     37  N   UNL     1      -2.408  -3.150   3.166  1.00  0.00    -0.354 N 
ATOM     38  C   UNL     1       1.664  -3.600   4.376  1.00  0.00     0.074 A 
ATOM     39  C   UNL     1       2.559  -2.853   3.522  1.00  0.00     0.031 C 
ATOM     40  C   UNL     1      -4.129  -2.480   1.907  1.00  0.00     0.029 A 
ATOM     41  C   UNL     1      -3.775  -3.278   3.072  1.00  0.00     0.049 A 
ATOM     42  H   UNL     1      -1.881  -3.506   3.918  1.00  0.00     0.167 HD
ATOM     43  C   UNL     1       2.070  -4.311   5.459  1.00  0.00     0.034 A 
ATOM     44  C   UNL     1      -4.656  -4.014   3.777  1.00  0.00     0.034 A 
ATOM     45  C   UNL     1       1.196  -5.067   6.320  1.00  0.00     0.049 A 
ATOM     46  C   UNL     1      -4.174  -4.863   4.912  1.00  0.00     0.074 A 
ATOM     47  C   UNL     1       1.529  -5.829   7.430  1.00  0.00     0.029 A 
ATOM     48  N   UNL     1      -0.176  -5.179   6.164  1.00  0.00    -0.354 N 
ATOM     49  N   UNL     1      -2.964  -4.984   5.397  1.00  0.00    -0.248 NA
ATOM     50  C   UNL     1      -5.186  -5.673   5.604  1.00  0.00     0.031 C 
ATOM     51  C   UNL     1       0.366  -6.437   7.915  1.00  0.00     0.029 A 
ATOM     52  C   UNL     1      -0.700  -6.012   7.141  1.00  0.00     0.049 A 
ATOM     53  H   UNL     1      -0.702  -4.731   5.463  1.00  0.00     0.167 HD
ATOM     54  C   UNL     1      -3.071  -5.865   6.466  1.00  0.00     0.074 A 
ATOM     55  C   UNL     1      -4.471  -6.221   6.576  1.00  0.00     0.031 C 
ATOM     56  C   UNL     1      -2.094  -6.345   7.273  1.00  0.00     0.034 A 
BRANCH  43  57
ATOM     57  C   UNL     1       3.548  -4.336   5.781  1.00  0.00     0.023 A 
ATOM     58  C   UNL     1       4.165  -3.214   6.369  1.00  0.00     0.012 A 
ATOM     59  C   UNL     1       4.303  -5.511   5.581  1.00  0.00     0.148 A 
ATOM     60  C   UNL     1       5.514  -3.252   6.729  1.00  0.00     0.002 A 
ATOM     61  C   UNL     1       5.635  -5.555   5.980  1.00  0.00     0.091 A 
ATOM     62  F   UNL     1       3.704  -6.564   5.008  1.00  0.00    -0.205 F 
ATOM     63  C   UNL     1       6.245  -4.424   6.545  1.00  0.00     0.022 A 
BRANCH  61  64
ATOM     64  S   UNL     1       6.637  -7.042   5.854  1.00  0.00     0.127 S 
ATOM     65  O   UNL     1       7.571  -6.678   4.788  1.00  0.00    -0.237 OA
ATOM     66  O   UNL     1       7.237  -7.124   7.186  1.00  0.00    -0.237 OA
ATOM     67  O   UNL     1       5.716  -8.122   5.534  1.00  0.00    -0.744 OA
ENDBRANCH  61  64
ENDBRANCH  43  57
BRANCH  44  68
ATOM     68  C   UNL     1      -6.094  -4.012   3.379  1.00  0.00     0.023 A 
ATOM     69  C   UNL     1      -7.060  -3.451   4.234  1.00  0.00     0.012 A 
ATOM     70  C   UNL     1      -6.495  -4.524   2.129  1.00  0.00     0.148 A 
ATOM     71  C   UNL     1      -8.403  -3.415   3.856  1.00  0.00     0.002 A 
ATOM     72  C   UNL     1      -7.817  -4.412   1.726  1.00  0.00     0.091 A 
ATOM     73  F   UNL     1      -5.564  -5.084   1.342  1.00  0.00    -0.205 F 
ATOM     74  C   UNL     1      -8.778  -3.877   2.596  1.00  0.00     0.022 A 
BRANCH  72  75
ATOM     75  S   UNL     1      -8.343  -4.819   0.057  1.00  0.00     0.127 S 
ATOM     76  O   UNL     1      -9.101  -6.048   0.274  1.00  0.00    -0.237 OA
ATOM     77  O   UNL     1      -9.149  -3.650  -0.299  1.00  0.00    -0.237 OA
ATOM     78  O   UNL     1      -7.117  -4.956  -0.718  1.00  0.00    -0.744 OA
ENDBRANCH  72  75
ENDBRANCH  44  68
BRANCH  56  79
ATOM     79  C   UNL     1      -2.514  -7.276   8.382  1.00  0.00     0.023 A 
ATOM     80  C   UNL     1      -2.978  -8.573   8.082  1.00  0.00     0.012 A 
ATOM     81  C   UNL     1      -2.448  -6.863   9.727  1.00  0.00     0.148 A 
ATOM     82  C   UNL     1      -3.424  -9.420   9.096  1.00  0.00     0.002 A 
ATOM     83  C   UNL     1      -2.843  -7.732  10.737  1.00  0.00     0.091 A 
ATOM     84  F   UNL     1      -2.024  -5.619   9.996  1.00  0.00    -0.205 F 
ATOM     85  C   UNL     1      -3.350  -9.003  10.423  1.00  0.00     0.022 A 
BRANCH  83  86
ATOM     86  S   UNL     1      -2.694  -7.309  12.476  1.00  0.00     0.127 S 
ATOM     87  O   UNL     1      -4.081  -7.017  12.832  1.00  0.00    -0.237 OA
ATOM     88  O   UNL     1      -2.165  -8.546  13.053  1.00  0.00    -0.237 OA
ATOM     89  O   UNL     1      -1.778  -6.178  12.534  1.00  0.00    -0.744 OA
ENDBRANCH  83  86
ENDBRANCH  56  79
ENDBRANCH  30  31
ENDBRANCH  23  25
ENDBRANCH  22  23
ENDBRANCH  21  22
ENDBRANCH   1  21
TORSDOF 19
