REMARK SMILES C[C@H]1CC[C@@](C[C@@H]2CCCc3ccccc32)(C(=O)OCCOC(=O)c2ccc(-c3c4nc(c(-c5cccc(S(=O)(=O)[O-])c5F)c5ccc([nH]5)c(-c5cccc(S(=O)(=O)[O-])c5F)c5nc(c(-c6cccc(S(=O)(=O)[O-])c6F)c6ccc3[nH]6)C=C5)C=C4)cc2)C1
REMARK SMILES IDX 21 1 20 2 19 3 17 4 18 5 5 6 1 7 2 8 3 9 88 10 4 11 6 12
REMARK SMILES IDX 7 13 8 14 16 15 9 16 11 17 15 18 10 19 12 20 14 21 13 22
REMARK SMILES IDX 22 23 23 24 24 25 25 26 26 27 87 28 27 29 86 30 28 31 29 32
REMARK SMILES IDX 30 33 80 34 31 35 85 36 79 37 81 38 32 39 84 40 78 41 77 42
REMARK SMILES IDX 33 44 65 45 45 46 64 47 46 48 49 49 63 50 82 51 47 52 48 53
REMARK SMILES IDX 62 55 83 56 50 57 34 58 35 59 43 60 36 61 38 62 44 63 37 64
REMARK SMILES IDX 39 65 40 66 41 67 42 68 66 69 67 70 75 71 68 72 70 73 76 74
REMARK SMILES IDX 69 75 71 76 72 77 73 78 74 79 51 80 52 81 60 82 53 83 55 84
REMARK SMILES IDX 61 85 54 86 56 87 57 88 58 89 59 90
REMARK H PARENT 81 43 49 54
REMARK Flexibility Score: inf
ROOT
ATOM      1  C   UNL     1      -5.108   1.874   1.765  1.00  0.00     0.275 C 
ENDROOT
BRANCH   1   2
ATOM      2  C   UNL     1      -4.278   2.457   0.622  1.00  0.00     0.274 C 
BRANCH   2   3
ATOM      3  O   UNL     1      -3.218   1.534   0.301  1.00  0.00    -0.462 OA
BRANCH   3   4
ATOM      4  C   UNL     1      -2.115   2.045  -0.298  1.00  0.00     0.312 C 
ATOM      5  O   UNL     1      -1.945   3.242  -0.500  1.00  0.00    -0.252 OA
BRANCH   4   6
ATOM      6  C   UNL     1      -1.133   0.960  -0.774  1.00  0.00     0.069 C 
ATOM      7  C   UNL     1       2.130   0.128   1.088  1.00  0.00     0.007 C 
ATOM      8  C   UNL     1       0.955   0.005   0.132  1.00  0.00    -0.013 C 
ATOM      9  C   UNL     1      -0.195  -0.784   0.725  1.00  0.00     0.004 C 
ATOM     10  C   UNL     1       0.288   1.335  -0.228  1.00  0.00     0.022 C 
ATOM     11  C   UNL     1      -1.359  -0.465  -0.205  1.00  0.00     0.019 C 
BRANCH   6  12
ATOM     12  C   UNL     1      -1.104   1.042  -2.332  1.00  0.00     0.027 C 
BRANCH  12  13
ATOM     13  C   UNL     1      -2.206   0.400  -3.231  1.00  0.00     0.020 C 
ATOM     14  C   UNL     1      -3.662   0.763  -2.894  1.00  0.00     0.009 C 
ATOM     15  C   UNL     1      -1.992  -1.085  -3.466  1.00  0.00    -0.042 A 
ATOM     16  C   UNL     1      -4.370  -0.251  -2.004  1.00  0.00     0.005 C 
ATOM     17  C   UNL     1      -2.941  -2.046  -3.080  1.00  0.00    -0.045 A 
ATOM     18  C   UNL     1      -0.787  -1.516  -4.055  1.00  0.00     0.004 A 
ATOM     19  C   UNL     1      -4.304  -1.661  -2.569  1.00  0.00     0.036 C 
ATOM     20  C   UNL     1      -2.637  -3.410  -3.222  1.00  0.00     0.004 A 
ATOM     21  C   UNL     1      -0.499  -2.870  -4.194  1.00  0.00     0.000 A 
ATOM     22  C   UNL     1      -1.417  -3.818  -3.760  1.00  0.00     0.000 A 
ENDBRANCH  12  13
ENDBRANCH   6  12
ENDBRANCH   4   6
ENDBRANCH   3   4
ENDBRANCH   2   3
ENDBRANCH   1   2
BRANCH   1  23
ATOM     23  O   UNL     1      -4.324   1.963   2.965  1.00  0.00    -0.458 OA
BRANCH  23  24
ATOM     24  C   UNL     1      -3.626   0.849   3.284  1.00  0.00     0.338 C 
ATOM     25  O   UNL     1      -3.802  -0.289   2.890  1.00  0.00    -0.246 OA
BRANCH  24  26
ATOM     26  C   UNL     1      -2.439   1.292   4.023  1.00  0.00     0.060 A 
ATOM     27  C   UNL     1      -1.350   1.739   3.274  1.00  0.00     0.016 A 
ATOM     28  C   UNL     1      -2.371   1.232   5.409  1.00  0.00     0.016 A 
ATOM     29  C   UNL     1      -0.157   2.074   3.898  1.00  0.00     0.010 A 
ATOM     30  C   UNL     1      -1.189   1.632   6.041  1.00  0.00     0.010 A 
ATOM     31  C   UNL     1      -0.063   2.029   5.291  1.00  0.00    -0.014 A 
BRANCH  31  32
ATOM     32  C   UNL     1       1.227   2.332   5.963  1.00  0.00     0.031 A 
ATOM     33  C   UNL     1       1.874   1.276   6.815  1.00  0.00     0.074 A 
ATOM     34  C   UNL     1       1.811   3.539   5.826  1.00  0.00     0.049 A 
ATOM     35  N   UNL     1       2.844   1.393   7.681  1.00  0.00    -0.248 NA
ATOM     36  C   UNL     1       1.339  -0.090   6.689  1.00  0.00     0.031 C 
ATOM     37  C   UNL     1       1.312   4.634   4.993  1.00  0.00     0.029 A 
ATOM     38  N   UNL     1       2.946   4.053   6.403  1.00  0.00    -0.354 N 
ATOM     39  C   UNL     1       2.971   0.142   8.274  1.00  0.00     0.074 A 
ATOM     40  C   UNL     1       1.995  -0.725   7.651  1.00  0.00     0.031 C 
ATOM     41  C   UNL     1       2.136   5.686   5.108  1.00  0.00     0.029 A 
ATOM     42  C   UNL     1       3.173   5.372   6.084  1.00  0.00     0.049 A 
ATOM     43  H   UNL     1       3.540   3.528   6.988  1.00  0.00     0.167 HD
ATOM     44  C   UNL     1       3.825  -0.244   9.251  1.00  0.00     0.034 A 
ATOM     45  C   UNL     1       4.080   6.246   6.562  1.00  0.00     0.034 A 
ATOM     46  C   UNL     1       4.848   0.605   9.799  1.00  0.00     0.049 A 
ATOM     47  C   UNL     1       5.045   5.783   7.619  1.00  0.00     0.074 A 
ATOM     48  C   UNL     1       5.781   0.310  10.777  1.00  0.00     0.029 A 
ATOM     49  N   UNL     1       5.088   1.911   9.397  1.00  0.00    -0.354 N 
ATOM     50  N   UNL     1       5.154   4.599   8.174  1.00  0.00    -0.248 NA
ATOM     51  C   UNL     1       6.016   6.770   8.112  1.00  0.00     0.031 C 
ATOM     52  C   UNL     1       6.586   1.439  10.965  1.00  0.00     0.029 A 
ATOM     53  C   UNL     1       6.162   2.432  10.095  1.00  0.00     0.049 A 
ATOM     54  H   UNL     1       4.569   2.396   8.715  1.00  0.00     0.167 HD
ATOM     55  C   UNL     1       6.212   4.693   9.069  1.00  0.00     0.074 A 
ATOM     56  C   UNL     1       6.732   6.042   8.959  1.00  0.00     0.031 C 
ATOM     57  C   UNL     1       6.694   3.760   9.926  1.00  0.00     0.034 A 
BRANCH  44  58
ATOM     58  C   UNL     1       3.696  -1.649   9.776  1.00  0.00     0.023 A 
ATOM     59  C   UNL     1       4.138  -2.736   8.996  1.00  0.00     0.012 A 
ATOM     60  C   UNL     1       3.165  -1.890  11.060  1.00  0.00     0.148 A 
ATOM     61  C   UNL     1       4.022  -4.042   9.470  1.00  0.00     0.002 A 
ATOM     62  C   UNL     1       3.093  -3.192  11.542  1.00  0.00     0.091 A 
ATOM     63  F   UNL     1       2.725  -0.846  11.777  1.00  0.00    -0.205 F 
ATOM     64  C   UNL     1       3.510  -4.269  10.745  1.00  0.00     0.022 A 
BRANCH  62  65
ATOM     65  S   UNL     1       2.516  -3.575  13.200  1.00  0.00     0.127 S 
ATOM     66  O   UNL     1       1.193  -4.135  12.931  1.00  0.00    -0.237 OA
ATOM     67  O   UNL     1       3.508  -4.550  13.656  1.00  0.00    -0.237 OA
ATOM     68  O   UNL     1       2.529  -2.315  13.929  1.00  0.00    -0.744 OA
ENDBRANCH  62  65
ENDBRANCH  44  58
BRANCH  45  69
ATOM     69  C   UNL     1       4.114   7.641   6.037  1.00  0.00     0.023 A 
ATOM     70  C   UNL     1       5.203   8.058   5.248  1.00  0.00     0.012 A 
ATOM     71  C   UNL     1       3.051   8.537   6.263  1.00  0.00     0.148 A 
ATOM     72  C   UNL     1       5.239   9.345   4.707  1.00  0.00     0.002 A 
ATOM     73  C   UNL     1       3.062   9.794   5.669  1.00  0.00     0.091 A 
ATOM     74  F   UNL     1       2.035   8.137   7.041  1.00  0.00    -0.205 F 
ATOM     75  C   UNL     1       4.163  10.206   4.903  1.00  0.00     0.022 A 
BRANCH  73  76
ATOM     76  S   UNL     1       1.645  10.896   5.745  1.00  0.00     0.127 S 
ATOM     77  O   UNL     1       2.079  11.876   6.737  1.00  0.00    -0.237 OA
ATOM     78  O   UNL     1       1.574  11.400   4.372  1.00  0.00    -0.237 OA
ATOM     79  O   UNL     1       0.520  10.053   6.127  1.00  0.00    -0.744 OA
ENDBRANCH  73  76
ENDBRANCH  45  69
BRANCH  57  80
ATOM     80  C   UNL     1       7.858   4.155  10.794  1.00  0.00     0.023 A 
ATOM     81  C   UNL     1       7.643   4.996  11.903  1.00  0.00     0.012 A 
ATOM     82  C   UNL     1       9.145   3.635  10.555  1.00  0.00     0.148 A 
ATOM     83  C   UNL     1       8.700   5.337  12.747  1.00  0.00     0.002 A 
ATOM     84  C   UNL     1      10.184   3.946  11.424  1.00  0.00     0.091 A 
ATOM     85  F   UNL     1       9.331   2.855   9.480  1.00  0.00    -0.205 F 
ATOM     86  C   UNL     1       9.965   4.803  12.514  1.00  0.00     0.022 A 
BRANCH  84  87
ATOM     87  S   UNL     1      11.822   3.232  11.247  1.00  0.00     0.127 S 
ATOM     88  O   UNL     1      12.572   4.345  10.668  1.00  0.00    -0.237 OA
ATOM     89  O   UNL     1      12.176   2.912  12.630  1.00  0.00    -0.237 OA
ATOM     90  O   UNL     1      11.657   2.068  10.385  1.00  0.00    -0.744 OA
ENDBRANCH  84  87
ENDBRANCH  57  80
ENDBRANCH  31  32
ENDBRANCH  24  26
ENDBRANCH  23  24
ENDBRANCH   1  23
TORSDOF 16
