REMARK SMILES O=C(OCCOC(=O)c1cc(-c2ccoc2)n[nH]1)c1ccc(-c2c3nc(c(-c4cccc(S(=O)(=O)[O-])c4F)c4ccc([nH]4)c(-c4cccc(S(=O)(=O)[O-])c4F)c4nc(c(-c5cccc(S(=O)(=O)[O-])c5F)c5ccc2[nH]5)C=C4)C=C3)cc1
REMARK SMILES IDX 4 1 3 2 2 3 1 4 19 5 20 6 81 7 21 8 80 9 22 10 23 11 24 12
REMARK SMILES IDX 74 13 25 14 79 15 73 16 75 17 26 18 78 19 72 20 71 21 27 23
REMARK SMILES IDX 59 24 39 25 58 26 40 27 43 28 57 29 76 30 41 31 42 32 56 34
REMARK SMILES IDX 77 35 44 36 28 37 29 38 37 39 30 40 32 41 38 42 31 43 33 44
REMARK SMILES IDX 34 45 35 46 36 47 60 48 61 49 69 50 62 51 64 52 70 53 63 54
REMARK SMILES IDX 65 55 66 56 67 57 68 58 45 59 46 60 54 61 47 62 49 63 55 64
REMARK SMILES IDX 48 65 50 66 51 67 52 68 53 69 5 70 6 71 7 72 8 73 9 74 10 75
REMARK SMILES IDX 18 76 11 77 17 78 12 80 13 81 16 82 14 83 15 84
REMARK H PARENT 75 22 43 33 18 79
REMARK Flexibility Score: inf
ROOT
ATOM      1  C   UNL     1       3.936   1.582  -0.429  1.00  0.00     0.275 C 
ENDROOT
BRANCH   1   2
ATOM      2  O   UNL     1       2.876   0.725  -0.892  1.00  0.00    -0.458 OA
BRANCH   2   3
ATOM      3  C   UNL     1       2.716  -0.618  -0.825  1.00  0.00     0.338 C 
ATOM      4  O   UNL     1       1.728  -1.112  -1.368  1.00  0.00    -0.246 OA
BRANCH   3   5
ATOM      5  C   UNL     1       3.588  -1.525  -0.016  1.00  0.00     0.060 A 
ATOM      6  C   UNL     1       4.936  -1.316   0.280  1.00  0.00     0.016 A 
ATOM      7  C   UNL     1       2.984  -2.699   0.475  1.00  0.00     0.016 A 
ATOM      8  C   UNL     1       5.632  -2.193   1.118  1.00  0.00     0.010 A 
ATOM      9  C   UNL     1       3.674  -3.579   1.314  1.00  0.00     0.010 A 
ATOM     10  C   UNL     1       5.003  -3.321   1.653  1.00  0.00    -0.014 A 
BRANCH  10  11
ATOM     11  C   UNL     1       5.774  -4.239   2.519  1.00  0.00     0.031 A 
ATOM     12  C   UNL     1       6.323  -5.507   1.940  1.00  0.00     0.074 A 
ATOM     13  C   UNL     1       6.016  -3.905   3.801  1.00  0.00     0.049 A 
ATOM     14  N   UNL     1       7.154  -6.359   2.478  1.00  0.00    -0.248 NA
ATOM     15  C   UNL     1       5.909  -5.849   0.569  1.00  0.00     0.031 C 
ATOM     16  C   UNL     1       5.528  -2.694   4.459  1.00  0.00     0.029 A 
ATOM     17  N   UNL     1       6.717  -4.553   4.784  1.00  0.00    -0.354 N 
ATOM     18  C   UNL     1       7.393  -7.316   1.502  1.00  0.00     0.074 A 
ATOM     19  C   UNL     1       6.577  -6.974   0.358  1.00  0.00     0.031 C 
ATOM     20  C   UNL     1       5.897  -2.710   5.751  1.00  0.00     0.029 A 
ATOM     21  C   UNL     1       6.676  -3.916   6.004  1.00  0.00     0.049 A 
ATOM     22  H   UNL     1       7.204  -5.395   4.632  1.00  0.00     0.167 HD
ATOM     23  C   UNL     1       8.254  -8.359   1.542  1.00  0.00     0.034 A 
ATOM     24  C   UNL     1       7.225  -4.264   7.184  1.00  0.00     0.034 A 
ATOM     25  C   UNL     1       9.036  -8.704   2.697  1.00  0.00     0.049 A 
ATOM     26  C   UNL     1       8.120  -5.474   7.221  1.00  0.00     0.074 A 
ATOM     27  C   UNL     1       9.942  -9.737   2.850  1.00  0.00     0.029 A 
ATOM     28  N   UNL     1       8.986  -8.029   3.909  1.00  0.00    -0.354 N 
ATOM     29  N   UNL     1       8.466  -6.273   6.240  1.00  0.00    -0.248 NA
ATOM     30  C   UNL     1       8.751  -5.793   8.508  1.00  0.00     0.031 C 
ATOM     31  C   UNL     1      10.430  -9.694   4.162  1.00  0.00     0.029 A 
ATOM     32  C   UNL     1       9.838  -8.626   4.820  1.00  0.00     0.049 A 
ATOM     33  H   UNL     1       8.426  -7.241   4.093  1.00  0.00     0.167 HD
ATOM     34  C   UNL     1       9.387  -7.162   6.778  1.00  0.00     0.074 A 
ATOM     35  C   UNL     1       9.559  -6.789   8.169  1.00  0.00     0.031 C 
ATOM     36  C   UNL     1      10.027  -8.199   6.183  1.00  0.00     0.034 A 
BRANCH  23  37
ATOM     37  C   UNL     1       8.427  -9.150   0.275  1.00  0.00     0.023 A 
ATOM     38  C   UNL     1       9.170  -8.583  -0.782  1.00  0.00     0.012 A 
ATOM     39  C   UNL     1       7.875 -10.434   0.122  1.00  0.00     0.148 A 
ATOM     40  C   UNL     1       9.336  -9.269  -1.984  1.00  0.00     0.002 A 
ATOM     41  C   UNL     1       8.069 -11.126  -1.069  1.00  0.00     0.091 A 
ATOM     42  F   UNL     1       7.156 -10.945   1.132  1.00  0.00    -0.205 F 
ATOM     43  C   UNL     1       8.790 -10.541  -2.125  1.00  0.00     0.022 A 
BRANCH  41  44
ATOM     44  S   UNL     1       7.444 -12.786  -1.346  1.00  0.00     0.127 S 
ATOM     45  O   UNL     1       6.441 -12.554  -2.385  1.00  0.00    -0.237 OA
ATOM     46  O   UNL     1       8.642 -13.492  -1.801  1.00  0.00    -0.237 OA
ATOM     47  O   UNL     1       6.918 -13.238  -0.065  1.00  0.00    -0.744 OA
ENDBRANCH  41  44
ENDBRANCH  23  37
BRANCH  24  48
ATOM     48  C   UNL     1       7.026  -3.415   8.394  1.00  0.00     0.023 A 
ATOM     49  C   UNL     1       8.100  -2.666   8.910  1.00  0.00     0.012 A 
ATOM     50  C   UNL     1       5.777  -3.343   9.039  1.00  0.00     0.148 A 
ATOM     51  C   UNL     1       7.942  -1.890  10.061  1.00  0.00     0.002 A 
ATOM     52  C   UNL     1       5.609  -2.525  10.152  1.00  0.00     0.091 A 
ATOM     53  F   UNL     1       4.774  -4.096   8.570  1.00  0.00    -0.205 F 
ATOM     54  C   UNL     1       6.694  -1.810  10.675  1.00  0.00     0.022 A 
BRANCH  52  55
ATOM     55  S   UNL     1       3.996  -2.281  10.906  1.00  0.00     0.127 S 
ATOM     56  O   UNL     1       4.019  -3.254  11.994  1.00  0.00    -0.237 OA
ATOM     57  O   UNL     1       4.055  -0.881  11.329  1.00  0.00    -0.237 OA
ATOM     58  O   UNL     1       3.039  -2.533   9.836  1.00  0.00    -0.744 OA
ENDBRANCH  52  55
ENDBRANCH  24  48
BRANCH  36  59
ATOM     59  C   UNL     1      10.990  -8.987   7.028  1.00  0.00     0.023 A 
ATOM     60  C   UNL     1      10.495  -9.871   8.006  1.00  0.00     0.012 A 
ATOM     61  C   UNL     1      12.378  -8.903   6.806  1.00  0.00     0.148 A 
ATOM     62  C   UNL     1      11.370 -10.638   8.773  1.00  0.00     0.002 A 
ATOM     63  C   UNL     1      13.241  -9.707   7.541  1.00  0.00     0.091 A 
ATOM     64  F   UNL     1      12.831  -8.037   5.888  1.00  0.00    -0.205 F 
ATOM     65  C   UNL     1      12.740 -10.566   8.532  1.00  0.00     0.022 A 
BRANCH  63  66
ATOM     66  S   UNL     1      15.008  -9.744   7.220  1.00  0.00     0.127 S 
ATOM     67  O   UNL     1      15.524  -8.891   8.288  1.00  0.00    -0.237 OA
ATOM     68  O   UNL     1      15.325 -11.166   7.366  1.00  0.00    -0.237 OA
ATOM     69  O   UNL     1      15.172  -9.232   5.866  1.00  0.00    -0.744 OA
ENDBRANCH  63  66
ENDBRANCH  36  59
ENDBRANCH  10  11
ENDBRANCH   3   5
ENDBRANCH   2   3
ENDBRANCH   1   2
BRANCH   1  70
ATOM     70  C   UNL     1       3.830   2.034   1.032  1.00  0.00     0.275 C 
BRANCH  70  71
ATOM     71  O   UNL     1       3.427   1.001   1.938  1.00  0.00    -0.457 OA
BRANCH  71  72
ATOM     72  C   UNL     1       2.077   0.882   2.098  1.00  0.00     0.356 C 
ATOM     73  O   UNL     1       1.241   1.602   1.569  1.00  0.00    -0.244 OA
BRANCH  72  74
ATOM     74  C   UNL     1       1.772  -0.306   2.831  1.00  0.00     0.144 A 
ATOM     75  C   UNL     1       2.318  -0.894   3.955  1.00  0.00     0.066 A 
ATOM     76  N   UNL     1       0.767  -1.146   2.440  1.00  0.00    -0.271 N 
ATOM     77  C   UNL     1       1.640  -2.128   4.085  1.00  0.00     0.096 A 
ATOM     78  N   UNL     1       0.717  -2.294   3.131  1.00  0.00    -0.175 NA
ATOM     79  H   UNL     1       0.137  -0.928   1.716  1.00  0.00     0.190 HD
BRANCH  77  80
ATOM     80  C   UNL     1       1.921  -3.139   5.090  1.00  0.00     0.040 A 
ATOM     81  C   UNL     1       1.967  -2.939   6.488  1.00  0.00     0.052 A 
ATOM     82  C   UNL     1       2.177  -4.475   4.880  1.00  0.00     0.205 A 
ATOM     83  C   UNL     1       2.228  -4.175   7.037  1.00  0.00     0.195 A 
ATOM     84  O   UNL     1       2.360  -5.114   6.065  1.00  0.00    -0.472 OA
ENDBRANCH  77  80
ENDBRANCH  72  74
ENDBRANCH  71  72
ENDBRANCH  70  71
ENDBRANCH   1  70
TORSDOF 15
