REMARK SMILES Cc1ccc(NC(=O)CN2C(=O)S/C(=C\c3cc(Cl)c(OCC(=O)OCCOC(=O)c4ccc(-c5c6nc(c(-c7cccc(S(=O)(=O)[O-])c7F)c7ccc([nH]7)c(-c7cccc(S(=O)(=O)[O-])c7F)c7nc(c(-c8cccc(S(=O)(=O)[O-])c8F)c8ccc5[nH]8)C=C7)C=C6)cc4)c(Cl)c3)C2=O)cc1
REMARK SMILES IDX 25 1 23 2 24 3 22 4 21 5 20 6 16 7 17 8 96 9 18 10 94 11
REMARK SMILES IDX 19 12 95 13 15 14 10 15 11 16 97 17 12 18 13 19 14 20 98 21
REMARK SMILES IDX 9 22 7 23 6 24 8 26 5 27 1 28 2 29 3 30 100 31 4 32 99 33
REMARK SMILES IDX 26 34 27 35 28 36 29 37 30 38 31 39 32 40 93 41 33 42 92 43
REMARK SMILES IDX 34 44 35 45 36 46 86 47 37 48 91 49 85 50 87 51 38 52 90 53
REMARK SMILES IDX 84 54 83 55 39 57 71 58 51 59 70 60 52 61 55 62 69 63 88 64
REMARK SMILES IDX 53 65 54 66 68 68 89 69 56 70 40 71 41 72 49 73 42 74 44 75
REMARK SMILES IDX 50 76 43 77 45 78 46 79 47 80 48 81 72 82 73 83 81 84 74 85
REMARK SMILES IDX 76 86 82 87 75 88 77 89 78 90 79 91 80 92 57 93 58 94 66 95
REMARK SMILES IDX 59 96 61 97 67 98 60 99 62 100 63 101 64 102 65 103
REMARK H PARENT 6 25 87 56 55 67
REMARK Flexibility Score: inf
ROOT
ATOM      1  O   UNL     1      -7.932  -5.658 -10.640  1.00  0.00    -0.460 OA
ENDROOT
BRANCH   1   2
ATOM      2  C   UNL     1      -7.775  -4.248 -10.361  1.00  0.00     0.344 C 
ATOM      3  O   UNL     1      -8.573  -4.005  -9.421  1.00  0.00    -0.248 OA
BRANCH   2   4
ATOM      4  C   UNL     1      -6.241  -2.992 -11.315  1.00  0.00     0.352 C 
BRANCH   4   5
ATOM      5  O   UNL     1      -5.155  -1.873 -10.919  1.00  0.00    -0.479 OA
BRANCH   5   6
ATOM      6  C   UNL     1      -4.222  -1.948  -9.901  1.00  0.00     0.157 A 
ATOM      7  C   UNL     1      -2.710  -2.338  -7.440  1.00  0.00    -0.021 A 
ATOM      8  C   UNL     1      -2.302  -2.910  -8.661  1.00  0.00     0.032 A 
ATOM      9  C   UNL     1      -3.779  -1.444  -7.561  1.00  0.00     0.032 A 
ATOM     10  C   UNL     1      -3.061  -2.731  -9.871  1.00  0.00     0.085 A 
ATOM     11  C   UNL     1      -4.427  -1.157  -8.774  1.00  0.00     0.085 A 
ATOM     12  Cl  UNL     1      -2.461  -3.467 -11.315  1.00  0.00    -0.080 Cl
ATOM     13  Cl  UNL     1      -5.472   0.221  -8.781  1.00  0.00    -0.080 Cl
BRANCH   7  14
ATOM     14  C   UNL     1      -2.176  -2.772  -6.084  1.00  0.00     0.029 C 
ATOM     15  N   UNL     1      -3.017  -2.188  -2.576  1.00  0.00    -0.259 N 
ATOM     16  C   UNL     1      -3.837  -1.252  -3.135  1.00  0.00     0.294 C 
ATOM     17  C   UNL     1      -2.194  -2.839  -3.491  1.00  0.00     0.268 C 
ATOM     18  O   UNL     1      -4.931  -0.886  -2.745  1.00  0.00    -0.261 OA
ATOM     19  S   UNL     1      -3.072  -0.646  -4.567  1.00  0.00    -0.022 SA
ATOM     20  C   UNL     1      -2.362  -2.195  -4.869  1.00  0.00     0.083 C 
ATOM     21  O   UNL     1      -1.504  -3.822  -3.261  1.00  0.00    -0.268 OA
BRANCH  15  22
ATOM     22  C   UNL     1      -3.361  -2.680  -1.244  1.00  0.00     0.230 C 
BRANCH  22  23
ATOM     23  C   UNL     1      -3.785  -1.544  -0.274  1.00  0.00     0.244 C 
ATOM     24  N   UNL     1      -3.007  -0.435  -0.070  1.00  0.00    -0.325 N 
ATOM     25  H   UNL     1      -3.510   0.392   0.112  1.00  0.00     0.169 HD
ATOM     26  O   UNL     1      -4.861  -1.606   0.331  1.00  0.00    -0.273 OA
BRANCH  24  27
ATOM     27  C   UNL     1      -1.615  -0.283  -0.078  1.00  0.00     0.041 A 
ATOM     28  C   UNL     1       2.659   0.280  -0.019  1.00  0.00     0.044 C 
ATOM     29  C   UNL     1       1.170   0.116  -0.003  1.00  0.00    -0.051 A 
ATOM     30  C   UNL     1       0.630  -1.169   0.084  1.00  0.00     0.005 A 
ATOM     31  C   UNL     1       0.303   1.210  -0.084  1.00  0.00     0.005 A 
ATOM     32  C   UNL     1      -0.749  -1.363   0.061  1.00  0.00     0.026 A 
ATOM     33  C   UNL     1      -1.083   1.011  -0.110  1.00  0.00     0.026 A 
ENDBRANCH  24  27
ENDBRANCH  22  23
ENDBRANCH  15  22
ENDBRANCH   7  14
ENDBRANCH   5   6
ENDBRANCH   4   5
ENDBRANCH   2   4
ENDBRANCH   1   2
BRANCH   1  34
ATOM     34  C   UNL     1      -8.303  -6.486  -9.533  1.00  0.00     0.274 C 
BRANCH  34  35
ATOM     35  C   UNL     1      -7.055  -6.707  -8.678  1.00  0.00     0.275 C 
BRANCH  35  36
ATOM     36  O   UNL     1      -6.657  -5.613  -7.803  1.00  0.00    -0.458 OA
BRANCH  36  37
ATOM     37  C   UNL     1      -5.925  -4.499  -8.071  1.00  0.00     0.338 C 
ATOM     38  O   UNL     1      -5.373  -3.879  -7.174  1.00  0.00    -0.246 OA
BRANCH  37  39
ATOM     39  C   UNL     1      -6.001  -3.908  -9.430  1.00  0.00     0.060 A 
ATOM     40  C   UNL     1      -7.104  -2.458  -9.513  1.00  0.00     0.016 A 
ATOM     41  C   UNL     1      -5.840  -4.982 -10.866  1.00  0.00     0.016 A 
ATOM     42  C   UNL     1      -8.211  -2.259 -10.923  1.00  0.00     0.010 A 
ATOM     43  C   UNL     1      -6.952  -4.736 -12.291  1.00  0.00     0.010 A 
ATOM     44  C   UNL     1      -8.218  -3.465 -12.232  1.00  0.00    -0.014 A 
BRANCH  44  45
ATOM     45  C   UNL     1      -9.529  -3.946 -12.770  1.00  0.00     0.031 A 
ATOM     46  C   UNL     1      -9.677  -3.875 -14.233  1.00  0.00     0.074 A 
ATOM     47  C   UNL     1     -10.493  -4.581 -12.027  1.00  0.00     0.049 A 
ATOM     48  N   UNL     1     -10.804  -3.862 -14.851  1.00  0.00    -0.248 NA
ATOM     49  C   UNL     1      -8.532  -3.696 -15.118  1.00  0.00     0.031 C 
ATOM     50  C   UNL     1     -11.507  -5.513 -12.543  1.00  0.00     0.029 A 
ATOM     51  N   UNL     1     -10.815  -4.550 -10.661  1.00  0.00    -0.354 N 
ATOM     52  C   UNL     1     -10.530  -3.969 -16.198  1.00  0.00     0.074 A 
ATOM     53  C   UNL     1      -9.130  -3.664 -16.311  1.00  0.00     0.031 C 
ATOM     54  C   UNL     1     -12.420  -5.781 -11.593  1.00  0.00     0.029 A 
ATOM     55  C   UNL     1     -12.159  -4.905 -10.471  1.00  0.00     0.049 A 
ATOM     56  H   UNL     1     -10.188  -4.314  -9.940  1.00  0.00     0.167 HD
ATOM     57  C   UNL     1     -11.483  -4.485 -17.021  1.00  0.00     0.034 A 
ATOM     58  C   UNL     1     -13.117  -4.213  -9.776  1.00  0.00     0.034 A 
ATOM     59  C   UNL     1     -12.713  -4.745 -16.251  1.00  0.00     0.049 A 
ATOM     60  C   UNL     1     -14.212  -3.723 -10.730  1.00  0.00     0.074 A 
ATOM     61  C   UNL     1     -13.234  -5.894 -15.679  1.00  0.00     0.029 A 
ATOM     62  N   UNL     1     -13.401  -3.679 -15.682  1.00  0.00    -0.354 N 
ATOM     63  N   UNL     1     -14.227  -4.010 -12.002  1.00  0.00    -0.248 NA
ATOM     64  C   UNL     1     -15.320  -2.832 -10.374  1.00  0.00     0.031 C 
ATOM     65  C   UNL     1     -14.201  -5.502 -14.713  1.00  0.00     0.029 A 
ATOM     66  C   UNL     1     -14.309  -4.121 -14.730  1.00  0.00     0.049 A 
ATOM     67  H   UNL     1     -13.262  -2.734 -15.922  1.00  0.00     0.167 HD
ATOM     68  C   UNL     1     -15.141  -3.234 -12.657  1.00  0.00     0.074 A 
ATOM     69  C   UNL     1     -15.863  -2.578 -11.579  1.00  0.00     0.031 C 
ATOM     70  C   UNL     1     -15.163  -3.164 -14.025  1.00  0.00     0.034 A 
BRANCH  57  71
ATOM     71  C   UNL     1     -11.268  -5.032 -18.432  1.00  0.00     0.023 A 
ATOM     72  C   UNL     1     -12.324  -5.797 -18.979  1.00  0.00     0.012 A 
ATOM     73  C   UNL     1     -10.118  -4.915 -19.254  1.00  0.00     0.148 A 
ATOM     74  C   UNL     1     -12.233  -6.446 -20.217  1.00  0.00     0.002 A 
ATOM     75  C   UNL     1     -10.021  -5.564 -20.491  1.00  0.00     0.091 A 
ATOM     76  F   UNL     1      -9.092  -4.158 -18.877  1.00  0.00    -0.205 F 
ATOM     77  C   UNL     1     -11.077  -6.338 -20.971  1.00  0.00     0.022 A 
BRANCH  75  78
ATOM     78  S   UNL     1      -8.548  -5.474 -21.534  1.00  0.00     0.127 S 
ATOM     79  O   UNL     1      -8.199  -6.888 -21.696  1.00  0.00    -0.237 OA
ATOM     80  O   UNL     1      -9.059  -4.834 -22.745  1.00  0.00    -0.237 OA
ATOM     81  O   UNL     1      -7.560  -4.697 -20.795  1.00  0.00    -0.744 OA
ENDBRANCH  75  78
ENDBRANCH  57  71
BRANCH  58  82
ATOM     82  C   UNL     1     -12.583  -3.424  -8.627  1.00  0.00     0.023 A 
ATOM     83  C   UNL     1     -11.868  -4.127  -7.629  1.00  0.00     0.012 A 
ATOM     84  C   UNL     1     -12.313  -2.072  -8.828  1.00  0.00     0.148 A 
ATOM     85  C   UNL     1     -10.717  -3.564  -7.073  1.00  0.00     0.002 A 
ATOM     86  C   UNL     1     -11.134  -1.543  -8.335  1.00  0.00     0.091 A 
ATOM     87  F   UNL     1     -13.126  -1.342  -9.601  1.00  0.00    -0.205 F 
ATOM     88  C   UNL     1     -10.308  -2.295  -7.488  1.00  0.00     0.022 A 
BRANCH  86  89
ATOM     89  S   UNL     1     -10.571  -0.021  -9.096  1.00  0.00     0.127 S 
ATOM     90  O   UNL     1      -9.160   0.033  -8.721  1.00  0.00    -0.237 OA
ATOM     91  O   UNL     1     -10.805  -0.259 -10.517  1.00  0.00    -0.237 OA
ATOM     92  O   UNL     1     -11.418   0.983  -8.465  1.00  0.00    -0.744 OA
ENDBRANCH  86  89
ENDBRANCH  58  82
BRANCH  70  93
ATOM     93  C   UNL     1     -16.009  -2.207 -14.845  1.00  0.00     0.023 A 
ATOM     94  C   UNL     1     -16.557  -1.027 -14.313  1.00  0.00     0.012 A 
ATOM     95  C   UNL     1     -16.198  -2.421 -16.238  1.00  0.00     0.148 A 
ATOM     96  C   UNL     1     -17.345  -0.166 -15.086  1.00  0.00     0.002 A 
ATOM     97  C   UNL     1     -16.854  -1.488 -17.030  1.00  0.00     0.091 A 
ATOM     98  F   UNL     1     -15.773  -3.557 -16.808  1.00  0.00    -0.205 F 
ATOM     99  C   UNL     1     -17.478  -0.386 -16.449  1.00  0.00     0.022 A 
BRANCH  97 100
ATOM    100  S   UNL     1     -16.805  -1.578 -18.825  1.00  0.00     0.127 S 
ATOM    101  O   UNL     1     -18.142  -2.080 -19.136  1.00  0.00    -0.237 OA
ATOM    102  O   UNL     1     -16.576  -0.180 -19.194  1.00  0.00    -0.237 OA
ATOM    103  O   UNL     1     -15.700  -2.470 -19.146  1.00  0.00    -0.744 OA
ENDBRANCH  97 100
ENDBRANCH  70  93
ENDBRANCH  44  45
ENDBRANCH  37  39
ENDBRANCH  36  37
ENDBRANCH  35  36
ENDBRANCH  34  35
ENDBRANCH   1  34
TORSDOF 20
