REMARK SMILES O=C(CSc1ccc(NC(=O)c2cccc3ccccc23)cc1)OCCOC(=O)c1ccc(-c2c3nc(c(-c4cccc(S(=O)(=O)[O-])c4F)c4ccc([nH]4)c(-c4cccc(S(=O)(=O)[O-])c4F)c4nc(c(-c5cccc(S(=O)(=O)[O-])c5F)c5ccc2[nH]5)C=C4)C=C3)cc1
REMARK SMILES IDX 25 1 24 2 2 3 1 4 3 5 4 6 5 7 6 8 23 9 7 10 22 11 8 12 9 13
REMARK SMILES IDX 10 14 11 16 12 17 13 18 21 19 14 20 16 21 20 22 15 23 17 24
REMARK SMILES IDX 19 25 18 26 26 27 27 28 28 29 29 30 30 31 31 32 92 33 32 34
REMARK SMILES IDX 91 35 33 36 34 37 35 38 85 39 36 40 90 41 84 42 86 43 37 44
REMARK SMILES IDX 89 45 83 46 82 47 38 49 70 50 50 51 69 52 51 53 54 54 68 55
REMARK SMILES IDX 87 56 52 57 53 58 67 60 88 61 55 62 39 63 40 64 48 65 41 66
REMARK SMILES IDX 43 67 49 68 42 69 44 70 45 71 46 72 47 73 71 74 72 75 80 76
REMARK SMILES IDX 73 77 75 78 81 79 74 80 76 81 77 82 78 83 79 84 56 85 57 86
REMARK SMILES IDX 65 87 58 88 60 89 66 90 59 91 61 92 62 93 63 94 64 95
REMARK H PARENT 9 15 86 48 54 59
REMARK Flexibility Score: inf
ROOT
ATOM      1  C   UNL     1       4.635  -0.340  -0.985  1.00  0.00     0.274 C 
ENDROOT
BRANCH   1   2
ATOM      2  O   UNL     1       3.333  -0.671  -0.461  1.00  0.00    -0.461 OA
BRANCH   2   3
ATOM      3  C   UNL     1       2.855  -0.294   0.752  1.00  0.00     0.316 C 
ATOM      4  O   UNL     1       1.729  -0.655   1.095  1.00  0.00    -0.251 OA
BRANCH   3   5
ATOM      5  C   UNL     1       3.704   0.587   1.645  1.00  0.00     0.197 C 
BRANCH   5   6
ATOM      6  S   UNL     1       5.018  -0.336   2.505  1.00  0.00    -0.114 SA
BRANCH   6   7
ATOM      7  C   UNL     1       4.006  -1.120   3.727  1.00  0.00     0.008 A 
ATOM      8  C   UNL     1       3.558  -0.400   4.835  1.00  0.00     0.017 A 
ATOM      9  C   UNL     1       3.591  -2.435   3.537  1.00  0.00     0.017 A 
ATOM     10  C   UNL     1       2.624  -0.963   5.704  1.00  0.00     0.027 A 
ATOM     11  C   UNL     1       2.657  -2.994   4.405  1.00  0.00     0.027 A 
ATOM     12  C   UNL     1       2.120  -2.236   5.453  1.00  0.00     0.041 A 
BRANCH  12  13
ATOM     13  N   UNL     1       1.062  -2.826   6.152  1.00  0.00    -0.322 N 
ATOM     14  C   UNL     1       0.089  -2.324   6.977  1.00  0.00     0.256 C 
ATOM     15  H   UNL     1       1.004  -3.801   6.027  1.00  0.00     0.170 HD
ATOM     16  O   UNL     1      -0.677  -3.122   7.525  1.00  0.00    -0.269 OA
BRANCH  14  17
ATOM     17  C   UNL     1      -0.118  -0.885   7.230  1.00  0.00     0.048 A 
ATOM     18  C   UNL     1      -0.016  -0.514   8.581  1.00  0.00     0.014 A 
ATOM     19  C   UNL     1      -0.526   0.050   6.231  1.00  0.00    -0.006 A 
ATOM     20  C   UNL     1      -0.332   0.777   8.973  1.00  0.00     0.001 A 
ATOM     21  C   UNL     1      -0.888   1.346   6.668  1.00  0.00    -0.018 A 
ATOM     22  C   UNL     1      -0.592  -0.198   4.835  1.00  0.00     0.009 A 
ATOM     23  C   UNL     1      -0.792   1.683   8.024  1.00  0.00     0.009 A 
ATOM     24  C   UNL     1      -1.336   2.310   5.750  1.00  0.00     0.009 A 
ATOM     25  C   UNL     1      -0.969   0.796   3.924  1.00  0.00     0.001 A 
ATOM     26  C   UNL     1      -1.361   2.045   4.385  1.00  0.00     0.001 A 
ENDBRANCH  14  17
ENDBRANCH  12  13
ENDBRANCH   6   7
ENDBRANCH   5   6
ENDBRANCH   3   5
ENDBRANCH   2   3
ENDBRANCH   1   2
BRANCH   1  27
ATOM     27  C   UNL     1       4.600   0.878  -1.909  1.00  0.00     0.275 C 
BRANCH  27  28
ATOM     28  O   UNL     1       4.126   2.040  -1.208  1.00  0.00    -0.458 OA
BRANCH  28  29
ATOM     29  C   UNL     1       2.805   2.316  -1.378  1.00  0.00     0.338 C 
ATOM     30  O   UNL     1       2.047   1.757  -2.144  1.00  0.00    -0.246 OA
BRANCH  29  31
ATOM     31  C   UNL     1       2.361   3.299  -0.358  1.00  0.00     0.060 A 
ATOM     32  C   UNL     1       1.075   3.144   0.171  1.00  0.00     0.016 A 
ATOM     33  C   UNL     1       3.173   4.353   0.078  1.00  0.00     0.016 A 
ATOM     34  C   UNL     1       0.582   4.066   1.097  1.00  0.00     0.010 A 
ATOM     35  C   UNL     1       2.678   5.273   1.013  1.00  0.00     0.010 A 
ATOM     36  C   UNL     1       1.367   5.154   1.504  1.00  0.00    -0.014 A 
BRANCH  36  37
ATOM     37  C   UNL     1       0.762   6.202   2.368  1.00  0.00     0.031 A 
ATOM     38  C   UNL     1       0.249   7.474   1.749  1.00  0.00     0.074 A 
ATOM     39  C   UNL     1       0.634   6.011   3.695  1.00  0.00     0.049 A 
ATOM     40  N   UNL     1      -0.431   8.446   2.302  1.00  0.00    -0.248 NA
ATOM     41  C   UNL     1       0.547   7.684   0.323  1.00  0.00     0.031 C 
ATOM     42  C   UNL     1       1.139   4.856   4.433  1.00  0.00     0.029 A 
ATOM     43  N   UNL     1       0.039   6.791   4.657  1.00  0.00    -0.354 N 
ATOM     44  C   UNL     1      -0.634   9.387   1.300  1.00  0.00     0.074 A 
ATOM     45  C   UNL     1       0.014   8.879   0.109  1.00  0.00     0.031 C 
ATOM     46  C   UNL     1       0.829   5.000   5.733  1.00  0.00     0.029 A 
ATOM     47  C   UNL     1       0.090   6.248   5.921  1.00  0.00     0.049 A 
ATOM     48  H   UNL     1      -0.385   7.657   4.461  1.00  0.00     0.167 HD
ATOM     49  C   UNL     1      -1.313  10.558   1.355  1.00  0.00     0.034 A 
ATOM     50  C   UNL     1      -0.420   6.695   7.087  1.00  0.00     0.034 A 
ATOM     51  C   UNL     1      -1.964  11.069   2.531  1.00  0.00     0.049 A 
ATOM     52  C   UNL     1      -1.217   7.977   7.104  1.00  0.00     0.074 A 
ATOM     53  C   UNL     1      -2.694  12.238   2.672  1.00  0.00     0.029 A 
ATOM     54  N   UNL     1      -1.957  10.454   3.772  1.00  0.00    -0.354 N 
ATOM     55  N   UNL     1      -1.543   8.766   6.109  1.00  0.00    -0.248 NA
ATOM     56  C   UNL     1      -1.752   8.410   8.406  1.00  0.00     0.031 C 
ATOM     57  C   UNL     1      -3.114  12.337   4.004  1.00  0.00     0.029 A 
ATOM     58  C   UNL     1      -2.665  11.218   4.685  1.00  0.00     0.049 A 
ATOM     59  H   UNL     1      -1.515   9.598   3.975  1.00  0.00     0.167 HD
ATOM     60  C   UNL     1      -2.333   9.771   6.661  1.00  0.00     0.074 A 
ATOM     61  C   UNL     1      -2.485   9.459   8.066  1.00  0.00     0.031 C 
ATOM     62  C   UNL     1      -2.855  10.874   6.070  1.00  0.00     0.034 A 
BRANCH  49  63
ATOM     63  C   UNL     1      -1.425  11.357   0.084  1.00  0.00     0.023 A 
ATOM     64  C   UNL     1      -2.294  10.917  -0.934  1.00  0.00     0.012 A 
ATOM     65  C   UNL     1      -0.728  12.570  -0.077  1.00  0.00     0.148 A 
ATOM     66  C   UNL     1      -2.450  11.658  -2.105  1.00  0.00     0.002 A 
ATOM     67  C   UNL     1      -0.919  13.324  -1.229  1.00  0.00     0.091 A 
ATOM     68  F   UNL     1       0.108  12.960   0.895  1.00  0.00    -0.205 F 
ATOM     69  C   UNL     1      -1.772  12.865  -2.247  1.00  0.00     0.022 A 
BRANCH  67  70
ATOM     70  S   UNL     1      -0.147  14.927  -1.479  1.00  0.00     0.127 S 
ATOM     71  O   UNL     1       0.803  14.631  -2.551  1.00  0.00    -0.237 OA
ATOM     72  O   UNL     1      -1.284  15.755  -1.882  1.00  0.00    -0.237 OA
ATOM     73  O   UNL     1       0.449  15.290  -0.202  1.00  0.00    -0.744 OA
ENDBRANCH  67  70
ENDBRANCH  49  63
BRANCH  50  74
ATOM     74  C   UNL     1      -0.269   5.896   8.340  1.00  0.00     0.023 A 
ATOM     75  C   UNL     1      -1.416   5.369   8.969  1.00  0.00     0.012 A 
ATOM     76  C   UNL     1       0.991   5.672   8.924  1.00  0.00     0.148 A 
ATOM     77  C   UNL     1      -1.316   4.675  10.177  1.00  0.00     0.002 A 
ATOM     78  C   UNL     1       1.091   4.914  10.085  1.00  0.00     0.091 A 
ATOM     79  F   UNL     1       2.070   6.210   8.339  1.00  0.00    -0.205 F 
ATOM     80  C   UNL     1      -0.060   4.433  10.725  1.00  0.00     0.022 A 
BRANCH  78  81
ATOM     81  S   UNL     1       2.679   4.425  10.766  1.00  0.00     0.127 S 
ATOM     82  O   UNL     1       2.804   5.324  11.909  1.00  0.00    -0.237 OA
ATOM     83  O   UNL     1       2.442   3.021  11.107  1.00  0.00    -0.237 OA
ATOM     84  O   UNL     1       3.638   4.622   9.687  1.00  0.00    -0.744 OA
ENDBRANCH  78  81
ENDBRANCH  50  74
BRANCH  62  85
ATOM     85  C   UNL     1      -3.641  11.825   6.939  1.00  0.00     0.023 A 
ATOM     86  C   UNL     1      -2.970  12.597   7.910  1.00  0.00     0.012 A 
ATOM     87  C   UNL     1      -5.030  11.992   6.769  1.00  0.00     0.148 A 
ATOM     88  C   UNL     1      -3.672  13.480   8.729  1.00  0.00     0.002 A 
ATOM     89  C   UNL     1      -5.716  12.911   7.556  1.00  0.00     0.091 A 
ATOM     90  F   UNL     1      -5.659  11.239   5.854  1.00  0.00    -0.205 F 
ATOM     91  C   UNL     1      -5.042  13.645   8.545  1.00  0.00     0.022 A 
BRANCH  89  92
ATOM     92  S   UNL     1      -7.465  13.256   7.325  1.00  0.00     0.127 S 
ATOM     93  O   UNL     1      -8.062  12.530   8.445  1.00  0.00    -0.237 OA
ATOM     94  O   UNL     1      -7.516  14.713   7.447  1.00  0.00    -0.237 OA
ATOM     95  O   UNL     1      -7.796  12.752   5.999  1.00  0.00    -0.744 OA
ENDBRANCH  89  92
ENDBRANCH  62  85
ENDBRANCH  36  37
ENDBRANCH  29  31
ENDBRANCH  28  29
ENDBRANCH  27  28
ENDBRANCH   1  27
TORSDOF 18
