REMARK SMILES Cc1ccc2c(c1C)O[C@@H](C(=O)OCCOC(=O)c1ccc(-c3c4nc(c(-c5cccc(S(=O)(=O)[O-])c5F)c5ccc([nH]5)c(-c5cccc(S(=O)(=O)[O-])c5F)c5nc(c(-c6cccc(S(=O)(=O)[O-])c6F)c6ccc3[nH]6)C=C5)C=C4)cc1)CC2=O
REMARK SMILES IDX 16 1 15 2 14 3 13 4 11 5 12 6 10 7 1 8 2 9 3 10 7 11 4 12
REMARK SMILES IDX 6 13 8 14 5 15 9 16 83 17 82 18 84 19 17 20 18 21 19 22
REMARK SMILES IDX 20 23 81 24 21 25 80 26 22 27 23 28 24 29 74 30 25 31 79 32
REMARK SMILES IDX 73 33 75 34 26 35 78 36 72 37 71 38 27 40 59 41 39 42 58 43
REMARK SMILES IDX 40 44 43 45 57 46 76 47 41 48 42 49 56 51 77 52 44 53 28 54
REMARK SMILES IDX 29 55 37 56 30 57 32 58 38 59 31 60 33 61 34 62 35 63 36 64
REMARK SMILES IDX 60 65 61 66 69 67 62 68 64 69 70 70 63 71 65 72 66 73 67 74
REMARK SMILES IDX 68 75 45 76 46 77 54 78 47 79 49 80 55 81 48 82 50 83 51 84
REMARK SMILES IDX 52 85 53 86
REMARK H PARENT 75 39 43 50
REMARK Flexibility Score: inf
ROOT
ATOM      1  O   UNL     1      -5.063   2.716   5.662  1.00  0.00    -0.458 OA
ENDROOT
BRANCH   1   2
ATOM      2  C   UNL     1      -5.099   1.425   5.030  1.00  0.00     0.275 C 
BRANCH   2   3
ATOM      3  C   UNL     1      -4.086   1.349   3.888  1.00  0.00     0.274 C 
BRANCH   3   4
ATOM      4  O   UNL     1      -2.740   1.367   4.401  1.00  0.00    -0.459 OA
BRANCH   4   5
ATOM      5  C   UNL     1      -2.037   2.518   4.241  1.00  0.00     0.347 C 
ATOM      6  O   UNL     1      -2.448   3.505   3.640  1.00  0.00    -0.248 OA
BRANCH   5   7
ATOM      7  C   UNL     1      -0.624   2.441   4.844  1.00  0.00     0.290 C 
ATOM      8  C   UNL     1       1.091  -0.237  -0.286  1.00  0.00     0.045 C 
ATOM      9  C   UNL     1       0.742  -0.127   1.173  1.00  0.00    -0.044 A 
ATOM     10  C   UNL     1       0.398  -1.299   1.872  1.00  0.00     0.005 A 
ATOM     11  C   UNL     1       0.766   1.110   1.854  1.00  0.00    -0.005 A 
ATOM     12  C   UNL     1       0.069  -1.257   3.224  1.00  0.00     0.016 A 
ATOM     13  C   UNL     1       0.397   1.141   3.209  1.00  0.00     0.134 A 
ATOM     14  C   UNL     1       1.103   2.407   1.163  1.00  0.00     0.049 C 
ATOM     15  C   UNL     1       0.070  -0.035   3.889  1.00  0.00     0.060 A 
ATOM     16  O   UNL     1       0.379   2.364   3.831  1.00  0.00    -0.477 OA
ATOM     17  C   UNL     1      -0.281   0.033   5.320  1.00  0.00     0.170 C 
ATOM     18  C   UNL     1      -0.396   1.402   5.928  1.00  0.00     0.138 C 
ATOM     19  O   UNL     1      -0.419  -0.995   5.977  1.00  0.00    -0.294 OA
ENDBRANCH   5   7
ENDBRANCH   4   5
ENDBRANCH   3   4
ENDBRANCH   2   3
ENDBRANCH   1   2
BRANCH   1  20
ATOM     20  C   UNL     1      -4.233   2.808   6.725  1.00  0.00     0.338 C 
ATOM     21  O   UNL     1      -3.549   1.927   7.213  1.00  0.00    -0.246 OA
BRANCH  20  22
ATOM     22  C   UNL     1      -4.168   4.200   7.175  1.00  0.00     0.060 A 
ATOM     23  C   UNL     1      -3.096   4.993   6.756  1.00  0.00     0.016 A 
ATOM     24  C   UNL     1      -5.103   4.678   8.091  1.00  0.00     0.016 A 
ATOM     25  C   UNL     1      -2.939   6.272   7.277  1.00  0.00     0.010 A 
ATOM     26  C   UNL     1      -4.955   5.969   8.598  1.00  0.00     0.010 A 
ATOM     27  C   UNL     1      -3.862   6.763   8.209  1.00  0.00    -0.014 A 
BRANCH  27  28
ATOM     28  C   UNL     1      -3.672   8.104   8.800  1.00  0.00     0.031 A 
ATOM     29  C   UNL     1      -3.185   8.232  10.213  1.00  0.00     0.074 A 
ATOM     30  C   UNL     1      -3.959   9.194   8.066  1.00  0.00     0.049 A 
ATOM     31  N   UNL     1      -3.034   9.312  10.932  1.00  0.00    -0.248 NA
ATOM     32  C   UNL     1      -2.820   6.987  10.912  1.00  0.00     0.031 C 
ATOM     33  C   UNL     1      -4.434   9.178   6.681  1.00  0.00     0.029 A 
ATOM     34  N   UNL     1      -3.918  10.525   8.391  1.00  0.00    -0.354 N 
ATOM     35  C   UNL     1      -2.589   8.880  12.174  1.00  0.00     0.074 A 
ATOM     36  C   UNL     1      -2.488   7.438  12.115  1.00  0.00     0.031 C 
ATOM     37  C   UNL     1      -4.664  10.440   6.283  1.00  0.00     0.029 A 
ATOM     38  C   UNL     1      -4.381  11.347   7.391  1.00  0.00     0.049 A 
ATOM     39  H   UNL     1      -3.588  10.860   9.257  1.00  0.00     0.167 HD
ATOM     40  C   UNL     1      -2.281   9.625  13.259  1.00  0.00     0.034 A 
ATOM     41  C   UNL     1      -4.577  12.680   7.380  1.00  0.00     0.034 A 
ATOM     42  C   UNL     1      -2.347  11.059  13.296  1.00  0.00     0.049 A 
ATOM     43  C   UNL     1      -4.228  13.481   8.602  1.00  0.00     0.074 A 
ATOM     44  C   UNL     1      -2.017  11.904  14.341  1.00  0.00     0.029 A 
ATOM     45  N   UNL     1      -2.768  11.858  12.247  1.00  0.00    -0.354 N 
ATOM     46  N   UNL     1      -3.729  13.064   9.741  1.00  0.00    -0.248 NA
ATOM     47  C   UNL     1      -4.444  14.934   8.537  1.00  0.00     0.031 C 
ATOM     48  C   UNL     1      -2.240  13.217  13.923  1.00  0.00     0.029 A 
ATOM     49  C   UNL     1      -2.704  13.188  12.617  1.00  0.00     0.049 A 
ATOM     50  H   UNL     1      -3.068  11.529  11.369  1.00  0.00     0.167 HD
ATOM     51  C   UNL     1      -3.548  14.201  10.517  1.00  0.00     0.074 A 
ATOM     52  C   UNL     1      -3.980  15.329   9.716  1.00  0.00     0.031 C 
ATOM     53  C   UNL     1      -3.081  14.299  11.784  1.00  0.00     0.034 A 
BRANCH  40  54
ATOM     54  C   UNL     1      -1.790   8.923  14.492  1.00  0.00     0.023 A 
ATOM     55  C   UNL     1      -0.432   8.560  14.576  1.00  0.00     0.012 A 
ATOM     56  C   UNL     1      -2.631   8.749  15.607  1.00  0.00     0.148 A 
ATOM     57  C   UNL     1       0.085   8.034  15.758  1.00  0.00     0.002 A 
ATOM     58  C   UNL     1      -2.102   8.247  16.790  1.00  0.00     0.091 A 
ATOM     59  F   UNL     1      -3.920   9.099  15.494  1.00  0.00    -0.205 F 
ATOM     60  C   UNL     1      -0.746   7.888  16.867  1.00  0.00     0.022 A 
BRANCH  58  61
ATOM     61  S   UNL     1      -3.070   8.067  18.293  1.00  0.00     0.127 S 
ATOM     62  O   UNL     1      -2.956   6.631  18.548  1.00  0.00    -0.237 OA
ATOM     63  O   UNL     1      -2.336   8.914  19.231  1.00  0.00    -0.237 OA
ATOM     64  O   UNL     1      -4.414   8.525  17.966  1.00  0.00    -0.744 OA
ENDBRANCH  58  61
ENDBRANCH  40  54
BRANCH  41  65
ATOM     65  C   UNL     1      -5.096  13.334   6.149  1.00  0.00     0.023 A 
ATOM     66  C   UNL     1      -4.219  14.083   5.344  1.00  0.00     0.012 A 
ATOM     67  C   UNL     1      -6.436  13.169   5.747  1.00  0.00     0.148 A 
ATOM     68  C   UNL     1      -4.671  14.671   4.162  1.00  0.00     0.002 A 
ATOM     69  C   UNL     1      -6.869  13.724   4.548  1.00  0.00     0.091 A 
ATOM     70  F   UNL     1      -7.254  12.461   6.537  1.00  0.00    -0.205 F 
ATOM     71  C   UNL     1      -5.991  14.483   3.759  1.00  0.00     0.022 A 
BRANCH  69  72
ATOM     72  S   UNL     1      -8.521  13.446   3.898  1.00  0.00     0.127 S 
ATOM     73  O   UNL     1      -9.129  14.764   4.057  1.00  0.00    -0.237 OA
ATOM     74  O   UNL     1      -8.240  13.061   2.514  1.00  0.00    -0.237 OA
ATOM     75  O   UNL     1      -9.091  12.383   4.713  1.00  0.00    -0.744 OA
ENDBRANCH  69  72
ENDBRANCH  41  65
BRANCH  53  76
ATOM     76  C   UNL     1      -2.979  15.665  12.399  1.00  0.00     0.023 A 
ATOM     77  C   UNL     1      -4.130  16.255  12.955  1.00  0.00     0.012 A 
ATOM     78  C   UNL     1      -1.725  16.283  12.566  1.00  0.00     0.148 A 
ATOM     79  C   UNL     1      -4.034  17.447  13.671  1.00  0.00     0.002 A 
ATOM     80  C   UNL     1      -1.632  17.453  13.309  1.00  0.00     0.091 A 
ATOM     81  F   UNL     1      -0.649  15.699  12.020  1.00  0.00    -0.205 F 
ATOM     82  C   UNL     1      -2.785  18.037  13.859  1.00  0.00     0.022 A 
BRANCH  80  83
ATOM     83  S   UNL     1      -0.062  18.245  13.676  1.00  0.00     0.127 S 
ATOM     84  O   UNL     1      -0.186  19.505  12.944  1.00  0.00    -0.237 OA
ATOM     85  O   UNL     1      -0.116  18.376  15.132  1.00  0.00    -0.237 OA
ATOM     86  O   UNL     1       0.971  17.343  13.184  1.00  0.00    -0.744 OA
ENDBRANCH  80  83
ENDBRANCH  53  76
ENDBRANCH  27  28
ENDBRANCH  20  22
ENDBRANCH   1  20
TORSDOF 14
