REMARK SMILES CCCCOc1ccc(-c2nc(C)c(C(=O)OCCOC(=O)c3ccc(-c4c5nc(c(-c6cccc(S(=O)(=O)[O-])c6F)c6ccc([nH]6)c(-c6cccc(S(=O)(=O)[O-])c6F)c6nc(c(-c7cccc(S(=O)(=O)[O-])c7F)c7ccc4[nH]7)C=C6)C=C5)cc3)s2)cc1
REMARK SMILES IDX 18 1 17 2 15 3 16 4 14 5 10 6 11 7 86 8 12 9 13 10 9 11 6 12
REMARK SMILES IDX 7 13 88 14 8 15 87 16 5 17 4 18 3 19 2 20 1 21 19 22 20 23
REMARK SMILES IDX 21 24 22 25 23 26 24 27 85 28 25 29 84 30 26 31 27 32 28 33
REMARK SMILES IDX 78 34 29 35 83 36 77 37 79 38 30 39 82 40 76 41 75 42 31 44
REMARK SMILES IDX 63 45 43 46 62 47 44 48 47 49 61 50 80 51 45 52 46 53 60 55
REMARK SMILES IDX 81 56 48 57 32 58 33 59 41 60 34 61 36 62 42 63 35 64 37 65
REMARK SMILES IDX 38 66 39 67 40 68 64 69 65 70 73 71 66 72 68 73 74 74 67 75
REMARK SMILES IDX 69 76 70 77 71 78 72 79 49 80 50 81 58 82 51 83 53 84 59 85
REMARK SMILES IDX 52 86 54 87 55 88 56 89 57 90
REMARK H PARENT 79 43 47 54
REMARK Flexibility Score: inf
ROOT
ATOM      1  C   UNL     1      -5.785  -6.857  -3.763  1.00  0.00     0.275 C 
ENDROOT
BRANCH   1   2
ATOM      2  O   UNL     1      -5.174  -5.554  -3.645  1.00  0.00    -0.458 OA
BRANCH   2   3
ATOM      3  C   UNL     1      -5.739  -4.694  -2.746  1.00  0.00     0.350 C 
ATOM      4  O   UNL     1      -6.725  -4.970  -2.077  1.00  0.00    -0.245 OA
BRANCH   3   5
ATOM      5  C   UNL     1      -4.971  -3.467  -2.642  1.00  0.00     0.135 A 
ATOM      6  C   UNL     1      -3.818  -1.560  -1.665  1.00  0.00     0.124 A 
ATOM      7  N   UNL     1      -3.409  -1.739  -2.903  1.00  0.00    -0.240 NA
ATOM      8  S   UNL     1      -5.185  -2.492  -1.230  1.00  0.00    -0.106 S 
ATOM      9  C   UNL     1      -4.054  -2.838  -3.472  1.00  0.00     0.064 A 
ATOM     10  C   UNL     1      -3.683  -3.170  -4.873  1.00  0.00     0.068 C 
BRANCH   6  11
ATOM     11  C   UNL     1      -3.210  -0.657  -0.686  1.00  0.00     0.011 A 
ATOM     12  C   UNL     1      -1.890   1.021   1.123  1.00  0.00     0.119 A 
ATOM     13  C   UNL     1      -2.452   1.560  -0.033  1.00  0.00     0.047 A 
ATOM     14  C   UNL     1      -2.064  -0.322   1.431  1.00  0.00     0.047 A 
ATOM     15  C   UNL     1      -3.107   0.718  -0.940  1.00  0.00     0.015 A 
ATOM     16  C   UNL     1      -2.686  -1.167   0.513  1.00  0.00     0.015 A 
BRANCH  12  17
ATOM     17  O   UNL     1      -1.204   1.798   2.010  1.00  0.00    -0.494 OA
BRANCH  17  18
ATOM     18  C   UNL     1       0.162   2.001   1.620  1.00  0.00     0.229 C 
BRANCH  18  19
ATOM     19  C   UNL     1       1.114   0.895   2.103  1.00  0.00     0.041 C 
BRANCH  19  20
ATOM     20  C   UNL     1       1.265  -0.356   1.225  1.00  0.00     0.000 C 
ATOM     21  C   UNL     1       1.483  -0.092  -0.256  1.00  0.00     0.004 C 
ENDBRANCH  19  20
ENDBRANCH  18  19
ENDBRANCH  17  18
ENDBRANCH  12  17
ENDBRANCH   6  11
ENDBRANCH   3   5
ENDBRANCH   2   3
ENDBRANCH   1   2
BRANCH   1  22
ATOM     22  C   UNL     1      -4.921  -7.957  -3.137  1.00  0.00     0.275 C 
BRANCH  22  23
ATOM     23  O   UNL     1      -4.871  -7.843  -1.703  1.00  0.00    -0.458 OA
BRANCH  23  24
ATOM     24  C   UNL     1      -3.799  -7.169  -1.228  1.00  0.00     0.338 C 
ATOM     25  O   UNL     1      -2.887  -6.687  -1.881  1.00  0.00    -0.246 OA
BRANCH  24  26
ATOM     26  C   UNL     1      -3.952  -6.925   0.212  1.00  0.00     0.060 A 
ATOM     27  C   UNL     1      -4.255  -5.622   0.593  1.00  0.00     0.016 A 
ATOM     28  C   UNL     1      -3.682  -7.894   1.176  1.00  0.00     0.016 A 
ATOM     29  C   UNL     1      -4.246  -5.252   1.930  1.00  0.00     0.010 A 
ATOM     30  C   UNL     1      -3.713  -7.533   2.531  1.00  0.00     0.010 A 
ATOM     31  C   UNL     1      -3.969  -6.203   2.919  1.00  0.00    -0.014 A 
BRANCH  31  32
ATOM     32  C   UNL     1      -3.913  -5.772   4.341  1.00  0.00     0.031 A 
ATOM     33  C   UNL     1      -2.618  -5.844   5.106  1.00  0.00     0.074 A 
ATOM     34  C   UNL     1      -5.018  -5.283   4.938  1.00  0.00     0.049 A 
ATOM     35  N   UNL     1      -2.385  -5.569   6.363  1.00  0.00    -0.248 NA
ATOM     36  C   UNL     1      -1.429  -6.287   4.360  1.00  0.00     0.031 C 
ATOM     37  C   UNL     1      -6.329  -5.141   4.300  1.00  0.00     0.029 A 
ATOM     38  N   UNL     1      -5.220  -4.822   6.215  1.00  0.00    -0.354 N 
ATOM     39  C   UNL     1      -1.042  -5.860   6.576  1.00  0.00     0.074 A 
ATOM     40  C   UNL     1      -0.511  -6.332   5.316  1.00  0.00     0.031 C 
ATOM     41  C   UNL     1      -7.195  -4.625   5.185  1.00  0.00     0.029 A 
ATOM     42  C   UNL     1      -6.522  -4.460   6.468  1.00  0.00     0.049 A 
ATOM     43  H   UNL     1      -4.501  -4.757   6.886  1.00  0.00     0.167 HD
ATOM     44  C   UNL     1      -0.317  -5.738   7.714  1.00  0.00     0.034 A 
ATOM     45  C   UNL     1      -7.120  -4.075   7.613  1.00  0.00     0.034 A 
ATOM     46  C   UNL     1      -0.842  -5.230   8.955  1.00  0.00     0.049 A 
ATOM     47  C   UNL     1      -6.295  -3.963   8.864  1.00  0.00     0.074 A 
ATOM     48  C   UNL     1      -0.176  -5.028  10.152  1.00  0.00     0.029 A 
ATOM     49  N   UNL     1      -2.159  -4.851   9.164  1.00  0.00    -0.354 N 
ATOM     50  N   UNL     1      -5.011  -4.173   9.029  1.00  0.00    -0.248 NA
ATOM     51  C   UNL     1      -6.995  -3.539  10.085  1.00  0.00     0.031 C 
ATOM     52  C   UNL     1      -1.099  -4.562  11.094  1.00  0.00     0.029 A 
ATOM     53  C   UNL     1      -2.331  -4.431  10.473  1.00  0.00     0.049 A 
ATOM     54  H   UNL     1      -2.869  -4.877   8.482  1.00  0.00     0.167 HD
ATOM     55  C   UNL     1      -4.744  -3.877  10.360  1.00  0.00     0.074 A 
ATOM     56  C   UNL     1      -5.995  -3.447  10.950  1.00  0.00     0.031 C 
ATOM     57  C   UNL     1      -3.572  -3.966  11.037  1.00  0.00     0.034 A 
BRANCH  44  58
ATOM     58  C   UNL     1       1.130  -6.160   7.674  1.00  0.00     0.023 A 
ATOM     59  C   UNL     1       2.075  -5.385   6.972  1.00  0.00     0.012 A 
ATOM     60  C   UNL     1       1.563  -7.302   8.379  1.00  0.00     0.148 A 
ATOM     61  C   UNL     1       3.418  -5.759   6.939  1.00  0.00     0.002 A 
ATOM     62  C   UNL     1       2.910  -7.641   8.382  1.00  0.00     0.091 A 
ATOM     63  F   UNL     1       0.648  -8.038   9.026  1.00  0.00    -0.205 F 
ATOM     64  C   UNL     1       3.837  -6.880   7.652  1.00  0.00     0.022 A 
BRANCH  62  65
ATOM     65  S   UNL     1       3.562  -9.019   9.334  1.00  0.00     0.127 S 
ATOM     66  O   UNL     1       3.952  -9.950   8.275  1.00  0.00    -0.237 OA
ATOM     67  O   UNL     1       4.682  -8.399  10.042  1.00  0.00    -0.237 OA
ATOM     68  O   UNL     1       2.474  -9.469  10.190  1.00  0.00    -0.744 OA
ENDBRANCH  62  65
ENDBRANCH  44  58
BRANCH  45  69
ATOM     69  C   UNL     1      -8.578  -3.762   7.625  1.00  0.00     0.023 A 
ATOM     70  C   UNL     1      -9.008  -2.441   7.850  1.00  0.00     0.012 A 
ATOM     71  C   UNL     1      -9.539  -4.768   7.399  1.00  0.00     0.148 A 
ATOM     72  C   UNL     1     -10.369  -2.132   7.881  1.00  0.00     0.002 A 
ATOM     73  C   UNL     1     -10.889  -4.442   7.370  1.00  0.00     0.091 A 
ATOM     74  F   UNL     1      -9.111  -6.023   7.203  1.00  0.00    -0.205 F 
ATOM     75  C   UNL     1     -11.308  -3.129   7.630  1.00  0.00     0.022 A 
BRANCH  73  76
ATOM     76  S   UNL     1     -12.158  -5.634   6.926  1.00  0.00     0.127 S 
ATOM     77  O   UNL     1     -12.858  -5.812   8.195  1.00  0.00    -0.237 OA
ATOM     78  O   UNL     1     -12.910  -4.905   5.904  1.00  0.00    -0.237 OA
ATOM     79  O   UNL     1     -11.446  -6.803   6.428  1.00  0.00    -0.744 OA
ENDBRANCH  73  76
ENDBRANCH  45  69
BRANCH  57  80
ATOM     80  C   UNL     1      -3.575  -3.549  12.486  1.00  0.00     0.023 A 
ATOM     81  C   UNL     1      -4.227  -4.345  13.449  1.00  0.00     0.012 A 
ATOM     82  C   UNL     1      -2.884  -2.392  12.899  1.00  0.00     0.148 A 
ATOM     83  C   UNL     1      -4.229  -3.972  14.793  1.00  0.00     0.002 A 
ATOM     84  C   UNL     1      -2.844  -2.057  14.247  1.00  0.00     0.091 A 
ATOM     85  F   UNL     1      -2.285  -1.638  11.966  1.00  0.00    -0.205 F 
ATOM     86  C   UNL     1      -3.529  -2.836  15.193  1.00  0.00     0.022 A 
BRANCH  84  87
ATOM     87  S   UNL     1      -1.885  -0.670  14.866  1.00  0.00     0.127 S 
ATOM     88  O   UNL     1      -2.935   0.278  15.234  1.00  0.00    -0.237 OA
ATOM     89  O   UNL     1      -1.176  -1.266  15.999  1.00  0.00    -0.237 OA
ATOM     90  O   UNL     1      -1.024  -0.253  13.766  1.00  0.00    -0.744 OA
ENDBRANCH  84  87
ENDBRANCH  57  80
ENDBRANCH  31  32
ENDBRANCH  24  26
ENDBRANCH  23  24
ENDBRANCH  22  23
ENDBRANCH   1  22
TORSDOF 19
