REMARK SMILES CC[C@H](C)Nc1ncnc(N2CCC(C(=O)OCCOC(=O)c3ccc(-c4c5nc(c(-c6cccc(S(=O)(=O)[O-])c6F)c6ccc([nH]6)c(-c6cccc(S(=O)(=O)[O-])c6F)c6nc(c(-c7cccc(S(=O)(=O)[O-])c7F)c7ccc4[nH]7)C=C6)C=C5)cc3)CC2)c1[N+](=O)[O-]
REMARK SMILES IDX 18 1 17 2 15 3 16 4 14 5 11 6 12 7 87 8 13 9 86 10 10 11
REMARK SMILES IDX 6 12 7 13 88 14 8 15 9 16 5 17 3 19 4 20 2 21 1 22 89 23
REMARK SMILES IDX 90 24 91 25 19 26 20 27 21 28 22 29 23 30 24 31 85 32 25 33
REMARK SMILES IDX 84 34 26 35 27 36 28 37 78 38 29 39 83 40 77 41 79 42 30 43
REMARK SMILES IDX 82 44 76 45 75 46 31 48 63 49 43 50 62 51 44 52 47 53 61 54
REMARK SMILES IDX 80 55 45 56 46 57 60 59 81 60 48 61 32 62 33 63 41 64 34 65
REMARK SMILES IDX 36 66 42 67 35 68 37 69 38 70 39 71 40 72 64 73 65 74 73 75
REMARK SMILES IDX 66 76 68 77 74 78 67 79 69 80 70 81 71 82 72 83 49 84 50 85
REMARK SMILES IDX 58 86 51 87 53 88 59 89 52 90 54 91 55 92 56 93 57 94
REMARK H PARENT 5 18 79 47 47 58
REMARK Flexibility Score: inf
ROOT
ATOM      1  C   UNL     1       7.322   8.374  -8.205  1.00  0.00     0.274 C 
ENDROOT
BRANCH   1   2
ATOM      2  O   UNL     1       6.710   7.476  -7.262  1.00  0.00    -0.462 OA
BRANCH   2   3
ATOM      3  C   UNL     1       6.533   6.201  -7.691  1.00  0.00     0.309 C 
ATOM      4  O   UNL     1       6.768   5.805  -8.826  1.00  0.00    -0.252 OA
BRANCH   3   5
ATOM      5  C   UNL     1       5.988   5.282  -6.622  1.00  0.00     0.103 C 
ATOM      6  N   UNL     1       4.289   4.250  -4.597  1.00  0.00    -0.351 N 
ATOM      7  C   UNL     1       5.610   4.734  -4.208  1.00  0.00     0.119 C 
ATOM      8  C   UNL     1       4.069   3.827  -5.977  1.00  0.00     0.119 C 
ATOM      9  C   UNL     1       6.101   5.797  -5.185  1.00  0.00     0.037 C 
ATOM     10  C   UNL     1       4.543   4.911  -6.937  1.00  0.00     0.037 C 
BRANCH   6  11
ATOM     11  C   UNL     1       3.232   4.414  -3.729  1.00  0.00     0.213 A 
ATOM     12  C   UNL     1       1.303   3.661  -2.513  1.00  0.00     0.211 A 
ATOM     13  N   UNL     1       1.102   4.917  -2.069  1.00  0.00    -0.213 NA
ATOM     14  C   UNL     1       2.357   3.396  -3.371  1.00  0.00     0.353 A 
ATOM     15  C   UNL     1       1.999   5.846  -2.434  1.00  0.00     0.227 A 
ATOM     16  N   UNL     1       3.063   5.651  -3.221  1.00  0.00    -0.212 NA
BRANCH  12  17
ATOM     17  N   UNL     1       0.371   2.774  -2.014  1.00  0.00    -0.362 N 
ATOM     18  H   UNL     1      -0.576   3.041  -2.018  1.00  0.00     0.162 HD
BRANCH  17  19
ATOM     19  C   UNL     1       0.720   1.458  -1.479  1.00  0.00     0.077 C 
ATOM     20  C   UNL     1       0.323   1.398  -0.003  1.00  0.00     0.031 C 
BRANCH  19  21
ATOM     21  C   UNL     1       0.089   0.355  -2.349  1.00  0.00     0.021 C 
ATOM     22  C   UNL     1      -1.297  -0.115  -1.933  1.00  0.00     0.006 C 
ENDBRANCH  19  21
ENDBRANCH  17  19
ENDBRANCH  12  17
BRANCH  14  23
ATOM     23  N   UNL     1       2.567   2.089  -3.902  1.00  0.00     0.070 N 
ATOM     24  O   UNL     1       3.435   1.385  -3.365  1.00  0.00    -0.258 OA
ATOM     25  O   UNL     1       1.867   1.748  -4.867  1.00  0.00    -0.258 OA
ENDBRANCH  14  23
ENDBRANCH   6  11
ENDBRANCH   3   5
ENDBRANCH   2   3
ENDBRANCH   1   2
BRANCH   1  26
ATOM     26  C   UNL     1       8.803   8.590  -7.881  1.00  0.00     0.275 C 
BRANCH  26  27
ATOM     27  O   UNL     1       9.570   7.384  -8.047  1.00  0.00    -0.458 OA
BRANCH  27  28
ATOM     28  C   UNL     1       9.766   6.665  -6.917  1.00  0.00     0.338 C 
ATOM     29  O   UNL     1       9.382   6.938  -5.793  1.00  0.00    -0.246 OA
BRANCH  28  30
ATOM     30  C   UNL     1      10.430   5.393  -7.242  1.00  0.00     0.060 A 
ATOM     31  C   UNL     1       9.709   4.211  -7.061  1.00  0.00     0.016 A 
ATOM     32  C   UNL     1      11.771   5.354  -7.623  1.00  0.00     0.016 A 
ATOM     33  C   UNL     1      10.321   2.977  -7.259  1.00  0.00     0.010 A 
ATOM     34  C   UNL     1      12.386   4.113  -7.824  1.00  0.00     0.010 A 
ATOM     35  C   UNL     1      11.669   2.918  -7.631  1.00  0.00    -0.014 A 
BRANCH  35  36
ATOM     36  C   UNL     1      12.337   1.603  -7.778  1.00  0.00     0.031 A 
ATOM     37  C   UNL     1      13.326   1.145  -6.746  1.00  0.00     0.074 A 
ATOM     38  C   UNL     1      12.060   0.829  -8.844  1.00  0.00     0.049 A 
ATOM     39  N   UNL     1      14.074   0.074  -6.738  1.00  0.00    -0.248 NA
ATOM     40  C   UNL     1      13.499   2.010  -5.566  1.00  0.00     0.031 C 
ATOM     41  C   UNL     1      11.108   1.163  -9.903  1.00  0.00     0.029 A 
ATOM     42  N   UNL     1      12.570  -0.387  -9.222  1.00  0.00    -0.354 N 
ATOM     43  C   UNL     1      14.839   0.153  -5.581  1.00  0.00     0.074 A 
ATOM     44  C   UNL     1      14.461   1.378  -4.908  1.00  0.00     0.031 C 
ATOM     45  C   UNL     1      11.117   0.185 -10.823  1.00  0.00     0.029 A 
ATOM     46  C   UNL     1      12.100  -0.824 -10.438  1.00  0.00     0.049 A 
ATOM     47  H   UNL     1      13.211  -0.897  -8.675  1.00  0.00     0.167 HD
ATOM     48  C   UNL     1      15.762  -0.721  -5.116  1.00  0.00     0.034 A 
ATOM     49  C   UNL     1      12.443  -1.901 -11.171  1.00  0.00     0.034 A 
ATOM     50  C   UNL     1      16.103  -1.958  -5.766  1.00  0.00     0.049 A 
ATOM     51  C   UNL     1      13.476  -2.854 -10.633  1.00  0.00     0.074 A 
ATOM     52  C   UNL     1      16.994  -2.932  -5.350  1.00  0.00     0.029 A 
ATOM     53  N   UNL     1      15.570  -2.392  -6.971  1.00  0.00    -0.354 N 
ATOM     54  N   UNL     1      14.122  -2.813  -9.493  1.00  0.00    -0.248 NA
ATOM     55  C   UNL     1      13.812  -4.014 -11.472  1.00  0.00     0.031 C 
ATOM     56  C   UNL     1      17.007  -3.951  -6.310  1.00  0.00     0.029 A 
ATOM     57  C   UNL     1      16.116  -3.616  -7.317  1.00  0.00     0.049 A 
ATOM     58  H   UNL     1      14.902  -1.902  -7.502  1.00  0.00     0.167 HD
ATOM     59  C   UNL     1      14.921  -3.950  -9.464  1.00  0.00     0.074 A 
ATOM     60  C   UNL     1      14.659  -4.674 -10.692  1.00  0.00     0.031 C 
ATOM     61  C   UNL     1      15.806  -4.349  -8.518  1.00  0.00     0.034 A 
BRANCH  48  62
ATOM     62  C   UNL     1      16.449  -0.385  -3.820  1.00  0.00     0.023 A 
ATOM     63  C   UNL     1      15.756  -0.548  -2.604  1.00  0.00     0.012 A 
ATOM     64  C   UNL     1      17.791   0.043  -3.801  1.00  0.00     0.148 A 
ATOM     65  C   UNL     1      16.380  -0.265  -1.389  1.00  0.00     0.002 A 
ATOM     66  C   UNL     1      18.417   0.289  -2.584  1.00  0.00     0.091 A 
ATOM     67  F   UNL     1      18.424   0.219  -4.970  1.00  0.00    -0.205 F 
ATOM     68  C   UNL     1      17.711   0.144  -1.379  1.00  0.00     0.022 A 
BRANCH  66  69
ATOM     69  S   UNL     1      20.148   0.756  -2.472  1.00  0.00     0.127 S 
ATOM     70  O   UNL     1      20.051   2.190  -2.204  1.00  0.00    -0.237 OA
ATOM     71  O   UNL     1      20.615  -0.045  -1.339  1.00  0.00    -0.237 OA
ATOM     72  O   UNL     1      20.741   0.391  -3.751  1.00  0.00    -0.744 OA
ENDBRANCH  66  69
ENDBRANCH  48  62
BRANCH  49  73
ATOM     73  C   UNL     1      11.772  -2.149 -12.477  1.00  0.00     0.023 A 
ATOM     74  C   UNL     1      10.868  -3.221 -12.598  1.00  0.00     0.012 A 
ATOM     75  C   UNL     1      11.987  -1.303 -13.584  1.00  0.00     0.148 A 
ATOM     76  C   UNL     1      10.204  -3.458 -13.803  1.00  0.00     0.002 A 
ATOM     77  C   UNL     1      11.282  -1.512 -14.763  1.00  0.00     0.091 A 
ATOM     78  F   UNL     1      12.870  -0.302 -13.457  1.00  0.00    -0.205 F 
ATOM     79  C   UNL     1      10.400  -2.597 -14.879  1.00  0.00     0.022 A 
BRANCH  77  80
ATOM     80  S   UNL     1      11.376  -0.372 -16.149  1.00  0.00     0.127 S 
ATOM     81  O   UNL     1      12.210  -1.114 -17.091  1.00  0.00    -0.237 OA
ATOM     82  O   UNL     1       9.971  -0.245 -16.538  1.00  0.00    -0.237 OA
ATOM     83  O   UNL     1      11.958   0.849 -15.608  1.00  0.00    -0.744 OA
ENDBRANCH  77  80
ENDBRANCH  49  73
BRANCH  61  84
ATOM     84  C   UNL     1      16.549  -5.636  -8.759  1.00  0.00     0.023 A 
ATOM     85  C   UNL     1      17.602  -5.663  -9.694  1.00  0.00     0.012 A 
ATOM     86  C   UNL     1      16.259  -6.792  -8.008  1.00  0.00     0.148 A 
ATOM     87  C   UNL     1      18.340  -6.829  -9.896  1.00  0.00     0.002 A 
ATOM     88  C   UNL     1      17.026  -7.939  -8.186  1.00  0.00     0.091 A 
ATOM     89  F   UNL     1      15.238  -6.753  -7.139  1.00  0.00    -0.205 F 
ATOM     90  C   UNL     1      18.060  -7.961  -9.135  1.00  0.00     0.022 A 
BRANCH  88  91
ATOM     91  S   UNL     1      16.789  -9.411  -7.184  1.00  0.00     0.127 S 
ATOM     92  O   UNL     1      16.057 -10.283  -8.102  1.00  0.00    -0.237 OA
ATOM     93  O   UNL     1      18.164  -9.831  -6.911  1.00  0.00    -0.237 OA
ATOM     94  O   UNL     1      16.051  -8.974  -6.006  1.00  0.00    -0.744 OA
ENDBRANCH  88  91
ENDBRANCH  61  84
ENDBRANCH  35  36
ENDBRANCH  28  30
ENDBRANCH  27  28
ENDBRANCH  26  27
ENDBRANCH   1  26
TORSDOF 19
