REMARK SMILES CC1=C[C@H](C)[C@H](CN2C[C@@]34C=C[C@@H](O3)[C@H](C(=O)OCCOC(=O)c3ccc(-c5c6nc(c(-c7cccc(S(=O)(=O)[O-])c7F)c7ccc([nH]7)c(-c7cccc(S(=O)(=O)[O-])c7F)c7nc(c(-c8cccc(S(=O)(=O)[O-])c8F)c8ccc5[nH]8)C=C7)C=C6)cc3)[C@@H]4C2=O)[C@H](C)C1
REMARK SMILES IDX 20 1 19 2 18 3 16 4 17 5 15 6 8 7 9 8 88 9 10 10 87 11 89 12
REMARK SMILES IDX 11 13 14 14 12 15 13 16 7 17 6 18 1 19 2 20 3 21 92 22 4 23
REMARK SMILES IDX 90 24 5 25 91 26 21 27 22 28 23 29 24 30 25 31 86 32 26 33
REMARK SMILES IDX 85 34 27 35 28 36 29 37 79 38 30 39 84 40 78 41 80 42 31 43
REMARK SMILES IDX 83 44 77 45 76 46 32 48 64 49 44 50 63 51 45 52 48 53 62 54
REMARK SMILES IDX 81 55 46 56 47 57 61 59 82 60 49 61 33 62 34 63 42 64 35 65
REMARK SMILES IDX 37 66 43 67 36 68 38 69 39 70 40 71 41 72 65 73 66 74 74 75
REMARK SMILES IDX 67 76 69 77 75 78 68 79 70 80 71 81 72 82 73 83 50 84 51 85
REMARK SMILES IDX 59 86 52 87 54 88 60 89 53 90 55 91 56 92 57 93 58 94
REMARK H PARENT 80 47 48 58
REMARK Flexibility Score: inf
ROOT
ATOM      1  C   UNL     1       4.806   4.811   2.044  1.00  0.00     0.275 C 
ENDROOT
BRANCH   1   2
ATOM      2  C   UNL     1       4.976   5.378   0.624  1.00  0.00     0.274 C 
BRANCH   2   3
ATOM      3  O   UNL     1       4.307   6.649   0.564  1.00  0.00    -0.462 OA
BRANCH   3   4
ATOM      4  C   UNL     1       3.561   6.916  -0.551  1.00  0.00     0.312 C 
ATOM      5  O   UNL     1       3.811   6.488  -1.663  1.00  0.00    -0.252 OA
BRANCH   4   6
ATOM      6  C   UNL     1       2.318   7.625  -0.094  1.00  0.00     0.148 C 
ATOM      7  N   UNL     1      -0.777   6.110  -1.468  1.00  0.00    -0.339 N 
ATOM      8  C   UNL     1      -1.243   7.247  -0.630  1.00  0.00     0.160 C 
ATOM      9  C   UNL     1       0.599   6.253  -1.723  1.00  0.00     0.230 C 
ATOM     10  C   UNL     1       0.028   8.120  -0.629  1.00  0.00     0.117 C 
ATOM     11  C   UNL     1       1.035   6.965  -0.494  1.00  0.00     0.133 C 
ATOM     12  O   UNL     1       1.243   5.897  -2.677  1.00  0.00    -0.274 OA
ATOM     13  C   UNL     1       0.344   8.951  -1.859  1.00  0.00     0.009 C 
ATOM     14  O   UNL     1       0.565   8.997   0.365  1.00  0.00    -0.360 OA
ATOM     15  C   UNL     1       1.561   9.471  -1.651  1.00  0.00     0.004 C 
ATOM     16  C   UNL     1       1.951   9.084  -0.257  1.00  0.00     0.157 C 
BRANCH   7  17
ATOM     17  C   UNL     1      -1.474   4.861  -1.731  1.00  0.00     0.124 C 
BRANCH  17  18
ATOM     18  C   UNL     1      -0.960   3.640  -0.891  1.00  0.00     0.018 C 
ATOM     19  C   UNL     1       0.757  -0.402  -0.056  1.00  0.00     0.039 C 
ATOM     20  C   UNL     1       0.122   0.929  -0.334  1.00  0.00    -0.077 C 
ATOM     21  C   UNL     1      -1.116   1.043  -0.844  1.00  0.00    -0.025 C 
ATOM     22  C   UNL     1       0.930   2.152  -0.034  1.00  0.00     0.034 C 
ATOM     23  C   UNL     1      -1.836   2.356  -1.101  1.00  0.00     0.014 C 
ATOM     24  C   UNL     1       0.566   3.307  -0.986  1.00  0.00    -0.005 C 
ATOM     25  C   UNL     1      -2.573   2.268  -2.438  1.00  0.00     0.012 C 
ATOM     26  C   UNL     1       1.059   2.958  -2.398  1.00  0.00     0.008 C 
ENDBRANCH  17  18
ENDBRANCH   7  17
ENDBRANCH   4   6
ENDBRANCH   3   4
ENDBRANCH   2   3
ENDBRANCH   1   2
BRANCH   1  27
ATOM     27  O   UNL     1       3.477   4.281   2.286  1.00  0.00    -0.458 OA
BRANCH  27  28
ATOM     28  C   UNL     1       2.602   5.113   2.908  1.00  0.00     0.338 C 
ATOM     29  O   UNL     1       2.790   6.291   3.166  1.00  0.00    -0.246 OA
BRANCH  28  30
ATOM     30  C   UNL     1       1.316   4.431   3.204  1.00  0.00     0.060 A 
ATOM     31  C   UNL     1       0.125   5.119   2.943  1.00  0.00     0.016 A 
ATOM     32  C   UNL     1       1.260   3.171   3.810  1.00  0.00     0.016 A 
ATOM     33  C   UNL     1      -1.113   4.540   3.248  1.00  0.00     0.010 A 
ATOM     34  C   UNL     1       0.016   2.603   4.145  1.00  0.00     0.010 A 
ATOM     35  C   UNL     1      -1.182   3.283   3.867  1.00  0.00    -0.014 A 
BRANCH  35  36
ATOM     36  C   UNL     1      -2.516   2.727   4.238  1.00  0.00     0.031 A 
ATOM     37  C   UNL     1      -3.171   3.119   5.526  1.00  0.00     0.074 A 
ATOM     38  C   UNL     1      -3.174   1.892   3.413  1.00  0.00     0.049 A 
ATOM     39  N   UNL     1      -4.373   2.835   5.953  1.00  0.00    -0.248 NA
ATOM     40  C   UNL     1      -2.361   3.909   6.463  1.00  0.00     0.031 C 
ATOM     41  C   UNL     1      -2.622   1.370   2.177  1.00  0.00     0.029 A 
ATOM     42  N   UNL     1      -4.436   1.345   3.470  1.00  0.00    -0.354 N 
ATOM     43  C   UNL     1      -4.455   3.365   7.231  1.00  0.00     0.074 A 
ATOM     44  C   UNL     1      -3.187   4.018   7.496  1.00  0.00     0.031 C 
ATOM     45  C   UNL     1      -3.552   0.628   1.556  1.00  0.00     0.029 A 
ATOM     46  C   UNL     1      -4.764   0.596   2.361  1.00  0.00     0.049 A 
ATOM     47  H   UNL     1      -5.046   1.477   4.231  1.00  0.00     0.167 HD
ATOM     48  C   UNL     1      -5.482   3.299   8.111  1.00  0.00     0.034 A 
ATOM     49  C   UNL     1      -5.904  -0.039   2.016  1.00  0.00     0.034 A 
ATOM     50  C   UNL     1      -6.738   2.641   7.861  1.00  0.00     0.049 A 
ATOM     51  C   UNL     1      -7.061  -0.021   2.976  1.00  0.00     0.074 A 
ATOM     52  C   UNL     1      -7.838   2.550   8.697  1.00  0.00     0.029 A 
ATOM     53  N   UNL     1      -7.059   1.943   6.707  1.00  0.00    -0.354 N 
ATOM     54  N   UNL     1      -7.170   0.607   4.121  1.00  0.00    -0.248 NA
ATOM     55  C   UNL     1      -8.252  -0.799   2.602  1.00  0.00     0.031 C 
ATOM     56  C   UNL     1      -8.815   1.778   8.059  1.00  0.00     0.029 A 
ATOM     57  C   UNL     1      -8.335   1.410   6.813  1.00  0.00     0.049 A 
ATOM     58  H   UNL     1      -6.468   1.841   5.927  1.00  0.00     0.167 HD
ATOM     59  C   UNL     1      -8.431   0.291   4.609  1.00  0.00     0.074 A 
ATOM     60  C   UNL     1      -9.075  -0.534   3.607  1.00  0.00     0.031 C 
ATOM     61  C   UNL     1      -8.987   0.620   5.800  1.00  0.00     0.034 A 
BRANCH  48  62
ATOM     62  C   UNL     1      -5.278   3.952   9.448  1.00  0.00     0.023 A 
ATOM     63  C   UNL     1      -5.330   5.356   9.556  1.00  0.00     0.012 A 
ATOM     64  C   UNL     1      -5.072   3.172  10.603  1.00  0.00     0.148 A 
ATOM     65  C   UNL     1      -5.150   5.976  10.791  1.00  0.00     0.002 A 
ATOM     66  C   UNL     1      -4.932   3.796  11.835  1.00  0.00     0.091 A 
ATOM     67  F   UNL     1      -5.000   1.840  10.470  1.00  0.00    -0.205 F 
ATOM     68  C   UNL     1      -4.960   5.197  11.930  1.00  0.00     0.022 A 
BRANCH  66  69
ATOM     69  S   UNL     1      -4.749   2.877  13.367  1.00  0.00     0.127 S 
ATOM     70  O   UNL     1      -3.346   3.126  13.694  1.00  0.00    -0.237 OA
ATOM     71  O   UNL     1      -5.709   3.547  14.244  1.00  0.00    -0.237 OA
ATOM     72  O   UNL     1      -5.081   1.495  13.047  1.00  0.00    -0.744 OA
ENDBRANCH  66  69
ENDBRANCH  48  62
BRANCH  49  73
ATOM     73  C   UNL     1      -6.034  -0.711   0.686  1.00  0.00     0.023 A 
ATOM     74  C   UNL     1      -6.964  -0.217  -0.252  1.00  0.00     0.012 A 
ATOM     75  C   UNL     1      -5.244  -1.821   0.336  1.00  0.00     0.148 A 
ATOM     76  C   UNL     1      -7.122  -0.831  -1.497  1.00  0.00     0.002 A 
ATOM     77  C   UNL     1      -5.353  -2.382  -0.933  1.00  0.00     0.091 A 
ATOM     78  F   UNL     1      -4.390  -2.310   1.247  1.00  0.00    -0.205 F 
ATOM     79  C   UNL     1      -6.305  -1.903  -1.843  1.00  0.00     0.022 A 
BRANCH  77  80
ATOM     80  S   UNL     1      -4.214  -3.649  -1.504  1.00  0.00     0.127 S 
ATOM     81  O   UNL     1      -5.010  -4.862  -1.346  1.00  0.00    -0.237 OA
ATOM     82  O   UNL     1      -3.972  -3.244  -2.889  1.00  0.00    -0.237 OA
ATOM     83  O   UNL     1      -3.047  -3.527  -0.639  1.00  0.00    -0.744 OA
ENDBRANCH  77  80
ENDBRANCH  49  73
BRANCH  61  84
ATOM     84  C   UNL     1     -10.363   0.083   6.097  1.00  0.00     0.023 A 
ATOM     85  C   UNL     1     -10.526  -1.286   6.389  1.00  0.00     0.012 A 
ATOM     86  C   UNL     1     -11.479   0.939   6.152  1.00  0.00     0.148 A 
ATOM     87  C   UNL     1     -11.784  -1.800   6.702  1.00  0.00     0.002 A 
ATOM     88  C   UNL     1     -12.722   0.428   6.509  1.00  0.00     0.091 A 
ATOM     89  F   UNL     1     -11.308   2.234   5.847  1.00  0.00    -0.205 F 
ATOM     90  C   UNL     1     -12.879  -0.942   6.774  1.00  0.00     0.022 A 
BRANCH  88  91
ATOM     91  S   UNL     1     -14.168   1.475   6.712  1.00  0.00     0.127 S 
ATOM     92  O   UNL     1     -14.943   1.148   5.517  1.00  0.00    -0.237 OA
ATOM     93  O   UNL     1     -14.739   0.978   7.965  1.00  0.00    -0.237 OA
ATOM     94  O   UNL     1     -13.665   2.841   6.779  1.00  0.00    -0.744 OA
ENDBRANCH  88  91
ENDBRANCH  61  84
ENDBRANCH  35  36
ENDBRANCH  28  30
ENDBRANCH  27  28
ENDBRANCH   1  27
TORSDOF 16
