REMARK SMILES Cc1cc(NC(=O)c2ccc(Br)cc2N)ccc1C(=O)OCCOC(=O)c1ccc(-c2c3nc(c(-c4cccc(S(=O)(=O)[O-])c4F)c4ccc([nH]4)c(-c4cccc(S(=O)(=O)[O-])c4F)c4nc(c(-c5cccc(S(=O)(=O)[O-])c5F)c5ccc2[nH]5)C=C4)C=C3)cc1
REMARK SMILES IDX 22 1 21 2 19 3 20 4 18 5 1 6 2 7 3 8 4 9 17 10 16 11 5 12
REMARK SMILES IDX 6 13 7 15 8 16 9 17 14 18 10 19 13 20 11 21 12 22 15 23
REMARK SMILES IDX 23 26 24 27 25 28 26 29 27 30 28 31 89 32 29 33 88 34 30 35
REMARK SMILES IDX 31 36 32 37 82 38 33 39 87 40 81 41 83 42 34 43 86 44 80 45
REMARK SMILES IDX 79 46 35 48 67 49 47 50 66 51 48 52 51 53 65 54 84 55 49 56
REMARK SMILES IDX 50 57 64 59 85 60 52 61 36 62 37 63 45 64 38 65 40 66 46 67
REMARK SMILES IDX 39 68 41 69 42 70 43 71 44 72 68 73 69 74 77 75 70 76 72 77
REMARK SMILES IDX 78 78 71 79 73 80 74 81 75 82 76 83 53 84 54 85 62 86 55 87
REMARK SMILES IDX 57 88 63 89 56 90 58 91 59 92 60 93 61 94
REMARK H PARENT 5 14 15 24 15 25 83 47 51 58
REMARK Flexibility Score: inf
ROOT
ATOM      1  C   UNL     1       3.585   2.977  -2.162  1.00  0.00     0.275 C 
ENDROOT
BRANCH   1   2
ATOM      2  O   UNL     1       2.671   2.023  -1.630  1.00  0.00    -0.458 OA
BRANCH   2   3
ATOM      3  C   UNL     1       1.911   1.346  -2.518  1.00  0.00     0.338 C 
ATOM      4  O   UNL     1       1.865   1.522  -3.709  1.00  0.00    -0.246 OA
BRANCH   3   5
ATOM      5  C   UNL     1       1.103   0.342  -1.782  1.00  0.00     0.063 A 
ATOM      6  C   UNL     1       3.157  -0.756  -0.723  1.00  0.00     0.045 C 
ATOM      7  C   UNL     1       1.685  -0.682  -1.019  1.00  0.00    -0.035 A 
ATOM      8  C   UNL     1       0.852  -1.711  -0.539  1.00  0.00     0.030 A 
ATOM      9  C   UNL     1      -0.534  -1.683  -0.715  1.00  0.00     0.041 A 
ATOM     10  C   UNL     1      -0.283   0.388  -1.960  1.00  0.00     0.018 A 
ATOM     11  C   UNL     1      -1.096  -0.604  -1.404  1.00  0.00     0.027 A 
BRANCH   9  12
ATOM     12  N   UNL     1      -1.413  -2.709  -0.313  1.00  0.00    -0.322 N 
ATOM     13  C   UNL     1      -1.228  -3.858   0.425  1.00  0.00     0.257 C 
ATOM     14  H   UNL     1      -2.340  -2.579  -0.620  1.00  0.00     0.170 HD
ATOM     15  O   UNL     1      -2.041  -4.780   0.326  1.00  0.00    -0.269 OA
BRANCH  13  16
ATOM     16  C   UNL     1      -0.081  -4.024   1.341  1.00  0.00     0.063 A 
ATOM     17  C   UNL     1       0.710  -5.172   1.153  1.00  0.00     0.017 A 
ATOM     18  C   UNL     1       0.222  -3.090   2.353  1.00  0.00     0.045 A 
ATOM     19  C   UNL     1       1.836  -5.380   1.947  1.00  0.00     0.016 A 
ATOM     20  C   UNL     1       1.347  -3.333   3.153  1.00  0.00     0.042 A 
ATOM     21  C   UNL     1       2.152  -4.454   2.938  1.00  0.00     0.020 A 
ATOM     22  Br  UNL     1       3.684  -4.728   4.009  1.00  0.00    -0.051 Br
BRANCH  18  23
ATOM     23  N   UNL     1      -0.589  -2.005   2.654  1.00  0.00    -0.398 N 
ATOM     24  H   UNL     1      -1.384  -1.817   2.104  1.00  0.00     0.156 HD
ATOM     25  H   UNL     1      -0.369  -1.423   3.417  1.00  0.00     0.156 HD
ENDBRANCH  18  23
ENDBRANCH  13  16
ENDBRANCH   9  12
ENDBRANCH   3   5
ENDBRANCH   2   3
ENDBRANCH   1   2
BRANCH   1  26
ATOM     26  C   UNL     1       3.029   4.153  -2.992  1.00  0.00     0.275 C 
BRANCH  26  27
ATOM     27  O   UNL     1       1.609   4.472  -3.088  1.00  0.00    -0.458 OA
BRANCH  27  28
ATOM     28  C   UNL     1       0.614   4.591  -2.175  1.00  0.00     0.338 C 
ATOM     29  O   UNL     1      -0.505   4.968  -2.474  1.00  0.00    -0.246 OA
BRANCH  28  30
ATOM     30  C   UNL     1       0.925   4.201  -0.800  1.00  0.00     0.060 A 
ATOM     31  C   UNL     1       0.095   3.297  -0.114  1.00  0.00     0.016 A 
ATOM     32  C   UNL     1       2.096   4.686  -0.239  1.00  0.00     0.016 A 
ATOM     33  C   UNL     1       0.488   2.814   1.132  1.00  0.00     0.010 A 
ATOM     34  C   UNL     1       2.564   4.089   0.901  1.00  0.00     0.010 A 
ATOM     35  C   UNL     1       1.723   3.227   1.629  1.00  0.00    -0.014 A 
BRANCH  35  36
ATOM     36  C   UNL     1       2.052   3.245   3.047  1.00  0.00     0.031 A 
ATOM     37  C   UNL     1       2.677   2.139   3.771  1.00  0.00     0.074 A 
ATOM     38  C   UNL     1       1.956   4.501   3.541  1.00  0.00     0.049 A 
ATOM     39  N   UNL     1       2.778   2.112   5.053  1.00  0.00    -0.248 NA
ATOM     40  C   UNL     1       3.207   0.948   3.124  1.00  0.00     0.031 C 
ATOM     41  C   UNL     1       2.599   5.124   4.677  1.00  0.00     0.029 A 
ATOM     42  N   UNL     1       1.102   5.497   3.042  1.00  0.00    -0.354 N 
ATOM     43  C   UNL     1       3.626   1.076   5.387  1.00  0.00     0.074 A 
ATOM     44  C   UNL     1       3.756   0.311   4.168  1.00  0.00     0.031 C 
ATOM     45  C   UNL     1       1.944   6.270   4.950  1.00  0.00     0.029 A 
ATOM     46  C   UNL     1       0.739   6.288   4.122  1.00  0.00     0.049 A 
ATOM     47  H   UNL     1       0.816   5.612   2.107  1.00  0.00     0.167 HD
ATOM     48  C   UNL     1       4.226   1.108   6.613  1.00  0.00     0.034 A 
ATOM     49  C   UNL     1      -0.557   6.312   4.557  1.00  0.00     0.034 A 
ATOM     50  C   UNL     1       3.706   2.247   7.396  1.00  0.00     0.049 A 
ATOM     51  C   UNL     1      -0.646   5.791   5.975  1.00  0.00     0.074 A 
ATOM     52  C   UNL     1       4.191   3.529   7.596  1.00  0.00     0.029 A 
ATOM     53  N   UNL     1       2.382   2.255   7.827  1.00  0.00    -0.354 N 
ATOM     54  N   UNL     1       0.292   5.095   6.554  1.00  0.00    -0.248 NA
ATOM     55  C   UNL     1      -1.799   6.004   6.840  1.00  0.00     0.031 C 
ATOM     56  C   UNL     1       3.105   4.342   8.024  1.00  0.00     0.029 A 
ATOM     57  C   UNL     1       1.974   3.548   8.133  1.00  0.00     0.049 A 
ATOM     58  H   UNL     1       1.814   1.456   7.905  1.00  0.00     0.167 HD
ATOM     59  C   UNL     1      -0.123   4.694   7.788  1.00  0.00     0.074 A 
ATOM     60  C   UNL     1      -1.418   5.341   7.945  1.00  0.00     0.031 C 
ATOM     61  C   UNL     1       0.598   3.817   8.548  1.00  0.00     0.034 A 
BRANCH  48  62
ATOM     62  C   UNL     1       5.479   0.344   7.049  1.00  0.00     0.023 A 
ATOM     63  C   UNL     1       6.098   0.773   8.250  1.00  0.00     0.012 A 
ATOM     64  C   UNL     1       6.152  -0.691   6.357  1.00  0.00     0.148 A 
ATOM     65  C   UNL     1       7.331   0.276   8.692  1.00  0.00     0.002 A 
ATOM     66  C   UNL     1       7.393  -1.182   6.789  1.00  0.00     0.091 A 
ATOM     67  F   UNL     1       5.604  -1.239   5.275  1.00  0.00    -0.205 F 
ATOM     68  C   UNL     1       7.990  -0.692   7.952  1.00  0.00     0.022 A 
BRANCH  66  69
ATOM     69  S   UNL     1       8.323  -2.433   5.878  1.00  0.00     0.127 S 
ATOM     70  O   UNL     1       9.562  -1.720   5.560  1.00  0.00    -0.237 OA
ATOM     71  O   UNL     1       8.473  -3.497   6.870  1.00  0.00    -0.237 OA
ATOM     72  O   UNL     1       7.516  -2.784   4.716  1.00  0.00    -0.744 OA
ENDBRANCH  66  69
ENDBRANCH  48  62
BRANCH  49  73
ATOM     73  C   UNL     1      -1.588   6.052   3.486  1.00  0.00     0.023 A 
ATOM     74  C   UNL     1      -1.585   6.903   2.350  1.00  0.00     0.012 A 
ATOM     75  C   UNL     1      -2.291   4.835   3.395  1.00  0.00     0.148 A 
ATOM     76  C   UNL     1      -2.166   6.508   1.139  1.00  0.00     0.002 A 
ATOM     77  C   UNL     1      -2.867   4.447   2.180  1.00  0.00     0.091 A 
ATOM     78  F   UNL     1      -2.343   4.034   4.467  1.00  0.00    -0.205 F 
ATOM     79  C   UNL     1      -2.788   5.270   1.048  1.00  0.00     0.022 A 
BRANCH  77  80
ATOM     80  S   UNL     1      -3.584   2.805   1.994  1.00  0.00     0.127 S 
ATOM     81  O   UNL     1      -3.549   2.585   0.547  1.00  0.00    -0.237 OA
ATOM     82  O   UNL     1      -2.675   1.937   2.733  1.00  0.00    -0.237 OA
ATOM     83  O   UNL     1      -4.918   2.994   2.554  1.00  0.00    -0.744 OA
ENDBRANCH  77  80
ENDBRANCH  49  73
BRANCH  61  84
ATOM     84  C   UNL     1       0.042   3.124   9.766  1.00  0.00     0.023 A 
ATOM     85  C   UNL     1      -1.337   2.873   9.909  1.00  0.00     0.012 A 
ATOM     86  C   UNL     1       0.905   2.548  10.726  1.00  0.00     0.148 A 
ATOM     87  C   UNL     1      -1.847   2.158  10.995  1.00  0.00     0.002 A 
ATOM     88  C   UNL     1       0.403   1.732  11.734  1.00  0.00     0.091 A 
ATOM     89  F   UNL     1       2.223   2.793  10.675  1.00  0.00    -0.205 F 
ATOM     90  C   UNL     1      -0.974   1.566  11.896  1.00  0.00     0.022 A 
BRANCH  88  91
ATOM     91  S   UNL     1       1.519   0.735  12.727  1.00  0.00     0.127 S 
ATOM     92  O   UNL     1       1.848   1.641  13.824  1.00  0.00    -0.237 OA
ATOM     93  O   UNL     1       0.680  -0.403  13.107  1.00  0.00    -0.237 OA
ATOM     94  O   UNL     1       2.608   0.393  11.820  1.00  0.00    -0.744 OA
ENDBRANCH  88  91
ENDBRANCH  61  84
ENDBRANCH  35  36
ENDBRANCH  28  30
ENDBRANCH  27  28
ENDBRANCH  26  27
ENDBRANCH   1  26
TORSDOF 17
