REMARK SMILES O=C(CNC(=O)OCc1ccccc1)NCC(=O)OCCOC(=O)c1ccc(-c2c3nc(c(-c4cccc(S(=O)(=O)[O-])c4F)c4ccc([nH]4)c(-c4cccc(S(=O)(=O)[O-])c4F)c4nc(c(-c5cccc(S(=O)(=O)[O-])c5F)c5ccc2[nH]5)C=C4)C=C3)cc1
REMARK SMILES IDX 19 1 17 2 18 3 16 4 15 5 1 6 2 7 3 9 4 10 5 11 6 13 7 14
REMARK SMILES IDX 8 15 9 16 10 17 14 18 11 19 13 20 12 21 20 22 21 23 22 24
REMARK SMILES IDX 23 25 24 26 25 27 26 28 87 29 27 30 86 31 28 32 29 33 30 34
REMARK SMILES IDX 80 35 31 36 85 37 79 38 81 39 32 40 84 41 78 42 77 43 33 45
REMARK SMILES IDX 65 46 45 47 64 48 46 49 49 50 63 51 82 52 47 53 48 54 62 56
REMARK SMILES IDX 83 57 50 58 34 59 35 60 43 61 36 62 38 63 44 64 37 65 39 66
REMARK SMILES IDX 40 67 41 68 42 69 66 70 67 71 75 72 68 73 70 74 76 75 69 76
REMARK SMILES IDX 71 77 72 78 73 79 74 80 51 81 52 82 60 83 53 84 55 85 61 86
REMARK SMILES IDX 54 87 56 88 57 89 58 90 59 91
REMARK H PARENT 15 8 4 12 81 44 49 55
REMARK Flexibility Score: inf
ROOT
ATOM      1  O   UNL     1       2.483  -3.586  -0.173  1.00  0.00    -0.461 OA
ENDROOT
BRANCH   1   2
ATOM      2  C   UNL     1       1.774  -3.311   0.956  1.00  0.00     0.325 C 
ATOM      3  O   UNL     1       1.293  -4.156   1.702  1.00  0.00    -0.250 OA
BRANCH   2   4
ATOM      4  C   UNL     1       1.598  -1.814   1.188  1.00  0.00     0.238 C 
BRANCH   4   5
ATOM      5  N   UNL     1       2.490  -0.951   0.434  1.00  0.00    -0.344 N 
ATOM      6  O   UNL     1       0.845   0.191  -0.680  1.00  0.00    -0.273 OA
ATOM      7  C   UNL     1       2.030   0.047  -0.392  1.00  0.00     0.240 C 
ATOM      8  H   UNL     1       3.462  -1.085   0.518  1.00  0.00     0.164 HD
BRANCH   7   9
ATOM      9  C   UNL     1       3.128   0.904  -1.014  1.00  0.00     0.219 C 
BRANCH   9  10
ATOM     10  N   UNL     1       4.037   1.347   0.029  1.00  0.00    -0.312 N 
ATOM     11  C   UNL     1       5.389   1.419  -0.050  1.00  0.00     0.407 C 
ATOM     12  H   UNL     1       3.629   1.623   0.881  1.00  0.00     0.167 HD
ATOM     13  O   UNL     1       6.061   1.770   0.911  1.00  0.00    -0.225 OA
BRANCH  11  14
ATOM     14  O   UNL     1       5.862   1.116  -1.281  1.00  0.00    -0.445 OA
BRANCH  14  15
ATOM     15  C   UNL     1       7.284   1.217  -1.427  1.00  0.00     0.270 C 
BRANCH  15  16
ATOM     16  C   UNL     1       7.762   2.603  -1.807  1.00  0.00    -0.011 A 
ATOM     17  C   UNL     1       9.112   2.781  -2.147  1.00  0.00     0.007 A 
ATOM     18  C   UNL     1       6.927   3.730  -1.778  1.00  0.00     0.007 A 
ATOM     19  C   UNL     1       9.615   4.053  -2.432  1.00  0.00     0.000 A 
ATOM     20  C   UNL     1       7.432   5.002  -2.055  1.00  0.00     0.000 A 
ATOM     21  C   UNL     1       8.776   5.163  -2.378  1.00  0.00     0.000 A 
ENDBRANCH  15  16
ENDBRANCH  14  15
ENDBRANCH  11  14
ENDBRANCH   9  10
ENDBRANCH   7   9
ENDBRANCH   4   5
ENDBRANCH   2   4
ENDBRANCH   1   2
BRANCH   1  22
ATOM     22  C   UNL     1       2.831  -4.965  -0.393  1.00  0.00     0.274 C 
BRANCH  22  23
ATOM     23  C   UNL     1       4.335  -5.177  -0.196  1.00  0.00     0.275 C 
BRANCH  23  24
ATOM     24  O   UNL     1       4.732  -5.005   1.178  1.00  0.00    -0.458 OA
BRANCH  24  25
ATOM     25  C   UNL     1       4.993  -3.729   1.548  1.00  0.00     0.338 C 
ATOM     26  O   UNL     1       4.932  -2.727   0.851  1.00  0.00    -0.246 OA
BRANCH  25  27
ATOM     27  C   UNL     1       5.223  -3.662   2.998  1.00  0.00     0.060 A 
ATOM     28  C   UNL     1       4.368  -2.847   3.743  1.00  0.00     0.016 A 
ATOM     29  C   UNL     1       6.312  -4.288   3.604  1.00  0.00     0.016 A 
ATOM     30  C   UNL     1       4.624  -2.609   5.086  1.00  0.00     0.010 A 
ATOM     31  C   UNL     1       6.553  -4.069   4.966  1.00  0.00     0.010 A 
ATOM     32  C   UNL     1       5.727  -3.206   5.709  1.00  0.00    -0.014 A 
BRANCH  32  33
ATOM     33  C   UNL     1       6.020  -2.881   7.128  1.00  0.00     0.031 A 
ATOM     34  C   UNL     1       7.248  -2.091   7.486  1.00  0.00     0.074 A 
ATOM     35  C   UNL     1       5.165  -3.277   8.091  1.00  0.00     0.049 A 
ATOM     36  N   UNL     1       7.688  -1.742   8.667  1.00  0.00    -0.248 NA
ATOM     37  C   UNL     1       8.098  -1.640   6.372  1.00  0.00     0.031 C 
ATOM     38  C   UNL     1       3.937  -4.042   7.865  1.00  0.00     0.029 A 
ATOM     39  N   UNL     1       5.205  -3.104   9.451  1.00  0.00    -0.354 N 
ATOM     40  C   UNL     1       8.886  -1.072   8.445  1.00  0.00     0.074 A 
ATOM     41  C   UNL     1       9.107  -1.069   7.015  1.00  0.00     0.031 C 
ATOM     42  C   UNL     1       3.345  -4.279   9.046  1.00  0.00     0.029 A 
ATOM     43  C   UNL     1       4.174  -3.728  10.113  1.00  0.00     0.049 A 
ATOM     44  H   UNL     1       5.904  -2.583   9.909  1.00  0.00     0.167 HD
ATOM     45  C   UNL     1       9.720  -0.505   9.350  1.00  0.00     0.034 A 
ATOM     46  C   UNL     1       3.940  -3.870  11.431  1.00  0.00     0.034 A 
ATOM     47  C   UNL     1       9.477  -0.486  10.769  1.00  0.00     0.049 A 
ATOM     48  C   UNL     1       4.888  -3.240  12.413  1.00  0.00     0.074 A 
ATOM     49  C   UNL     1      10.236   0.108  11.762  1.00  0.00     0.029 A 
ATOM     50  N   UNL     1       8.404  -1.096  11.399  1.00  0.00    -0.354 N 
ATOM     51  N   UNL     1       5.966  -2.530  12.181  1.00  0.00    -0.248 NA
ATOM     52  C   UNL     1       4.571  -3.402  13.838  1.00  0.00     0.031 C 
ATOM     53  C   UNL     1       9.643  -0.179  12.996  1.00  0.00     0.029 A 
ATOM     54  C   UNL     1       8.488  -0.908  12.769  1.00  0.00     0.049 A 
ATOM     55  H   UNL     1       7.687  -1.591  10.940  1.00  0.00     0.167 HD
ATOM     56  C   UNL     1       6.434  -2.130  13.427  1.00  0.00     0.074 A 
ATOM     57  C   UNL     1       5.509  -2.658  14.408  1.00  0.00     0.031 C 
ATOM     58  C   UNL     1       7.536  -1.400  13.732  1.00  0.00     0.034 A 
BRANCH  45  59
ATOM     59  C   UNL     1      10.978   0.148   8.836  1.00  0.00     0.023 A 
ATOM     60  C   UNL     1      10.905   1.359   8.120  1.00  0.00     0.012 A 
ATOM     61  C   UNL     1      12.241  -0.412   9.118  1.00  0.00     0.148 A 
ATOM     62  C   UNL     1      12.065   1.985   7.662  1.00  0.00     0.002 A 
ATOM     63  C   UNL     1      13.394   0.242   8.701  1.00  0.00     0.091 A 
ATOM     64  F   UNL     1      12.290  -1.575   9.783  1.00  0.00    -0.205 F 
ATOM     65  C   UNL     1      13.308   1.433   7.962  1.00  0.00     0.022 A 
BRANCH  63  66
ATOM     66  S   UNL     1      15.042  -0.344   9.108  1.00  0.00     0.127 S 
ATOM     67  O   UNL     1      15.542  -0.754   7.796  1.00  0.00    -0.237 OA
ATOM     68  O   UNL     1      15.671   0.860   9.650  1.00  0.00    -0.237 OA
ATOM     69  O   UNL     1      14.862  -1.423  10.069  1.00  0.00    -0.744 OA
ENDBRANCH  63  66
ENDBRANCH  45  59
BRANCH  46  70
ATOM     70  C   UNL     1       2.749  -4.635  11.898  1.00  0.00     0.023 A 
ATOM     71  C   UNL     1       1.699  -3.964  12.553  1.00  0.00     0.012 A 
ATOM     72  C   UNL     1       2.649  -6.024  11.683  1.00  0.00     0.148 A 
ATOM     73  C   UNL     1       0.587  -4.668  13.017  1.00  0.00     0.002 A 
ATOM     74  C   UNL     1       1.512  -6.708  12.093  1.00  0.00     0.091 A 
ATOM     75  F   UNL     1       3.665  -6.646  11.068  1.00  0.00    -0.205 F 
ATOM     76  C   UNL     1       0.489  -6.036  12.778  1.00  0.00     0.022 A 
BRANCH  74  77
ATOM     77  S   UNL     1       1.242  -8.442  11.713  1.00  0.00     0.127 S 
ATOM     78  O   UNL     1       1.338  -9.056  13.035  1.00  0.00    -0.237 OA
ATOM     79  O   UNL     1      -0.104  -8.418  11.140  1.00  0.00    -0.237 OA
ATOM     80  O   UNL     1       2.291  -8.808  10.770  1.00  0.00    -0.744 OA
ENDBRANCH  74  77
ENDBRANCH  46  70
BRANCH  58  81
ATOM     81  C   UNL     1       7.777  -1.080  15.185  1.00  0.00     0.023 A 
ATOM     82  C   UNL     1       8.160  -2.097  16.082  1.00  0.00     0.012 A 
ATOM     83  C   UNL     1       7.670   0.246  15.650  1.00  0.00     0.148 A 
ATOM     84  C   UNL     1       8.389  -1.807  17.427  1.00  0.00     0.002 A 
ATOM     85  C   UNL     1       7.954   0.537  16.978  1.00  0.00     0.091 A 
ATOM     86  F   UNL     1       7.287   1.198  14.787  1.00  0.00    -0.205 F 
ATOM     87  C   UNL     1       8.297  -0.490  17.872  1.00  0.00     0.022 A 
BRANCH  85  88
ATOM     88  S   UNL     1       7.960   2.216  17.615  1.00  0.00     0.127 S 
ATOM     89  O   UNL     1       6.758   2.223  18.447  1.00  0.00    -0.237 OA
ATOM     90  O   UNL     1       9.219   2.259  18.361  1.00  0.00    -0.237 OA
ATOM     91  O   UNL     1       7.919   3.088  16.450  1.00  0.00    -0.744 OA
ENDBRANCH  85  88
ENDBRANCH  58  81
ENDBRANCH  32  33
ENDBRANCH  25  27
ENDBRANCH  24  25
ENDBRANCH  23  24
ENDBRANCH  22  23
ENDBRANCH   1  22
TORSDOF 20
