REMARK SMILES C[C@]1(C(=O)OCCOC(=O)c2ccc(-c3c4nc(c(-c5cccc(S(=O)(=O)[O-])c5F)c5ccc([nH]5)c(-c5cccc(S(=O)(=O)[O-])c5F)c5nc(c(-c6cccc(S(=O)(=O)[O-])c6F)c6ccc3[nH]6)C=C5)C=C4)cc2)[NH2+]C2(C(=O)c3ccccc3C2=O)[C@@H]2C(=O)N(c3ccccc3)C(=O)[C@H]21
REMARK SMILES IDX 7 1 6 2 5 3 3 4 4 5 2 6 1 7 74 8 98 9 75 10 86 13 96 14
REMARK SMILES IDX 76 15 84 16 87 17 89 18 97 19 77 20 78 21 83 22 85 23 88 24
REMARK SMILES IDX 79 25 82 26 80 27 81 28 90 29 91 30 95 31 92 32 94 33 93 34
REMARK SMILES IDX 8 35 9 36 10 37 11 38 12 39 73 40 13 41 72 42 14 43 15 44
REMARK SMILES IDX 16 45 66 46 17 47 71 48 65 49 67 50 18 51 70 52 64 53 63 54
REMARK SMILES IDX 19 56 51 57 31 58 50 59 32 60 35 61 49 62 68 63 33 64 34 65
REMARK SMILES IDX 48 67 69 68 36 69 20 70 21 71 29 72 22 73 24 74 30 75 23 76
REMARK SMILES IDX 25 77 26 78 27 79 28 80 52 81 53 82 61 83 54 84 56 85 62 86
REMARK SMILES IDX 55 87 57 88 58 89 59 90 60 91 37 92 38 93 46 94 39 95 41 96
REMARK SMILES IDX 47 97 40 98 42 99 43 100 44 101 45 102
REMARK H PARENT 74 11 74 12 67 55 35 66
REMARK Flexibility Score: inf
ROOT
ATOM      1  C   UNL     1       2.947   1.275   4.409  1.00  0.00     0.275 C 
ENDROOT
BRANCH   1   2
ATOM      2  C   UNL     1       1.425   1.166   4.336  1.00  0.00     0.274 C 
BRANCH   2   3
ATOM      3  O   UNL     1       1.029   0.165   3.379  1.00  0.00    -0.457 OA
BRANCH   3   4
ATOM      4  C   UNL     1       0.526   0.592   2.187  1.00  0.00     0.368 C 
ATOM      5  O   UNL     1       0.403   1.772   1.890  1.00  0.00    -0.245 OA
BRANCH   4   6
ATOM      6  C   UNL     1       0.015  -0.590   1.301  1.00  0.00     0.205 C 
ATOM      7  C   UNL     1       0.287  -0.370  -0.187  1.00  0.00     0.093 C 
ATOM      8  N   UNL     1       0.597  -1.923   1.728  1.00  0.00    -0.313 N 
ATOM      9  C   UNL     1      -1.452  -0.804   1.548  1.00  0.00     0.172 C 
ATOM     10  C   UNL     1      -0.469  -2.666   2.503  1.00  0.00     0.237 C 
ATOM     11  H   UNL     1       1.414  -1.771   2.320  1.00  0.00     0.348 HD
ATOM     12  H   UNL     1       0.886  -2.463   0.913  1.00  0.00     0.348 HD
ATOM     13  C   UNL     1      -1.423  -1.573   2.852  1.00  0.00     0.177 C 
ATOM     14  C   UNL     1      -2.446   0.256   1.852  1.00  0.00     0.244 C 
ATOM     15  C   UNL     1      -1.003  -3.829   1.670  1.00  0.00     0.232 C 
ATOM     16  C   UNL     1       0.166  -3.360   3.709  1.00  0.00     0.232 C 
ATOM     17  C   UNL     1      -2.873  -1.585   3.178  1.00  0.00     0.245 C 
ATOM     18  N   UNL     1      -3.322  -0.331   2.760  1.00  0.00    -0.250 N 
ATOM     19  O   UNL     1      -2.472   1.355   1.331  1.00  0.00    -0.273 OA
ATOM     20  O   UNL     1      -1.625  -3.773   0.628  1.00  0.00    -0.286 OA
ATOM     21  C   UNL     1      -0.554  -5.075   2.287  1.00  0.00     0.036 A 
ATOM     22  C   UNL     1       0.132  -4.805   3.463  1.00  0.00     0.036 A 
ATOM     23  O   UNL     1       0.606  -2.860   4.726  1.00  0.00    -0.286 OA
ATOM     24  O   UNL     1      -3.437  -2.468   3.800  1.00  0.00    -0.273 OA
ATOM     25  C   UNL     1      -0.724  -6.364   1.817  1.00  0.00     0.013 A 
ATOM     26  C   UNL     1       0.674  -5.819   4.230  1.00  0.00     0.013 A 
ATOM     27  C   UNL     1      -0.185  -7.402   2.580  1.00  0.00     0.001 A 
ATOM     28  C   UNL     1       0.508  -7.131   3.776  1.00  0.00     0.001 A 
BRANCH  18  29
ATOM     29  C   UNL     1      -4.425   0.368   3.293  1.00  0.00     0.052 A 
ATOM     30  C   UNL     1      -5.146   1.274   2.502  1.00  0.00     0.027 A 
ATOM     31  C   UNL     1      -4.721   0.276   4.658  1.00  0.00     0.027 A 
ATOM     32  C   UNL     1      -6.132   2.083   3.063  1.00  0.00     0.002 A 
ATOM     33  C   UNL     1      -5.679   1.118   5.227  1.00  0.00     0.002 A 
ATOM     34  C   UNL     1      -6.386   2.018   4.430  1.00  0.00     0.000 A 
ENDBRANCH  18  29
ENDBRANCH   4   6
ENDBRANCH   3   4
ENDBRANCH   2   3
ENDBRANCH   1   2
BRANCH   1  35
ATOM     35  O   UNL     1       3.469   1.853   3.201  1.00  0.00    -0.458 OA
BRANCH  35  36
ATOM     36  C   UNL     1       3.864   0.964   2.262  1.00  0.00     0.338 C 
ATOM     37  O   UNL     1       3.920  -0.250   2.355  1.00  0.00    -0.246 OA
BRANCH  36  38
ATOM     38  C   UNL     1       4.094   1.689   1.009  1.00  0.00     0.060 A 
ATOM     39  C   UNL     1       5.320   2.270   0.713  1.00  0.00     0.016 A 
ATOM     40  C   UNL     1       3.057   1.728   0.083  1.00  0.00     0.016 A 
ATOM     41  C   UNL     1       5.475   2.922  -0.515  1.00  0.00     0.010 A 
ATOM     42  C   UNL     1       3.229   2.303  -1.163  1.00  0.00     0.010 A 
ATOM     43  C   UNL     1       4.430   2.940  -1.462  1.00  0.00    -0.014 A 
BRANCH  43  44
ATOM     44  C   UNL     1       4.571   3.601  -2.778  1.00  0.00     0.031 A 
ATOM     45  C   UNL     1       3.665   4.742  -3.162  1.00  0.00     0.074 A 
ATOM     46  C   UNL     1       5.457   3.104  -3.660  1.00  0.00     0.049 A 
ATOM     47  N   UNL     1       3.639   5.427  -4.276  1.00  0.00    -0.248 NA
ATOM     48  C   UNL     1       2.634   5.152  -2.190  1.00  0.00     0.031 C 
ATOM     49  C   UNL     1       6.295   1.922  -3.439  1.00  0.00     0.029 A 
ATOM     50  N   UNL     1       5.791   3.518  -4.922  1.00  0.00    -0.354 N 
ATOM     51  C   UNL     1       2.581   6.319  -4.152  1.00  0.00     0.074 A 
ATOM     52  C   UNL     1       1.961   6.070  -2.871  1.00  0.00     0.031 C 
ATOM     53  C   UNL     1       7.073   1.729  -4.514  1.00  0.00     0.029 A 
ATOM     54  C   UNL     1       6.770   2.754  -5.508  1.00  0.00     0.049 A 
ATOM     55  H   UNL     1       5.370   4.289  -5.366  1.00  0.00     0.167 HD
ATOM     56  C   UNL     1       2.187   7.285  -5.013  1.00  0.00     0.034 A 
ATOM     57  C   UNL     1       7.365   2.871  -6.710  1.00  0.00     0.034 A 
ATOM     58  C   UNL     1       2.851   7.568  -6.255  1.00  0.00     0.049 A 
ATOM     59  C   UNL     1       6.965   4.002  -7.610  1.00  0.00     0.074 A 
ATOM     60  C   UNL     1       2.603   8.597  -7.145  1.00  0.00     0.029 A 
ATOM     61  N   UNL     1       3.892   6.821  -6.780  1.00  0.00    -0.354 N 
ATOM     62  N   UNL     1       6.065   4.933  -7.407  1.00  0.00    -0.248 NA
ATOM     63  C   UNL     1       7.678   4.118  -8.890  1.00  0.00     0.031 C 
ATOM     64  C   UNL     1       3.489   8.464  -8.218  1.00  0.00     0.029 A 
ATOM     65  C   UNL     1       4.296   7.362  -7.987  1.00  0.00     0.049 A 
ATOM     66  H   UNL     1       4.286   6.023  -6.358  1.00  0.00     0.167 HD
ATOM     67  C   UNL     1       6.108   5.754  -8.526  1.00  0.00     0.074 A 
ATOM     68  C   UNL     1       7.142   5.223  -9.393  1.00  0.00     0.031 C 
ATOM     69  C   UNL     1       5.349   6.837  -8.817  1.00  0.00     0.034 A 
BRANCH  56  70
ATOM     70  C   UNL     1       1.041   8.175  -4.612  1.00  0.00     0.023 A 
ATOM     71  C   UNL     1       1.261   9.183  -3.651  1.00  0.00     0.012 A 
ATOM     72  C   UNL     1      -0.207   8.095  -5.260  1.00  0.00     0.148 A 
ATOM     73  C   UNL     1       0.254  10.093  -3.334  1.00  0.00     0.002 A 
ATOM     74  C   UNL     1      -1.196   9.026  -4.961  1.00  0.00     0.091 A 
ATOM     75  F   UNL     1      -0.395   7.123  -6.163  1.00  0.00    -0.205 F 
ATOM     76  C   UNL     1      -0.968  10.022  -3.996  1.00  0.00     0.022 A 
BRANCH  74  77
ATOM     77  S   UNL     1      -2.786   9.065  -5.796  1.00  0.00     0.127 S 
ATOM     78  O   UNL     1      -3.709   8.822  -4.687  1.00  0.00    -0.237 OA
ATOM     79  O   UNL     1      -2.818  10.427  -6.328  1.00  0.00    -0.237 OA
ATOM     80  O   UNL     1      -2.743   8.013  -6.802  1.00  0.00    -0.744 OA
ENDBRANCH  74  77
ENDBRANCH  56  70
BRANCH  57  81
ATOM     81  C   UNL     1       8.459   1.932  -7.069  1.00  0.00     0.023 A 
ATOM     82  C   UNL     1       9.794   2.372  -6.988  1.00  0.00     0.012 A 
ATOM     83  C   UNL     1       8.190   0.589  -7.393  1.00  0.00     0.148 A 
ATOM     84  C   UNL     1      10.846   1.488  -7.230  1.00  0.00     0.002 A 
ATOM     85  C   UNL     1       9.243  -0.295  -7.595  1.00  0.00     0.091 A 
ATOM     86  F   UNL     1       6.910   0.198  -7.457  1.00  0.00    -0.205 F 
ATOM     87  C   UNL     1      10.571   0.155  -7.523  1.00  0.00     0.022 A 
BRANCH  85  88
ATOM     88  S   UNL     1       8.995  -2.051  -7.876  1.00  0.00     0.127 S 
ATOM     89  O   UNL     1       9.537  -2.217  -9.223  1.00  0.00    -0.237 OA
ATOM     90  O   UNL     1       9.806  -2.641  -6.810  1.00  0.00    -0.237 OA
ATOM     91  O   UNL     1       7.563  -2.278  -7.746  1.00  0.00    -0.744 OA
ENDBRANCH  85  88
ENDBRANCH  57  81
BRANCH  69  92
ATOM     92  C   UNL     1       5.594   7.529 -10.127  1.00  0.00     0.023 A 
ATOM     93  C   UNL     1       5.095   6.956 -11.312  1.00  0.00     0.012 A 
ATOM     94  C   UNL     1       6.219   8.790 -10.170  1.00  0.00     0.148 A 
ATOM     95  C   UNL     1       5.228   7.623 -12.528  1.00  0.00     0.002 A 
ATOM     96  C   UNL     1       6.316   9.465 -11.380  1.00  0.00     0.091 A 
ATOM     97  F   UNL     1       6.690   9.308  -9.027  1.00  0.00    -0.205 F 
ATOM     98  C   UNL     1       5.827   8.881 -12.560  1.00  0.00     0.022 A 
BRANCH  96  99
ATOM     99  S   UNL     1       7.009  11.117 -11.512  1.00  0.00     0.127 S 
ATOM    100  O   UNL     1       8.239  10.864 -12.260  1.00  0.00    -0.237 OA
ATOM    101  O   UNL     1       5.973  11.827 -12.263  1.00  0.00    -0.237 OA
ATOM    102  O   UNL     1       7.199  11.587 -10.147  1.00  0.00    -0.744 OA
ENDBRANCH  96  99
ENDBRANCH  69  92
ENDBRANCH  43  44
ENDBRANCH  36  38
ENDBRANCH  35  36
ENDBRANCH   1  35
TORSDOF 15
