REMARK SMILES C=C[C@@H]1[C@@H](O)C[C@H]2[C@]3(CC[C@]4(C)[C@@H]([C@H](C)CCC=C(C)C)CC[C@]24C)C[C@]13CCC(=O)OCCOC(=O)c1ccc(-c2c3nc(c(-c4cccc(S(=O)(=O)[O-])c4F)c4ccc([nH]4)c(-c4cccc(S(=O)(=O)[O-])c4F)c4nc(c(-c5cccc(S(=O)(=O)[O-])c5F)c5ccc2[nH]5)C=C4)C=C3)cc1
REMARK SMILES IDX 32 1 30 2 31 3 29 4 28 5 27 6 3 7 4 8 6 9 8 10 26 11 7 12
REMARK SMILES IDX 9 13 24 14 10 15 11 16 23 17 25 18 13 19 12 20 22 21 2 22
REMARK SMILES IDX 1 23 5 24 14 26 15 27 16 28 17 29 18 30 19 31 20 32 21 33
REMARK SMILES IDX 33 34 34 35 35 36 36 37 37 38 38 39 39 40 100 41 40 42 99 43
REMARK SMILES IDX 41 44 42 45 43 46 93 47 44 48 98 49 92 50 94 51 45 52 97 53
REMARK SMILES IDX 91 54 90 55 46 57 78 58 58 59 77 60 59 61 62 62 76 63 95 64
REMARK SMILES IDX 60 65 61 66 75 68 96 69 63 70 47 71 48 72 56 73 49 74 51 75
REMARK SMILES IDX 57 76 50 77 52 78 53 79 54 80 55 81 79 82 80 83 88 84 81 85
REMARK SMILES IDX 83 86 89 87 82 88 84 89 85 90 86 91 87 92 64 93 65 94 73 95
REMARK SMILES IDX 66 96 68 97 74 98 67 99 69 100 70 101 71 102 72 103
REMARK H PARENT 5 25 94 56 62 67
REMARK Flexibility Score: inf
ROOT
ATOM      1  O   UNL     1       1.253   0.496   1.532  1.00  0.00    -0.462 OA
ENDROOT
BRANCH   1   2
ATOM      2  C   UNL     1       1.129  -0.689   2.175  1.00  0.00     0.305 C 
ATOM      3  O   UNL     1       1.928  -1.132   2.989  1.00  0.00    -0.252 OA
BRANCH   2   4
ATOM      4  C   UNL     1      -0.098  -1.458   1.746  1.00  0.00     0.123 C 
BRANCH   4   5
ATOM      5  C   UNL     1      -1.260  -0.616   1.217  1.00  0.00     0.020 C 
BRANCH   5   6
ATOM      6  C   UNL     1      -1.247  -0.274  -0.281  1.00  0.00    -0.014 C 
ATOM      7  C   UNL     1      -1.040  -1.514  -1.189  1.00  0.00     0.047 C 
ATOM      8  C   UNL     1      -2.057  -1.610  -2.353  1.00  0.00     0.122 C 
ATOM      9  C   UNL     1      -2.450  -0.267  -2.958  1.00  0.00     0.037 C 
ATOM     10  C   UNL     1      -2.206   0.889  -0.702  1.00  0.00    -0.019 C 
ATOM     11  C   UNL     1      -0.719   1.055  -0.809  1.00  0.00     0.016 C 
ATOM     12  C   UNL     1      -3.117   0.652  -1.914  1.00  0.00     0.005 C 
ATOM     13  C   UNL     1      -2.825   1.817   0.332  1.00  0.00     0.008 C 
ATOM     14  C   UNL     1      -3.722   1.996  -2.522  1.00  0.00    -0.023 C 
ATOM     15  C   UNL     1      -3.225   3.131  -0.319  1.00  0.00     0.008 C 
ATOM     16  C   UNL     1      -4.300   2.964  -1.394  1.00  0.00    -0.024 C 
ATOM     17  C   UNL     1      -5.016   1.662  -3.307  1.00  0.00     0.008 C 
ATOM     18  C   UNL     1      -2.685   2.649  -3.466  1.00  0.00     0.012 C 
ATOM     19  C   UNL     1      -5.598   2.196  -0.950  1.00  0.00    -0.002 C 
ATOM     20  C   UNL     1      -4.648   4.377  -1.918  1.00  0.00     0.012 C 
ATOM     21  C   UNL     1      -6.176   1.720  -2.307  1.00  0.00     0.005 C 
BRANCH   7  22
ATOM     22  C   UNL     1       0.378  -1.806  -1.678  1.00  0.00    -0.028 C 
ATOM     23  C   UNL     1       1.503  -1.097  -1.513  1.00  0.00     0.004 C 
ENDBRANCH   7  22
BRANCH   8  24
ATOM     24  O   UNL     1      -3.237  -2.309  -1.927  1.00  0.00    -0.392 OA
ATOM     25  H   UNL     1      -3.677  -1.802  -1.227  1.00  0.00     0.210 HD
ENDBRANCH   8  24
BRANCH  19  26
ATOM     26  C   UNL     1      -6.718   2.740  -0.005  1.00  0.00    -0.010 C 
ATOM     27  C   UNL     1      -7.575   3.908  -0.498  1.00  0.00     0.008 C 
BRANCH  26  28
ATOM     28  C   UNL     1      -6.436   2.778   1.525  1.00  0.00     0.008 C 
BRANCH  28  29
ATOM     29  C   UNL     1      -5.467   3.740   2.229  1.00  0.00     0.027 C 
BRANCH  29  30
ATOM     30  C   UNL     1      -5.434   5.179   1.803  1.00  0.00    -0.028 C 
ATOM     31  C   UNL     1      -4.545   6.096   2.237  1.00  0.00    -0.080 C 
ATOM     32  C   UNL     1      -4.513   7.483   1.658  1.00  0.00     0.039 C 
ATOM     33  C   UNL     1      -3.524   5.831   3.312  1.00  0.00     0.039 C 
ENDBRANCH  29  30
ENDBRANCH  28  29
ENDBRANCH  26  28
ENDBRANCH  19  26
ENDBRANCH   5   6
ENDBRANCH   4   5
ENDBRANCH   2   4
ENDBRANCH   1   2
BRANCH   1  34
ATOM     34  C   UNL     1       2.374   1.324   1.886  1.00  0.00     0.274 C 
BRANCH  34  35
ATOM     35  C   UNL     1       1.891   2.564   2.635  1.00  0.00     0.275 C 
BRANCH  35  36
ATOM     36  O   UNL     1       1.375   2.188   3.923  1.00  0.00    -0.458 OA
BRANCH  36  37
ATOM     37  C   UNL     1       0.031   2.105   4.013  1.00  0.00     0.338 C 
ATOM     38  O   UNL     1      -0.795   2.432   3.171  1.00  0.00    -0.246 OA
BRANCH  37  39
ATOM     39  C   UNL     1      -0.321   1.406   5.252  1.00  0.00     0.060 A 
ATOM     40  C   UNL     1      -0.938   0.155   5.157  1.00  0.00     0.016 A 
ATOM     41  C   UNL     1      -0.076   1.993   6.493  1.00  0.00     0.016 A 
ATOM     42  C   UNL     1      -1.306  -0.527   6.312  1.00  0.00     0.010 A 
ATOM     43  C   UNL     1      -0.452   1.311   7.650  1.00  0.00     0.010 A 
ATOM     44  C   UNL     1      -1.074   0.053   7.565  1.00  0.00    -0.014 A 
BRANCH  44  45
ATOM     45  C   UNL     1      -1.532  -0.629   8.794  1.00  0.00     0.031 A 
ATOM     46  C   UNL     1      -2.748  -0.117   9.508  1.00  0.00     0.074 A 
ATOM     47  C   UNL     1      -0.839  -1.677   9.275  1.00  0.00     0.049 A 
ATOM     48  N   UNL     1      -3.255  -0.495  10.651  1.00  0.00    -0.248 NA
ATOM     49  C   UNL     1      -3.488   0.973   8.850  1.00  0.00     0.031 C 
ATOM     50  C   UNL     1       0.348  -2.261   8.650  1.00  0.00     0.029 A 
ATOM     51  N   UNL     1      -1.018  -2.418  10.415  1.00  0.00    -0.354 N 
ATOM     52  C   UNL     1      -4.348   0.334  10.871  1.00  0.00     0.074 A 
ATOM     53  C   UNL     1      -4.431   1.236   9.743  1.00  0.00     0.031 C 
ATOM     54  C   UNL     1       0.807  -3.254   9.429  1.00  0.00     0.029 A 
ATOM     55  C   UNL     1      -0.030  -3.351  10.621  1.00  0.00     0.049 A 
ATOM     56  H   UNL     1      -1.780  -2.293  11.026  1.00  0.00     0.167 HD
ATOM     57  C   UNL     1      -5.208   0.333  11.916  1.00  0.00     0.034 A 
ATOM     58  C   UNL     1       0.189  -4.168  11.670  1.00  0.00     0.034 A 
ATOM     59  C   UNL     1      -5.127  -0.585  13.020  1.00  0.00     0.049 A 
ATOM     60  C   UNL     1      -0.775  -4.137  12.826  1.00  0.00     0.074 A 
ATOM     61  C   UNL     1      -5.965  -0.692  14.115  1.00  0.00     0.029 A 
ATOM     62  N   UNL     1      -4.145  -1.553  13.171  1.00  0.00    -0.354 N 
ATOM     63  N   UNL     1      -1.857  -3.410  12.980  1.00  0.00    -0.248 NA
ATOM     64  C   UNL     1      -0.505  -5.056  13.941  1.00  0.00     0.031 C 
ATOM     65  C   UNL     1      -5.479  -1.714  14.938  1.00  0.00     0.029 A 
ATOM     66  C   UNL     1      -4.351  -2.259  14.343  1.00  0.00     0.049 A 
ATOM     67  H   UNL     1      -3.409  -1.714  12.537  1.00  0.00     0.167 HD
ATOM     68  C   UNL     1      -2.413  -3.804  14.192  1.00  0.00     0.074 A 
ATOM     69  C   UNL     1      -1.560  -4.851  14.719  1.00  0.00     0.031 C 
ATOM     70  C   UNL     1      -3.518  -3.333  14.821  1.00  0.00     0.034 A 
BRANCH  57  71
ATOM     71  C   UNL     1      -6.322   1.346  11.902  1.00  0.00     0.023 A 
ATOM     72  C   UNL     1      -7.409   1.175  11.020  1.00  0.00     0.012 A 
ATOM     73  C   UNL     1      -6.315   2.443  12.786  1.00  0.00     0.148 A 
ATOM     74  C   UNL     1      -8.455   2.097  10.996  1.00  0.00     0.002 A 
ATOM     75  C   UNL     1      -7.381   3.335  12.783  1.00  0.00     0.091 A 
ATOM     76  F   UNL     1      -5.261   2.602  13.599  1.00  0.00    -0.205 F 
ATOM     77  C   UNL     1      -8.446   3.170  11.883  1.00  0.00     0.022 A 
BRANCH  75  78
ATOM     78  S   UNL     1      -7.495   4.711  13.934  1.00  0.00     0.127 S 
ATOM     79  O   UNL     1      -7.254   5.853  13.053  1.00  0.00    -0.237 OA
ATOM     80  O   UNL     1      -8.871   4.595  14.418  1.00  0.00    -0.237 OA
ATOM     81  O   UNL     1      -6.474   4.474  14.944  1.00  0.00    -0.744 OA
ENDBRANCH  75  78
ENDBRANCH  57  71
BRANCH  58  82
ATOM     82  C   UNL     1       1.348  -5.105  11.657  1.00  0.00     0.023 A 
ATOM     83  C   UNL     1       1.116  -6.489  11.547  1.00  0.00     0.012 A 
ATOM     84  C   UNL     1       2.674  -4.635  11.723  1.00  0.00     0.148 A 
ATOM     85  C   UNL     1       2.181  -7.391  11.530  1.00  0.00     0.002 A 
ATOM     86  C   UNL     1       3.733  -5.533  11.649  1.00  0.00     0.091 A 
ATOM     87  F   UNL     1       2.876  -3.315  11.847  1.00  0.00    -0.205 F 
ATOM     88  C   UNL     1       3.488  -6.913  11.569  1.00  0.00     0.022 A 
BRANCH  86  89
ATOM     89  S   UNL     1       5.446  -4.997  11.566  1.00  0.00     0.127 S 
ATOM     90  O   UNL     1       5.937  -5.358  12.893  1.00  0.00    -0.237 OA
ATOM     91  O   UNL     1       5.968  -5.817  10.472  1.00  0.00    -0.237 OA
ATOM     92  O   UNL     1       5.395  -3.571  11.275  1.00  0.00    -0.744 OA
ENDBRANCH  86  89
ENDBRANCH  58  82
BRANCH  70  93
ATOM     93  C   UNL     1      -3.889  -3.965  16.137  1.00  0.00     0.023 A 
ATOM     94  C   UNL     1      -3.132  -3.677  17.289  1.00  0.00     0.012 A 
ATOM     95  C   UNL     1      -5.030  -4.784  16.244  1.00  0.00     0.148 A 
ATOM     96  C   UNL     1      -3.488  -4.219  18.523  1.00  0.00     0.002 A 
ATOM     97  C   UNL     1      -5.406  -5.282  17.485  1.00  0.00     0.091 A 
ATOM     98  F   UNL     1      -5.726  -5.063  15.131  1.00  0.00    -0.205 F 
ATOM     99  C   UNL     1      -4.630  -5.010  18.624  1.00  0.00     0.022 A 
BRANCH  97 100
ATOM    100  S   UNL     1      -6.914  -6.229  17.722  1.00  0.00     0.127 S 
ATOM    101  O   UNL     1      -6.393  -7.585  17.882  1.00  0.00    -0.237 OA
ATOM    102  O   UNL     1      -7.465  -5.639  18.943  1.00  0.00    -0.237 OA
ATOM    103  O   UNL     1      -7.719  -6.002  16.529  1.00  0.00    -0.744 OA
ENDBRANCH  97 100
ENDBRANCH  70  93
ENDBRANCH  44  45
ENDBRANCH  37  39
ENDBRANCH  36  37
ENDBRANCH  35  36
ENDBRANCH  34  35
ENDBRANCH   1  34
TORSDOF 22
