REMARK SMILES CCC[N@@H+]1CC2(CC[NH+](c3nccnc3C)CC2)C[C@H]1C(=O)OCCOC(=O)c1ccc(-c2c3nc(c(-c4cccc(S(=O)(=O)[O-])c4F)c4ccc([nH]4)c(-c4cccc(S(=O)(=O)[O-])c4F)c4nc(c(-c5cccc(S(=O)(=O)[O-])c5F)c5ccc2[nH]5)C=C4)C=C3)cc1
REMARK SMILES IDX 25 1 24 2 23 3 21 4 22 5 20 6 4 7 5 8 6 10 19 11 7 12 18 13
REMARK SMILES IDX 8 14 17 15 9 16 3 18 2 19 1 20 10 21 11 22 15 23 12 24 14 25
REMARK SMILES IDX 16 26 13 27 26 28 27 29 28 30 29 31 30 32 91 33 31 34 90 35
REMARK SMILES IDX 32 36 33 37 34 38 84 39 35 40 89 41 83 42 85 43 36 44 88 45
REMARK SMILES IDX 82 46 81 47 37 49 69 50 49 51 68 52 50 53 53 54 67 55 86 56
REMARK SMILES IDX 51 57 52 58 66 60 87 61 54 62 38 63 39 64 47 65 40 66 42 67
REMARK SMILES IDX 48 68 41 69 43 70 44 71 45 72 46 73 70 74 71 75 79 76 72 77
REMARK SMILES IDX 74 78 80 79 73 80 75 81 76 82 77 83 78 84 55 85 56 86 64 87
REMARK SMILES IDX 57 88 59 89 65 90 58 91 60 92 61 93 62 94 63 95
REMARK H PARENT 4 9 9 17 85 48 53 59
REMARK Flexibility Score: inf
ROOT
ATOM      1  C   UNL     1      -1.427  -6.730   1.217  1.00  0.00     0.275 C 
ENDROOT
BRANCH   1   2
ATOM      2  C   UNL     1      -0.326  -6.047   2.026  1.00  0.00     0.274 C 
BRANCH   2   3
ATOM      3  O   UNL     1       0.147  -4.862   1.359  1.00  0.00    -0.458 OA
BRANCH   3   4
ATOM      4  C   UNL     1       1.319  -4.991   0.685  1.00  0.00     0.365 C 
ATOM      5  O   UNL     1       2.001  -6.013   0.683  1.00  0.00    -0.245 OA
BRANCH   4   6
ATOM      6  C   UNL     1       1.778  -3.729  -0.058  1.00  0.00     0.295 C 
ATOM      7  N   UNL     1       0.784  -2.621  -0.132  1.00  0.00    -0.323 N 
ATOM      8  C   UNL     1       0.966  -1.887   1.121  1.00  0.00     0.270 C 
ATOM      9  H   UNL     1      -0.190  -2.915  -0.201  1.00  0.00     0.348 HD
ATOM     10  C   UNL     1       2.451  -2.008   1.517  1.00  0.00     0.036 C 
ATOM     11  C   UNL     1       2.995  -3.147   0.638  1.00  0.00     0.091 C 
ATOM     12  C   UNL     1       2.587  -2.383   3.016  1.00  0.00     0.075 C 
ATOM     13  C   UNL     1       3.242  -0.718   1.196  1.00  0.00     0.075 C 
ATOM     14  C   UNL     1       2.362  -1.194   3.952  1.00  0.00     0.269 C 
ATOM     15  C   UNL     1       2.927   0.418   2.163  1.00  0.00     0.269 C 
ATOM     16  N   UNL     1       3.190  -0.093   3.494  1.00  0.00    -0.284 N 
ATOM     17  H   UNL     1       3.427  -0.248   4.437  1.00  0.00     0.355 HD
BRANCH   7  18
ATOM     18  C   UNL     1       0.997  -1.848  -1.371  1.00  0.00     0.262 C 
BRANCH  18  19
ATOM     19  C   UNL     1       0.041  -0.677  -1.657  1.00  0.00     0.058 C 
ATOM     20  C   UNL     1       0.470   0.671  -1.093  1.00  0.00     0.010 C 
ENDBRANCH  18  19
ENDBRANCH   7  18
BRANCH  16  21
ATOM     21  C   UNL     1       3.894   0.707   4.362  1.00  0.00     0.247 A 
ATOM     22  N   UNL     1       3.585   2.026   4.378  1.00  0.00    -0.202 NA
ATOM     23  C   UNL     1       4.977   0.228   5.130  1.00  0.00     0.119 A 
ATOM     24  C   UNL     1       4.338   2.823   5.164  1.00  0.00     0.137 A 
ATOM     25  N   UNL     1       5.718   1.038   5.939  1.00  0.00    -0.252 NA
ATOM     26  C   UNL     1       5.441  -1.197   5.058  1.00  0.00     0.075 C 
ATOM     27  C   UNL     1       5.379   2.341   5.929  1.00  0.00     0.132 A 
ENDBRANCH  16  21
ENDBRANCH   4   6
ENDBRANCH   3   4
ENDBRANCH   2   3
ENDBRANCH   1   2
BRANCH   1  28
ATOM     28  O   UNL     1      -0.928  -7.176  -0.055  1.00  0.00    -0.458 OA
BRANCH  28  29
ATOM     29  C   UNL     1      -1.231  -6.383  -1.107  1.00  0.00     0.338 C 
ATOM     30  O   UNL     1      -1.919  -5.373  -1.109  1.00  0.00    -0.246 OA
BRANCH  29  31
ATOM     31  C   UNL     1      -0.531  -6.878  -2.296  1.00  0.00     0.060 A 
ATOM     32  C   UNL     1       0.709  -6.328  -2.620  1.00  0.00     0.016 A 
ATOM     33  C   UNL     1      -1.127  -7.819  -3.131  1.00  0.00     0.016 A 
ATOM     34  C   UNL     1       1.362  -6.697  -3.788  1.00  0.00     0.010 A 
ATOM     35  C   UNL     1      -0.458  -8.216  -4.291  1.00  0.00     0.010 A 
ATOM     36  C   UNL     1       0.785  -7.649  -4.632  1.00  0.00    -0.014 A 
BRANCH  36  37
ATOM     37  C   UNL     1       1.465  -8.039  -5.888  1.00  0.00     0.031 A 
ATOM     38  C   UNL     1       0.859  -7.659  -7.206  1.00  0.00     0.074 A 
ATOM     39  C   UNL     1       2.606  -8.751  -5.835  1.00  0.00     0.049 A 
ATOM     40  N   UNL     1       1.191  -8.047  -8.408  1.00  0.00    -0.248 NA
ATOM     41  C   UNL     1      -0.277  -6.722  -7.167  1.00  0.00     0.031 C 
ATOM     42  C   UNL     1       3.304  -9.139  -4.607  1.00  0.00     0.029 A 
ATOM     43  N   UNL     1       3.365  -9.300  -6.837  1.00  0.00    -0.354 N 
ATOM     44  C   UNL     1       0.277  -7.447  -9.264  1.00  0.00     0.074 A 
ATOM     45  C   UNL     1      -0.620  -6.660  -8.446  1.00  0.00     0.031 C 
ATOM     46  C   UNL     1       4.377  -9.880  -4.928  1.00  0.00     0.029 A 
ATOM     47  C   UNL     1       4.407 -10.069  -6.374  1.00  0.00     0.049 A 
ATOM     48  H   UNL     1       3.181  -9.158  -7.794  1.00  0.00     0.167 HD
ATOM     49  C   UNL     1       0.201  -7.541 -10.612  1.00  0.00     0.034 A 
ATOM     50  C   UNL     1       5.260 -10.873  -7.038  1.00  0.00     0.034 A 
ATOM     51  C   UNL     1       1.126  -8.293 -11.416  1.00  0.00     0.049 A 
ATOM     52  C   UNL     1       5.124 -10.993  -8.531  1.00  0.00     0.074 A 
ATOM     53  C   UNL     1       1.158  -8.429 -12.792  1.00  0.00     0.029 A 
ATOM     54  N   UNL     1       2.185  -9.035 -10.914  1.00  0.00    -0.354 N 
ATOM     55  N   UNL     1       4.294 -10.374  -9.337  1.00  0.00    -0.248 NA
ATOM     56  C   UNL     1       6.046 -11.915  -9.210  1.00  0.00     0.031 C 
ATOM     57  C   UNL     1       2.230  -9.264 -13.122  1.00  0.00     0.029 A 
ATOM     58  C   UNL     1       2.872  -9.640 -11.951  1.00  0.00     0.049 A 
ATOM     59  H   UNL     1       2.413  -9.119  -9.960  1.00  0.00     0.167 HD
ATOM     60  C   UNL     1       4.605 -10.816 -10.617  1.00  0.00     0.074 A 
ATOM     61  C   UNL     1       5.718 -11.735 -10.483  1.00  0.00     0.031 C 
ATOM     62  C   UNL     1       4.010 -10.509 -11.796  1.00  0.00     0.034 A 
BRANCH  49  63
ATOM     63  C   UNL     1      -0.904  -6.793 -11.306  1.00  0.00     0.023 A 
ATOM     64  C   UNL     1      -0.802  -5.397 -11.468  1.00  0.00     0.012 A 
ATOM     65  C   UNL     1      -2.013  -7.474 -11.844  1.00  0.00     0.148 A 
ATOM     66  C   UNL     1      -1.798  -4.687 -12.137  1.00  0.00     0.002 A 
ATOM     67  C   UNL     1      -2.985  -6.764 -12.540  1.00  0.00     0.091 A 
ATOM     68  F   UNL     1      -2.103  -8.799 -11.656  1.00  0.00    -0.205 F 
ATOM     69  C   UNL     1      -2.882  -5.370 -12.681  1.00  0.00     0.022 A 
BRANCH  67  70
ATOM     70  S   UNL     1      -4.386  -7.562 -13.332  1.00  0.00     0.127 S 
ATOM     71  O   UNL     1      -5.488  -7.157 -12.460  1.00  0.00    -0.237 OA
ATOM     72  O   UNL     1      -4.393  -6.935 -14.654  1.00  0.00    -0.237 OA
ATOM     73  O   UNL     1      -4.085  -8.987 -13.339  1.00  0.00    -0.744 OA
ENDBRANCH  67  70
ENDBRANCH  49  63
BRANCH  50  74
ATOM     74  C   UNL     1       6.316 -11.617  -6.296  1.00  0.00     0.023 A 
ATOM     75  C   UNL     1       7.666 -11.260  -6.475  1.00  0.00     0.012 A 
ATOM     76  C   UNL     1       5.994 -12.648  -5.391  1.00  0.00     0.148 A 
ATOM     77  C   UNL     1       8.677 -11.929  -5.783  1.00  0.00     0.002 A 
ATOM     78  C   UNL     1       7.001 -13.273  -4.664  1.00  0.00     0.091 A 
ATOM     79  F   UNL     1       4.707 -12.996  -5.253  1.00  0.00    -0.205 F 
ATOM     80  C   UNL     1       8.344 -12.925  -4.869  1.00  0.00     0.022 A 
BRANCH  78  81
ATOM     81  S   UNL     1       6.639 -14.467  -3.371  1.00  0.00     0.127 S 
ATOM     82  O   UNL     1       6.920 -15.732  -4.044  1.00  0.00    -0.237 OA
ATOM     83  O   UNL     1       7.598 -14.097  -2.329  1.00  0.00    -0.237 OA
ATOM     84  O   UNL     1       5.248 -14.230  -3.008  1.00  0.00    -0.744 OA
ENDBRANCH  78  81
ENDBRANCH  50  74
BRANCH  62  85
ATOM     85  C   UNL     1       4.556 -11.158 -13.038  1.00  0.00     0.023 A 
ATOM     86  C   UNL     1       4.252 -12.507 -13.303  1.00  0.00     0.012 A 
ATOM     87  C   UNL     1       5.291 -10.412 -13.979  1.00  0.00     0.148 A 
ATOM     88  C   UNL     1       4.688 -13.111 -14.480  1.00  0.00     0.002 A 
ATOM     89  C   UNL     1       5.687 -11.009 -15.170  1.00  0.00     0.091 A 
ATOM     90  F   UNL     1       5.583  -9.134 -13.695  1.00  0.00    -0.205 F 
ATOM     91  C   UNL     1       5.394 -12.360 -15.418  1.00  0.00     0.022 A 
BRANCH  89  92
ATOM     92  S   UNL     1       6.522 -10.098 -16.473  1.00  0.00     0.127 S 
ATOM     93  O   UNL     1       7.877 -10.643 -16.396  1.00  0.00    -0.237 OA
ATOM     94  O   UNL     1       5.770 -10.498 -17.663  1.00  0.00    -0.237 OA
ATOM     95  O   UNL     1       6.396  -8.690 -16.124  1.00  0.00    -0.744 OA
ENDBRANCH  89  92
ENDBRANCH  62  85
ENDBRANCH  36  37
ENDBRANCH  29  31
ENDBRANCH  28  29
ENDBRANCH   1  28
TORSDOF 17
