REMARK SMILES CCn1c(C(=O)OCCOC(=O)c2ccc(-c3c4nc(c(-c5cccc(S(=O)(=O)[O-])c5F)c5ccc([nH]5)c(-c5cccc(S(=O)(=O)[O-])c5F)c5nc(c(-c6cccc(S(=O)(=O)[O-])c6F)c6ccc3[nH]6)C=C5)C=C4)cc2)c(C[NH2+]Cc2ccccc2Cl)c2ccc(C)cc21
REMARK SMILES IDX 8 1 7 2 5 3 6 4 4 5 3 6 93 7 76 8 87 9 92 10 88 11 90 12
REMARK SMILES IDX 89 13 91 14 2 15 1 16 77 17 78 18 79 21 80 22 81 23 85 24
REMARK SMILES IDX 82 25 84 26 86 27 83 28 9 29 10 30 11 31 12 32 13 33 14 34
REMARK SMILES IDX 75 35 15 36 74 37 16 38 17 39 18 40 68 41 19 42 73 43 67 44
REMARK SMILES IDX 69 45 20 46 72 47 66 48 65 49 21 51 53 52 33 53 52 54 34 55
REMARK SMILES IDX 37 56 51 57 70 58 35 59 36 60 50 62 71 63 38 64 22 65 23 66
REMARK SMILES IDX 31 67 24 68 26 69 32 70 25 71 27 72 28 73 29 74 30 75 54 76
REMARK SMILES IDX 55 77 63 78 56 79 58 80 64 81 57 82 59 83 60 84 61 85 62 86
REMARK SMILES IDX 39 87 40 88 48 89 41 90 43 91 49 92 42 93 44 94 45 95 46 96
REMARK SMILES IDX 47 97
REMARK H PARENT 78 19 78 20 69 50 37 61
REMARK Flexibility Score: inf
ROOT
ATOM      1  C   UNL     1      -1.141  -3.920   0.745  1.00  0.00     0.275 C 
ENDROOT
BRANCH   1   2
ATOM      2  O   UNL     1       0.015  -3.454  -0.001  1.00  0.00    -0.457 OA
BRANCH   2   3
ATOM      3  C   UNL     1      -0.252  -3.127  -1.304  1.00  0.00     0.355 C 
ATOM      4  O   UNL     1      -1.380  -3.145  -1.779  1.00  0.00    -0.244 OA
BRANCH   3   5
ATOM      5  C   UNL     1       0.953  -2.965  -2.111  1.00  0.00     0.137 A 
ATOM      6  N   UNL     1       1.815  -1.921  -2.409  1.00  0.00    -0.335 N 
ATOM      7  C   UNL     1       2.275  -2.111  -3.709  1.00  0.00     0.049 A 
ATOM      8  C   UNL     1       1.313  -3.999  -2.980  1.00  0.00     0.047 A 
ATOM      9  C   UNL     1       2.162  -3.463  -3.991  1.00  0.00     0.009 A 
ATOM     10  C   UNL     1       2.884  -1.191  -4.574  1.00  0.00     0.030 A 
ATOM     11  C   UNL     1       2.815  -3.941  -5.143  1.00  0.00     0.011 A 
ATOM     12  C   UNL     1       3.560  -1.674  -5.688  1.00  0.00    -0.049 A 
ATOM     13  C   UNL     1       3.533  -3.042  -5.959  1.00  0.00     0.004 A 
ATOM     14  C   UNL     1       4.298  -0.684  -6.541  1.00  0.00     0.044 C 
BRANCH   6  15
ATOM     15  C   UNL     1       2.336  -0.738  -1.733  1.00  0.00     0.119 C 
ATOM     16  C   UNL     1       2.594  -0.682  -0.243  1.00  0.00     0.027 C 
ENDBRANCH   6  15
BRANCH   8  17
ATOM     17  C   UNL     1       0.801  -5.392  -2.801  1.00  0.00     0.300 C 
BRANCH  17  18
ATOM     18  N   UNL     1       1.381  -5.812  -1.513  1.00  0.00    -0.339 N 
ATOM     19  H   UNL     1       0.872  -5.337  -0.767  1.00  0.00     0.346 HD
ATOM     20  H   UNL     1       2.369  -5.564  -1.552  1.00  0.00     0.346 HD
BRANCH  18  21
ATOM     21  C   UNL     1       1.332  -7.241  -1.252  1.00  0.00     0.299 C 
BRANCH  21  22
ATOM     22  C   UNL     1       2.029  -8.106  -2.277  1.00  0.00     0.025 A 
ATOM     23  C   UNL     1       2.975  -7.566  -3.172  1.00  0.00     0.011 A 
ATOM     24  C   UNL     1       1.688  -9.457  -2.416  1.00  0.00     0.049 A 
ATOM     25  C   UNL     1       3.389  -8.278  -4.293  1.00  0.00     0.001 A 
ATOM     26  C   UNL     1       2.141 -10.188  -3.517  1.00  0.00     0.021 A 
ATOM     27  Cl  UNL     1       0.697 -10.274  -1.258  1.00  0.00    -0.084 Cl
ATOM     28  C   UNL     1       2.950  -9.583  -4.478  1.00  0.00     0.002 A 
ENDBRANCH  21  22
ENDBRANCH  18  21
ENDBRANCH  17  18
ENDBRANCH   8  17
ENDBRANCH   3   5
ENDBRANCH   2   3
ENDBRANCH   1   2
BRANCH   1  29
ATOM     29  C   UNL     1      -1.149  -3.325   2.161  1.00  0.00     0.275 C 
BRANCH  29  30
ATOM     30  O   UNL     1      -1.846  -2.052   2.126  1.00  0.00    -0.458 OA
BRANCH  30  31
ATOM     31  C   UNL     1      -1.082  -0.933   2.229  1.00  0.00     0.338 C 
ATOM     32  O   UNL     1      -0.058  -0.812   2.893  1.00  0.00    -0.246 OA
BRANCH  31  33
ATOM     33  C   UNL     1      -1.366  -0.159   1.004  1.00  0.00     0.060 A 
ATOM     34  C   UNL     1      -2.358   0.774   0.738  1.00  0.00     0.016 A 
ATOM     35  C   UNL     1      -0.540  -0.541  -0.026  1.00  0.00     0.016 A 
ATOM     36  C   UNL     1      -2.573   1.184  -0.608  1.00  0.00     0.010 A 
ATOM     37  C   UNL     1      -0.793  -0.191  -1.333  1.00  0.00     0.010 A 
ATOM     38  C   UNL     1      -1.848   0.610  -1.669  1.00  0.00    -0.014 A 
BRANCH  38  39
ATOM     39  C   UNL     1      -1.822   0.993  -3.093  1.00  0.00     0.031 A 
ATOM     40  C   UNL     1      -1.200   2.324  -3.272  1.00  0.00     0.074 A 
ATOM     41  C   UNL     1      -1.939   0.230  -4.214  1.00  0.00     0.049 A 
ATOM     42  N   UNL     1      -1.794   3.442  -3.033  1.00  0.00    -0.248 NA
ATOM     43  C   UNL     1       0.244   2.466  -3.519  1.00  0.00     0.031 C 
ATOM     44  C   UNL     1      -2.101  -1.218  -4.384  1.00  0.00     0.029 A 
ATOM     45  N   UNL     1      -1.891   0.657  -5.517  1.00  0.00    -0.354 N 
ATOM     46  C   UNL     1      -0.912   4.415  -3.459  1.00  0.00     0.074 A 
ATOM     47  C   UNL     1       0.388   3.795  -3.443  1.00  0.00     0.031 C 
ATOM     48  C   UNL     1      -1.993  -1.556  -5.699  1.00  0.00     0.029 A 
ATOM     49  C   UNL     1      -1.931  -0.343  -6.493  1.00  0.00     0.049 A 
ATOM     50  H   UNL     1      -1.831   1.612  -5.750  1.00  0.00     0.167 HD
ATOM     51  C   UNL     1      -1.378   5.527  -4.093  1.00  0.00     0.034 A 
ATOM     52  C   UNL     1      -1.983  -0.154  -7.843  1.00  0.00     0.034 A 
ATOM     53  C   UNL     1      -2.828   5.495  -4.181  1.00  0.00     0.049 A 
ATOM     54  C   UNL     1      -2.619   1.174  -8.024  1.00  0.00     0.074 A 
ATOM     55  C   UNL     1      -3.864   5.344  -3.278  1.00  0.00     0.029 A 
ATOM     56  N   UNL     1      -3.354   5.150  -5.408  1.00  0.00    -0.354 N 
ATOM     57  N   UNL     1      -3.845   1.444  -7.673  1.00  0.00    -0.248 NA
ATOM     58  C   UNL     1      -1.754   2.321  -8.232  1.00  0.00     0.031 C 
ATOM     59  C   UNL     1      -4.776   4.447  -3.914  1.00  0.00     0.029 A 
ATOM     60  C   UNL     1      -4.303   4.183  -5.200  1.00  0.00     0.049 A 
ATOM     61  H   UNL     1      -3.095   5.530  -6.278  1.00  0.00     0.167 HD
ATOM     62  C   UNL     1      -3.766   2.724  -7.144  1.00  0.00     0.074 A 
ATOM     63  C   UNL     1      -2.487   3.251  -7.615  1.00  0.00     0.031 C 
ATOM     64  C   UNL     1      -4.598   3.120  -6.138  1.00  0.00     0.034 A 
BRANCH  51  65
ATOM     65  C   UNL     1      -0.598   6.461  -4.977  1.00  0.00     0.023 A 
ATOM     66  C   UNL     1      -1.225   7.693  -5.274  1.00  0.00     0.012 A 
ATOM     67  C   UNL     1       0.562   6.133  -5.708  1.00  0.00     0.148 A 
ATOM     68  C   UNL     1      -0.757   8.533  -6.284  1.00  0.00     0.002 A 
ATOM     69  C   UNL     1       1.062   7.003  -6.673  1.00  0.00     0.091 A 
ATOM     70  F   UNL     1       1.123   4.928  -5.571  1.00  0.00    -0.205 F 
ATOM     71  C   UNL     1       0.392   8.190  -6.981  1.00  0.00     0.022 A 
BRANCH  69  72
ATOM     72  S   UNL     1       2.553   6.634  -7.606  1.00  0.00     0.127 S 
ATOM     73  O   UNL     1       2.000   6.325  -8.922  1.00  0.00    -0.237 OA
ATOM     74  O   UNL     1       3.280   7.900  -7.519  1.00  0.00    -0.237 OA
ATOM     75  O   UNL     1       3.189   5.527  -6.905  1.00  0.00    -0.744 OA
ENDBRANCH  69  72
ENDBRANCH  51  65
BRANCH  52  76
ATOM     76  C   UNL     1      -1.449  -0.882  -9.033  1.00  0.00     0.023 A 
ATOM     77  C   UNL     1      -1.881  -0.492 -10.328  1.00  0.00     0.012 A 
ATOM     78  C   UNL     1      -0.285  -1.674  -8.950  1.00  0.00     0.148 A 
ATOM     79  C   UNL     1      -1.137  -0.793 -11.478  1.00  0.00     0.002 A 
ATOM     80  C   UNL     1       0.451  -1.978 -10.102  1.00  0.00     0.091 A 
ATOM     81  F   UNL     1       0.156  -2.042  -7.740  1.00  0.00    -0.205 F 
ATOM     82  C   UNL     1       0.040  -1.520 -11.362  1.00  0.00     0.022 A 
BRANCH  80  83
ATOM     83  S   UNL     1       1.987  -2.915 -10.040  1.00  0.00     0.127 S 
ATOM     84  O   UNL     1       1.911  -3.727 -11.256  1.00  0.00    -0.237 OA
ATOM     85  O   UNL     1       2.996  -1.861 -10.076  1.00  0.00    -0.237 OA
ATOM     86  O   UNL     1       1.919  -3.695  -8.811  1.00  0.00    -0.744 OA
ENDBRANCH  80  83
ENDBRANCH  52  76
BRANCH  64  87
ATOM     87  C   UNL     1      -5.791   2.257  -5.805  1.00  0.00     0.023 A 
ATOM     88  C   UNL     1      -5.668   0.965  -5.251  1.00  0.00     0.012 A 
ATOM     89  C   UNL     1      -7.063   2.851  -5.862  1.00  0.00     0.148 A 
ATOM     90  C   UNL     1      -6.786   0.290  -4.750  1.00  0.00     0.002 A 
ATOM     91  C   UNL     1      -8.165   2.193  -5.332  1.00  0.00     0.091 A 
ATOM     92  F   UNL     1      -7.159   4.079  -6.393  1.00  0.00    -0.205 F 
ATOM     93  C   UNL     1      -8.032   0.911  -4.775  1.00  0.00     0.022 A 
BRANCH  91  94
ATOM     94  S   UNL     1      -9.779   2.971  -5.243  1.00  0.00     0.127 S 
ATOM     95  O   UNL     1     -10.576   2.126  -6.131  1.00  0.00    -0.237 OA
ATOM     96  O   UNL     1     -10.105   2.845  -3.822  1.00  0.00    -0.237 OA
ATOM     97  O   UNL     1      -9.596   4.344  -5.698  1.00  0.00    -0.744 OA
ENDBRANCH  91  94
ENDBRANCH  64  87
ENDBRANCH  38  39
ENDBRANCH  31  33
ENDBRANCH  30  31
ENDBRANCH  29  30
ENDBRANCH   1  29
TORSDOF 19
