REMARK SMILES C[C@H](C(=O)Nc1ccc(C(F)(F)F)cc1)n1nc(C(=O)OCCOC(=O)c2ccc(-c3c4nc(c(-c5cccc(S(=O)(=O)[O-])c5F)c5ccc([nH]5)c(-c5cccc(S(=O)(=O)[O-])c5F)c5nc(c(-c6cccc(S(=O)(=O)[O-])c6F)c6ccc3[nH]6)C=C5)C=C4)cc2)c2ccccc2c1=O
REMARK SMILES IDX 22 1 21 2 19 3 20 4 18 5 16 6 17 7 96 8 95 9 97 10 90 11
REMARK SMILES IDX 94 12 91 13 93 14 92 15 2 16 1 17 3 18 4 19 5 20 6 22 7 23
REMARK SMILES IDX 15 24 8 25 14 26 9 27 10 28 11 29 12 30 13 31 23 32 24 33
REMARK SMILES IDX 25 34 26 35 27 36 28 37 89 38 29 39 88 40 30 41 31 42 32 43
REMARK SMILES IDX 82 44 33 45 87 46 81 47 83 48 34 49 86 50 80 51 79 52 35 54
REMARK SMILES IDX 67 55 47 56 66 57 48 58 51 59 65 60 84 61 49 62 50 63 64 65
REMARK SMILES IDX 85 66 52 67 36 68 37 69 45 70 38 71 40 72 46 73 39 74 41 75
REMARK SMILES IDX 42 76 43 77 44 78 68 79 69 80 77 81 70 82 72 83 78 84 71 85
REMARK SMILES IDX 73 86 74 87 75 88 76 89 53 90 54 91 62 92 55 93 57 94 63 95
REMARK SMILES IDX 56 96 58 97 59 98 60 99 61 100
REMARK H PARENT 5 21 83 53 51 64
REMARK Flexibility Score: inf
ROOT
ATOM      1  C   UNL     1      -4.110   3.751   1.345  1.00  0.00     0.275 C 
ENDROOT
BRANCH   1   2
ATOM      2  O   UNL     1      -3.322   3.308   0.231  1.00  0.00    -0.457 OA
BRANCH   2   3
ATOM      3  C   UNL     1      -3.604   2.058  -0.170  1.00  0.00     0.359 C 
ATOM      4  O   UNL     1      -4.356   1.266   0.377  1.00  0.00    -0.244 OA
BRANCH   3   5
ATOM      5  C   UNL     1      -2.684   1.577  -1.276  1.00  0.00     0.176 A 
ATOM      6  N   UNL     1      -0.653   0.663  -0.924  1.00  0.00    -0.216 N 
ATOM      7  N   UNL     1      -1.430   1.810  -1.048  1.00  0.00    -0.161 NA
ATOM      8  C   UNL     1      -1.300  -0.592  -0.764  1.00  0.00     0.275 A 
ATOM      9  C   UNL     1      -2.501  -0.756  -1.623  1.00  0.00     0.051 A 
ATOM     10  O   UNL     1      -0.888  -1.528  -0.089  1.00  0.00    -0.267 OA
ATOM     11  C   UNL     1      -3.110   0.412  -2.048  1.00  0.00     0.022 A 
ATOM     12  C   UNL     1      -2.938  -1.985  -2.109  1.00  0.00     0.014 A 
ATOM     13  C   UNL     1      -4.037   0.414  -3.086  1.00  0.00     0.011 A 
ATOM     14  C   UNL     1      -3.911  -2.010  -3.115  1.00  0.00     0.001 A 
ATOM     15  C   UNL     1      -4.425  -0.813  -3.631  1.00  0.00     0.001 A 
BRANCH   6  16
ATOM     16  C   UNL     1       0.659   0.915  -0.316  1.00  0.00     0.197 C 
ATOM     17  C   UNL     1       1.268   2.251  -0.781  1.00  0.00     0.044 C 
BRANCH  16  18
ATOM     18  C   UNL     1       1.708  -0.208  -0.432  1.00  0.00     0.249 C 
ATOM     19  O   UNL     1       2.607  -0.285   0.418  1.00  0.00    -0.272 OA
ATOM     20  N   UNL     1       1.724  -1.125  -1.446  1.00  0.00    -0.324 N 
ATOM     21  H   UNL     1       2.287  -1.915  -1.276  1.00  0.00     0.170 HD
BRANCH  20  22
ATOM     22  C   UNL     1       1.073  -1.127  -2.683  1.00  0.00     0.041 A 
ATOM     23  C   UNL     1       0.539  -2.333  -3.142  1.00  0.00     0.027 A 
ATOM     24  C   UNL     1       0.947   0.019  -3.465  1.00  0.00     0.027 A 
ATOM     25  C   UNL     1      -0.204  -2.366  -4.325  1.00  0.00     0.015 A 
ATOM     26  C   UNL     1       0.218  -0.014  -4.655  1.00  0.00     0.015 A 
ATOM     27  C   UNL     1      -0.390  -1.201  -5.083  1.00  0.00     0.056 A 
BRANCH  27  28
ATOM     28  C   UNL     1      -1.205  -1.236  -6.353  1.00  0.00     0.416 C 
ATOM     29  F   UNL     1      -0.514  -1.790  -7.387  1.00  0.00    -0.166 F 
ATOM     30  F   UNL     1      -2.347  -1.964  -6.229  1.00  0.00    -0.166 F 
ATOM     31  F   UNL     1      -1.591  -0.001  -6.779  1.00  0.00    -0.166 F 
ENDBRANCH  27  28
ENDBRANCH  20  22
ENDBRANCH  16  18
ENDBRANCH   6  16
ENDBRANCH   3   5
ENDBRANCH   2   3
ENDBRANCH   1   2
BRANCH   1  32
ATOM     32  C   UNL     1      -5.324   4.526   0.838  1.00  0.00     0.275 C 
BRANCH  32  33
ATOM     33  O   UNL     1      -6.273   3.658   0.184  1.00  0.00    -0.458 OA
BRANCH  33  34
ATOM     34  C   UNL     1      -6.087   3.497  -1.147  1.00  0.00     0.338 C 
ATOM     35  O   UNL     1      -5.212   3.987  -1.837  1.00  0.00    -0.246 OA
BRANCH  34  36
ATOM     36  C   UNL     1      -7.054   2.542  -1.701  1.00  0.00     0.060 A 
ATOM     37  C   UNL     1      -6.809   1.174  -1.607  1.00  0.00     0.016 A 
ATOM     38  C   UNL     1      -8.081   3.018  -2.510  1.00  0.00     0.016 A 
ATOM     39  C   UNL     1      -7.517   0.283  -2.406  1.00  0.00     0.010 A 
ATOM     40  C   UNL     1      -8.864   2.107  -3.222  1.00  0.00     0.010 A 
ATOM     41  C   UNL     1      -8.566   0.732  -3.213  1.00  0.00    -0.014 A 
BRANCH  41  42
ATOM     42  C   UNL     1      -9.349  -0.213  -4.055  1.00  0.00     0.031 A 
ATOM     43  C   UNL     1      -9.524   0.062  -5.527  1.00  0.00     0.074 A 
ATOM     44  C   UNL     1      -9.958  -1.279  -3.496  1.00  0.00     0.049 A 
ATOM     45  N   UNL     1     -10.395  -0.438  -6.362  1.00  0.00    -0.248 NA
ATOM     46  C   UNL     1      -8.614   1.050  -6.135  1.00  0.00     0.031 C 
ATOM     47  C   UNL     1      -9.846  -1.690  -2.094  1.00  0.00     0.029 A 
ATOM     48  N   UNL     1     -10.832  -2.194  -4.035  1.00  0.00    -0.354 N 
ATOM     49  C   UNL     1     -10.212   0.244  -7.559  1.00  0.00     0.074 A 
ATOM     50  C   UNL     1      -9.119   1.170  -7.356  1.00  0.00     0.031 C 
ATOM     51  C   UNL     1     -10.619  -2.763  -1.881  1.00  0.00     0.029 A 
ATOM     52  C   UNL     1     -11.365  -3.051  -3.097  1.00  0.00     0.049 A 
ATOM     53  H   UNL     1     -11.054  -2.232  -4.993  1.00  0.00     0.167 HD
ATOM     54  C   UNL     1     -10.904   0.113  -8.716  1.00  0.00     0.034 A 
ATOM     55  C   UNL     1     -12.393  -3.918  -3.177  1.00  0.00     0.034 A 
ATOM     56  C   UNL     1     -11.929  -0.873  -8.930  1.00  0.00     0.049 A 
ATOM     57  C   UNL     1     -13.136  -4.043  -4.476  1.00  0.00     0.074 A 
ATOM     58  C   UNL     1     -12.638  -1.135 -10.089  1.00  0.00     0.029 A 
ATOM     59  N   UNL     1     -12.386  -1.763  -7.971  1.00  0.00    -0.354 N 
ATOM     60  N   UNL     1     -12.925  -3.422  -5.610  1.00  0.00    -0.248 NA
ATOM     61  C   UNL     1     -14.254  -4.997  -4.510  1.00  0.00     0.031 C 
ATOM     62  C   UNL     1     -13.543  -2.166  -9.823  1.00  0.00     0.029 A 
ATOM     63  C   UNL     1     -13.372  -2.570  -8.510  1.00  0.00     0.049 A 
ATOM     64  H   UNL     1     -12.058  -1.813  -7.044  1.00  0.00     0.167 HD
ATOM     65  C   UNL     1     -13.857  -3.938  -6.503  1.00  0.00     0.074 A 
ATOM     66  C   UNL     1     -14.621  -4.934  -5.782  1.00  0.00     0.031 C 
ATOM     67  C   UNL     1     -14.072  -3.605  -7.798  1.00  0.00     0.034 A 
BRANCH  54  68
ATOM     68  C   UNL     1     -10.590   1.046  -9.856  1.00  0.00     0.023 A 
ATOM     69  C   UNL     1      -9.420   0.867 -10.618  1.00  0.00     0.012 A 
ATOM     70  C   UNL     1     -11.528   2.025 -10.245  1.00  0.00     0.148 A 
ATOM     71  C   UNL     1      -9.181   1.659 -11.743  1.00  0.00     0.002 A 
ATOM     72  C   UNL     1     -11.305   2.778 -11.391  1.00  0.00     0.091 A 
ATOM     73  F   UNL     1     -12.626   2.190  -9.494  1.00  0.00    -0.205 F 
ATOM     74  C   UNL     1     -10.128   2.602 -12.137  1.00  0.00     0.022 A 
BRANCH  72  75
ATOM     75  S   UNL     1     -12.505   3.953 -12.031  1.00  0.00     0.127 S 
ATOM     76  O   UNL     1     -11.800   5.222 -11.848  1.00  0.00    -0.237 OA
ATOM     77  O   UNL     1     -12.640   3.525 -13.423  1.00  0.00    -0.237 OA
ATOM     78  O   UNL     1     -13.704   3.788 -11.222  1.00  0.00    -0.744 OA
ENDBRANCH  72  75
ENDBRANCH  54  68
BRANCH  55  79
ATOM     79  C   UNL     1     -12.796  -4.715  -1.984  1.00  0.00     0.023 A 
ATOM     80  C   UNL     1     -12.628  -6.113  -1.996  1.00  0.00     0.012 A 
ATOM     81  C   UNL     1     -13.330  -4.100  -0.835  1.00  0.00     0.148 A 
ATOM     82  C   UNL     1     -13.017  -6.885  -0.901  1.00  0.00     0.002 A 
ATOM     83  C   UNL     1     -13.652  -4.867   0.278  1.00  0.00     0.091 A 
ATOM     84  F   UNL     1     -13.506  -2.770  -0.846  1.00  0.00    -0.205 F 
ATOM     85  C   UNL     1     -13.517  -6.263   0.239  1.00  0.00     0.022 A 
BRANCH  83  86
ATOM     86  S   UNL     1     -14.154  -4.123   1.833  1.00  0.00     0.127 S 
ATOM     87  O   UNL     1     -15.596  -4.350   1.823  1.00  0.00    -0.237 OA
ATOM     88  O   UNL     1     -13.411  -4.921   2.810  1.00  0.00    -0.237 OA
ATOM     89  O   UNL     1     -13.725  -2.733   1.752  1.00  0.00    -0.744 OA
ENDBRANCH  83  86
ENDBRANCH  55  79
BRANCH  67  90
ATOM     90  C   UNL     1     -15.126  -4.371  -8.549  1.00  0.00     0.023 A 
ATOM     91  C   UNL     1     -16.490  -4.133  -8.293  1.00  0.00     0.012 A 
ATOM     92  C   UNL     1     -14.756  -5.273  -9.566  1.00  0.00     0.148 A 
ATOM     93  C   UNL     1     -17.472  -4.805  -9.020  1.00  0.00     0.002 A 
ATOM     94  C   UNL     1     -15.739  -5.899 -10.320  1.00  0.00     0.091 A 
ATOM     95  F   UNL     1     -13.451  -5.497  -9.777  1.00  0.00    -0.205 F 
ATOM     96  C   UNL     1     -17.097  -5.677 -10.040  1.00  0.00     0.022 A 
BRANCH  94  97
ATOM     97  S   UNL     1     -15.350  -6.959 -11.716  1.00  0.00     0.127 S 
ATOM     98  O   UNL     1     -15.719  -8.277 -11.201  1.00  0.00    -0.237 OA
ATOM     99  O   UNL     1     -16.238  -6.439 -12.756  1.00  0.00    -0.237 OA
ATOM    100  O   UNL     1     -13.930  -6.770 -11.983  1.00  0.00    -0.744 OA
ENDBRANCH  94  97
ENDBRANCH  67  90
ENDBRANCH  41  42
ENDBRANCH  34  36
ENDBRANCH  33  34
ENDBRANCH  32  33
ENDBRANCH   1  32
TORSDOF 18
