REMARK SMILES CCOc1ccccc1-c1cc(C(=O)OCCOC(=O)c2ccc(-c3c4nc(c(-c5cccc(S(=O)(=O)[O-])c5F)c5ccc([nH]5)c(-c5cccc(S(=O)(=O)[O-])c5F)c5nc(c(-c6cccc(S(=O)(=O)[O-])c6F)c6ccc3[nH]6)C=C5)C=C4)cc2)c2cc(C)cc(C)c2n1
REMARK SMILES IDX 16 1 15 2 13 3 14 4 12 5 10 6 11 7 92 8 91 9 84 10 89 11
REMARK SMILES IDX 85 12 88 13 90 14 86 15 87 16 9 17 4 18 5 19 6 20 8 21 7 22
REMARK SMILES IDX 3 23 2 24 1 25 17 26 18 27 19 28 20 29 21 30 22 31 83 32
REMARK SMILES IDX 23 33 82 34 24 35 25 36 26 37 76 38 27 39 81 40 75 41 77 42
REMARK SMILES IDX 28 43 80 44 74 45 73 46 29 48 61 49 41 50 60 51 42 52 45 53
REMARK SMILES IDX 59 54 78 55 43 56 44 57 58 59 79 60 46 61 30 62 31 63 39 64
REMARK SMILES IDX 32 65 34 66 40 67 33 68 35 69 36 70 37 71 38 72 62 73 63 74
REMARK SMILES IDX 71 75 64 76 66 77 72 78 65 79 67 80 68 81 69 82 70 83 47 84
REMARK SMILES IDX 48 85 56 86 49 87 51 88 57 89 50 90 52 91 53 92 54 93 55 94
REMARK H PARENT 77 47 45 58
REMARK Flexibility Score: inf
ROOT
ATOM      1  C   UNL     1      -2.594   0.654   0.024  1.00  0.00     0.275 C 
ENDROOT
BRANCH   1   2
ATOM      2  O   UNL     1      -1.240   0.149   0.026  1.00  0.00    -0.458 OA
BRANCH   2   3
ATOM      3  C   UNL     1      -1.127  -1.202   0.072  1.00  0.00     0.339 C 
ATOM      4  O   UNL     1      -2.047  -2.002   0.129  1.00  0.00    -0.246 OA
BRANCH   3   5
ATOM      5  C   UNL     1       0.280  -1.634   0.112  1.00  0.00     0.071 A 
ATOM      6  C   UNL     1       2.415  -1.647   0.986  1.00  0.00     0.076 A 
ATOM      7  C   UNL     1       1.196  -1.032   0.956  1.00  0.00     0.045 A 
ATOM      8  N   UNL     1       2.373  -3.003   0.934  1.00  0.00    -0.247 NA
ATOM      9  C   UNL     1       1.739  -3.486  -0.140  1.00  0.00     0.075 A 
ATOM     10  C   UNL     1       0.747  -2.685  -0.693  1.00  0.00     0.015 A 
ATOM     11  C   UNL     1       2.230  -4.581  -0.854  1.00  0.00    -0.024 A 
ATOM     12  C   UNL     1       0.599  -2.706  -2.084  1.00  0.00     0.014 A 
ATOM     13  C   UNL     1       2.024  -4.633  -2.236  1.00  0.00     0.009 A 
ATOM     14  C   UNL     1       3.144  -5.593  -0.232  1.00  0.00     0.047 C 
ATOM     15  C   UNL     1       1.324  -3.609  -2.865  1.00  0.00    -0.050 A 
ATOM     16  C   UNL     1       1.524  -3.362  -4.329  1.00  0.00     0.044 C 
BRANCH   6  17
ATOM     17  C   UNL     1       3.604  -1.179   0.163  1.00  0.00     0.042 A 
ATOM     18  C   UNL     1       3.534  -0.794  -1.203  1.00  0.00     0.128 A 
ATOM     19  C   UNL     1       4.532  -1.269  -2.085  1.00  0.00     0.047 A 
ATOM     20  C   UNL     1       5.627  -2.007  -1.644  1.00  0.00     0.004 A 
ATOM     21  C   UNL     1       4.831  -1.747   0.609  1.00  0.00     0.014 A 
ATOM     22  C   UNL     1       5.807  -2.194  -0.286  1.00  0.00     0.001 A 
BRANCH  18  23
ATOM     23  O   UNL     1       2.499  -0.302  -1.938  1.00  0.00    -0.493 OA
BRANCH  23  24
ATOM     24  C   UNL     1       1.665   0.819  -1.691  1.00  0.00     0.226 C 
ATOM     25  C   UNL     1       2.026   1.845  -0.639  1.00  0.00     0.049 C 
ENDBRANCH  23  24
ENDBRANCH  18  23
ENDBRANCH   6  17
ENDBRANCH   3   5
ENDBRANCH   2   3
ENDBRANCH   1   2
BRANCH   1  26
ATOM     26  C   UNL     1      -3.037   1.049  -1.386  1.00  0.00     0.275 C 
BRANCH  26  27
ATOM     27  O   UNL     1      -3.139  -0.129  -2.202  1.00  0.00    -0.458 OA
BRANCH  27  28
ATOM     28  C   UNL     1      -2.599  -0.065  -3.447  1.00  0.00     0.338 C 
ATOM     29  O   UNL     1      -2.135   0.921  -3.983  1.00  0.00    -0.246 OA
BRANCH  28  30
ATOM     30  C   UNL     1      -2.547  -1.425  -4.043  1.00  0.00     0.060 A 
ATOM     31  C   UNL     1      -2.331  -2.517  -3.219  1.00  0.00     0.016 A 
ATOM     32  C   UNL     1      -2.513  -1.612  -5.426  1.00  0.00     0.016 A 
ATOM     33  C   UNL     1      -1.885  -3.718  -3.765  1.00  0.00     0.010 A 
ATOM     34  C   UNL     1      -2.236  -2.886  -5.966  1.00  0.00     0.010 A 
ATOM     35  C   UNL     1      -1.843  -3.957  -5.147  1.00  0.00    -0.014 A 
BRANCH  35  36
ATOM     36  C   UNL     1      -1.345  -5.280  -5.680  1.00  0.00     0.031 A 
ATOM     37  C   UNL     1      -0.400  -5.366  -6.874  1.00  0.00     0.074 A 
ATOM     38  C   UNL     1      -1.681  -6.441  -5.066  1.00  0.00     0.049 A 
ATOM     39  N   UNL     1      -0.019  -6.424  -7.551  1.00  0.00    -0.248 NA
ATOM     40  C   UNL     1       0.215  -4.119  -7.364  1.00  0.00     0.031 C 
ATOM     41  C   UNL     1      -2.529  -6.567  -3.876  1.00  0.00     0.029 A 
ATOM     42  N   UNL     1      -1.359  -7.751  -5.359  1.00  0.00    -0.354 N 
ATOM     43  C   UNL     1       0.816  -5.965  -8.568  1.00  0.00     0.074 A 
ATOM     44  C   UNL     1       0.926  -4.535  -8.404  1.00  0.00     0.031 C 
ATOM     45  C   UNL     1      -2.607  -7.847  -3.506  1.00  0.00     0.029 A 
ATOM     46  C   UNL     1      -2.004  -8.659  -4.547  1.00  0.00     0.049 A 
ATOM     47  H   UNL     1      -0.734  -8.009  -6.074  1.00  0.00     0.167 HD
ATOM     48  C   UNL     1       1.428  -6.663  -9.557  1.00  0.00     0.034 A 
ATOM     49  C   UNL     1      -2.228  -9.982  -4.670  1.00  0.00     0.034 A 
ATOM     50  C   UNL     1       1.345  -8.091  -9.720  1.00  0.00     0.049 A 
ATOM     51  C   UNL     1      -1.674 -10.709  -5.852  1.00  0.00     0.074 A 
ATOM     52  C   UNL     1       1.934  -8.879 -10.696  1.00  0.00     0.029 A 
ATOM     53  N   UNL     1       0.617  -8.941  -8.907  1.00  0.00    -0.354 N 
ATOM     54  N   UNL     1      -0.895 -10.257  -6.801  1.00  0.00    -0.248 NA
ATOM     55  C   UNL     1      -2.037 -12.125  -5.986  1.00  0.00     0.031 C 
ATOM     56  C   UNL     1       1.519 -10.200 -10.501  1.00  0.00     0.029 A 
ATOM     57  C   UNL     1       0.708 -10.240  -9.381  1.00  0.00     0.049 A 
ATOM     58  H   UNL     1       0.109  -8.665  -8.111  1.00  0.00     0.167 HD
ATOM     59  C   UNL     1      -0.666 -11.335  -7.643  1.00  0.00     0.074 A 
ATOM     60  C   UNL     1      -1.360 -12.470  -7.072  1.00  0.00     0.031 C 
ATOM     61  C   UNL     1       0.040 -11.372  -8.798  1.00  0.00     0.034 A 
BRANCH  48  62
ATOM     62  C   UNL     1       2.228  -5.904 -10.587  1.00  0.00     0.023 A 
ATOM     63  C   UNL     1       3.538  -5.476 -10.296  1.00  0.00     0.012 A 
ATOM     64  C   UNL     1       1.719  -5.735 -11.892  1.00  0.00     0.148 A 
ATOM     65  C   UNL     1       4.325  -4.885 -11.287  1.00  0.00     0.002 A 
ATOM     66  C   UNL     1       2.521  -5.180 -12.881  1.00  0.00     0.091 A 
ATOM     67  F   UNL     1       0.464  -6.136 -12.141  1.00  0.00    -0.205 F 
ATOM     68  C   UNL     1       3.823  -4.749 -12.579  1.00  0.00     0.022 A 
BRANCH  66  69
ATOM     69  S   UNL     1       1.991  -5.034 -14.592  1.00  0.00     0.127 S 
ATOM     70  O   UNL     1       1.886  -3.583 -14.744  1.00  0.00    -0.237 OA
ATOM     71  O   UNL     1       3.109  -5.642 -15.313  1.00  0.00    -0.237 OA
ATOM     72  O   UNL     1       0.734  -5.761 -14.689  1.00  0.00    -0.744 OA
ENDBRANCH  66  69
ENDBRANCH  48  62
BRANCH  49  73
ATOM     73  C   UNL     1      -3.139 -10.661  -3.700  1.00  0.00     0.023 A 
ATOM     74  C   UNL     1      -2.644 -11.645  -2.827  1.00  0.00     0.012 A 
ATOM     75  C   UNL     1      -4.495 -10.279  -3.605  1.00  0.00     0.148 A 
ATOM     76  C   UNL     1      -3.484 -12.236  -1.881  1.00  0.00     0.002 A 
ATOM     77  C   UNL     1      -5.300 -10.807  -2.606  1.00  0.00     0.091 A 
ATOM     78  F   UNL     1      -4.966  -9.373  -4.476  1.00  0.00    -0.205 F 
ATOM     79  C   UNL     1      -4.803 -11.802  -1.754  1.00  0.00     0.022 A 
BRANCH  77  80
ATOM     80  S   UNL     1      -6.938 -10.150  -2.270  1.00  0.00     0.127 S 
ATOM     81  O   UNL     1      -7.798 -11.160  -2.880  1.00  0.00    -0.237 OA
ATOM     82  O   UNL     1      -6.964 -10.121  -0.806  1.00  0.00    -0.237 OA
ATOM     83  O   UNL     1      -6.960  -8.831  -2.888  1.00  0.00    -0.744 OA
ENDBRANCH  77  80
ENDBRANCH  49  73
BRANCH  61  84
ATOM     84  C   UNL     1       0.121 -12.693  -9.510  1.00  0.00     0.023 A 
ATOM     85  C   UNL     1      -1.011 -13.197 -10.181  1.00  0.00     0.012 A 
ATOM     86  C   UNL     1       1.326 -13.420  -9.538  1.00  0.00     0.148 A 
ATOM     87  C   UNL     1      -0.955 -14.425 -10.837  1.00  0.00     0.002 A 
ATOM     88  C   UNL     1       1.389 -14.619 -10.236  1.00  0.00     0.091 A 
ATOM     89  F   UNL     1       2.384 -12.931  -8.875  1.00  0.00    -0.205 F 
ATOM     90  C   UNL     1       0.246 -15.130 -10.873  1.00  0.00     0.022 A 
BRANCH  88  91
ATOM     91  S   UNL     1       2.913 -15.552 -10.408  1.00  0.00     0.127 S 
ATOM     92  O   UNL     1       2.652 -16.709  -9.555  1.00  0.00    -0.237 OA
ATOM     93  O   UNL     1       2.937 -15.843 -11.842  1.00  0.00    -0.237 OA
ATOM     94  O   UNL     1       3.979 -14.669  -9.953  1.00  0.00    -0.744 OA
ENDBRANCH  88  91
ENDBRANCH  61  84
ENDBRANCH  35  36
ENDBRANCH  28  30
ENDBRANCH  27  28
ENDBRANCH  26  27
ENDBRANCH   1  26
TORSDOF 17
