REMARK SMILES Cc1ccc(C(=O)OCCOC(=O)c2ccc(-c3c4nc(c(-c5cccc(S(=O)(=O)[O-])c5F)c5ccc([nH]5)c(-c5cccc(S(=O)(=O)[O-])c5F)c5nc(c(-c6cccc(S(=O)(=O)[O-])c6F)c6ccc3[nH]6)C=C5)C=C4)cc2)c(Oc2cccc(F)c2C(N)=O)c1
REMARK SMILES IDX 9 1 8 2 6 3 7 4 5 5 1 6 2 7 3 8 89 9 4 10 77 11 78 12 79 13
REMARK SMILES IDX 80 14 85 15 81 16 83 17 82 18 84 19 86 20 87 21 88 22 10 25
REMARK SMILES IDX 11 26 12 27 13 28 14 29 15 30 76 31 16 32 75 33 17 34 18 35
REMARK SMILES IDX 19 36 69 37 20 38 74 39 68 40 70 41 21 42 73 43 67 44 66 45
REMARK SMILES IDX 22 47 54 48 34 49 53 50 35 51 38 52 52 53 71 54 36 55 37 56
REMARK SMILES IDX 51 58 72 59 39 60 23 61 24 62 32 63 25 64 27 65 33 66 26 67
REMARK SMILES IDX 28 68 29 69 30 70 31 71 55 72 56 73 64 74 57 75 59 76 65 77
REMARK SMILES IDX 58 78 60 79 61 80 62 81 63 82 40 83 41 84 49 85 42 86 44 87
REMARK SMILES IDX 50 88 43 89 45 90 46 91 47 92 48 93
REMARK H PARENT 87 23 87 24 70 46 38 57
REMARK Flexibility Score: inf
ROOT
ATOM      1  C   UNL     1      -4.784   1.901  -1.956  1.00  0.00     0.275 C 
ENDROOT
BRANCH   1   2
ATOM      2  O   UNL     1      -3.544   1.505  -1.369  1.00  0.00    -0.458 OA
BRANCH   2   3
ATOM      3  C   UNL     1      -2.587   0.979  -2.153  1.00  0.00     0.342 C 
ATOM      4  O   UNL     1      -2.692   0.741  -3.344  1.00  0.00    -0.246 OA
BRANCH   3   5
ATOM      5  C   UNL     1      -1.349   0.754  -1.368  1.00  0.00     0.102 A 
ATOM      6  C   UNL     1       2.585   0.208   0.280  1.00  0.00     0.044 C 
ATOM      7  C   UNL     1       1.187   0.378  -0.238  1.00  0.00    -0.047 A 
ATOM      8  C   UNL     1       0.594  -0.636  -0.998  1.00  0.00     0.004 A 
ATOM      9  C   UNL     1       0.462   1.545   0.037  1.00  0.00     0.051 A 
ATOM     10  C   UNL     1      -0.661  -0.445  -1.575  1.00  0.00     0.020 A 
ATOM     11  C   UNL     1      -0.792   1.753  -0.553  1.00  0.00     0.142 A 
BRANCH  11  12
ATOM     12  O   UNL     1      -1.495   2.931  -0.387  1.00  0.00    -0.455 OA
BRANCH  12  13
ATOM     13  C   UNL     1      -0.792   4.116  -0.369  1.00  0.00     0.143 A 
ATOM     14  C   UNL     1      -1.060   4.957   0.721  1.00  0.00     0.048 A 
ATOM     15  C   UNL     1       0.094   4.535  -1.374  1.00  0.00     0.117 A 
ATOM     16  C   UNL     1      -0.408   6.184   0.847  1.00  0.00     0.007 A 
ATOM     17  C   UNL     1       0.750   5.759  -1.227  1.00  0.00     0.139 A 
ATOM     18  C   UNL     1       0.506   6.579  -0.126  1.00  0.00     0.040 A 
ATOM     19  F   UNL     1       1.596   6.205  -2.168  1.00  0.00    -0.206 F 
BRANCH  15  20
ATOM     20  C   UNL     1       0.370   3.756  -2.599  1.00  0.00     0.255 C 
ATOM     21  N   UNL     1      -0.716   3.247  -3.256  1.00  0.00    -0.365 N 
ATOM     22  O   UNL     1       1.505   3.578  -3.020  1.00  0.00    -0.269 OA
ATOM     23  H   UNL     1      -1.621   3.401  -2.902  1.00  0.00     0.159 HD
ATOM     24  H   UNL     1      -0.592   2.728  -4.083  1.00  0.00     0.159 HD
ENDBRANCH  15  20
ENDBRANCH  12  13
ENDBRANCH  11  12
ENDBRANCH   3   5
ENDBRANCH   2   3
ENDBRANCH   1   2
BRANCH   1  25
ATOM     25  C   UNL     1      -5.569   0.939  -2.879  1.00  0.00     0.275 C 
BRANCH  25  26
ATOM     26  O   UNL     1      -5.368  -0.506  -2.980  1.00  0.00    -0.458 OA
BRANCH  26  27
ATOM     27  C   UNL     1      -5.002  -1.472  -2.110  1.00  0.00     0.338 C 
ATOM     28  O   UNL     1      -4.845  -2.642  -2.440  1.00  0.00    -0.246 OA
BRANCH  27  29
ATOM     29  C   UNL     1      -4.789  -1.057  -0.734  1.00  0.00     0.060 A 
ATOM     30  C   UNL     1      -3.596  -1.393  -0.070  1.00  0.00     0.016 A 
ATOM     31  C   UNL     1      -5.751  -0.231  -0.170  1.00  0.00     0.016 A 
ATOM     32  C   UNL     1      -3.326  -0.831   1.168  1.00  0.00     0.010 A 
ATOM     33  C   UNL     1      -5.416   0.455   0.962  1.00  0.00     0.010 A 
ATOM     34  C   UNL     1      -4.262   0.068   1.672  1.00  0.00    -0.014 A 
BRANCH  34  35
ATOM     35  C   UNL     1      -4.454   0.272   3.095  1.00  0.00     0.031 A 
ATOM     36  C   UNL     1      -3.843   1.392   3.801  1.00  0.00     0.074 A 
ATOM     37  C   UNL     1      -5.521  -0.460   3.495  1.00  0.00     0.049 A 
ATOM     38  N   UNL     1      -3.830   1.507   5.079  1.00  0.00    -0.248 NA
ATOM     39  C   UNL     1      -3.154   2.482   3.117  1.00  0.00     0.031 C 
ATOM     40  C   UNL     1      -6.497  -0.257   4.541  1.00  0.00     0.029 A 
ATOM     41  N   UNL     1      -5.911  -1.684   2.920  1.00  0.00    -0.354 N 
ATOM     42  C   UNL     1      -3.507   2.822   5.353  1.00  0.00     0.074 A 
ATOM     43  C   UNL     1      -2.924   3.324   4.133  1.00  0.00     0.031 C 
ATOM     44  C   UNL     1      -7.153  -1.423   4.733  1.00  0.00     0.029 A 
ATOM     45  C   UNL     1      -6.467  -2.442   3.937  1.00  0.00     0.049 A 
ATOM     46  H   UNL     1      -5.809  -1.950   1.977  1.00  0.00     0.167 HD
ATOM     47  C   UNL     1      -4.008   3.379   6.494  1.00  0.00     0.034 A 
ATOM     48  C   UNL     1      -5.779  -3.530   4.405  1.00  0.00     0.034 A 
ATOM     49  C   UNL     1      -4.778   2.360   7.234  1.00  0.00     0.049 A 
ATOM     50  C   UNL     1      -5.350  -3.280   5.835  1.00  0.00     0.074 A 
ATOM     51  C   UNL     1      -6.136   2.083   7.265  1.00  0.00     0.029 A 
ATOM     52  N   UNL     1      -4.138   1.238   7.753  1.00  0.00    -0.354 N 
ATOM     53  N   UNL     1      -5.241  -2.092   6.362  1.00  0.00    -0.248 NA
ATOM     54  C   UNL     1      -5.035  -4.342   6.780  1.00  0.00     0.031 C 
ATOM     55  C   UNL     1      -6.297   0.739   7.699  1.00  0.00     0.029 A 
ATOM     56  C   UNL     1      -5.043   0.203   7.945  1.00  0.00     0.049 A 
ATOM     57  H   UNL     1      -3.176   1.186   7.957  1.00  0.00     0.167 HD
ATOM     58  C   UNL     1      -4.841  -2.192   7.660  1.00  0.00     0.074 A 
ATOM     59  C   UNL     1      -4.749  -3.628   7.884  1.00  0.00     0.031 C 
ATOM     60  C   UNL     1      -4.588  -1.095   8.434  1.00  0.00     0.034 A 
BRANCH  47  61
ATOM     61  C   UNL     1      -4.164   4.872   6.775  1.00  0.00     0.023 A 
ATOM     62  C   UNL     1      -5.122   5.231   7.754  1.00  0.00     0.012 A 
ATOM     63  C   UNL     1      -3.505   5.953   6.142  1.00  0.00     0.148 A 
ATOM     64  C   UNL     1      -5.481   6.556   8.023  1.00  0.00     0.002 A 
ATOM     65  C   UNL     1      -3.880   7.282   6.390  1.00  0.00     0.091 A 
ATOM     66  F   UNL     1      -2.468   5.720   5.334  1.00  0.00    -0.205 F 
ATOM     67  C   UNL     1      -4.876   7.585   7.323  1.00  0.00     0.022 A 
BRANCH  65  68
ATOM     68  S   UNL     1      -3.160   8.687   5.515  1.00  0.00     0.127 S 
ATOM     69  O   UNL     1      -4.346   9.360   4.982  1.00  0.00    -0.237 OA
ATOM     70  O   UNL     1      -2.483   9.411   6.590  1.00  0.00    -0.237 OA
ATOM     71  O   UNL     1      -2.283   8.127   4.492  1.00  0.00    -0.744 OA
ENDBRANCH  65  68
ENDBRANCH  47  61
BRANCH  48  72
ATOM     72  C   UNL     1      -4.930  -4.236   3.369  1.00  0.00     0.023 A 
ATOM     73  C   UNL     1      -5.567  -4.657   2.169  1.00  0.00     0.012 A 
ATOM     74  C   UNL     1      -3.523  -4.189   3.379  1.00  0.00     0.148 A 
ATOM     75  C   UNL     1      -4.839  -4.904   0.999  1.00  0.00     0.002 A 
ATOM     76  C   UNL     1      -2.802  -4.446   2.205  1.00  0.00     0.091 A 
ATOM     77  F   UNL     1      -2.891  -3.837   4.506  1.00  0.00    -0.205 F 
ATOM     78  C   UNL     1      -3.456  -4.780   1.012  1.00  0.00     0.022 A 
BRANCH  76  79
ATOM     79  S   UNL     1      -1.019  -4.197   2.167  1.00  0.00     0.127 S 
ATOM     80  O   UNL     1      -0.715  -4.168   0.734  1.00  0.00    -0.237 OA
ATOM     81  O   UNL     1      -0.841  -2.912   2.830  1.00  0.00    -0.237 OA
ATOM     82  O   UNL     1      -0.532  -5.378   2.870  1.00  0.00    -0.744 OA
ENDBRANCH  76  79
ENDBRANCH  48  72
BRANCH  60  83
ATOM     83  C   UNL     1      -3.874  -1.153   9.757  1.00  0.00     0.023 A 
ATOM     84  C   UNL     1      -2.940  -2.164  10.047  1.00  0.00     0.012 A 
ATOM     85  C   UNL     1      -3.979  -0.080  10.674  1.00  0.00     0.148 A 
ATOM     86  C   UNL     1      -2.196  -2.153  11.228  1.00  0.00     0.002 A 
ATOM     87  C   UNL     1      -3.140  -0.007  11.777  1.00  0.00     0.091 A 
ATOM     88  F   UNL     1      -4.899   0.877  10.486  1.00  0.00    -0.205 F 
ATOM     89  C   UNL     1      -2.275  -1.060  12.080  1.00  0.00     0.022 A 
BRANCH  87  90
ATOM     90  S   UNL     1      -3.017   1.515  12.723  1.00  0.00     0.127 S 
ATOM     91  O   UNL     1      -4.007   1.301  13.775  1.00  0.00    -0.237 OA
ATOM     92  O   UNL     1      -1.626   1.491  13.180  1.00  0.00    -0.237 OA
ATOM     93  O   UNL     1      -3.309   2.575  11.767  1.00  0.00    -0.744 OA
ENDBRANCH  87  90
ENDBRANCH  60  83
ENDBRANCH  34  35
ENDBRANCH  27  29
ENDBRANCH  26  27
ENDBRANCH  25  26
ENDBRANCH   1  25
TORSDOF 17
