REMARK SMILES CS(=O)(=O)c1ccc(/C=C(/C(=O)OCCOC(=O)c2ccc(-c3c4nc(c(-c5cccc(S(=O)(=O)[O-])c5F)c5ccc([nH]5)c(-c5cccc(S(=O)(=O)[O-])c5F)c5nc(c(-c6cccc(S(=O)(=O)[O-])c6F)c6ccc3[nH]6)C=C5)C=C4)cc2)c2ccc(F)cc2)cc1
REMARK SMILES IDX 15 1 14 2 13 3 11 4 12 5 10 6 9 7 8 8 5 9 6 10 90 11 7 12
REMARK SMILES IDX 89 13 2 14 1 15 3 16 4 17 82 18 83 19 88 20 84 21 87 22
REMARK SMILES IDX 85 23 86 24 16 25 17 26 18 27 19 28 20 29 81 30 21 31 80 32
REMARK SMILES IDX 22 33 23 34 24 35 74 36 25 37 79 38 73 39 75 40 26 41 78 42
REMARK SMILES IDX 72 43 71 44 27 46 59 47 39 48 58 49 40 50 43 51 57 52 76 53
REMARK SMILES IDX 41 54 42 55 56 57 77 58 44 59 28 60 29 61 37 62 30 63 32 64
REMARK SMILES IDX 38 65 31 66 33 67 34 68 35 69 36 70 60 71 61 72 69 73 62 74
REMARK SMILES IDX 64 75 70 76 63 77 65 78 66 79 67 80 68 81 45 82 46 83 54 84
REMARK SMILES IDX 47 85 49 86 55 87 48 88 50 89 51 90 52 91 53 92
REMARK H PARENT 75 45 43 56
REMARK Flexibility Score: inf
ROOT
ATOM      1  C   UNL     1       4.441  10.000  -4.100  1.00  0.00     0.275 C 
ENDROOT
BRANCH   1   2
ATOM      2  C   UNL     1       3.103   9.380  -4.498  1.00  0.00     0.275 C 
BRANCH   2   3
ATOM      3  O   UNL     1       2.927   8.094  -3.867  1.00  0.00    -0.458 OA
BRANCH   3   4
ATOM      4  C   UNL     1       3.145   7.022  -4.673  1.00  0.00     0.338 C 
ATOM      5  O   UNL     1       3.409   7.070  -5.865  1.00  0.00    -0.246 OA
BRANCH   4   6
ATOM      6  C   UNL     1       3.055   5.733  -3.924  1.00  0.00     0.067 C 
ATOM      7  C   UNL     1       1.982   5.529  -3.124  1.00  0.00     0.024 C 
BRANCH   7   8
ATOM      8  C   UNL     1       1.512   4.252  -2.532  1.00  0.00    -0.025 A 
ATOM      9  C   UNL     1       0.475   1.751  -1.769  1.00  0.00     0.067 A 
ATOM     10  C   UNL     1       1.850   1.939  -1.828  1.00  0.00     0.021 A 
ATOM     11  C   UNL     1      -0.393   2.814  -2.018  1.00  0.00     0.021 A 
ATOM     12  C   UNL     1       2.353   3.197  -2.157  1.00  0.00     0.009 A 
ATOM     13  C   UNL     1       0.127   4.056  -2.404  1.00  0.00     0.009 A 
BRANCH   9  14
ATOM     14  S   UNL     1      -0.153   0.135  -1.398  1.00  0.00     0.175 S 
ATOM     15  C   UNL     1       0.660  -0.316   0.112  1.00  0.00     0.163 C 
ATOM     16  O   UNL     1       0.299  -0.748  -2.448  1.00  0.00    -0.224 OA
ATOM     17  O   UNL     1      -1.571   0.278  -1.097  1.00  0.00    -0.224 OA
ENDBRANCH   9  14
ENDBRANCH   7   8
BRANCH   6  18
ATOM     18  C   UNL     1       4.034   4.677  -4.244  1.00  0.00    -0.011 A 
ATOM     19  C   UNL     1       5.165   4.515  -3.422  1.00  0.00     0.012 A 
ATOM     20  C   UNL     1       3.809   3.774  -5.292  1.00  0.00     0.012 A 
ATOM     21  C   UNL     1       6.022   3.429  -3.611  1.00  0.00     0.040 A 
ATOM     22  C   UNL     1       4.678   2.698  -5.486  1.00  0.00     0.040 A 
ATOM     23  C   UNL     1       5.765   2.527  -4.636  1.00  0.00     0.123 A 
ATOM     24  F   UNL     1       6.573   1.474  -4.803  1.00  0.00    -0.207 F 
ENDBRANCH   6  18
ENDBRANCH   4   6
ENDBRANCH   3   4
ENDBRANCH   2   3
ENDBRANCH   1   2
BRANCH   1  25
ATOM     25  O   UNL     1       5.523   9.186  -4.587  1.00  0.00    -0.458 OA
BRANCH  25  26
ATOM     26  C   UNL     1       6.286   8.595  -3.640  1.00  0.00     0.338 C 
ATOM     27  O   UNL     1       6.192   8.725  -2.429  1.00  0.00    -0.246 OA
BRANCH  26  28
ATOM     28  C   UNL     1       7.266   7.688  -4.264  1.00  0.00     0.060 A 
ATOM     29  C   UNL     1       6.830   6.700  -5.138  1.00  0.00     0.016 A 
ATOM     30  C   UNL     1       8.596   7.701  -3.841  1.00  0.00     0.016 A 
ATOM     31  C   UNL     1       7.680   5.644  -5.465  1.00  0.00     0.010 A 
ATOM     32  C   UNL     1       9.478   6.704  -4.281  1.00  0.00     0.010 A 
ATOM     33  C   UNL     1       9.020   5.618  -5.047  1.00  0.00    -0.014 A 
BRANCH  33  34
ATOM     34  C   UNL     1       9.908   4.451  -5.370  1.00  0.00     0.031 A 
ATOM     35  C   UNL     1      10.743   3.784  -4.295  1.00  0.00     0.074 A 
ATOM     36  C   UNL     1       9.977   3.960  -6.627  1.00  0.00     0.049 A 
ATOM     37  N   UNL     1      11.722   2.922  -4.423  1.00  0.00    -0.248 NA
ATOM     38  C   UNL     1      10.460   4.148  -2.897  1.00  0.00     0.031 C 
ATOM     39  C   UNL     1       9.231   4.467  -7.779  1.00  0.00     0.029 A 
ATOM     40  N   UNL     1      10.712   2.920  -7.150  1.00  0.00    -0.354 N 
ATOM     41  C   UNL     1      12.236   2.726  -3.145  1.00  0.00     0.074 A 
ATOM     42  C   UNL     1      11.444   3.539  -2.248  1.00  0.00     0.031 C 
ATOM     43  C   UNL     1       9.492   3.707  -8.850  1.00  0.00     0.029 A 
ATOM     44  C   UNL     1      10.522   2.737  -8.501  1.00  0.00     0.049 A 
ATOM     45  H   UNL     1      11.315   2.361  -6.609  1.00  0.00     0.167 HD
ATOM     46  C   UNL     1      13.268   1.940  -2.751  1.00  0.00     0.034 A 
ATOM     47  C   UNL     1      11.140   1.932  -9.388  1.00  0.00     0.034 A 
ATOM     48  C   UNL     1      13.981   1.037  -3.619  1.00  0.00     0.049 A 
ATOM     49  C   UNL     1      12.255   1.044  -8.923  1.00  0.00     0.074 A 
ATOM     50  C   UNL     1      15.005   0.162  -3.295  1.00  0.00     0.029 A 
ATOM     51  N   UNL     1      13.729   0.869  -4.971  1.00  0.00    -0.354 N 
ATOM     52  N   UNL     1      12.728   0.880  -7.712  1.00  0.00    -0.248 NA
ATOM     53  C   UNL     1      12.928   0.232  -9.948  1.00  0.00     0.031 C 
ATOM     54  C   UNL     1      15.377  -0.529  -4.453  1.00  0.00     0.029 A 
ATOM     55  C   UNL     1      14.576  -0.095  -5.495  1.00  0.00     0.049 A 
ATOM     56  H   UNL     1      13.048   1.362  -5.484  1.00  0.00     0.167 HD
ATOM     57  C   UNL     1      13.751  -0.053  -7.828  1.00  0.00     0.074 A 
ATOM     58  C   UNL     1      13.802  -0.450  -9.220  1.00  0.00     0.031 C 
ATOM     59  C   UNL     1      14.592  -0.516  -6.872  1.00  0.00     0.034 A 
BRANCH  46  60
ATOM     60  C   UNL     1      13.692   1.988  -1.304  1.00  0.00     0.023 A 
ATOM     61  C   UNL     1      12.914   1.350  -0.318  1.00  0.00     0.012 A 
ATOM     62  C   UNL     1      14.914   2.590  -0.935  1.00  0.00     0.148 A 
ATOM     63  C   UNL     1      13.331   1.331   1.013  1.00  0.00     0.002 A 
ATOM     64  C   UNL     1      15.344   2.530   0.386  1.00  0.00     0.091 A 
ATOM     65  F   UNL     1      15.632   3.211  -1.882  1.00  0.00    -0.205 F 
ATOM     66  C   UNL     1      14.550   1.909   1.363  1.00  0.00     0.022 A 
BRANCH  64  67
ATOM     67  S   UNL     1      16.939   3.171   0.912  1.00  0.00     0.127 S 
ATOM     68  O   UNL     1      16.550   4.395   1.609  1.00  0.00    -0.237 OA
ATOM     69  O   UNL     1      17.430   2.103   1.785  1.00  0.00    -0.237 OA
ATOM     70  O   UNL     1      17.714   3.359  -0.306  1.00  0.00    -0.744 OA
ENDBRANCH  64  67
ENDBRANCH  46  60
BRANCH  47  71
ATOM     71  C   UNL     1      10.715   1.954 -10.818  1.00  0.00     0.023 A 
ATOM     72  C   UNL     1      10.065   0.832 -11.366  1.00  0.00     0.012 A 
ATOM     73  C   UNL     1      10.884   3.105 -11.613  1.00  0.00     0.148 A 
ATOM     74  C   UNL     1       9.596   0.857 -12.681  1.00  0.00     0.002 A 
ATOM     75  C   UNL     1      10.347   3.149 -12.893  1.00  0.00     0.091 A 
ATOM     76  F   UNL     1      11.539   4.151 -11.088  1.00  0.00    -0.205 F 
ATOM     77  C   UNL     1       9.717   2.021 -13.436  1.00  0.00     0.022 A 
BRANCH  75  78
ATOM     78  S   UNL     1      10.301   4.673 -13.844  1.00  0.00     0.127 S 
ATOM     79  O   UNL     1      11.400   4.475 -14.784  1.00  0.00    -0.237 OA
ATOM     80  O   UNL     1       8.964   4.627 -14.438  1.00  0.00    -0.237 OA
ATOM     81  O   UNL     1      10.476   5.740 -12.867  1.00  0.00    -0.744 OA
ENDBRANCH  75  78
ENDBRANCH  47  71
BRANCH  59  82
ATOM     82  C   UNL     1      15.638  -1.512  -7.294  1.00  0.00     0.023 A 
ATOM     83  C   UNL     1      16.756  -1.072  -8.030  1.00  0.00     0.012 A 
ATOM     84  C   UNL     1      15.542  -2.867  -6.925  1.00  0.00     0.148 A 
ATOM     85  C   UNL     1      17.747  -1.971  -8.420  1.00  0.00     0.002 A 
ATOM     86  C   UNL     1      16.554  -3.751  -7.282  1.00  0.00     0.091 A 
ATOM     87  F   UNL     1      14.460  -3.270  -6.243  1.00  0.00    -0.205 F 
ATOM     88  C   UNL     1      17.652  -3.307  -8.037  1.00  0.00     0.022 A 
BRANCH  86  89
ATOM     89  S   UNL     1      16.553  -5.471  -6.765  1.00  0.00     0.127 S 
ATOM     90  O   UNL     1      16.184  -6.155  -8.004  1.00  0.00    -0.237 OA
ATOM     91  O   UNL     1      17.941  -5.674  -6.347  1.00  0.00    -0.237 OA
ATOM     92  O   UNL     1      15.580  -5.562  -5.684  1.00  0.00    -0.744 OA
ENDBRANCH  86  89
ENDBRANCH  59  82
ENDBRANCH  33  34
ENDBRANCH  26  28
ENDBRANCH  25  26
ENDBRANCH   1  25
TORSDOF 17
