REMARK SMILES O=C(OCCOC(=O)[C@@H]1[C@H](C(=O)Nc2ccc(Cn3cncn3)cc2)[C@@H]2C=C[C@H]1CC2)c1ccc(-c2c3nc(c(-c4cccc(S(=O)(=O)[O-])c4F)c4ccc([nH]4)c(-c4cccc(S(=O)(=O)[O-])c4F)c4nc(c(-c5cccc(S(=O)(=O)[O-])c5F)c5ccc2[nH]5)C=C4)C=C3)cc1
REMARK SMILES IDX 5 1 4 2 3 3 2 4 1 5 32 6 33 7 94 8 34 9 93 10 35 11 36 12
REMARK SMILES IDX 37 13 87 14 38 15 92 16 86 17 88 18 39 19 91 20 85 21 84 22
REMARK SMILES IDX 40 24 72 25 52 26 71 27 53 28 56 29 70 30 89 31 54 32 55 33
REMARK SMILES IDX 69 35 90 36 57 37 41 38 42 39 50 40 43 41 45 42 51 43 44 44
REMARK SMILES IDX 46 45 47 46 48 47 49 48 73 49 74 50 82 51 75 52 77 53 83 54
REMARK SMILES IDX 76 55 78 56 79 57 80 58 81 59 58 60 59 61 67 62 60 63 62 64
REMARK SMILES IDX 68 65 61 66 63 67 64 68 65 69 66 70 6 71 7 72 8 73 9 74
REMARK SMILES IDX 10 75 29 76 26 77 28 78 30 79 27 80 31 81 11 82 12 83 13 84
REMARK SMILES IDX 14 86 15 87 25 88 16 89 24 90 17 91 18 92 19 93 20 94 23 95
REMARK SMILES IDX 21 96 22 97
REMARK H PARENT 88 23 56 34 13 85
REMARK Flexibility Score: inf
ROOT
ATOM      1  C   UNL     1       3.621   0.120  -1.251  1.00  0.00     0.274 C 
ENDROOT
BRANCH   1   2
ATOM      2  C   UNL     1       4.096  -1.268  -0.830  1.00  0.00     0.275 C 
BRANCH   2   3
ATOM      3  O   UNL     1       3.054  -2.186  -0.440  1.00  0.00    -0.458 OA
BRANCH   3   4
ATOM      4  C   UNL     1       1.879  -1.640  -0.062  1.00  0.00     0.338 C 
ATOM      5  O   UNL     1       0.922  -1.507  -0.825  1.00  0.00    -0.246 OA
BRANCH   4   6
ATOM      6  C   UNL     1       1.848  -1.280   1.371  1.00  0.00     0.060 A 
ATOM      7  C   UNL     1       2.927  -1.572   2.218  1.00  0.00     0.016 A 
ATOM      8  C   UNL     1       0.697  -0.656   1.871  1.00  0.00     0.016 A 
ATOM      9  C   UNL     1       2.824  -1.315   3.572  1.00  0.00     0.010 A 
ATOM     10  C   UNL     1       0.587  -0.410   3.231  1.00  0.00     0.010 A 
ATOM     11  C   UNL     1       1.633  -0.793   4.075  1.00  0.00    -0.014 A 
BRANCH  11  12
ATOM     12  C   UNL     1       1.471  -0.820   5.519  1.00  0.00     0.031 A 
ATOM     13  C   UNL     1       2.124   0.249   6.312  1.00  0.00     0.074 A 
ATOM     14  C   UNL     1       0.708  -1.775   6.086  1.00  0.00     0.049 A 
ATOM     15  N   UNL     1       3.031   0.123   7.228  1.00  0.00    -0.248 NA
ATOM     16  C   UNL     1       1.769   1.639   6.006  1.00  0.00     0.031 C 
ATOM     17  C   UNL     1      -0.211  -2.692   5.401  1.00  0.00     0.029 A 
ATOM     18  N   UNL     1       0.478  -2.023   7.404  1.00  0.00    -0.354 N 
ATOM     19  C   UNL     1       3.202   1.399   7.770  1.00  0.00     0.074 A 
ATOM     20  C   UNL     1       2.523   2.304   6.881  1.00  0.00     0.031 C 
ATOM     21  C   UNL     1      -1.078  -3.196   6.303  1.00  0.00     0.029 A 
ATOM     22  C   UNL     1      -0.687  -2.743   7.626  1.00  0.00     0.049 A 
ATOM     23  H   UNL     1       1.077  -1.723   8.126  1.00  0.00     0.167 HD
ATOM     24  C   UNL     1       3.697   1.583   9.027  1.00  0.00     0.034 A 
ATOM     25  C   UNL     1      -1.346  -2.868   8.800  1.00  0.00     0.034 A 
ATOM     26  C   UNL     1       4.392   0.415   9.506  1.00  0.00     0.049 A 
ATOM     27  C   UNL     1      -0.399  -2.550   9.891  1.00  0.00     0.074 A 
ATOM     28  C   UNL     1       5.470  -0.336   9.084  1.00  0.00     0.029 A 
ATOM     29  N   UNL     1       3.779  -0.331  10.481  1.00  0.00    -0.354 N 
ATOM     30  N   UNL     1       0.627  -3.292  10.204  1.00  0.00    -0.248 NA
ATOM     31  C   UNL     1      -0.368  -1.190  10.405  1.00  0.00     0.031 C 
ATOM     32  C   UNL     1       5.176  -1.670   9.490  1.00  0.00     0.029 A 
ATOM     33  C   UNL     1       3.947  -1.646  10.152  1.00  0.00     0.049 A 
ATOM     34  H   UNL     1       3.306   0.017  11.272  1.00  0.00     0.167 HD
ATOM     35  C   UNL     1       1.613  -2.386  10.571  1.00  0.00     0.074 A 
ATOM     36  C   UNL     1       0.904  -1.131  10.803  1.00  0.00     0.031 C 
ATOM     37  C   UNL     1       2.937  -2.660  10.366  1.00  0.00     0.034 A 
BRANCH  24  38
ATOM     38  C   UNL     1       3.259   2.674   9.993  1.00  0.00     0.023 A 
ATOM     39  C   UNL     1       3.922   2.728  11.244  1.00  0.00     0.012 A 
ATOM     40  C   UNL     1       2.068   3.424   9.878  1.00  0.00     0.148 A 
ATOM     41  C   UNL     1       3.375   3.396  12.346  1.00  0.00     0.002 A 
ATOM     42  C   UNL     1       1.566   4.149  10.956  1.00  0.00     0.091 A 
ATOM     43  F   UNL     1       1.328   3.353   8.770  1.00  0.00    -0.205 F 
ATOM     44  C   UNL     1       2.192   4.105  12.203  1.00  0.00     0.022 A 
BRANCH  42  45
ATOM     45  S   UNL     1       0.069   5.130  10.797  1.00  0.00     0.127 S 
ATOM     46  O   UNL     1      -0.929   4.233  11.370  1.00  0.00    -0.237 OA
ATOM     47  O   UNL     1       0.387   6.306  11.609  1.00  0.00    -0.237 OA
ATOM     48  O   UNL     1      -0.052   5.411   9.371  1.00  0.00    -0.744 OA
ENDBRANCH  42  45
ENDBRANCH  24  38
BRANCH  25  49
ATOM     49  C   UNL     1      -2.804  -2.993   9.013  1.00  0.00     0.023 A 
ATOM     50  C   UNL     1      -3.292  -3.568  10.199  1.00  0.00     0.012 A 
ATOM     51  C   UNL     1      -3.722  -2.341   8.157  1.00  0.00     0.148 A 
ATOM     52  C   UNL     1      -4.650  -3.488  10.528  1.00  0.00     0.002 A 
ATOM     53  C   UNL     1      -5.073  -2.283   8.477  1.00  0.00     0.091 A 
ATOM     54  F   UNL     1      -3.257  -1.699   7.076  1.00  0.00    -0.205 F 
ATOM     55  C   UNL     1      -5.540  -2.847   9.669  1.00  0.00     0.022 A 
BRANCH  53  56
ATOM     56  S   UNL     1      -6.270  -1.475   7.406  1.00  0.00     0.127 S 
ATOM     57  O   UNL     1      -7.376  -2.433   7.407  1.00  0.00    -0.237 OA
ATOM     58  O   UNL     1      -6.534  -0.234   8.128  1.00  0.00    -0.237 OA
ATOM     59  O   UNL     1      -5.609  -1.332   6.114  1.00  0.00    -0.744 OA
ENDBRANCH  53  56
ENDBRANCH  25  49
BRANCH  37  60
ATOM     60  C   UNL     1       3.334  -4.068  10.001  1.00  0.00     0.023 A 
ATOM     61  C   UNL     1       2.890  -4.672   8.806  1.00  0.00     0.012 A 
ATOM     62  C   UNL     1       4.325  -4.714  10.761  1.00  0.00     0.148 A 
ATOM     63  C   UNL     1       3.405  -5.901   8.390  1.00  0.00     0.002 A 
ATOM     64  C   UNL     1       4.869  -5.915  10.319  1.00  0.00     0.091 A 
ATOM     65  F   UNL     1       4.747  -4.124  11.891  1.00  0.00    -0.205 F 
ATOM     66  C   UNL     1       4.405  -6.516   9.139  1.00  0.00     0.022 A 
BRANCH  64  67
ATOM     67  S   UNL     1       6.258  -6.680  11.162  1.00  0.00     0.127 S 
ATOM     68  O   UNL     1       5.606  -7.734  11.936  1.00  0.00    -0.237 OA
ATOM     69  O   UNL     1       7.081  -7.159  10.050  1.00  0.00    -0.237 OA
ATOM     70  O   UNL     1       6.881  -5.617  11.941  1.00  0.00    -0.744 OA
ENDBRANCH  64  67
ENDBRANCH  37  60
ENDBRANCH  11  12
ENDBRANCH   4   6
ENDBRANCH   3   4
ENDBRANCH   2   3
ENDBRANCH   1   2
BRANCH   1  71
ATOM     71  O   UNL     1       3.256   0.922  -0.098  1.00  0.00    -0.462 OA
BRANCH  71  72
ATOM     72  C   UNL     1       2.451   1.969  -0.409  1.00  0.00     0.310 C 
ATOM     73  O   UNL     1       1.853   2.058  -1.478  1.00  0.00    -0.252 OA
BRANCH  72  74
ATOM     74  C   UNL     1       2.385   3.097   0.612  1.00  0.00     0.119 C 
ATOM     75  C   UNL     1       2.634   4.469  -0.076  1.00  0.00     0.100 C 
ATOM     76  C   UNL     1       3.058   3.108   2.031  1.00  0.00     0.026 C 
ATOM     77  C   UNL     1       3.157   5.496   0.961  1.00  0.00     0.025 C 
ATOM     78  C   UNL     1       4.418   3.793   2.068  1.00  0.00    -0.027 C 
ATOM     79  C   UNL     1       2.218   4.100   2.893  1.00  0.00     0.009 C 
ATOM     80  C   UNL     1       4.472   5.014   1.508  1.00  0.00    -0.027 C 
ATOM     81  C   UNL     1       2.189   5.492   2.184  1.00  0.00     0.009 C 
BRANCH  75  82
ATOM     82  C   UNL     1       3.303   4.583  -1.470  1.00  0.00     0.228 C 
ATOM     83  O   UNL     1       2.616   5.070  -2.388  1.00  0.00    -0.274 OA
ATOM     84  N   UNL     1       4.601   4.368  -1.827  1.00  0.00    -0.326 N 
ATOM     85  H   UNL     1       4.788   4.727  -2.724  1.00  0.00     0.169 HD
BRANCH  84  86
ATOM     86  C   UNL     1       5.743   3.777  -1.268  1.00  0.00     0.041 A 
ATOM     87  C   UNL     1       7.006   4.180  -1.701  1.00  0.00     0.026 A 
ATOM     88  C   UNL     1       5.705   2.776  -0.324  1.00  0.00     0.026 A 
ATOM     89  C   UNL     1       8.168   3.710  -1.058  1.00  0.00     0.008 A 
ATOM     90  C   UNL     1       6.836   2.267   0.302  1.00  0.00     0.008 A 
ATOM     91  C   UNL     1       8.082   2.788  -0.005  1.00  0.00    -0.026 A 
BRANCH  91  92
ATOM     92  C   UNL     1       9.258   2.367   0.832  1.00  0.00     0.181 C 
BRANCH  92  93
ATOM     93  N   UNL     1       9.857   1.147   0.341  1.00  0.00    -0.249 N 
ATOM     94  C   UNL     1      10.733   1.019  -0.691  1.00  0.00     0.220 A 
ATOM     95  N   UNL     1       9.657  -0.035   0.955  1.00  0.00    -0.160 NA
ATOM     96  N   UNL     1      11.124  -0.231  -0.783  1.00  0.00    -0.224 NA
ATOM     97  C   UNL     1      10.445  -0.839   0.237  1.00  0.00     0.246 A 
ENDBRANCH  92  93
ENDBRANCH  91  92
ENDBRANCH  84  86
ENDBRANCH  75  82
ENDBRANCH  72  74
ENDBRANCH  71  72
ENDBRANCH   1  71
TORSDOF 18
