REMARK SMILES O=C(OCCOC(=O)c1ccc(Cl)nc1NC[C@@H]1C[N@@H+]2CCC[C@@H]2CO1)c1ccc(-c2c3nc(c(-c4cccc(S(=O)(=O)[O-])c4F)c4ccc([nH]4)c(-c4cccc(S(=O)(=O)[O-])c4F)c4nc(c(-c5cccc(S(=O)(=O)[O-])c5F)c5ccc2[nH]5)C=C4)C=C3)cc1
REMARK SMILES IDX 4 1 3 2 2 3 1 4 27 5 28 6 89 7 29 8 88 9 30 10 31 11 32 12
REMARK SMILES IDX 82 13 33 14 87 15 81 16 83 17 34 18 86 19 80 20 79 21 35 23
REMARK SMILES IDX 67 24 47 25 66 26 48 27 51 28 65 29 84 30 49 31 50 32 64 34
REMARK SMILES IDX 85 35 52 36 36 37 37 38 45 39 38 40 40 41 46 42 39 43 41 44
REMARK SMILES IDX 42 45 43 46 44 47 68 48 69 49 77 50 70 51 72 52 78 53 71 54
REMARK SMILES IDX 73 55 74 56 75 57 76 58 53 59 54 60 62 61 55 62 57 63 63 64
REMARK SMILES IDX 56 65 58 66 59 67 60 68 61 69 5 70 6 71 7 72 8 73 9 74 10 75
REMARK SMILES IDX 15 76 11 77 14 78 12 79 13 80 16 81 17 83 18 84 19 85 26 86
REMARK SMILES IDX 20 87 25 88 21 89 24 90 22 92 23 93
REMARK H PARENT 83 22 51 33 16 82 20 91
REMARK Flexibility Score: inf
ROOT
ATOM      1  C   UNL     1      -5.509   6.765   0.470  1.00  0.00     0.275 C 
ENDROOT
BRANCH   1   2
ATOM      2  O   UNL     1      -4.375   6.196   1.148  1.00  0.00    -0.458 OA
BRANCH   2   3
ATOM      3  C   UNL     1      -4.339   5.481   2.299  1.00  0.00     0.338 C 
ATOM      4  O   UNL     1      -3.267   5.356   2.889  1.00  0.00    -0.246 OA
BRANCH   3   5
ATOM      5  C   UNL     1      -5.506   4.678   2.772  1.00  0.00     0.060 A 
ATOM      6  C   UNL     1      -6.847   5.060   2.702  1.00  0.00     0.016 A 
ATOM      7  C   UNL     1      -5.207   3.428   3.334  1.00  0.00     0.016 A 
ATOM      8  C   UNL     1      -7.862   4.183   3.090  1.00  0.00     0.010 A 
ATOM      9  C   UNL     1      -6.214   2.528   3.682  1.00  0.00     0.010 A 
ATOM     10  C   UNL     1      -7.552   2.915   3.582  1.00  0.00    -0.014 A 
BRANCH  10  11
ATOM     11  C   UNL     1      -8.614   2.091   4.191  1.00  0.00     0.031 A 
ATOM     12  C   UNL     1      -8.680   2.036   5.688  1.00  0.00     0.074 A 
ATOM     13  C   UNL     1      -9.518   1.446   3.433  1.00  0.00     0.049 A 
ATOM     14  N   UNL     1      -9.585   1.487   6.449  1.00  0.00    -0.248 NA
ATOM     15  C   UNL     1      -7.601   2.717   6.427  1.00  0.00     0.031 C 
ATOM     16  C   UNL     1      -9.570   1.475   1.974  1.00  0.00     0.029 A 
ATOM     17  N   UNL     1     -10.559   0.627   3.782  1.00  0.00    -0.354 N 
ATOM     18  C   UNL     1      -9.195   1.770   7.750  1.00  0.00     0.074 A 
ATOM     19  C   UNL     1      -7.939   2.478   7.682  1.00  0.00     0.031 C 
ATOM     20  C   UNL     1     -10.540   0.650   1.546  1.00  0.00     0.029 A 
ATOM     21  C   UNL     1     -11.204   0.065   2.706  1.00  0.00     0.049 A 
ATOM     22  H   UNL     1     -10.821   0.457   4.716  1.00  0.00     0.167 HD
ATOM     23  C   UNL     1      -9.855   1.512   8.901  1.00  0.00     0.034 A 
ATOM     24  C   UNL     1     -12.227  -0.810   2.669  1.00  0.00     0.034 A 
ATOM     25  C   UNL     1     -11.096   0.798   8.951  1.00  0.00     0.049 A 
ATOM     26  C   UNL     1     -12.896  -1.169   3.969  1.00  0.00     0.074 A 
ATOM     27  C   UNL     1     -11.878   0.499  10.049  1.00  0.00     0.029 A 
ATOM     28  N   UNL     1     -11.721   0.242   7.843  1.00  0.00    -0.354 N 
ATOM     29  N   UNL     1     -12.607  -0.758   5.182  1.00  0.00    -0.248 NA
ATOM     30  C   UNL     1     -14.072  -2.046   3.895  1.00  0.00     0.031 C 
ATOM     31  C   UNL     1     -12.962  -0.268   9.607  1.00  0.00     0.029 A 
ATOM     32  C   UNL     1     -12.872  -0.417   8.230  1.00  0.00     0.049 A 
ATOM     33  H   UNL     1     -11.393   0.308   6.918  1.00  0.00     0.167 HD
ATOM     34  C   UNL     1     -13.601  -1.269   6.006  1.00  0.00     0.074 A 
ATOM     35  C   UNL     1     -14.496  -2.027   5.152  1.00  0.00     0.031 C 
ATOM     36  C   UNL     1     -13.768  -1.118   7.344  1.00  0.00     0.034 A 
BRANCH  23  37
ATOM     37  C   UNL     1      -9.232   2.036  10.165  1.00  0.00     0.023 A 
ATOM     38  C   UNL     1      -9.211   3.428  10.405  1.00  0.00     0.012 A 
ATOM     39  C   UNL     1      -8.617   1.167  11.083  1.00  0.00     0.148 A 
ATOM     40  C   UNL     1      -8.539   3.949  11.509  1.00  0.00     0.002 A 
ATOM     41  C   UNL     1      -7.987   1.691  12.205  1.00  0.00     0.091 A 
ATOM     42  F   UNL     1      -8.621  -0.147  10.820  1.00  0.00    -0.205 F 
ATOM     43  C   UNL     1      -7.931   3.080  12.411  1.00  0.00     0.022 A 
BRANCH  41  44
ATOM     44  S   UNL     1      -7.226   0.652  13.454  1.00  0.00     0.127 S 
ATOM     45  O   UNL     1      -5.804   0.887  13.208  1.00  0.00    -0.237 OA
ATOM     46  O   UNL     1      -7.735   1.240  14.694  1.00  0.00    -0.237 OA
ATOM     47  O   UNL     1      -7.694  -0.701  13.189  1.00  0.00    -0.744 OA
ENDBRANCH  41  44
ENDBRANCH  23  37
BRANCH  24  48
ATOM     48  C   UNL     1     -12.740  -1.311   1.362  1.00  0.00     0.023 A 
ATOM     49  C   UNL     1     -13.985  -0.860   0.881  1.00  0.00     0.012 A 
ATOM     50  C   UNL     1     -11.986  -2.207   0.577  1.00  0.00     0.148 A 
ATOM     51  C   UNL     1     -14.485  -1.317  -0.340  1.00  0.00     0.002 A 
ATOM     52  C   UNL     1     -12.472  -2.627  -0.657  1.00  0.00     0.091 A 
ATOM     53  F   UNL     1     -10.802  -2.620   1.049  1.00  0.00    -0.205 F 
ATOM     54  C   UNL     1     -13.728  -2.195  -1.111  1.00  0.00     0.022 A 
BRANCH  52  55
ATOM     55  S   UNL     1     -11.523  -3.668  -1.772  1.00  0.00     0.127 S 
ATOM     56  O   UNL     1     -12.315  -4.895  -1.785  1.00  0.00    -0.237 OA
ATOM     57  O   UNL     1     -11.566  -2.892  -3.012  1.00  0.00    -0.237 OA
ATOM     58  O   UNL     1     -10.198  -3.776  -1.178  1.00  0.00    -0.744 OA
ENDBRANCH  52  55
ENDBRANCH  24  48
BRANCH  36  59
ATOM     59  C   UNL     1     -14.988  -1.738   7.967  1.00  0.00     0.023 A 
ATOM     60  C   UNL     1     -15.058  -3.133   8.142  1.00  0.00     0.012 A 
ATOM     61  C   UNL     1     -16.017  -0.919   8.471  1.00  0.00     0.148 A 
ATOM     62  C   UNL     1     -16.149  -3.707   8.791  1.00  0.00     0.002 A 
ATOM     63  C   UNL     1     -17.073  -1.493   9.165  1.00  0.00     0.091 A 
ATOM     64  F   UNL     1     -15.938   0.405   8.271  1.00  0.00    -0.205 F 
ATOM     65  C   UNL     1     -17.147  -2.887   9.316  1.00  0.00     0.022 A 
BRANCH  63  66
ATOM     66  S   UNL     1     -18.337  -0.504   9.970  1.00  0.00     0.127 S 
ATOM     67  O   UNL     1     -19.484  -0.711   9.087  1.00  0.00    -0.237 OA
ATOM     68  O   UNL     1     -18.450  -1.149  11.279  1.00  0.00    -0.237 OA
ATOM     69  O   UNL     1     -17.816   0.856  10.012  1.00  0.00    -0.744 OA
ENDBRANCH  63  66
ENDBRANCH  36  59
ENDBRANCH  10  11
ENDBRANCH   3   5
ENDBRANCH   2   3
ENDBRANCH   1   2
BRANCH   1  70
ATOM     70  C   UNL     1      -6.122   5.895  -0.633  1.00  0.00     0.275 C 
BRANCH  70  71
ATOM     71  O   UNL     1      -6.357   4.527  -0.267  1.00  0.00    -0.458 OA
BRANCH  71  72
ATOM     72  C   UNL     1      -5.308   3.697  -0.510  1.00  0.00     0.342 C 
ATOM     73  O   UNL     1      -4.222   4.042  -0.950  1.00  0.00    -0.246 OA
BRANCH  72  74
ATOM     74  C   UNL     1      -5.615   2.319  -0.074  1.00  0.00     0.102 A 
ATOM     75  C   UNL     1      -6.809   1.702  -0.462  1.00  0.00     0.023 A 
ATOM     76  C   UNL     1      -4.684   1.606   0.701  1.00  0.00     0.142 A 
ATOM     77  C   UNL     1      -7.072   0.405  -0.030  1.00  0.00     0.042 A 
ATOM     78  N   UNL     1      -4.969   0.367   1.152  1.00  0.00    -0.218 NA
ATOM     79  C   UNL     1      -6.142  -0.196   0.793  1.00  0.00     0.131 A 
ATOM     80  Cl  UNL     1      -6.403  -1.755   1.449  1.00  0.00    -0.062 Cl
BRANCH  76  81
ATOM     81  N   UNL     1      -3.473   2.163   1.062  1.00  0.00    -0.366 N 
ATOM     82  H   UNL     1      -3.268   3.070   0.740  1.00  0.00     0.162 HD
BRANCH  81  83
ATOM     83  C   UNL     1      -2.483   1.492   1.887  1.00  0.00     0.152 C 
BRANCH  83  84
ATOM     84  C   UNL     1      -1.165   1.127   1.160  1.00  0.00     0.192 C 
ATOM     85  C   UNL     1      -0.903   1.766  -0.227  1.00  0.00     0.296 C 
ATOM     86  O   UNL     1      -0.942  -0.297   1.118  1.00  0.00    -0.364 OA
ATOM     87  N   UNL     1      -1.319   1.035  -1.425  1.00  0.00    -0.328 N 
ATOM     88  C   UNL     1      -1.822  -0.919   0.181  1.00  0.00     0.225 C 
ATOM     89  C   UNL     1      -2.398   1.627  -2.197  1.00  0.00     0.262 C 
ATOM     90  C   UNL     1      -1.589  -0.401  -1.245  1.00  0.00     0.210 C 
ATOM     91  H   UNL     1      -0.463   1.126  -1.972  1.00  0.00     0.348 HD
ATOM     92  C   UNL     1      -2.838   0.489  -3.097  1.00  0.00     0.068 C 
ATOM     93  C   UNL     1      -2.778  -0.706  -2.162  1.00  0.00     0.073 C 
ENDBRANCH  83  84
ENDBRANCH  81  83
ENDBRANCH  76  81
ENDBRANCH  72  74
ENDBRANCH  71  72
ENDBRANCH  70  71
ENDBRANCH   1  70
TORSDOF 17
