REMARK SMILES C[C@@H](C(=O)OCCOC(=O)c1ccc(-c2c3nc(c(-c4cccc(S(=O)(=O)[O-])c4F)c4ccc([nH]4)c(-c4cccc(S(=O)(=O)[O-])c4F)c4nc(c(-c5cccc(S(=O)(=O)[O-])c5F)c5ccc2[nH]5)C=C4)C=C3)cc1)c1ccc2c3cc(Cl)ccc3n(C(=O)c3cocn3)c2c1
REMARK SMILES IDX 6 1 5 2 3 3 4 4 2 5 1 6 74 7 75 8 94 9 76 10 93 11 77 12
REMARK SMILES IDX 85 13 78 14 84 15 79 16 83 17 80 18 82 19 81 20 86 21 87 22
REMARK SMILES IDX 88 23 89 24 92 25 90 26 91 27 7 28 8 29 9 30 10 31 11 32
REMARK SMILES IDX 12 33 73 34 13 35 72 36 14 37 15 38 16 39 66 40 17 41 71 42
REMARK SMILES IDX 65 43 67 44 18 45 70 46 64 47 63 48 19 50 51 51 31 52 50 53
REMARK SMILES IDX 32 54 35 55 49 56 68 57 33 58 34 59 48 61 69 62 36 63 20 64
REMARK SMILES IDX 21 65 29 66 22 67 24 68 30 69 23 70 25 71 26 72 27 73 28 74
REMARK SMILES IDX 52 75 53 76 61 77 54 78 56 79 62 80 55 81 57 82 58 83 59 84
REMARK SMILES IDX 60 85 37 86 38 87 46 88 39 89 41 90 47 91 40 92 42 93 43 94
REMARK SMILES IDX 44 95 45 96
REMARK H PARENT 67 49 35 60
REMARK Flexibility Score: inf
ROOT
ATOM      1  C   UNL     1       2.550   3.516  -1.727  1.00  0.00     0.274 C 
ENDROOT
BRANCH   1   2
ATOM      2  O   UNL     1       2.098   2.507  -0.800  1.00  0.00    -0.462 OA
BRANCH   2   3
ATOM      3  C   UNL     1       1.019   2.822  -0.026  1.00  0.00     0.313 C 
ATOM      4  O   UNL     1       0.460   3.911  -0.087  1.00  0.00    -0.252 OA
BRANCH   3   5
ATOM      5  C   UNL     1       0.666   1.706   0.992  1.00  0.00     0.126 C 
ATOM      6  C   UNL     1       1.343   0.380   0.600  1.00  0.00     0.025 C 
BRANCH   5   7
ATOM      7  C   UNL     1      -0.850   1.570   1.259  1.00  0.00    -0.032 A 
ATOM      8  C   UNL     1      -1.626   2.708   1.510  1.00  0.00     0.005 A 
ATOM      9  C   UNL     1      -1.506   0.320   1.263  1.00  0.00     0.032 A 
ATOM     10  C   UNL     1      -3.022   2.642   1.601  1.00  0.00     0.011 A 
ATOM     11  C   UNL     1      -2.915   0.239   1.419  1.00  0.00     0.058 A 
ATOM     12  C   UNL     1      -3.676   1.398   1.519  1.00  0.00     0.008 A 
ATOM     13  N   UNL     1      -3.790  -0.867   1.464  1.00  0.00    -0.274 N 
ATOM     14  C   UNL     1      -5.044   1.022   1.464  1.00  0.00     0.009 A 
ATOM     15  C   UNL     1      -5.108  -0.376   1.528  1.00  0.00     0.057 A 
ATOM     16  C   UNL     1      -6.236   1.779   1.390  1.00  0.00     0.031 A 
ATOM     17  C   UNL     1      -6.362  -1.010   1.670  1.00  0.00     0.029 A 
ATOM     18  C   UNL     1      -7.468   1.134   1.435  1.00  0.00     0.041 A 
ATOM     19  C   UNL     1      -7.532  -0.241   1.596  1.00  0.00     0.023 A 
ATOM     20  Cl  UNL     1      -8.915   2.058   1.351  1.00  0.00    -0.084 Cl
BRANCH  13  21
ATOM     21  C   UNL     1      -3.359  -2.228   1.469  1.00  0.00     0.284 C 
ATOM     22  O   UNL     1      -2.167  -2.425   1.703  1.00  0.00    -0.266 OA
BRANCH  21  23
ATOM     23  C   UNL     1      -4.215  -3.385   1.231  1.00  0.00     0.167 A 
ATOM     24  C   UNL     1      -5.139  -3.581   0.226  1.00  0.00     0.231 A 
ATOM     25  N   UNL     1      -4.108  -4.556   1.970  1.00  0.00    -0.211 NA
ATOM     26  O   UNL     1      -5.646  -4.841   0.351  1.00  0.00    -0.451 OA
ATOM     27  C   UNL     1      -4.976  -5.365   1.411  1.00  0.00     0.308 A 
ENDBRANCH  21  23
ENDBRANCH  13  21
ENDBRANCH   5   7
ENDBRANCH   3   5
ENDBRANCH   2   3
ENDBRANCH   1   2
BRANCH   1  28
ATOM     28  C   UNL     1       2.180   3.154  -3.165  1.00  0.00     0.275 C 
BRANCH  28  29
ATOM     29  O   UNL     1       0.758   3.232  -3.362  1.00  0.00    -0.458 OA
BRANCH  29  30
ATOM     30  C   UNL     1       0.114   2.045  -3.445  1.00  0.00     0.338 C 
ATOM     31  O   UNL     1       0.607   0.931  -3.428  1.00  0.00    -0.246 OA
BRANCH  30  32
ATOM     32  C   UNL     1      -1.336   2.284  -3.399  1.00  0.00     0.060 A 
ATOM     33  C   UNL     1      -1.972   2.067  -2.181  1.00  0.00     0.016 A 
ATOM     34  C   UNL     1      -2.077   2.628  -4.531  1.00  0.00     0.016 A 
ATOM     35  C   UNL     1      -3.352   2.190  -2.083  1.00  0.00     0.010 A 
ATOM     36  C   UNL     1      -3.472   2.755  -4.427  1.00  0.00     0.010 A 
ATOM     37  C   UNL     1      -4.119   2.526  -3.201  1.00  0.00    -0.014 A 
BRANCH  37  38
ATOM     38  C   UNL     1      -5.597   2.538  -3.057  1.00  0.00     0.031 A 
ATOM     39  C   UNL     1      -6.401   1.370  -3.551  1.00  0.00     0.074 A 
ATOM     40  C   UNL     1      -6.208   3.532  -2.385  1.00  0.00     0.049 A 
ATOM     41  N   UNL     1      -7.691   1.170  -3.485  1.00  0.00    -0.248 NA
ATOM     42  C   UNL     1      -5.652   0.272  -4.184  1.00  0.00     0.031 C 
ATOM     43  C   UNL     1      -5.532   4.672  -1.768  1.00  0.00     0.029 A 
ATOM     44  N   UNL     1      -7.534   3.727  -2.084  1.00  0.00    -0.354 N 
ATOM     45  C   UNL     1      -7.919  -0.044  -4.116  1.00  0.00     0.074 A 
ATOM     46  C   UNL     1      -6.629  -0.555  -4.530  1.00  0.00     0.031 C 
ATOM     47  C   UNL     1      -6.442   5.428  -1.130  1.00  0.00     0.029 A 
ATOM     48  C   UNL     1      -7.771   4.853  -1.331  1.00  0.00     0.049 A 
ATOM     49  H   UNL     1      -8.248   3.117  -2.379  1.00  0.00     0.167 HD
ATOM     50  C   UNL     1      -9.095  -0.676  -4.339  1.00  0.00     0.034 A 
ATOM     51  C   UNL     1      -8.927   5.360  -0.857  1.00  0.00     0.034 A 
ATOM     52  C   UNL     1     -10.378  -0.192  -3.908  1.00  0.00     0.049 A 
ATOM     53  C   UNL     1     -10.225   4.654  -1.159  1.00  0.00     0.074 A 
ATOM     54  C   UNL     1     -11.623  -0.759  -4.119  1.00  0.00     0.029 A 
ATOM     55  N   UNL     1     -10.585   0.970  -3.182  1.00  0.00    -0.354 N 
ATOM     56  N   UNL     1     -10.423   3.500  -1.748  1.00  0.00    -0.248 NA
ATOM     57  C   UNL     1     -11.460   5.323  -0.722  1.00  0.00     0.031 C 
ATOM     58  C   UNL     1     -12.586   0.070  -3.534  1.00  0.00     0.029 A 
ATOM     59  C   UNL     1     -11.938   1.143  -2.944  1.00  0.00     0.049 A 
ATOM     60  H   UNL     1      -9.875   1.581  -2.879  1.00  0.00     0.167 HD
ATOM     61  C   UNL     1     -11.798   3.288  -1.719  1.00  0.00     0.074 A 
ATOM     62  C   UNL     1     -12.383   4.426  -1.041  1.00  0.00     0.031 C 
ATOM     63  C   UNL     1     -12.512   2.254  -2.228  1.00  0.00     0.034 A 
BRANCH  50  64
ATOM     64  C   UNL     1      -9.051  -1.965  -5.109  1.00  0.00     0.023 A 
ATOM     65  C   UNL     1      -8.681  -3.158  -4.460  1.00  0.00     0.012 A 
ATOM     66  C   UNL     1      -9.423  -1.996  -6.466  1.00  0.00     0.148 A 
ATOM     67  C   UNL     1      -8.664  -4.364  -5.159  1.00  0.00     0.002 A 
ATOM     68  C   UNL     1      -9.437  -3.206  -7.147  1.00  0.00     0.091 A 
ATOM     69  F   UNL     1      -9.739  -0.841  -7.070  1.00  0.00    -0.205 F 
ATOM     70  C   UNL     1      -9.052  -4.390  -6.497  1.00  0.00     0.022 A 
BRANCH  68  71
ATOM     71  S   UNL     1      -9.984  -3.336  -8.853  1.00  0.00     0.127 S 
ATOM     72  O   UNL     1      -8.711  -3.450  -9.562  1.00  0.00    -0.237 OA
ATOM     73  O   UNL     1     -10.782  -4.562  -8.832  1.00  0.00    -0.237 OA
ATOM     74  O   UNL     1     -10.748  -2.125  -9.117  1.00  0.00    -0.744 OA
ENDBRANCH  68  71
ENDBRANCH  50  64
BRANCH  51  75
ATOM     75  C   UNL     1      -8.915   6.565   0.023  1.00  0.00     0.023 A 
ATOM     76  C   UNL     1      -9.295   6.423   1.372  1.00  0.00     0.012 A 
ATOM     77  C   UNL     1      -8.524   7.832  -0.447  1.00  0.00     0.148 A 
ATOM     78  C   UNL     1      -9.306   7.524   2.230  1.00  0.00     0.002 A 
ATOM     79  C   UNL     1      -8.480   8.913   0.428  1.00  0.00     0.091 A 
ATOM     80  F   UNL     1      -8.202   7.964  -1.742  1.00  0.00    -0.205 F 
ATOM     81  C   UNL     1      -8.885   8.765   1.763  1.00  0.00     0.022 A 
BRANCH  79  82
ATOM     82  S   UNL     1      -7.811  10.503  -0.075  1.00  0.00     0.127 S 
ATOM     83  O   UNL     1      -9.020  11.248  -0.411  1.00  0.00    -0.237 OA
ATOM     84  O   UNL     1      -7.127  10.954   1.138  1.00  0.00    -0.237 OA
ATOM     85  O   UNL     1      -6.913  10.199  -1.182  1.00  0.00    -0.744 OA
ENDBRANCH  79  82
ENDBRANCH  51  75
BRANCH  63  86
ATOM     86  C   UNL     1     -14.012   2.290  -2.084  1.00  0.00     0.023 A 
ATOM     87  C   UNL     1     -14.762   3.184  -2.873  1.00  0.00     0.012 A 
ATOM     88  C   UNL     1     -14.685   1.379  -1.245  1.00  0.00     0.148 A 
ATOM     89  C   UNL     1     -16.155   3.190  -2.811  1.00  0.00     0.002 A 
ATOM     90  C   UNL     1     -16.076   1.360  -1.222  1.00  0.00     0.091 A 
ATOM     91  F   UNL     1     -13.956   0.545  -0.488  1.00  0.00    -0.205 F 
ATOM     92  C   UNL     1     -16.812   2.271  -1.996  1.00  0.00     0.022 A 
BRANCH  90  93
ATOM     93  S   UNL     1     -17.005   0.146  -0.276  1.00  0.00     0.127 S 
ATOM     94  O   UNL     1     -17.473   0.943   0.857  1.00  0.00    -0.237 OA
ATOM     95  O   UNL     1     -18.054  -0.249  -1.218  1.00  0.00    -0.237 OA
ATOM     96  O   UNL     1     -16.060  -0.914   0.048  1.00  0.00    -0.744 OA
ENDBRANCH  90  93
ENDBRANCH  63  86
ENDBRANCH  37  38
ENDBRANCH  30  32
ENDBRANCH  29  30
ENDBRANCH  28  29
ENDBRANCH   1  28
TORSDOF 17
