REMARK SMILES C[C@H]1[C@H](C(=O)OCCOC(=O)c2ccc(-c3c4nc(c(-c5cccc(S(=O)(=O)[O-])c5F)c5ccc([nH]5)c(-c5cccc(S(=O)(=O)[O-])c5F)c5nc(c(-c6cccc(S(=O)(=O)[O-])c6F)c6ccc3[nH]6)C=C5)C=C4)cc2)CCN1C(=O)CC[NH2+]C1CC1
REMARK SMILES IDX 7 1 6 2 4 3 5 4 3 5 1 6 2 7 77 8 75 9 76 10 78 11 79 12
REMARK SMILES IDX 80 13 81 14 82 15 83 18 84 19 85 20 8 21 9 22 10 23 11 24
REMARK SMILES IDX 12 25 13 26 74 27 14 28 73 29 15 30 16 31 17 32 67 33 18 34
REMARK SMILES IDX 72 35 66 36 68 37 19 38 71 39 65 40 64 41 20 43 52 44 32 45
REMARK SMILES IDX 51 46 33 47 36 48 50 49 69 50 34 51 35 52 49 54 70 55 37 56
REMARK SMILES IDX 21 57 22 58 30 59 23 60 25 61 31 62 24 63 26 64 27 65 28 66
REMARK SMILES IDX 29 67 53 68 54 69 62 70 55 71 57 72 63 73 56 74 58 75 59 76
REMARK SMILES IDX 60 77 61 78 38 79 39 80 47 81 40 82 42 83 48 84 41 85 43 86
REMARK SMILES IDX 44 87 45 88 46 89
REMARK H PARENT 82 16 82 17 68 42 36 53
REMARK Flexibility Score: inf
ROOT
ATOM      1  C   UNL     1      -0.476   2.826   3.467  1.00  0.00     0.274 C 
ENDROOT
BRANCH   1   2
ATOM      2  O   UNL     1      -0.555   1.799   2.456  1.00  0.00    -0.462 OA
BRANCH   2   3
ATOM      3  C   UNL     1      -1.090   2.171   1.266  1.00  0.00     0.311 C 
ATOM      4  O   UNL     1      -1.572   3.273   1.032  1.00  0.00    -0.252 OA
BRANCH   3   5
ATOM      5  C   UNL     1      -1.095   1.067   0.232  1.00  0.00     0.123 C 
ATOM      6  C   UNL     1       0.962   0.334  -1.026  1.00  0.00     0.032 C 
ATOM      7  C   UNL     1       0.133   0.134   0.246  1.00  0.00     0.096 C 
ATOM      8  N   UNL     1      -0.425  -1.222   0.263  1.00  0.00    -0.339 N 
ATOM      9  C   UNL     1      -2.305   0.144   0.388  1.00  0.00     0.039 C 
ATOM     10  C   UNL     1      -1.814  -1.192  -0.142  1.00  0.00     0.121 C 
BRANCH   8  11
ATOM     11  C   UNL     1       0.207  -2.403   0.593  1.00  0.00     0.228 C 
ATOM     12  O   UNL     1      -0.332  -3.497   0.409  1.00  0.00    -0.275 OA
BRANCH  11  13
ATOM     13  C   UNL     1       1.586  -2.339   1.235  1.00  0.00     0.161 C 
BRANCH  13  14
ATOM     14  C   UNL     1       2.720  -2.455   0.215  1.00  0.00     0.270 C 
BRANCH  14  15
ATOM     15  N   UNL     1       3.646  -1.322   0.321  1.00  0.00    -0.343 N 
ATOM     16  H   UNL     1       4.120  -1.382   1.222  1.00  0.00     0.346 HD
ATOM     17  H   UNL     1       3.082  -0.477   0.223  1.00  0.00     0.346 HD
BRANCH  15  18
ATOM     18  C   UNL     1       4.665  -1.268  -0.731  1.00  0.00     0.182 C 
ATOM     19  C   UNL     1       4.319  -1.195  -2.193  1.00  0.00     0.071 C 
ATOM     20  C   UNL     1       4.835   0.024  -1.492  1.00  0.00     0.071 C 
ENDBRANCH  15  18
ENDBRANCH  14  15
ENDBRANCH  13  14
ENDBRANCH  11  13
ENDBRANCH   8  11
ENDBRANCH   3   5
ENDBRANCH   2   3
ENDBRANCH   1   2
BRANCH   1  21
ATOM     21  C   UNL     1       0.949   3.369   3.614  1.00  0.00     0.275 C 
BRANCH  21  22
ATOM     22  O   UNL     1       1.368   4.102   2.450  1.00  0.00    -0.458 OA
BRANCH  22  23
ATOM     23  C   UNL     1       2.008   3.368   1.513  1.00  0.00     0.338 C 
ATOM     24  O   UNL     1       2.256   2.174   1.549  1.00  0.00    -0.246 OA
BRANCH  23  25
ATOM     25  C   UNL     1       2.296   4.194   0.335  1.00  0.00     0.060 A 
ATOM     26  C   UNL     1       1.627   3.903  -0.857  1.00  0.00     0.016 A 
ATOM     27  C   UNL     1       3.304   5.155   0.372  1.00  0.00     0.016 A 
ATOM     28  C   UNL     1       2.010   4.526  -2.040  1.00  0.00     0.010 A 
ATOM     29  C   UNL     1       3.654   5.814  -0.808  1.00  0.00     0.010 A 
ATOM     30  C   UNL     1       3.028   5.487  -2.024  1.00  0.00    -0.014 A 
BRANCH  30  31
ATOM     31  C   UNL     1       3.447   6.162  -3.275  1.00  0.00     0.031 A 
ATOM     32  C   UNL     1       4.814   5.910  -3.841  1.00  0.00     0.074 A 
ATOM     33  C   UNL     1       2.616   7.045  -3.860  1.00  0.00     0.049 A 
ATOM     34  N   UNL     1       5.431   6.531  -4.811  1.00  0.00    -0.248 NA
ATOM     35  C   UNL     1       5.594   4.820  -3.231  1.00  0.00     0.031 C 
ATOM     36  C   UNL     1       1.260   7.357  -3.405  1.00  0.00     0.029 A 
ATOM     37  N   UNL     1       2.806   7.870  -4.939  1.00  0.00    -0.354 N 
ATOM     38  C   UNL     1       6.689   5.948  -4.894  1.00  0.00     0.074 A 
ATOM     39  C   UNL     1       6.745   4.913  -3.885  1.00  0.00     0.031 C 
ATOM     40  C   UNL     1       0.750   8.326  -4.180  1.00  0.00     0.029 A 
ATOM     41  C   UNL     1       1.760   8.738  -5.150  1.00  0.00     0.049 A 
ATOM     42  H   UNL     1       3.610   7.843  -5.506  1.00  0.00     0.167 HD
ATOM     43  C   UNL     1       7.700   6.248  -5.742  1.00  0.00     0.034 A 
ATOM     44  C   UNL     1       1.645   9.778  -5.999  1.00  0.00     0.034 A 
ATOM     45  C   UNL     1       7.618   7.248  -6.772  1.00  0.00     0.049 A 
ATOM     46  C   UNL     1       2.788  10.095  -6.923  1.00  0.00     0.074 A 
ATOM     47  C   UNL     1       8.574   7.598  -7.709  1.00  0.00     0.029 A 
ATOM     48  N   UNL     1       6.516   8.058  -7.001  1.00  0.00    -0.354 N 
ATOM     49  N   UNL     1       3.941   9.483  -7.045  1.00  0.00    -0.248 NA
ATOM     50  C   UNL     1       2.611  11.231  -7.838  1.00  0.00     0.031 C 
ATOM     51  C   UNL     1       8.053   8.626  -8.501  1.00  0.00     0.029 A 
ATOM     52  C   UNL     1       6.768   8.908  -8.063  1.00  0.00     0.049 A 
ATOM     53  H   UNL     1       5.679   8.031  -6.485  1.00  0.00     0.167 HD
ATOM     54  C   UNL     1       4.612  10.135  -8.073  1.00  0.00     0.074 A 
ATOM     55  C   UNL     1       3.731  11.183  -8.547  1.00  0.00     0.031 C 
ATOM     56  C   UNL     1       5.851   9.897  -8.567  1.00  0.00     0.034 A 
BRANCH  43  57
ATOM     57  C   UNL     1       8.978   5.464  -5.617  1.00  0.00     0.023 A 
ATOM     58  C   UNL     1       9.039   4.150  -6.120  1.00  0.00     0.012 A 
ATOM     59  C   UNL     1      10.135   6.050  -5.066  1.00  0.00     0.148 A 
ATOM     60  C   UNL     1      10.227   3.422  -6.059  1.00  0.00     0.002 A 
ATOM     61  C   UNL     1      11.324   5.330  -5.040  1.00  0.00     0.091 A 
ATOM     62  F   UNL     1      10.050   7.292  -4.569  1.00  0.00    -0.205 F 
ATOM     63  C   UNL     1      11.370   4.014  -5.529  1.00  0.00     0.022 A 
BRANCH  61  64
ATOM     64  S   UNL     1      12.862   6.039  -4.438  1.00  0.00     0.127 S 
ATOM     65  O   UNL     1      12.976   5.419  -3.119  1.00  0.00    -0.237 OA
ATOM     66  O   UNL     1      13.834   5.560  -5.422  1.00  0.00    -0.237 OA
ATOM     67  O   UNL     1      12.661   7.481  -4.442  1.00  0.00    -0.744 OA
ENDBRANCH  61  64
ENDBRANCH  43  57
BRANCH  44  68
ATOM     68  C   UNL     1       0.385  10.571  -6.026  1.00  0.00     0.023 A 
ATOM     69  C   UNL     1      -0.476  10.458  -7.133  1.00  0.00     0.012 A 
ATOM     70  C   UNL     1       0.009  11.389  -4.942  1.00  0.00     0.148 A 
ATOM     71  C   UNL     1      -1.682  11.160  -7.170  1.00  0.00     0.002 A 
ATOM     72  C   UNL     1      -1.218  12.043  -4.961  1.00  0.00     0.091 A 
ATOM     73  F   UNL     1       0.851  11.501  -3.905  1.00  0.00    -0.205 F 
ATOM     74  C   UNL     1      -2.059  11.941  -6.080  1.00  0.00     0.022 A 
BRANCH  72  75
ATOM     75  S   UNL     1      -1.835  12.954  -3.541  1.00  0.00     0.127 S 
ATOM     76  O   UNL     1      -1.608  14.337  -3.950  1.00  0.00    -0.237 OA
ATOM     77  O   UNL     1      -3.241  12.547  -3.501  1.00  0.00    -0.237 OA
ATOM     78  O   UNL     1      -1.048  12.485  -2.409  1.00  0.00    -0.744 OA
ENDBRANCH  72  75
ENDBRANCH  44  68
BRANCH  56  79
ATOM     79  C   UNL     1       6.325  10.751  -9.711  1.00  0.00     0.023 A 
ATOM     80  C   UNL     1       6.780  12.059  -9.460  1.00  0.00     0.012 A 
ATOM     81  C   UNL     1       6.425  10.216 -11.010  1.00  0.00     0.148 A 
ATOM     82  C   UNL     1       7.317  12.829 -10.491  1.00  0.00     0.002 A 
ATOM     83  C   UNL     1       6.998  10.974 -12.023  1.00  0.00     0.091 A 
ATOM     84  F   UNL     1       5.968   8.974 -11.227  1.00  0.00    -0.205 F 
ATOM     85  C   UNL     1       7.438  12.283 -11.767  1.00  0.00     0.022 A 
BRANCH  83  86
ATOM     86  S   UNL     1       7.277  10.323 -13.674  1.00  0.00     0.127 S 
ATOM     87  O   UNL     1       6.276  11.049 -14.454  1.00  0.00    -0.237 OA
ATOM     88  O   UNL     1       8.660  10.721 -13.936  1.00  0.00    -0.237 OA
ATOM     89  O   UNL     1       7.070   8.884 -13.578  1.00  0.00    -0.744 OA
ENDBRANCH  83  86
ENDBRANCH  56  79
ENDBRANCH  30  31
ENDBRANCH  23  25
ENDBRANCH  22  23
ENDBRANCH  21  22
ENDBRANCH   1  21
TORSDOF 19
