REMARK SMILES CC1(C)C(Nc2cc(C(=O)OCCOC(=O)c3ccc(-c4c5nc(c(-c6cccc(S(=O)(=O)[O-])c6F)c6ccc([nH]6)c(-c6cccc(S(=O)(=O)[O-])c6F)c6nc(c(-c7cccc(S(=O)(=O)[O-])c7F)c7ccc4[nH]7)C=C6)C=C5)cc3)cc(Cl)n2)C1(C)C
REMARK SMILES IDX 13 1 12 2 11 3 9 4 10 5 8 6 6 7 7 8 83 9 81 10 80 11 82 12
REMARK SMILES IDX 5 13 4 15 1 16 2 17 3 18 84 19 85 20 86 21 14 22 15 23 16 24
REMARK SMILES IDX 17 25 18 26 79 27 19 28 78 29 20 30 21 31 22 32 72 33 23 34
REMARK SMILES IDX 77 35 71 36 73 37 24 38 76 39 70 40 69 41 25 43 57 44 37 45
REMARK SMILES IDX 56 46 38 47 41 48 55 49 74 50 39 51 40 52 54 54 75 55 42 56
REMARK SMILES IDX 26 57 27 58 35 59 28 60 30 61 36 62 29 63 31 64 32 65 33 66
REMARK SMILES IDX 34 67 58 68 59 69 67 70 60 71 62 72 68 73 61 74 63 75 64 76
REMARK SMILES IDX 65 77 66 78 43 79 44 80 52 81 45 82 47 83 53 84 46 85 48 86
REMARK SMILES IDX 49 87 50 88 51 89
REMARK H PARENT 5 14 73 42 41 53
REMARK Flexibility Score: inf
ROOT
ATOM      1  C   UNL     1      -2.073  -2.536  -8.019  1.00  0.00     0.275 C 
ENDROOT
BRANCH   1   2
ATOM      2  C   UNL     1      -3.432  -2.799  -7.362  1.00  0.00     0.275 C 
BRANCH   2   3
ATOM      3  O   UNL     1      -3.582  -2.082  -6.116  1.00  0.00    -0.458 OA
BRANCH   3   4
ATOM      4  C   UNL     1      -3.483  -2.825  -4.982  1.00  0.00     0.338 C 
ATOM      5  O   UNL     1      -3.281  -4.022  -4.920  1.00  0.00    -0.246 OA
BRANCH   4   6
ATOM      6  C   UNL     1      -3.629  -1.977  -3.774  1.00  0.00     0.066 A 
ATOM      7  C   UNL     1      -3.042  -1.484  -1.486  1.00  0.00     0.128 A 
ATOM      8  C   UNL     1      -2.858  -2.245  -2.635  1.00  0.00     0.062 A 
ATOM      9  N   UNL     1      -4.003  -0.547  -1.415  1.00  0.00    -0.219 NA
ATOM     10  C   UNL     1      -4.727  -0.310  -2.530  1.00  0.00     0.132 A 
ATOM     11  C   UNL     1      -4.579  -0.969  -3.732  1.00  0.00     0.057 A 
ATOM     12  Cl  UNL     1      -5.917   0.914  -2.351  1.00  0.00    -0.062 Cl
BRANCH   7  13
ATOM     13  N   UNL     1      -2.209  -1.629  -0.364  1.00  0.00    -0.366 N 
ATOM     14  H   UNL     1      -2.607  -1.773   0.525  1.00  0.00     0.162 HD
BRANCH  13  15
ATOM     15  C   UNL     1      -0.746  -1.567  -0.510  1.00  0.00     0.093 C 
ATOM     16  C   UNL     1       1.051   0.162   0.031  1.00  0.00     0.014 C 
ATOM     17  C   UNL     1       0.091  -0.885   0.575  1.00  0.00    -0.008 C 
ATOM     18  C   UNL     1      -0.328  -0.578   1.989  1.00  0.00     0.014 C 
ATOM     19  C   UNL     1       0.266  -2.376   0.266  1.00  0.00    -0.008 C 
ATOM     20  C   UNL     1       1.604  -2.724  -0.309  1.00  0.00     0.014 C 
ATOM     21  C   UNL     1      -0.280  -3.503   1.114  1.00  0.00     0.014 C 
ENDBRANCH  13  15
ENDBRANCH   7  13
ENDBRANCH   4   6
ENDBRANCH   3   4
ENDBRANCH   2   3
ENDBRANCH   1   2
BRANCH   1  22
ATOM     22  O   UNL     1      -1.010  -3.157  -7.275  1.00  0.00    -0.458 OA
BRANCH  22  23
ATOM     23  C   UNL     1      -0.343  -2.333  -6.438  1.00  0.00     0.338 C 
ATOM     24  O   UNL     1      -0.520  -1.135  -6.282  1.00  0.00    -0.246 OA
BRANCH  23  25
ATOM     25  C   UNL     1       0.575  -3.112  -5.598  1.00  0.00     0.060 A 
ATOM     26  C   UNL     1       0.053  -3.654  -4.434  1.00  0.00     0.016 A 
ATOM     27  C   UNL     1       1.947  -3.157  -5.833  1.00  0.00     0.016 A 
ATOM     28  C   UNL     1       0.901  -4.125  -3.443  1.00  0.00     0.010 A 
ATOM     29  C   UNL     1       2.795  -3.744  -4.875  1.00  0.00     0.010 A 
ATOM     30  C   UNL     1       2.292  -4.189  -3.640  1.00  0.00    -0.014 A 
BRANCH  30  31
ATOM     31  C   UNL     1       3.172  -4.620  -2.502  1.00  0.00     0.031 A 
ATOM     32  C   UNL     1       4.221  -3.680  -1.935  1.00  0.00     0.074 A 
ATOM     33  C   UNL     1       2.886  -5.747  -1.809  1.00  0.00     0.049 A 
ATOM     34  N   UNL     1       4.999  -3.844  -0.891  1.00  0.00    -0.248 NA
ATOM     35  C   UNL     1       4.378  -2.367  -2.582  1.00  0.00     0.031 C 
ATOM     36  C   UNL     1       1.816  -6.693  -2.138  1.00  0.00     0.029 A 
ATOM     37  N   UNL     1       3.404  -6.241  -0.632  1.00  0.00    -0.354 N 
ATOM     38  C   UNL     1       5.766  -2.688  -0.792  1.00  0.00     0.074 A 
ATOM     39  C   UNL     1       5.351  -1.817  -1.869  1.00  0.00     0.031 C 
ATOM     40  C   UNL     1       1.698  -7.590  -1.151  1.00  0.00     0.029 A 
ATOM     41  C   UNL     1       2.768  -7.377  -0.182  1.00  0.00     0.049 A 
ATOM     42  H   UNL     1       4.157  -5.822  -0.158  1.00  0.00     0.167 HD
ATOM     43  C   UNL     1       6.723  -2.366   0.113  1.00  0.00     0.034 A 
ATOM     44  C   UNL     1       3.031  -8.194   0.858  1.00  0.00     0.034 A 
ATOM     45  C   UNL     1       7.118  -3.193   1.222  1.00  0.00     0.049 A 
ATOM     46  C   UNL     1       4.184  -7.879   1.767  1.00  0.00     0.074 A 
ATOM     47  C   UNL     1       8.117  -2.960   2.153  1.00  0.00     0.029 A 
ATOM     48  N   UNL     1       6.540  -4.406   1.556  1.00  0.00    -0.354 N 
ATOM     49  N   UNL     1       4.928  -6.803   1.812  1.00  0.00    -0.248 NA
ATOM     50  C   UNL     1       4.536  -8.896   2.769  1.00  0.00     0.031 C 
ATOM     51  C   UNL     1       8.173  -4.054   3.022  1.00  0.00     0.029 A 
ATOM     52  C   UNL     1       7.178  -4.947   2.662  1.00  0.00     0.049 A 
ATOM     53  H   UNL     1       5.787  -4.823   1.079  1.00  0.00     0.167 HD
ATOM     54  C   UNL     1       5.827  -7.006   2.853  1.00  0.00     0.074 A 
ATOM     55  C   UNL     1       5.508  -8.291   3.438  1.00  0.00     0.031 C 
ATOM     56  C   UNL     1       6.841  -6.208   3.268  1.00  0.00     0.034 A 
BRANCH  43  57
ATOM     57  C   UNL     1       7.461  -1.066  -0.083  1.00  0.00     0.023 A 
ATOM     58  C   UNL     1       6.862   0.160   0.263  1.00  0.00     0.012 A 
ATOM     59  C   UNL     1       8.787  -1.080  -0.560  1.00  0.00     0.148 A 
ATOM     60  C   UNL     1       7.566   1.357   0.113  1.00  0.00     0.002 A 
ATOM     61  C   UNL     1       9.496   0.110  -0.666  1.00  0.00     0.091 A 
ATOM     62  F   UNL     1       9.329  -2.257  -0.903  1.00  0.00    -0.205 F 
ATOM     63  C   UNL     1       8.883   1.331  -0.340  1.00  0.00     0.022 A 
BRANCH  61  64
ATOM     64  S   UNL     1      11.219   0.165  -1.169  1.00  0.00     0.127 S 
ATOM     65  O   UNL     1      11.119   0.773  -2.494  1.00  0.00    -0.237 OA
ATOM     66  O   UNL     1      11.811   1.026  -0.145  1.00  0.00    -0.237 OA
ATOM     67  O   UNL     1      11.688  -1.214  -1.148  1.00  0.00    -0.744 OA
ENDBRANCH  61  64
ENDBRANCH  43  57
BRANCH  44  68
ATOM     68  C   UNL     1       2.233  -9.443   1.049  1.00  0.00     0.023 A 
ATOM     69  C   UNL     1       1.483  -9.644   2.223  1.00  0.00     0.012 A 
ATOM     70  C   UNL     1       2.224 -10.441   0.053  1.00  0.00     0.148 A 
ATOM     71  C   UNL     1       0.756 -10.824   2.407  1.00  0.00     0.002 A 
ATOM     72  C   UNL     1       1.435 -11.573   0.206  1.00  0.00     0.091 A 
ATOM     73  F   UNL     1       2.984 -10.260  -1.036  1.00  0.00    -0.205 F 
ATOM     74  C   UNL     1       0.717 -11.778   1.392  1.00  0.00     0.022 A 
BRANCH  72  75
ATOM     75  S   UNL     1       1.213 -12.760  -1.121  1.00  0.00     0.127 S 
ATOM     76  O   UNL     1       1.974 -13.905  -0.629  1.00  0.00    -0.237 OA
ATOM     77  O   UNL     1      -0.239 -12.939  -1.127  1.00  0.00    -0.237 OA
ATOM     78  O   UNL     1       1.739 -12.115  -2.317  1.00  0.00    -0.744 OA
ENDBRANCH  72  75
ENDBRANCH  44  68
BRANCH  56  79
ATOM     79  C   UNL     1       7.673  -6.685   4.432  1.00  0.00     0.023 A 
ATOM     80  C   UNL     1       8.548  -7.778   4.269  1.00  0.00     0.012 A 
ATOM     81  C   UNL     1       7.622  -6.022   5.674  1.00  0.00     0.148 A 
ATOM     82  C   UNL     1       9.325  -8.230   5.335  1.00  0.00     0.002 A 
ATOM     83  C   UNL     1       8.439  -6.445   6.716  1.00  0.00     0.091 A 
ATOM     84  F   UNL     1       6.772  -4.995   5.817  1.00  0.00    -0.205 F 
ATOM     85  C   UNL     1       9.279  -7.558   6.553  1.00  0.00     0.022 A 
BRANCH  83  86
ATOM     86  S   UNL     1       8.518  -5.583   8.290  1.00  0.00     0.127 S 
ATOM     87  O   UNL     1       7.840  -6.524   9.179  1.00  0.00    -0.237 OA
ATOM     88  O   UNL     1       9.960  -5.468   8.508  1.00  0.00    -0.237 OA
ATOM     89  O   UNL     1       7.835  -4.312   8.087  1.00  0.00    -0.744 OA
ENDBRANCH  83  86
ENDBRANCH  56  79
ENDBRANCH  30  31
ENDBRANCH  23  25
ENDBRANCH  22  23
ENDBRANCH   1  22
TORSDOF 16
