REMARK SMILES COc1ccc2c(c1)c(Cc1nc(-c3ccc(C(=O)OCCOC(=O)c4ccc(-c5c6nc(c(-c7cccc(S(=O)(=O)[O-])c7F)c7ccc([nH]7)c(-c7cccc(S(=O)(=O)[O-])c7F)c7nc(c(-c8cccc(S(=O)(=O)[O-])c8F)c8ccc5[nH]8)C=C7)C=C6)cc4)cc3)cs1)c(C)n2C(=O)c1ccc(Cl)cc1
REMARK SMILES IDX 21 1 20 2 18 3 19 4 17 5 14 6 15 7 90 8 16 9 89 10 13 11
REMARK SMILES IDX 11 12 12 13 92 14 91 15 10 16 9 17 3 18 4 19 8 20 5 21 7 22
REMARK SMILES IDX 6 23 95 24 93 25 94 26 2 27 1 28 96 29 97 30 98 31 99 32
REMARK SMILES IDX 104 33 100 34 103 35 101 36 102 37 22 38 23 39 24 40 25 41
REMARK SMILES IDX 26 42 27 43 88 44 28 45 87 46 29 47 30 48 31 49 81 50 32 51
REMARK SMILES IDX 86 52 80 53 82 54 33 55 85 56 79 57 78 58 34 60 66 61 46 62
REMARK SMILES IDX 65 63 47 64 50 65 64 66 83 67 48 68 49 69 63 71 84 72 51 73
REMARK SMILES IDX 35 74 36 75 44 76 37 77 39 78 45 79 38 80 40 81 41 82 42 83
REMARK SMILES IDX 43 84 67 85 68 86 76 87 69 88 71 89 77 90 70 91 72 92 73 93
REMARK SMILES IDX 74 94 75 95 52 96 53 97 61 98 54 99 56 100 62 101 55 102
REMARK SMILES IDX 57 103 58 104 59 105 60 106
REMARK H PARENT 82 59 50 70
REMARK Flexibility Score: inf
ROOT
ATOM      1  C   UNL     1      -3.158  -4.700  -6.786  1.00  0.00     0.275 C 
ENDROOT
BRANCH   1   2
ATOM      2  O   UNL     1      -3.270  -3.378  -6.211  1.00  0.00    -0.458 OA
BRANCH   2   3
ATOM      3  C   UNL     1      -2.225  -2.938  -5.462  1.00  0.00     0.338 C 
ATOM      4  O   UNL     1      -1.203  -3.562  -5.219  1.00  0.00    -0.246 OA
BRANCH   3   5
ATOM      5  C   UNL     1      -2.443  -1.516  -5.076  1.00  0.00     0.060 A 
ATOM      6  C   UNL     1      -2.723   1.266  -4.732  1.00  0.00     0.001 A 
ATOM      7  C   UNL     1      -1.455   0.686  -4.811  1.00  0.00     0.011 A 
ATOM      8  C   UNL     1      -3.848   0.435  -4.714  1.00  0.00     0.011 A 
ATOM      9  C   UNL     1      -1.324  -0.696  -4.948  1.00  0.00     0.016 A 
ATOM     10  C   UNL     1      -3.710  -0.952  -4.903  1.00  0.00     0.016 A 
BRANCH   6  11
ATOM     11  C   UNL     1      -2.828   2.714  -4.720  1.00  0.00     0.081 A 
ATOM     12  C   UNL     1      -2.621   4.693  -3.774  1.00  0.00     0.098 A 
ATOM     13  N   UNL     1      -2.975   3.437  -3.554  1.00  0.00    -0.241 NA
ATOM     14  S   UNL     1      -2.517   5.130  -5.440  1.00  0.00    -0.126 S 
ATOM     15  C   UNL     1      -2.651   3.472  -5.862  1.00  0.00     0.095 A 
BRANCH  12  16
ATOM     16  C   UNL     1      -2.178   5.665  -2.697  1.00  0.00     0.105 C 
BRANCH  16  17
ATOM     17  C   UNL     1      -0.689   5.555  -2.474  1.00  0.00    -0.012 A 
ATOM     18  C   UNL     1       0.270   1.972  -1.879  1.00  0.00     0.119 A 
ATOM     19  C   UNL     1       1.525   2.126  -2.433  1.00  0.00     0.048 A 
ATOM     20  C   UNL     1      -0.540   3.080  -1.743  1.00  0.00     0.057 A 
ATOM     21  C   UNL     1       2.113   3.380  -2.624  1.00  0.00     0.031 A 
ATOM     22  C   UNL     1      -0.039   4.344  -2.123  1.00  0.00     0.008 A 
ATOM     23  C   UNL     1       1.315   4.510  -2.433  1.00  0.00     0.057 A 
ATOM     24  N   UNL     1       1.564   5.886  -2.464  1.00  0.00    -0.280 N 
ATOM     25  C   UNL     1       0.308   6.493  -2.708  1.00  0.00     0.028 A 
ATOM     26  C   UNL     1       0.126   7.904  -3.154  1.00  0.00     0.065 C 
BRANCH  18  27
ATOM     27  O   UNL     1      -0.236   0.735  -1.586  1.00  0.00    -0.497 OA
ATOM     28  C   UNL     1       0.310   0.269  -0.347  1.00  0.00     0.278 C 
ENDBRANCH  18  27
BRANCH  24  29
ATOM     29  C   UNL     1       2.800   6.576  -2.260  1.00  0.00     0.262 C 
ATOM     30  O   UNL     1       2.750   7.810  -2.189  1.00  0.00    -0.268 OA
BRANCH  29  31
ATOM     31  C   UNL     1       4.159   6.022  -2.038  1.00  0.00     0.040 A 
ATOM     32  C   UNL     1       4.858   5.319  -3.022  1.00  0.00     0.015 A 
ATOM     33  C   UNL     1       4.839   6.428  -0.876  1.00  0.00     0.015 A 
ATOM     34  C   UNL     1       6.195   4.954  -2.804  1.00  0.00     0.021 A 
ATOM     35  C   UNL     1       6.173   6.071  -0.663  1.00  0.00     0.021 A 
ATOM     36  C   UNL     1       6.843   5.320  -1.624  1.00  0.00     0.041 A 
ATOM     37  Cl  UNL     1       8.487   4.874  -1.365  1.00  0.00    -0.084 Cl
ENDBRANCH  29  31
ENDBRANCH  24  29
ENDBRANCH  16  17
ENDBRANCH  12  16
ENDBRANCH   6  11
ENDBRANCH   3   5
ENDBRANCH   2   3
ENDBRANCH   1   2
BRANCH   1  38
ATOM     38  C   UNL     1      -3.341  -4.632  -8.307  1.00  0.00     0.275 C 
BRANCH  38  39
ATOM     39  O   UNL     1      -2.101  -4.206  -8.890  1.00  0.00    -0.458 OA
BRANCH  39  40
ATOM     40  C   UNL     1      -2.053  -2.916  -9.288  1.00  0.00     0.338 C 
ATOM     41  O   UNL     1      -2.985  -2.257  -9.736  1.00  0.00    -0.246 OA
BRANCH  40  42
ATOM     42  C   UNL     1      -0.780  -2.357  -8.790  1.00  0.00     0.060 A 
ATOM     43  C   UNL     1       0.353  -3.157  -8.588  1.00  0.00     0.016 A 
ATOM     44  C   UNL     1      -0.795  -1.036  -8.344  1.00  0.00     0.016 A 
ATOM     45  C   UNL     1       1.423  -2.671  -7.833  1.00  0.00     0.010 A 
ATOM     46  C   UNL     1       0.280  -0.556  -7.602  1.00  0.00     0.010 A 
ATOM     47  C   UNL     1       1.365  -1.386  -7.281  1.00  0.00    -0.014 A 
BRANCH  47  48
ATOM     48  C   UNL     1       2.564  -0.803  -6.653  1.00  0.00     0.031 A 
ATOM     49  C   UNL     1       3.364  -0.072  -7.665  1.00  0.00     0.074 A 
ATOM     50  C   UNL     1       2.997  -0.833  -5.367  1.00  0.00     0.049 A 
ATOM     51  N   UNL     1       4.356  -0.559  -8.338  1.00  0.00    -0.248 NA
ATOM     52  C   UNL     1       2.910   1.252  -8.113  1.00  0.00     0.031 C 
ATOM     53  C   UNL     1       2.319  -1.345  -4.176  1.00  0.00     0.029 A 
ATOM     54  N   UNL     1       4.170  -0.332  -4.840  1.00  0.00    -0.354 N 
ATOM     55  C   UNL     1       4.808   0.502  -9.106  1.00  0.00     0.074 A 
ATOM     56  C   UNL     1       3.758   1.490  -9.115  1.00  0.00     0.031 C 
ATOM     57  C   UNL     1       3.003  -0.982  -3.060  1.00  0.00     0.029 A 
ATOM     58  C   UNL     1       4.243  -0.321  -3.438  1.00  0.00     0.049 A 
ATOM     59  H   UNL     1       4.905  -0.004  -5.408  1.00  0.00     0.167 HD
ATOM     60  C   UNL     1       6.131   0.662  -9.367  1.00  0.00     0.034 A 
ATOM     61  C   UNL     1       5.256   0.169  -2.665  1.00  0.00     0.034 A 
ATOM     62  C   UNL     1       6.922  -0.473  -8.994  1.00  0.00     0.049 A 
ATOM     63  C   UNL     1       6.470  -0.001  -3.495  1.00  0.00     0.074 A 
ATOM     64  C   UNL     1       7.247  -1.715  -9.488  1.00  0.00     0.029 A 
ATOM     65  N   UNL     1       7.289  -0.449  -7.679  1.00  0.00    -0.354 N 
ATOM     66  N   UNL     1       7.024  -1.160  -3.718  1.00  0.00    -0.248 NA
ATOM     67  C   UNL     1       7.041   1.126  -4.225  1.00  0.00     0.031 C 
ATOM     68  C   UNL     1       7.752  -2.471  -8.386  1.00  0.00     0.029 A 
ATOM     69  C   UNL     1       7.712  -1.673  -7.248  1.00  0.00     0.049 A 
ATOM     70  H   UNL     1       7.253   0.354  -7.111  1.00  0.00     0.167 HD
ATOM     71  C   UNL     1       7.713  -0.972  -4.894  1.00  0.00     0.074 A 
ATOM     72  C   UNL     1       7.868   0.467  -5.037  1.00  0.00     0.031 C 
ATOM     73  C   UNL     1       7.767  -1.953  -5.833  1.00  0.00     0.034 A 
BRANCH  60  74
ATOM     74  C   UNL     1       6.766   2.020  -9.462  1.00  0.00     0.023 A 
ATOM     75  C   UNL     1       7.997   2.144 -10.130  1.00  0.00     0.012 A 
ATOM     76  C   UNL     1       6.327   3.124  -8.699  1.00  0.00     0.148 A 
ATOM     77  C   UNL     1       8.726   3.338 -10.082  1.00  0.00     0.002 A 
ATOM     78  C   UNL     1       6.994   4.337  -8.743  1.00  0.00     0.091 A 
ATOM     79  F   UNL     1       5.342   2.965  -7.804  1.00  0.00    -0.205 F 
ATOM     80  C   UNL     1       8.207   4.449  -9.420  1.00  0.00     0.022 A 
BRANCH  78  81
ATOM     81  S   UNL     1       6.274   5.780  -7.958  1.00  0.00     0.127 S 
ATOM     82  O   UNL     1       6.923   5.762  -6.652  1.00  0.00    -0.237 OA
ATOM     83  O   UNL     1       6.690   6.858  -8.855  1.00  0.00    -0.237 OA
ATOM     84  O   UNL     1       4.838   5.520  -7.966  1.00  0.00    -0.744 OA
ENDBRANCH  78  81
ENDBRANCH  60  74
BRANCH  61  85
ATOM     85  C   UNL     1       5.466   0.661  -1.257  1.00  0.00     0.023 A 
ATOM     86  C   UNL     1       6.785   0.776  -0.760  1.00  0.00     0.012 A 
ATOM     87  C   UNL     1       4.474   1.299  -0.496  1.00  0.00     0.148 A 
ATOM     88  C   UNL     1       7.103   1.568   0.354  1.00  0.00     0.002 A 
ATOM     89  C   UNL     1       4.787   2.128   0.590  1.00  0.00     0.091 A 
ATOM     90  F   UNL     1       3.203   1.099  -0.818  1.00  0.00    -0.205 F 
ATOM     91  C   UNL     1       6.107   2.277   1.010  1.00  0.00     0.022 A 
BRANCH  89  92
ATOM     92  S   UNL     1       3.491   3.056   1.433  1.00  0.00     0.127 S 
ATOM     93  O   UNL     1       4.157   3.541   2.644  1.00  0.00    -0.237 OA
ATOM     94  O   UNL     1       3.167   4.105   0.473  1.00  0.00    -0.237 OA
ATOM     95  O   UNL     1       2.458   2.057   1.684  1.00  0.00    -0.744 OA
ENDBRANCH  89  92
ENDBRANCH  61  85
BRANCH  73  96
ATOM     96  C   UNL     1       7.639  -3.370  -5.379  1.00  0.00     0.023 A 
ATOM     97  C   UNL     1       6.426  -3.915  -4.918  1.00  0.00     0.012 A 
ATOM     98  C   UNL     1       8.761  -4.201  -5.525  1.00  0.00     0.148 A 
ATOM     99  C   UNL     1       6.338  -5.274  -4.610  1.00  0.00     0.002 A 
ATOM    100  C   UNL     1       8.658  -5.557  -5.258  1.00  0.00     0.091 A 
ATOM    101  F   UNL     1       9.906  -3.645  -5.950  1.00  0.00    -0.205 F 
ATOM    102  C   UNL     1       7.449  -6.098  -4.794  1.00  0.00     0.022 A 
BRANCH 100 103
ATOM    103  S   UNL     1      10.013  -6.688  -5.580  1.00  0.00     0.127 S 
ATOM    104  O   UNL     1      10.358  -7.146  -4.236  1.00  0.00    -0.237 OA
ATOM    105  O   UNL     1       9.374  -7.697  -6.426  1.00  0.00    -0.237 OA
ATOM    106  O   UNL     1      11.043  -5.907  -6.254  1.00  0.00    -0.744 OA
ENDBRANCH 100 103
ENDBRANCH  73  96
ENDBRANCH  47  48
ENDBRANCH  40  42
ENDBRANCH  39  40
ENDBRANCH  38  39
ENDBRANCH   1  38
TORSDOF 20
