REMARK SMILES C[C@H]1CC[C@@H](C(=O)OCCOC(=O)c2ccc(-c3c4nc(c(-c5cccc(S(=O)(=O)[O-])c5F)c5ccc([nH]5)c(-c5cccc(S(=O)(=O)[O-])c5F)c5nc(c(-c6cccc(S(=O)(=O)[O-])c6F)c6ccc3[nH]6)C=C5)C=C4)cc2)[C@H]([N@@H+](C)CCS(C)(=O)=O)C1
REMARK SMILES IDX 9 1 8 2 6 3 7 4 5 5 1 6 2 7 3 8 86 9 4 10 77 11 78 12 79 13
REMARK SMILES IDX 80 15 81 16 82 17 83 18 84 19 85 20 10 21 11 22 12 23 13 24
REMARK SMILES IDX 14 25 15 26 76 27 16 28 75 29 17 30 18 31 19 32 69 33 20 34
REMARK SMILES IDX 74 35 68 36 70 37 21 38 73 39 67 40 66 41 22 43 54 44 34 45
REMARK SMILES IDX 53 46 35 47 38 48 52 49 71 50 36 51 37 52 51 54 72 55 39 56
REMARK SMILES IDX 23 57 24 58 32 59 25 60 27 61 33 62 26 63 28 64 29 65 30 66
REMARK SMILES IDX 31 67 55 68 56 69 64 70 57 71 59 72 65 73 58 74 60 75 61 76
REMARK SMILES IDX 62 77 63 78 40 79 41 80 49 81 42 82 44 83 50 84 43 85 45 86
REMARK SMILES IDX 46 87 47 88 48 89
REMARK H PARENT 78 14 70 42 38 53
REMARK Flexibility Score: inf
ROOT
ATOM      1  C   UNL     1      -2.937   0.363  -3.287  1.00  0.00     0.274 C 
ENDROOT
BRANCH   1   2
ATOM      2  O   UNL     1      -2.616   0.697  -1.909  1.00  0.00    -0.462 OA
BRANCH   2   3
ATOM      3  C   UNL     1      -2.766  -0.329  -1.031  1.00  0.00     0.315 C 
ATOM      4  O   UNL     1      -3.429  -1.331  -1.283  1.00  0.00    -0.252 OA
BRANCH   3   5
ATOM      5  C   UNL     1      -2.050  -0.129   0.360  1.00  0.00     0.157 C 
ATOM      6  C   UNL     1       3.154  -0.171   1.605  1.00  0.00     0.008 C 
ATOM      7  C   UNL     1       1.623  -0.148   1.854  1.00  0.00    -0.008 C 
ATOM      8  C   UNL     1       0.682   1.530   1.551  1.00  0.00     0.005 C 
ATOM      9  C   UNL     1       0.755  -1.781   1.220  1.00  0.00     0.069 C 
ATOM     10  C   UNL     1      -1.226   1.502   0.997  1.00  0.00     0.022 C 
ATOM     11  C   UNL     1      -1.145  -1.798   0.796  1.00  0.00     0.198 C 
BRANCH  11  12
ATOM     12  N   UNL     1      -1.938  -2.155   1.975  1.00  0.00    -0.333 N 
ATOM     13  C   UNL     1      -1.455  -3.274   2.772  1.00  0.00     0.333 C 
ATOM     14  H   UNL     1      -2.874  -2.498   1.760  1.00  0.00     0.348 HD
BRANCH  12  15
ATOM     15  C   UNL     1      -1.821  -0.910   2.652  1.00  0.00     0.278 C 
BRANCH  15  16
ATOM     16  C   UNL     1      -0.534  -0.182   2.058  1.00  0.00     0.197 C 
BRANCH  16  17
ATOM     17  S   UNL     1       0.242   0.045  -0.242  1.00  0.00     0.152 S 
ATOM     18  C   UNL     1       0.054   1.670  -1.122  1.00  0.00     0.158 C 
ATOM     19  O   UNL     1       1.689   0.023  -0.409  1.00  0.00    -0.229 OA
ATOM     20  O   UNL     1      -0.336  -0.874  -1.226  1.00  0.00    -0.229 OA
ENDBRANCH  16  17
ENDBRANCH  15  16
ENDBRANCH  12  15
ENDBRANCH  11  12
ENDBRANCH   3   5
ENDBRANCH   2   3
ENDBRANCH   1   2
BRANCH   1  21
ATOM     21  C   UNL     1      -2.205   1.289  -4.282  1.00  0.00     0.275 C 
BRANCH  21  22
ATOM     22  O   UNL     1      -0.784   1.016  -4.282  1.00  0.00    -0.458 OA
BRANCH  22  23
ATOM     23  C   UNL     1       0.074   2.052  -4.519  1.00  0.00     0.338 C 
ATOM     24  O   UNL     1      -0.261   3.191  -4.807  1.00  0.00    -0.246 OA
BRANCH  23  25
ATOM     25  C   UNL     1       1.486   1.656  -4.178  1.00  0.00     0.060 A 
ATOM     26  C   UNL     1       1.746   0.378  -3.711  1.00  0.00     0.016 A 
ATOM     27  C   UNL     1       2.498   2.619  -4.032  1.00  0.00     0.016 A 
ATOM     28  C   UNL     1       2.886   0.150  -2.925  1.00  0.00     0.010 A 
ATOM     29  C   UNL     1       3.708   2.320  -3.340  1.00  0.00     0.010 A 
ATOM     30  C   UNL     1       3.906   1.090  -2.684  1.00  0.00    -0.014 A 
BRANCH  30  31
ATOM     31  C   UNL     1       5.068   0.801  -1.716  1.00  0.00     0.031 A 
ATOM     32  C   UNL     1       5.708   1.891  -0.845  1.00  0.00     0.074 A 
ATOM     33  C   UNL     1       5.548  -0.449  -1.470  1.00  0.00     0.049 A 
ATOM     34  N   UNL     1       6.873   1.893  -0.229  1.00  0.00    -0.248 NA
ATOM     35  C   UNL     1       4.938   3.123  -0.610  1.00  0.00     0.031 C 
ATOM     36  C   UNL     1       5.040  -1.704  -2.018  1.00  0.00     0.029 A 
ATOM     37  N   UNL     1       6.582  -0.877  -0.646  1.00  0.00    -0.354 N 
ATOM     38  C   UNL     1       7.023   3.151   0.354  1.00  0.00     0.074 A 
ATOM     39  C   UNL     1       5.799   3.873   0.069  1.00  0.00     0.031 C 
ATOM     40  C   UNL     1       5.642  -2.741  -1.427  1.00  0.00     0.029 A 
ATOM     41  C   UNL     1       6.775  -2.243  -0.669  1.00  0.00     0.049 A 
ATOM     42  H   UNL     1       7.124  -0.265  -0.098  1.00  0.00     0.167 HD
ATOM     43  C   UNL     1       8.073   3.668   1.047  1.00  0.00     0.034 A 
ATOM     44  C   UNL     1       7.789  -3.040  -0.270  1.00  0.00     0.034 A 
ATOM     45  C   UNL     1       9.252   2.934   1.450  1.00  0.00     0.049 A 
ATOM     46  C   UNL     1       9.016  -2.440   0.346  1.00  0.00     0.074 A 
ATOM     47  C   UNL     1      10.382   3.407   2.104  1.00  0.00     0.029 A 
ATOM     48  N   UNL     1       9.449   1.577   1.271  1.00  0.00    -0.354 N 
ATOM     49  N   UNL     1       9.225  -1.211   0.737  1.00  0.00    -0.248 NA
ATOM     50  C   UNL     1      10.161  -3.341   0.556  1.00  0.00     0.031 C 
ATOM     51  C   UNL     1      11.278   2.347   2.275  1.00  0.00     0.029 A 
ATOM     52  C   UNL     1      10.685   1.201   1.780  1.00  0.00     0.049 A 
ATOM     53  H   UNL     1       8.806   0.965   0.845  1.00  0.00     0.167 HD
ATOM     54  C   UNL     1      10.512  -1.195   1.260  1.00  0.00     0.074 A 
ATOM     55  C   UNL     1      11.026  -2.544   1.167  1.00  0.00     0.031 C 
ATOM     56  C   UNL     1      11.205  -0.141   1.752  1.00  0.00     0.034 A 
BRANCH  43  57
ATOM     57  C   UNL     1       8.059   5.147   1.373  1.00  0.00     0.023 A 
ATOM     58  C   UNL     1       7.270   5.662   2.418  1.00  0.00     0.012 A 
ATOM     59  C   UNL     1       8.932   6.016   0.679  1.00  0.00     0.148 A 
ATOM     60  C   UNL     1       7.321   7.021   2.741  1.00  0.00     0.002 A 
ATOM     61  C   UNL     1       9.013   7.356   1.037  1.00  0.00     0.091 A 
ATOM     62  F   UNL     1       9.681   5.509  -0.311  1.00  0.00    -0.205 F 
ATOM     63  C   UNL     1       8.197   7.864   2.059  1.00  0.00     0.022 A 
BRANCH  61  64
ATOM     64  S   UNL     1      10.174   8.496   0.273  1.00  0.00     0.127 S 
ATOM     65  O   UNL     1       9.277   9.354  -0.500  1.00  0.00    -0.237 OA
ATOM     66  O   UNL     1      10.784   9.142   1.435  1.00  0.00    -0.237 OA
ATOM     67  O   UNL     1      11.085   7.677  -0.515  1.00  0.00    -0.744 OA
ENDBRANCH  61  64
ENDBRANCH  43  57
BRANCH  44  68
ATOM     68  C   UNL     1       7.752  -4.508  -0.566  1.00  0.00     0.023 A 
ATOM     69  C   UNL     1       7.781  -5.440   0.489  1.00  0.00     0.012 A 
ATOM     70  C   UNL     1       7.705  -4.982  -1.894  1.00  0.00     0.148 A 
ATOM     71  C   UNL     1       7.784  -6.811   0.224  1.00  0.00     0.002 A 
ATOM     72  C   UNL     1       7.618  -6.343  -2.147  1.00  0.00     0.091 A 
ATOM     73  F   UNL     1       7.729  -4.087  -2.892  1.00  0.00    -0.205 F 
ATOM     74  C   UNL     1       7.683  -7.262  -1.090  1.00  0.00     0.022 A 
BRANCH  72  75
ATOM     75  S   UNL     1       7.327  -6.996  -3.794  1.00  0.00     0.127 S 
ATOM     76  O   UNL     1       8.598  -7.654  -4.083  1.00  0.00    -0.237 OA
ATOM     77  O   UNL     1       6.201  -7.902  -3.563  1.00  0.00    -0.237 OA
ATOM     78  O   UNL     1       7.007  -5.844  -4.626  1.00  0.00    -0.744 OA
ENDBRANCH  72  75
ENDBRANCH  44  68
BRANCH  56  79
ATOM     79  C   UNL     1      12.587  -0.397   2.297  1.00  0.00     0.023 A 
ATOM     80  C   UNL     1      13.646  -0.723   1.425  1.00  0.00     0.012 A 
ATOM     81  C   UNL     1      12.847  -0.276   3.677  1.00  0.00     0.148 A 
ATOM     82  C   UNL     1      14.929  -0.959   1.921  1.00  0.00     0.002 A 
ATOM     83  C   UNL     1      14.138  -0.460   4.158  1.00  0.00     0.091 A 
ATOM     84  F   UNL     1      11.824   0.012   4.496  1.00  0.00    -0.205 F 
ATOM     85  C   UNL     1      15.177  -0.816   3.284  1.00  0.00     0.022 A 
BRANCH  83  86
ATOM     86  S   UNL     1      14.573  -0.212   5.883  1.00  0.00     0.127 S 
ATOM     87  O   UNL     1      14.898  -1.573   6.308  1.00  0.00    -0.237 OA
ATOM     88  O   UNL     1      15.723   0.687   5.784  1.00  0.00    -0.237 OA
ATOM     89  O   UNL     1      13.398   0.371   6.517  1.00  0.00    -0.744 OA
ENDBRANCH  83  86
ENDBRANCH  56  79
ENDBRANCH  30  31
ENDBRANCH  23  25
ENDBRANCH  22  23
ENDBRANCH  21  22
ENDBRANCH   1  21
TORSDOF 18
