REMARK SMILES Cc1ccccc1[C@@H](Cc1ncnn1C(C)C)C(=O)OCCOC(=O)c1ccc(-c2c3nc(c(-c4cccc(S(=O)(=O)[O-])c4F)c4ccc([nH]4)c(-c4cccc(S(=O)(=O)[O-])c4F)c4nc(c(-c5cccc(S(=O)(=O)[O-])c5F)c5ccc2[nH]5)C=C4)C=C3)cc1
REMARK SMILES IDX 21 1 20 2 18 3 19 4 8 5 7 6 1 7 2 8 3 9 4 10 6 11 5 12 9 13
REMARK SMILES IDX 10 14 11 15 14 16 12 17 13 18 15 19 16 20 17 21 22 22 23 23
REMARK SMILES IDX 24 24 25 25 26 26 27 27 88 28 28 29 87 30 29 31 30 32 31 33
REMARK SMILES IDX 81 34 32 35 86 36 80 37 82 38 33 39 85 40 79 41 78 42 34 44
REMARK SMILES IDX 66 45 46 46 65 47 47 48 50 49 64 50 83 51 48 52 49 53 63 55
REMARK SMILES IDX 84 56 51 57 35 58 36 59 44 60 37 61 39 62 45 63 38 64 40 65
REMARK SMILES IDX 41 66 42 67 43 68 67 69 68 70 76 71 69 72 71 73 77 74 70 75
REMARK SMILES IDX 72 76 73 77 74 78 75 79 52 80 53 81 61 82 54 83 56 84 62 85
REMARK SMILES IDX 55 86 57 87 58 88 59 89 60 90
REMARK H PARENT 82 43 50 54
REMARK Flexibility Score: inf
ROOT
ATOM      1  C   UNL     1      -0.657   4.516   3.898  1.00  0.00     0.274 C 
ENDROOT
BRANCH   1   2
ATOM      2  O   UNL     1      -0.176   4.569   2.558  1.00  0.00    -0.462 OA
BRANCH   2   3
ATOM      3  C   UNL     1       0.699   3.582   1.943  1.00  0.00     0.314 C 
ATOM      4  O   UNL     1       1.700   3.651   2.715  1.00  0.00    -0.252 OA
BRANCH   3   5
ATOM      5  C   UNL     1       0.179   2.426   0.173  1.00  0.00     0.137 C 
BRANCH   5   6
ATOM      6  C   UNL     1      -0.308   0.768   0.012  1.00  0.00    -0.030 A 
ATOM      7  C   UNL     1       2.087  -0.325  -0.291  1.00  0.00     0.044 C 
ATOM      8  C   UNL     1       0.583  -0.347  -0.122  1.00  0.00    -0.047 A 
ATOM      9  C   UNL     1       0.032  -1.641  -0.079  1.00  0.00     0.004 A 
ATOM     10  C   UNL     1      -1.344  -1.845  -0.040  1.00  0.00     0.000 A 
ATOM     11  C   UNL     1      -1.697   0.531  -0.089  1.00  0.00     0.005 A 
ATOM     12  C   UNL     1      -2.206  -0.760  -0.096  1.00  0.00     0.000 A 
ENDBRANCH   5   6
BRANCH   5  13
ATOM     13  C   UNL     1      -0.619   3.119  -1.361  1.00  0.00     0.097 C 
BRANCH  13  14
ATOM     14  C   UNL     1      -1.984   4.041  -1.300  1.00  0.00     0.128 A 
ATOM     15  N   UNL     1      -3.094   3.380  -1.573  1.00  0.00    -0.220 NA
ATOM     16  N   UNL     1      -2.376   5.498  -0.966  1.00  0.00    -0.248 N 
ATOM     17  C   UNL     1      -4.085   4.215  -1.231  1.00  0.00     0.246 A 
ATOM     18  N   UNL     1      -3.738   5.414  -0.800  1.00  0.00    -0.159 NA
BRANCH  16  19
ATOM     19  C   UNL     1      -1.775   6.813  -0.293  1.00  0.00     0.103 C 
ATOM     20  C   UNL     1      -0.406   8.027  -0.615  1.00  0.00     0.033 C 
ATOM     21  C   UNL     1      -2.846   7.478   0.614  1.00  0.00     0.033 C 
ENDBRANCH  16  19
ENDBRANCH  13  14
ENDBRANCH   5  13
ENDBRANCH   3   5
ENDBRANCH   2   3
ENDBRANCH   1   2
BRANCH   1  22
ATOM     22  C   UNL     1      -0.698   3.174   4.640  1.00  0.00     0.275 C 
BRANCH  22  23
ATOM     23  O   UNL     1       0.438   2.261   4.627  1.00  0.00    -0.458 OA
BRANCH  23  24
ATOM     24  C   UNL     1       0.887   1.349   3.701  1.00  0.00     0.338 C 
ATOM     25  O   UNL     1       1.726   0.511   4.010  1.00  0.00    -0.246 OA
BRANCH  24  26
ATOM     26  C   UNL     1       0.555   1.554   2.241  1.00  0.00     0.060 A 
ATOM     27  C   UNL     1       2.005   2.053   1.308  1.00  0.00     0.016 A 
ATOM     28  C   UNL     1      -0.993   2.359   1.952  1.00  0.00     0.016 A 
ATOM     29  C   UNL     1       1.975   3.526   0.288  1.00  0.00     0.010 A 
ATOM     30  C   UNL     1      -1.060   3.816   0.920  1.00  0.00     0.010 A 
ATOM     31  C   UNL     1       0.484   4.471   0.127  1.00  0.00    -0.014 A 
BRANCH  31  32
ATOM     32  C   UNL     1       0.646   5.829  -0.437  1.00  0.00     0.031 A 
ATOM     33  C   UNL     1      -0.089   6.151  -2.186  1.00  0.00     0.074 A 
ATOM     34  C   UNL     1       0.812   6.551   0.905  1.00  0.00     0.049 A 
ATOM     35  N   UNL     1      -0.331   7.354  -2.743  1.00  0.00    -0.248 NA
ATOM     36  C   UNL     1      -0.814   5.336  -3.273  1.00  0.00     0.031 C 
ATOM     37  C   UNL     1      -0.030   7.601   1.749  1.00  0.00     0.029 A 
ATOM     38  N   UNL     1       1.778   6.430   1.946  1.00  0.00    -0.354 N 
ATOM     39  C   UNL     1      -1.685   7.480  -3.182  1.00  0.00     0.074 A 
ATOM     40  C   UNL     1      -1.809   6.148  -3.765  1.00  0.00     0.031 C 
ATOM     41  C   UNL     1       0.629   8.260   2.694  1.00  0.00     0.029 A 
ATOM     42  C   UNL     1       1.890   7.652   2.698  1.00  0.00     0.049 A 
ATOM     43  H   UNL     1       2.301   5.616   2.127  1.00  0.00     0.167 HD
ATOM     44  C   UNL     1      -2.535   8.595  -2.885  1.00  0.00     0.034 A 
ATOM     45  C   UNL     1       2.996   8.410   2.854  1.00  0.00     0.034 A 
ATOM     46  C   UNL     1      -2.002   9.735  -1.937  1.00  0.00     0.049 A 
ATOM     47  C   UNL     1       2.944   9.505   1.750  1.00  0.00     0.074 A 
ATOM     48  C   UNL     1      -2.381  10.285  -0.698  1.00  0.00     0.029 A 
ATOM     49  N   UNL     1      -0.792  10.416  -2.185  1.00  0.00    -0.354 N 
ATOM     50  N   UNL     1       1.871   9.894   1.074  1.00  0.00    -0.248 NA
ATOM     51  C   UNL     1       4.117  10.286   1.403  1.00  0.00     0.031 C 
ATOM     52  C   UNL     1      -1.212  10.909  -0.074  1.00  0.00     0.029 A 
ATOM     53  C   UNL     1      -0.147  10.893  -0.980  1.00  0.00     0.049 A 
ATOM     54  H   UNL     1      -0.422  10.554  -3.087  1.00  0.00     0.167 HD
ATOM     55  C   UNL     1       2.200  10.805   0.085  1.00  0.00     0.074 A 
ATOM     56  C   UNL     1       3.617  11.074   0.438  1.00  0.00     0.031 C 
ATOM     57  C   UNL     1       1.346  11.245  -0.947  1.00  0.00     0.034 A 
BRANCH  44  58
ATOM     58  C   UNL     1      -4.037   8.829  -3.289  1.00  0.00     0.023 A 
ATOM     59  C   UNL     1      -4.516  10.172  -3.145  1.00  0.00     0.012 A 
ATOM     60  C   UNL     1      -4.992   7.914  -3.782  1.00  0.00     0.148 A 
ATOM     61  C   UNL     1      -5.804  10.600  -3.486  1.00  0.00     0.002 A 
ATOM     62  C   UNL     1      -6.273   8.358  -4.196  1.00  0.00     0.091 A 
ATOM     63  F   UNL     1      -4.690   6.611  -3.821  1.00  0.00    -0.205 F 
ATOM     64  C   UNL     1      -6.678   9.696  -4.048  1.00  0.00     0.022 A 
BRANCH  62  65
ATOM     65  S   UNL     1      -7.474   7.300  -5.034  1.00  0.00     0.127 S 
ATOM     66  O   UNL     1      -8.618   7.334  -4.122  1.00  0.00    -0.237 OA
ATOM     67  O   UNL     1      -7.690   8.012  -6.295  1.00  0.00    -0.237 OA
ATOM     68  O   UNL     1      -6.835   5.998  -5.173  1.00  0.00    -0.744 OA
ENDBRANCH  62  65
ENDBRANCH  44  58
BRANCH  45  69
ATOM     69  C   UNL     1       4.086   7.478   3.297  1.00  0.00     0.023 A 
ATOM     70  C   UNL     1       3.786   6.667   4.444  1.00  0.00     0.012 A 
ATOM     71  C   UNL     1       4.813   6.930   2.257  1.00  0.00     0.148 A 
ATOM     72  C   UNL     1       3.907   5.272   4.362  1.00  0.00     0.002 A 
ATOM     73  C   UNL     1       4.838   5.552   2.139  1.00  0.00     0.091 A 
ATOM     74  F   UNL     1       5.141   7.716   1.225  1.00  0.00    -0.205 F 
ATOM     75  C   UNL     1       4.388   4.708   3.175  1.00  0.00     0.022 A 
BRANCH  73  76
ATOM     76  S   UNL     1       4.938   5.008   0.436  1.00  0.00     0.127 S 
ATOM     77  O   UNL     1       4.943   3.549   0.545  1.00  0.00    -0.237 OA
ATOM     78  O   UNL     1       3.740   5.598  -0.151  1.00  0.00    -0.237 OA
ATOM     79  O   UNL     1       6.186   5.576  -0.055  1.00  0.00    -0.744 OA
ENDBRANCH  73  76
ENDBRANCH  45  69
BRANCH  57  80
ATOM     80  C   UNL     1       1.870  12.111  -2.118  1.00  0.00     0.023 A 
ATOM     81  C   UNL     1       3.216  12.480  -2.276  1.00  0.00     0.012 A 
ATOM     82  C   UNL     1       1.020  12.583  -3.150  1.00  0.00     0.148 A 
ATOM     83  C   UNL     1       3.679  13.323  -3.289  1.00  0.00     0.002 A 
ATOM     84  C   UNL     1       1.497  13.299  -4.238  1.00  0.00     0.091 A 
ATOM     85  F   UNL     1      -0.299  12.410  -3.089  1.00  0.00    -0.205 F 
ATOM     86  C   UNL     1       2.820  13.714  -4.291  1.00  0.00     0.022 A 
BRANCH  84  87
ATOM     87  S   UNL     1       0.436  13.712  -5.622  1.00  0.00     0.127 S 
ATOM     88  O   UNL     1       0.331  15.162  -5.474  1.00  0.00    -0.237 OA
ATOM     89  O   UNL     1       1.241  13.261  -6.757  1.00  0.00    -0.237 OA
ATOM     90  O   UNL     1      -0.802  12.969  -5.427  1.00  0.00    -0.744 OA
ENDBRANCH  84  87
ENDBRANCH  57  80
ENDBRANCH  31  32
ENDBRANCH  24  26
ENDBRANCH  23  24
ENDBRANCH  22  23
ENDBRANCH   1  22
TORSDOF 18
