REMARK SMILES Cc1cc(Cl)c(C)c2c1O[C@H](C(F)(F)F)C(C(=O)OCCOC(=O)c1ccc(-c3c4nc(c(-c5cccc(S(=O)(=O)[O-])c5F)c5ccc([nH]5)c(-c5cccc(S(=O)(=O)[O-])c5F)c5nc(c(-c6cccc(S(=O)(=O)[O-])c6F)c6ccc3[nH]6)C=C5)C=C4)cc1)=C2
REMARK SMILES IDX 21 1 20 2 19 3 17 4 18 5 16 6 1 7 2 8 3 9 9 10 4 11 8 12
REMARK SMILES IDX 10 13 5 14 6 15 88 16 11 17 7 18 12 19 13 20 14 21 15 22
REMARK SMILES IDX 22 23 23 24 24 25 25 26 26 27 87 28 27 29 86 30 28 31 29 32
REMARK SMILES IDX 30 33 80 34 31 35 85 36 79 37 81 38 32 39 84 40 78 41 77 42
REMARK SMILES IDX 33 44 65 45 45 46 64 47 46 48 49 49 63 50 82 51 47 52 48 53
REMARK SMILES IDX 62 55 83 56 50 57 34 58 35 59 43 60 36 61 38 62 44 63 37 64
REMARK SMILES IDX 39 65 40 66 41 67 42 68 66 69 67 70 75 71 68 72 70 73 76 74
REMARK SMILES IDX 69 75 71 76 72 77 73 78 74 79 51 80 52 81 60 82 53 83 55 84
REMARK SMILES IDX 61 85 54 86 56 87 57 88 58 89 59 90
REMARK H PARENT 81 43 49 54
REMARK Flexibility Score: inf
ROOT
ATOM      1  C   UNL     1       1.723  -7.947   4.193  1.00  0.00     0.275 C 
ENDROOT
BRANCH   1   2
ATOM      2  C   UNL     1       0.905  -7.647   2.937  1.00  0.00     0.275 C 
BRANCH   2   3
ATOM      3  O   UNL     1       1.039  -6.264   2.543  1.00  0.00    -0.459 OA
BRANCH   3   4
ATOM      4  C   UNL     1      -0.030  -5.476   2.801  1.00  0.00     0.338 C 
ATOM      5  O   UNL     1      -1.093  -5.827   3.290  1.00  0.00    -0.246 OA
BRANCH   4   6
ATOM      6  C   UNL     1       0.242  -4.082   2.400  1.00  0.00     0.087 C 
ATOM      7  C   UNL     1       1.058   0.141  -0.352  1.00  0.00     0.048 C 
ATOM      8  C   UNL     1       0.573  -0.149   1.038  1.00  0.00    -0.007 A 
ATOM      9  C   UNL     1       0.198   0.908   1.873  1.00  0.00     0.028 A 
ATOM     10  C   UNL     1       0.518  -1.458   1.532  1.00  0.00     0.131 A 
ATOM     11  C   UNL     1      -0.235   0.674   3.181  1.00  0.00     0.045 A 
ATOM     12  C   UNL     1       0.062  -1.708   2.838  1.00  0.00     0.022 A 
ATOM     13  O   UNL     1       0.956  -2.442   0.683  1.00  0.00    -0.475 OA
ATOM     14  Cl  UNL     1      -0.671   2.068   4.108  1.00  0.00    -0.084 Cl
ATOM     15  C   UNL     1      -0.311  -0.633   3.691  1.00  0.00    -0.021 A 
ATOM     16  C   UNL     1      -0.042  -3.100   3.263  1.00  0.00     0.027 C 
ATOM     17  C   UNL     1       0.681  -3.830   0.994  1.00  0.00     0.316 C 
ATOM     18  C   UNL     1      -0.763  -0.897   5.108  1.00  0.00     0.047 C 
BRANCH  17  19
ATOM     19  C   UNL     1      -0.334  -4.381  -0.020  1.00  0.00     0.430 C 
ATOM     20  F   UNL     1       0.056  -4.122  -1.293  1.00  0.00    -0.167 F 
ATOM     21  F   UNL     1      -0.454  -5.727   0.074  1.00  0.00    -0.167 F 
ATOM     22  F   UNL     1      -1.566  -3.850   0.140  1.00  0.00    -0.167 F 
ENDBRANCH  17  19
ENDBRANCH   4   6
ENDBRANCH   3   4
ENDBRANCH   2   3
ENDBRANCH   1   2
BRANCH   1  23
ATOM     23  O   UNL     1       1.162  -7.272   5.331  1.00  0.00    -0.458 OA
BRANCH  23  24
ATOM     24  C   UNL     1       1.798  -6.138   5.702  1.00  0.00     0.338 C 
ATOM     25  O   UNL     1       2.806  -5.659   5.212  1.00  0.00    -0.246 OA
BRANCH  24  26
ATOM     26  C   UNL     1       1.026  -5.464   6.755  1.00  0.00     0.060 A 
ATOM     27  C   UNL     1      -0.151  -4.827   6.391  1.00  0.00     0.016 A 
ATOM     28  C   UNL     1       1.528  -5.318   8.045  1.00  0.00     0.016 A 
ATOM     29  C   UNL     1      -0.747  -3.919   7.255  1.00  0.00     0.010 A 
ATOM     30  C   UNL     1       0.830  -4.526   8.967  1.00  0.00     0.010 A 
ATOM     31  C   UNL     1      -0.291  -3.773   8.572  1.00  0.00    -0.014 A 
BRANCH  31  32
ATOM     32  C   UNL     1      -1.002  -2.838   9.496  1.00  0.00     0.031 A 
ATOM     33  C   UNL     1      -0.252  -1.759  10.240  1.00  0.00     0.074 A 
ATOM     34  C   UNL     1      -2.344  -2.932   9.639  1.00  0.00     0.049 A 
ATOM     35  N   UNL     1      -0.697  -0.921  11.141  1.00  0.00    -0.248 NA
ATOM     36  C   UNL     1       1.185  -1.609   9.952  1.00  0.00     0.031 C 
ATOM     37  C   UNL     1      -3.196  -3.924   8.976  1.00  0.00     0.029 A 
ATOM     38  N   UNL     1      -3.236  -2.178  10.364  1.00  0.00    -0.354 N 
ATOM     39  C   UNL     1       0.409  -0.198  11.575  1.00  0.00     0.074 A 
ATOM     40  C   UNL     1       1.552  -0.698  10.844  1.00  0.00     0.031 C 
ATOM     41  C   UNL     1      -4.480  -3.668   9.253  1.00  0.00     0.029 A 
ATOM     42  C   UNL     1      -4.547  -2.572  10.209  1.00  0.00     0.049 A 
ATOM     43  H   UNL     1      -2.963  -1.427  10.940  1.00  0.00     0.167 HD
ATOM     44  C   UNL     1       0.465   0.803  12.487  1.00  0.00     0.034 A 
ATOM     45  C   UNL     1      -5.681  -2.133  10.792  1.00  0.00     0.034 A 
ATOM     46  C   UNL     1      -0.688   1.347  13.152  1.00  0.00     0.049 A 
ATOM     47  C   UNL     1      -5.589  -1.025  11.802  1.00  0.00     0.074 A 
ATOM     48  C   UNL     1      -0.738   2.382  14.069  1.00  0.00     0.029 A 
ATOM     49  N   UNL     1      -1.993   0.918  12.962  1.00  0.00    -0.354 N 
ATOM     50  N   UNL     1      -4.535  -0.342  12.175  1.00  0.00    -0.248 NA
ATOM     51  C   UNL     1      -6.835  -0.625  12.471  1.00  0.00     0.031 C 
ATOM     52  C   UNL     1      -2.068   2.561  14.454  1.00  0.00     0.029 A 
ATOM     53  C   UNL     1      -2.853   1.663  13.749  1.00  0.00     0.049 A 
ATOM     54  H   UNL     1      -2.267   0.192  12.356  1.00  0.00     0.167 HD
ATOM     55  C   UNL     1      -4.992   0.584  13.104  1.00  0.00     0.074 A 
ATOM     56  C   UNL     1      -6.422   0.388  13.222  1.00  0.00     0.031 C 
ATOM     57  C   UNL     1      -4.283   1.497  13.810  1.00  0.00     0.034 A 
BRANCH  44  58
ATOM     58  C   UNL     1       1.809   1.413  12.804  1.00  0.00     0.023 A 
ATOM     59  C   UNL     1       2.441   2.247  11.860  1.00  0.00     0.012 A 
ATOM     60  C   UNL     1       2.394   1.246  14.077  1.00  0.00     0.148 A 
ATOM     61  C   UNL     1       3.644   2.883  12.166  1.00  0.00     0.002 A 
ATOM     62  C   UNL     1       3.567   1.923  14.392  1.00  0.00     0.091 A 
ATOM     63  F   UNL     1       1.786   0.439  14.958  1.00  0.00    -0.205 F 
ATOM     64  C   UNL     1       4.199   2.732  13.434  1.00  0.00     0.022 A 
BRANCH  62  65
ATOM     65  S   UNL     1       4.314   1.869  16.026  1.00  0.00     0.127 S 
ATOM     66  O   UNL     1       5.558   1.148  15.758  1.00  0.00    -0.237 OA
ATOM     67  O   UNL     1       4.488   3.289  16.331  1.00  0.00    -0.237 OA
ATOM     68  O   UNL     1       3.365   1.172  16.882  1.00  0.00    -0.744 OA
ENDBRANCH  62  65
ENDBRANCH  44  58
BRANCH  45  69
ATOM     69  C   UNL     1      -6.994  -2.732  10.408  1.00  0.00     0.023 A 
ATOM     70  C   UNL     1      -7.938  -1.946   9.719  1.00  0.00     0.012 A 
ATOM     71  C   UNL     1      -7.285  -4.090  10.652  1.00  0.00     0.148 A 
ATOM     72  C   UNL     1      -9.146  -2.498   9.289  1.00  0.00     0.002 A 
ATOM     73  C   UNL     1      -8.457  -4.650  10.160  1.00  0.00     0.091 A 
ATOM     74  F   UNL     1      -6.387  -4.819  11.330  1.00  0.00    -0.205 F 
ATOM     75  C   UNL     1      -9.398  -3.852   9.492  1.00  0.00     0.022 A 
BRANCH  73  76
ATOM     76  S   UNL     1      -8.786  -6.416  10.233  1.00  0.00     0.127 S 
ATOM     77  O   UNL     1      -9.884  -6.477  11.194  1.00  0.00    -0.237 OA
ATOM     78  O   UNL     1      -9.159  -6.711   8.849  1.00  0.00    -0.237 OA
ATOM     79  O   UNL     1      -7.536  -7.031  10.660  1.00  0.00    -0.744 OA
ENDBRANCH  73  76
ENDBRANCH  45  69
BRANCH  57  80
ATOM     80  C   UNL     1      -5.028   2.395  14.761  1.00  0.00     0.023 A 
ATOM     81  C   UNL     1      -5.480   1.884  15.992  1.00  0.00     0.012 A 
ATOM     82  C   UNL     1      -5.134   3.776  14.498  1.00  0.00     0.148 A 
ATOM     83  C   UNL     1      -6.032   2.734  16.948  1.00  0.00     0.002 A 
ATOM     84  C   UNL     1      -5.635   4.624  15.477  1.00  0.00     0.091 A 
ATOM     85  F   UNL     1      -4.708   4.234  13.312  1.00  0.00    -0.205 F 
ATOM     86  C   UNL     1      -6.093   4.104  16.699  1.00  0.00     0.022 A 
BRANCH  84  87
ATOM     87  S   UNL     1      -5.647   6.411  15.296  1.00  0.00     0.127 S 
ATOM     88  O   UNL     1      -7.081   6.700  15.298  1.00  0.00    -0.237 OA
ATOM     89  O   UNL     1      -4.935   6.845  16.497  1.00  0.00    -0.237 OA
ATOM     90  O   UNL     1      -4.962   6.697  14.043  1.00  0.00    -0.744 OA
ENDBRANCH  84  87
ENDBRANCH  57  80
ENDBRANCH  31  32
ENDBRANCH  24  26
ENDBRANCH  23  24
ENDBRANCH   1  23
TORSDOF 15
