REMARK SMILES [NH3+][C@H](CCC(=O)OCCOC(=O)c1ccc(-c2c3nc(c(-c4cccc(S(=O)(=O)[O-])c4F)c4ccc([nH]4)c(-c4cccc(S(=O)(=O)[O-])c4F)c4nc(c(-c5cccc(S(=O)(=O)[O-])c5F)c5ccc2[nH]5)C=C4)C=C3)cc1)c1nccc2[nH]ccc12
REMARK SMILES IDX 8 1 7 2 5 3 6 4 4 5 3 6 2 7 1 8 76 12 77 13 84 14 78 15
REMARK SMILES IDX 80 16 83 17 79 18 81 19 82 20 9 22 10 23 11 24 12 25 13 26
REMARK SMILES IDX 14 27 75 28 15 29 74 30 16 31 17 32 18 33 68 34 19 35 73 36
REMARK SMILES IDX 67 37 69 38 20 39 72 40 66 41 65 42 21 44 53 45 33 46 52 47
REMARK SMILES IDX 34 48 37 49 51 50 70 51 35 52 36 53 50 55 71 56 38 57 22 58
REMARK SMILES IDX 23 59 31 60 24 61 26 62 32 63 25 64 27 65 28 66 29 67 30 68
REMARK SMILES IDX 54 69 55 70 63 71 56 72 58 73 64 74 57 75 59 76 60 77 61 78
REMARK SMILES IDX 62 79 39 80 40 81 48 82 41 83 43 84 49 85 42 86 44 87 45 88
REMARK SMILES IDX 46 89 47 90
REMARK H PARENT 1 9 1 10 1 11 81 21 69 43 37 54
REMARK Flexibility Score: inf
ROOT
ATOM      1  C   UNL     1      -0.236   4.473   0.337  1.00  0.00     0.274 C 
ENDROOT
BRANCH   1   2
ATOM      2  O   UNL     1      -0.224   3.040   0.477  1.00  0.00    -0.462 OA
BRANCH   2   3
ATOM      3  C   UNL     1      -0.506   2.313  -0.635  1.00  0.00     0.306 C 
ATOM      4  O   UNL     1      -0.835   2.794  -1.712  1.00  0.00    -0.252 OA
BRANCH   3   5
ATOM      5  C   UNL     1      -0.166   0.848  -0.454  1.00  0.00     0.129 C 
BRANCH   5   6
ATOM      6  C   UNL     1      -0.372   0.166   0.906  1.00  0.00     0.083 C 
BRANCH   6   7
ATOM      7  C   UNL     1      -1.483   0.653   1.882  1.00  0.00     0.232 C 
BRANCH   7   8
ATOM      8  N   UNL     1      -1.021   1.768   2.718  1.00  0.00    -0.350 N 
ATOM      9  H   UNL     1      -1.773   2.059   3.342  1.00  0.00     0.345 HD
ATOM     10  H   UNL     1      -0.751   2.551   2.122  1.00  0.00     0.345 HD
ATOM     11  H   UNL     1      -0.217   1.469   3.270  1.00  0.00     0.345 HD
ENDBRANCH   7   8
BRANCH   7  12
ATOM     12  C   UNL     1      -2.852   0.820   1.207  1.00  0.00     0.107 A 
ATOM     13  N   UNL     1      -2.845   0.572  -0.137  1.00  0.00    -0.254 NA
ATOM     14  C   UNL     1      -4.062   0.509   1.865  1.00  0.00     0.027 A 
ATOM     15  C   UNL     1      -3.613  -0.409  -0.634  1.00  0.00     0.114 A 
ATOM     16  C   UNL     1      -4.799  -0.559   1.347  1.00  0.00     0.049 A 
ATOM     17  C   UNL     1      -4.817   1.029   2.954  1.00  0.00     0.030 A 
ATOM     18  C   UNL     1      -4.503  -1.143   0.120  1.00  0.00     0.047 A 
ATOM     19  N   UNL     1      -5.782  -0.845   2.261  1.00  0.00    -0.361 N 
ATOM     20  C   UNL     1      -5.917   0.213   3.121  1.00  0.00     0.083 A 
ATOM     21  H   UNL     1      -6.307  -1.677   2.293  1.00  0.00     0.166 HD
ENDBRANCH   7  12
ENDBRANCH   6   7
ENDBRANCH   5   6
ENDBRANCH   3   5
ENDBRANCH   2   3
ENDBRANCH   1   2
BRANCH   1  22
ATOM     22  C   UNL     1       1.201   4.988   0.258  1.00  0.00     0.275 C 
BRANCH  22  23
ATOM     23  O   UNL     1       1.776   4.708  -1.031  1.00  0.00    -0.458 OA
BRANCH  23  24
ATOM     24  C   UNL     1       2.346   3.493  -1.164  1.00  0.00     0.338 C 
ATOM     25  O   UNL     1       2.521   2.657  -0.277  1.00  0.00    -0.246 OA
BRANCH  24  26
ATOM     26  C   UNL     1       2.633   3.231  -2.578  1.00  0.00     0.060 A 
ATOM     27  C   UNL     1       2.107   2.079  -3.171  1.00  0.00     0.016 A 
ATOM     28  C   UNL     1       3.480   4.075  -3.296  1.00  0.00     0.016 A 
ATOM     29  C   UNL     1       2.466   1.732  -4.466  1.00  0.00     0.010 A 
ATOM     30  C   UNL     1       3.828   3.736  -4.604  1.00  0.00     0.010 A 
ATOM     31  C   UNL     1       3.351   2.545  -5.180  1.00  0.00    -0.014 A 
BRANCH  31  32
ATOM     32  C   UNL     1       3.856   2.085  -6.490  1.00  0.00     0.031 A 
ATOM     33  C   UNL     1       5.275   1.606  -6.596  1.00  0.00     0.074 A 
ATOM     34  C   UNL     1       3.042   2.078  -7.559  1.00  0.00     0.049 A 
ATOM     35  N   UNL     1       5.933   1.201  -7.649  1.00  0.00    -0.248 NA
ATOM     36  C   UNL     1       6.061   1.586  -5.351  1.00  0.00     0.031 C 
ATOM     37  C   UNL     1       1.640   2.498  -7.556  1.00  0.00     0.029 A 
ATOM     38  N   UNL     1       3.281   1.712  -8.858  1.00  0.00    -0.354 N 
ATOM     39  C   UNL     1       7.223   0.933  -7.208  1.00  0.00     0.074 A 
ATOM     40  C   UNL     1       7.256   1.220  -5.791  1.00  0.00     0.031 C 
ATOM     41  C   UNL     1       1.144   2.370  -8.797  1.00  0.00     0.029 A 
ATOM     42  C   UNL     1       2.200   1.896  -9.686  1.00  0.00     0.049 A 
ATOM     43  H   UNL     1       4.144   1.352  -9.167  1.00  0.00     0.167 HD
ATOM     44  C   UNL     1       8.280   0.478  -7.919  1.00  0.00     0.034 A 
ATOM     45  C   UNL     1       2.086   1.715 -11.015  1.00  0.00     0.034 A 
ATOM     46  C   UNL     1       8.221   0.153  -9.318  1.00  0.00     0.049 A 
ATOM     47  C   UNL     1       3.276   1.200 -11.780  1.00  0.00     0.074 A 
ATOM     48  C   UNL     1       9.219  -0.358 -10.128  1.00  0.00     0.029 A 
ATOM     49  N   UNL     1       7.097   0.309 -10.117  1.00  0.00    -0.354 N 
ATOM     50  N   UNL     1       4.464   0.868 -11.335  1.00  0.00    -0.248 NA
ATOM     51  C   UNL     1       3.100   1.006 -13.226  1.00  0.00     0.031 C 
ATOM     52  C   UNL     1       8.703  -0.493 -11.422  1.00  0.00     0.029 A 
ATOM     53  C   UNL     1       7.376  -0.091 -11.412  1.00  0.00     0.049 A 
ATOM     54  H   UNL     1       6.228   0.653  -9.807  1.00  0.00     0.167 HD
ATOM     55  C   UNL     1       5.163   0.385 -12.435  1.00  0.00     0.074 A 
ATOM     56  C   UNL     1       4.259   0.458 -13.565  1.00  0.00     0.031 C 
ATOM     57  C   UNL     1       6.440  -0.067 -12.507  1.00  0.00     0.034 A 
BRANCH  44  58
ATOM     58  C   UNL     1       9.584   0.299  -7.188  1.00  0.00     0.023 A 
ATOM     59  C   UNL     1       9.738  -0.759  -6.270  1.00  0.00     0.012 A 
ATOM     60  C   UNL     1      10.666   1.169  -7.425  1.00  0.00     0.148 A 
ATOM     61  C   UNL     1      10.933  -0.925  -5.570  1.00  0.00     0.002 A 
ATOM     62  C   UNL     1      11.869   0.971  -6.757  1.00  0.00     0.091 A 
ATOM     63  F   UNL     1      10.493   2.189  -8.279  1.00  0.00    -0.205 F 
ATOM     64  C   UNL     1      12.000  -0.067  -5.820  1.00  0.00     0.022 A 
BRANCH  62  65
ATOM     65  S   UNL     1      13.320   1.981  -7.072  1.00  0.00     0.127 S 
ATOM     66  O   UNL     1      13.347   2.839  -5.888  1.00  0.00    -0.237 OA
ATOM     67  O   UNL     1      14.389   0.982  -7.124  1.00  0.00    -0.237 OA
ATOM     68  O   UNL     1      13.067   2.659  -8.336  1.00  0.00    -0.744 OA
ENDBRANCH  62  65
ENDBRANCH  44  58
BRANCH  45  69
ATOM     69  C   UNL     1       0.782   1.964 -11.690  1.00  0.00     0.023 A 
ATOM     70  C   UNL     1       0.043   0.872 -12.185  1.00  0.00     0.012 A 
ATOM     71  C   UNL     1       0.252   3.264 -11.809  1.00  0.00     0.148 A 
ATOM     72  C   UNL     1      -1.188   1.072 -12.810  1.00  0.00     0.002 A 
ATOM     73  C   UNL     1      -0.999   3.450 -12.387  1.00  0.00     0.091 A 
ATOM     74  F   UNL     1       0.977   4.290 -11.344  1.00  0.00    -0.205 F 
ATOM     75  C   UNL     1      -1.714   2.358 -12.901  1.00  0.00     0.022 A 
BRANCH  73  76
ATOM     76  S   UNL     1      -1.809   5.053 -12.441  1.00  0.00     0.127 S 
ATOM     77  O   UNL     1      -1.774   5.357 -13.869  1.00  0.00    -0.237 OA
ATOM     78  O   UNL     1      -3.136   4.738 -11.911  1.00  0.00    -0.237 OA
ATOM     79  O   UNL     1      -1.013   5.926 -11.589  1.00  0.00    -0.744 OA
ENDBRANCH  73  76
ENDBRANCH  45  69
BRANCH  57  80
ATOM     80  C   UNL     1       6.923  -0.569 -13.842  1.00  0.00     0.023 A 
ATOM     81  C   UNL     1       7.202   0.343 -14.878  1.00  0.00     0.012 A 
ATOM     82  C   UNL     1       7.169  -1.942 -14.042  1.00  0.00     0.148 A 
ATOM     83  C   UNL     1       7.685  -0.108 -16.106  1.00  0.00     0.002 A 
ATOM     84  C   UNL     1       7.698  -2.378 -15.251  1.00  0.00     0.091 A 
ATOM     85  F   UNL     1       6.877  -2.797 -13.051  1.00  0.00    -0.205 F 
ATOM     86  C   UNL     1       7.944  -1.465 -16.288  1.00  0.00     0.022 A 
BRANCH  84  87
ATOM     87  S   UNL     1       8.155  -4.093 -15.528  1.00  0.00     0.127 S 
ATOM     88  O   UNL     1       7.037  -4.573 -16.338  1.00  0.00    -0.237 OA
ATOM     89  O   UNL     1       9.422  -3.969 -16.250  1.00  0.00    -0.237 OA
ATOM     90  O   UNL     1       8.276  -4.689 -14.204  1.00  0.00    -0.744 OA
ENDBRANCH  84  87
ENDBRANCH  57  80
ENDBRANCH  31  32
ENDBRANCH  24  26
ENDBRANCH  23  24
ENDBRANCH  22  23
ENDBRANCH   1  22
TORSDOF 18
