REMARK SMILES CC1=C[C@@H]([C@@H]2N=N[C@H](S)N2/N=C/c2ccc(C(=O)OCCOC(=O)c3ccc(-c4c5nc(c(-c6cccc(S(=O)(=O)[O-])c6F)c6ccc([nH]6)c(-c6cccc(S(=O)(=O)[O-])c6F)c6nc(c(-c7cccc(S(=O)(=O)[O-])c7F)c7ccc4[nH]7)C=C6)C=C5)cc3)cc2)N=N1
REMARK SMILES IDX 20 1 19 2 17 3 18 4 16 5 13 6 14 7 89 8 15 9 88 10 12 11
REMARK SMILES IDX 11 12 10 13 5 14 6 15 7 16 8 17 4 18 1 19 2 20 3 21 91 22
REMARK SMILES IDX 90 23 9 24 21 26 22 27 23 28 24 29 25 30 26 31 87 32 27 33
REMARK SMILES IDX 86 34 28 35 29 36 30 37 80 38 31 39 85 40 79 41 81 42 32 43
REMARK SMILES IDX 84 44 78 45 77 46 33 48 65 49 45 50 64 51 46 52 49 53 63 54
REMARK SMILES IDX 82 55 47 56 48 57 62 59 83 60 50 61 34 62 35 63 43 64 36 65
REMARK SMILES IDX 38 66 44 67 37 68 39 69 40 70 41 71 42 72 66 73 67 74 75 75
REMARK SMILES IDX 68 76 70 77 76 78 69 79 71 80 72 81 73 82 74 83 51 84 52 85
REMARK SMILES IDX 60 86 53 87 55 88 61 89 54 90 56 91 57 92 58 93 59 94
REMARK H PARENT 9 25 81 47 49 58
REMARK Flexibility Score: inf
ROOT
ATOM      1  C   UNL     1      -6.982  -3.413   3.538  1.00  0.00     0.275 C 
ENDROOT
BRANCH   1   2
ATOM      2  O   UNL     1      -6.337  -2.664   2.495  1.00  0.00    -0.458 OA
BRANCH   2   3
ATOM      3  C   UNL     1      -6.948  -2.732   1.280  1.00  0.00     0.338 C 
ATOM      4  O   UNL     1      -7.848  -3.476   0.963  1.00  0.00    -0.246 OA
BRANCH   3   5
ATOM      5  C   UNL     1      -6.415  -1.677   0.379  1.00  0.00     0.060 A 
ATOM      6  C   UNL     1      -5.514   0.261  -1.401  1.00  0.00    -0.005 A 
ATOM      7  C   UNL     1      -6.827  -0.207  -1.500  1.00  0.00     0.010 A 
ATOM      8  C   UNL     1      -4.654  -0.211  -0.408  1.00  0.00     0.010 A 
ATOM      9  C   UNL     1      -7.272  -1.188  -0.618  1.00  0.00     0.016 A 
ATOM     10  C   UNL     1      -5.114  -1.169   0.499  1.00  0.00     0.016 A 
BRANCH   6  11
ATOM     11  C   UNL     1      -5.077   1.255  -2.391  1.00  0.00     0.141 C 
ATOM     12  N   UNL     1      -3.868   1.287  -2.859  1.00  0.00    -0.180 NA
BRANCH  12  13
ATOM     13  N   UNL     1      -3.634   2.203  -3.856  1.00  0.00    -0.233 NA
ATOM     14  C   UNL     1      -2.377   2.034  -4.621  1.00  0.00     0.274 C 
ATOM     15  N   UNL     1      -2.696   2.097  -6.074  1.00  0.00    -0.161 NA
ATOM     16  N   UNL     1      -3.900   2.380  -6.248  1.00  0.00    -0.153 NA
ATOM     17  C   UNL     1      -4.600   2.445  -4.953  1.00  0.00     0.298 C 
BRANCH  14  18
ATOM     18  C   UNL     1      -1.302   3.113  -4.268  1.00  0.00     0.201 C 
ATOM     19  C   UNL     1      -2.055   6.300  -5.939  1.00  0.00     0.068 C 
ATOM     20  C   UNL     1      -1.474   5.071  -5.342  1.00  0.00     0.058 C 
ATOM     21  C   UNL     1      -1.863   4.493  -4.208  1.00  0.00     0.031 C 
ATOM     22  N   UNL     1      -0.532   4.330  -6.011  1.00  0.00    -0.160 NA
ATOM     23  N   UNL     1      -0.327   3.240  -5.398  1.00  0.00    -0.177 NA
ENDBRANCH  14  18
BRANCH  17  24
ATOM     24  S   UNL     1      -5.523   4.004  -4.672  1.00  0.00    -0.128 SA
ATOM     25  H   UNL     1      -4.651   5.046  -4.633  1.00  0.00     0.106 HD
ENDBRANCH  17  24
ENDBRANCH  12  13
ENDBRANCH   6  11
ENDBRANCH   3   5
ENDBRANCH   2   3
ENDBRANCH   1   2
BRANCH   1  26
ATOM     26  C   UNL     1      -8.008  -2.562   4.271  1.00  0.00     0.275 C 
BRANCH  26  27
ATOM     27  O   UNL     1      -9.149  -2.282   3.461  1.00  0.00    -0.458 OA
BRANCH  27  28
ATOM     28  C   UNL     1      -9.129  -1.064   2.877  1.00  0.00     0.338 C 
ATOM     29  O   UNL     1      -8.149  -0.423   2.529  1.00  0.00    -0.246 OA
BRANCH  28  30
ATOM     30  C   UNL     1     -10.466  -0.475   2.949  1.00  0.00     0.060 A 
ATOM     31  C   UNL     1     -10.721   0.666   2.184  1.00  0.00     0.016 A 
ATOM     32  C   UNL     1     -11.347  -0.910   3.949  1.00  0.00     0.016 A 
ATOM     33  C   UNL     1     -11.828   1.432   2.489  1.00  0.00     0.010 A 
ATOM     34  C   UNL     1     -12.438  -0.138   4.264  1.00  0.00     0.010 A 
ATOM     35  C   UNL     1     -12.646   1.046   3.558  1.00  0.00    -0.014 A 
BRANCH  35  36
ATOM     36  C   UNL     1     -13.885   1.773   3.774  1.00  0.00     0.031 A 
ATOM     37  C   UNL     1     -14.844   1.521   2.670  1.00  0.00     0.074 A 
ATOM     38  C   UNL     1     -14.150   2.418   4.928  1.00  0.00     0.049 A 
ATOM     39  N   UNL     1     -15.292   2.367   1.801  1.00  0.00    -0.248 NA
ATOM     40  C   UNL     1     -15.175   0.117   2.350  1.00  0.00     0.031 C 
ATOM     41  C   UNL     1     -13.310   2.405   6.132  1.00  0.00     0.029 A 
ATOM     42  N   UNL     1     -15.276   3.070   5.346  1.00  0.00    -0.354 N 
ATOM     43  C   UNL     1     -16.220   1.639   1.057  1.00  0.00     0.074 A 
ATOM     44  C   UNL     1     -15.888   0.256   1.231  1.00  0.00     0.031 C 
ATOM     45  C   UNL     1     -14.055   2.769   7.197  1.00  0.00     0.029 A 
ATOM     46  C   UNL     1     -15.377   3.153   6.737  1.00  0.00     0.049 A 
ATOM     47  H   UNL     1     -15.947   3.444   4.730  1.00  0.00     0.167 HD
ATOM     48  C   UNL     1     -17.421   2.205   0.756  1.00  0.00     0.034 A 
ATOM     49  C   UNL     1     -16.491   3.426   7.462  1.00  0.00     0.034 A 
ATOM     50  C   UNL     1     -17.351   3.637   0.899  1.00  0.00     0.049 A 
ATOM     51  C   UNL     1     -17.454   4.100   6.568  1.00  0.00     0.074 A 
ATOM     52  C   UNL     1     -16.756   4.695   0.251  1.00  0.00     0.029 A 
ATOM     53  N   UNL     1     -17.687   4.058   2.156  1.00  0.00    -0.354 N 
ATOM     54  N   UNL     1     -17.263   5.293   6.079  1.00  0.00    -0.248 NA
ATOM     55  C   UNL     1     -18.509   3.319   5.930  1.00  0.00     0.031 C 
ATOM     56  C   UNL     1     -16.658   5.744   1.213  1.00  0.00     0.029 A 
ATOM     57  C   UNL     1     -17.234   5.318   2.409  1.00  0.00     0.049 A 
ATOM     58  H   UNL     1     -18.195   3.515   2.802  1.00  0.00     0.167 HD
ATOM     59  C   UNL     1     -17.817   5.218   4.816  1.00  0.00     0.074 A 
ATOM     60  C   UNL     1     -18.730   4.083   4.857  1.00  0.00     0.031 C 
ATOM     61  C   UNL     1     -17.215   5.834   3.759  1.00  0.00     0.034 A 
BRANCH  48  62
ATOM     62  C   UNL     1     -18.770   1.507   0.923  1.00  0.00     0.023 A 
ATOM     63  C   UNL     1     -19.913   2.258   0.560  1.00  0.00     0.012 A 
ATOM     64  C   UNL     1     -19.002   0.345   1.698  1.00  0.00     0.148 A 
ATOM     65  C   UNL     1     -21.196   1.911   1.000  1.00  0.00     0.002 A 
ATOM     66  C   UNL     1     -20.285  -0.032   2.079  1.00  0.00     0.091 A 
ATOM     67  F   UNL     1     -17.984  -0.354   2.196  1.00  0.00    -0.205 F 
ATOM     68  C   UNL     1     -21.384   0.764   1.760  1.00  0.00     0.022 A 
BRANCH  66  69
ATOM     69  S   UNL     1     -20.582  -1.515   3.056  1.00  0.00     0.127 S 
ATOM     70  O   UNL     1     -21.009  -0.942   4.329  1.00  0.00    -0.237 OA
ATOM     71  O   UNL     1     -21.637  -2.170   2.281  1.00  0.00    -0.237 OA
ATOM     72  O   UNL     1     -19.317  -2.239   3.075  1.00  0.00    -0.744 OA
ENDBRANCH  66  69
ENDBRANCH  48  62
BRANCH  49  73
ATOM     73  C   UNL     1     -16.888   2.987   8.824  1.00  0.00     0.023 A 
ATOM     74  C   UNL     1     -17.911   3.680   9.506  1.00  0.00     0.012 A 
ATOM     75  C   UNL     1     -16.475   1.740   9.341  1.00  0.00     0.148 A 
ATOM     76  C   UNL     1     -18.535   3.127  10.631  1.00  0.00     0.002 A 
ATOM     77  C   UNL     1     -17.091   1.200  10.467  1.00  0.00     0.091 A 
ATOM     78  F   UNL     1     -15.545   1.041   8.680  1.00  0.00    -0.205 F 
ATOM     79  C   UNL     1     -18.133   1.883  11.105  1.00  0.00     0.022 A 
BRANCH  77  80
ATOM     80  S   UNL     1     -16.632  -0.409  11.129  1.00  0.00     0.127 S 
ATOM     81  O   UNL     1     -16.472  -0.115  12.554  1.00  0.00    -0.237 OA
ATOM     82  O   UNL     1     -17.802  -1.217  10.800  1.00  0.00    -0.237 OA
ATOM     83  O   UNL     1     -15.395  -0.780  10.453  1.00  0.00    -0.744 OA
ENDBRANCH  77  80
ENDBRANCH  49  73
BRANCH  61  84
ATOM     84  C   UNL     1     -16.360   7.028   4.040  1.00  0.00     0.023 A 
ATOM     85  C   UNL     1     -15.146   6.967   4.750  1.00  0.00     0.012 A 
ATOM     86  C   UNL     1     -16.767   8.248   3.476  1.00  0.00     0.148 A 
ATOM     87  C   UNL     1     -14.364   8.115   4.909  1.00  0.00     0.002 A 
ATOM     88  C   UNL     1     -15.966   9.371   3.593  1.00  0.00     0.091 A 
ATOM     89  F   UNL     1     -17.936   8.282   2.818  1.00  0.00    -0.205 F 
ATOM     90  C   UNL     1     -14.766   9.313   4.318  1.00  0.00     0.022 A 
BRANCH  88  91
ATOM     91  S   UNL     1     -16.386  10.899   2.755  1.00  0.00     0.127 S 
ATOM     92  O   UNL     1     -16.877  11.725   3.855  1.00  0.00    -0.237 OA
ATOM     93  O   UNL     1     -15.097  11.317   2.201  1.00  0.00    -0.237 OA
ATOM     94  O   UNL     1     -17.375  10.541   1.745  1.00  0.00    -0.744 OA
ENDBRANCH  88  91
ENDBRANCH  61  84
ENDBRANCH  35  36
ENDBRANCH  28  30
ENDBRANCH  27  28
ENDBRANCH  26  27
ENDBRANCH   1  26
TORSDOF 18
