REMARK SMILES Cc1cccc(CS[C@@H]2CC[C@]([NH3+])(C(=O)OCCOC(=O)c3ccc(-c4c5nc(c(-c6cccc(S(=O)(=O)[O-])c6F)c6ccc([nH]6)c(-c6cccc(S(=O)(=O)[O-])c6F)c6nc(c(-c7cccc(S(=O)(=O)[O-])c7F)c7ccc4[nH]7)C=C6)C=C5)cc3)C2)c1
REMARK SMILES IDX 17 1 16 2 14 3 15 4 12 5 9 6 10 7 85 8 11 9 8 10 7 11 6 12
REMARK SMILES IDX 1 13 2 14 3 15 86 16 4 17 5 18 13 19 18 23 19 24 20 25 21 26
REMARK SMILES IDX 22 27 23 28 84 29 24 30 83 31 25 32 26 33 27 34 77 35 28 36
REMARK SMILES IDX 82 37 76 38 78 39 29 40 81 41 75 42 74 43 30 45 62 46 42 47
REMARK SMILES IDX 61 48 43 49 46 50 60 51 79 52 44 53 45 54 59 56 80 57 47 58
REMARK SMILES IDX 31 59 32 60 40 61 33 62 35 63 41 64 34 65 36 66 37 67 38 68
REMARK SMILES IDX 39 69 63 70 64 71 72 72 65 73 67 74 73 75 66 76 68 77 69 78
REMARK SMILES IDX 70 79 71 80 48 81 49 82 57 83 50 84 52 85 58 86 51 87 53 88
REMARK SMILES IDX 54 89 55 90 56 91
REMARK H PARENT 13 20 13 21 13 22 78 44 46 55
REMARK Flexibility Score: inf
ROOT
ATOM      1  C   UNL     1       3.236   2.753  -5.875  1.00  0.00     0.274 C 
ENDROOT
BRANCH   1   2
ATOM      2  O   UNL     1       2.008   2.632  -5.144  1.00  0.00    -0.457 OA
BRANCH   2   3
ATOM      3  C   UNL     1       0.886   3.097  -5.735  1.00  0.00     0.368 C 
ATOM      4  O   UNL     1       0.898   3.879  -6.685  1.00  0.00    -0.245 OA
BRANCH   3   5
ATOM      5  C   UNL     1      -0.436   2.404  -5.270  1.00  0.00     0.193 C 
ATOM      6  C   UNL     1      -2.266   1.907  -3.813  1.00  0.00     0.054 C 
ATOM      7  C   UNL     1      -1.341   0.703  -3.697  1.00  0.00     0.022 C 
ATOM      8  C   UNL     1      -1.277   3.048  -4.131  1.00  0.00     0.095 C 
ATOM      9  C   UNL     1      -0.248   0.955  -4.755  1.00  0.00     0.082 C 
BRANCH   6  10
ATOM     10  S   UNL     1      -3.651   2.051  -2.635  1.00  0.00    -0.154 SA
BRANCH  10  11
ATOM     11  C   UNL     1      -2.871   2.425  -1.049  1.00  0.00     0.105 C 
BRANCH  11  12
ATOM     12  C   UNL     1      -2.064   1.329  -0.411  1.00  0.00    -0.038 A 
ATOM     13  C   UNL     1       1.123   1.285   1.599  1.00  0.00     0.044 C 
ATOM     14  C   UNL     1      -0.074   0.777   0.875  1.00  0.00    -0.051 A 
ATOM     15  C   UNL     1      -0.436  -0.570   0.875  1.00  0.00     0.003 A 
ATOM     16  C   UNL     1      -0.895   1.707   0.249  1.00  0.00     0.008 A 
ATOM     17  C   UNL     1      -1.627  -0.965   0.265  1.00  0.00     0.001 A 
ATOM     18  C   UNL     1      -2.446  -0.018  -0.360  1.00  0.00     0.004 A 
ENDBRANCH  11  12
ENDBRANCH  10  11
ENDBRANCH   6  10
BRANCH   5  19
ATOM     19  N   UNL     1      -1.275   2.350  -6.526  1.00  0.00    -0.343 N 
ATOM     20  H   UNL     1      -2.170   1.907  -6.319  1.00  0.00     0.345 HD
ATOM     21  H   UNL     1      -0.785   1.808  -7.239  1.00  0.00     0.345 HD
ATOM     22  H   UNL     1      -1.435   3.297  -6.869  1.00  0.00     0.345 HD
ENDBRANCH   5  19
ENDBRANCH   3   5
ENDBRANCH   2   3
ENDBRANCH   1   2
BRANCH   1  23
ATOM     23  C   UNL     1       3.809   4.131  -6.291  1.00  0.00     0.275 C 
BRANCH  23  24
ATOM     24  O   UNL     1       3.083   5.369  -6.071  1.00  0.00    -0.458 OA
BRANCH  24  25
ATOM     25  C   UNL     1       2.746   5.954  -4.885  1.00  0.00     0.338 C 
ATOM     26  O   UNL     1       2.297   7.077  -4.797  1.00  0.00    -0.246 OA
BRANCH  25  27
ATOM     27  C   UNL     1       2.964   5.108  -3.709  1.00  0.00     0.060 A 
ATOM     28  C   UNL     1       1.874   4.607  -2.986  1.00  0.00     0.016 A 
ATOM     29  C   UNL     1       4.256   4.654  -3.494  1.00  0.00     0.016 A 
ATOM     30  C   UNL     1       2.066   3.514  -2.137  1.00  0.00     0.010 A 
ATOM     31  C   UNL     1       4.423   3.499  -2.772  1.00  0.00     0.010 A 
ATOM     32  C   UNL     1       3.338   2.935  -2.066  1.00  0.00    -0.014 A 
BRANCH  32  33
ATOM     33  C   UNL     1       3.785   2.070  -0.975  1.00  0.00     0.031 A 
ATOM     34  C   UNL     1       3.503   0.625  -0.834  1.00  0.00     0.074 A 
ATOM     35  C   UNL     1       4.514   2.774  -0.076  1.00  0.00     0.049 A 
ATOM     36  N   UNL     1       3.992  -0.090   0.122  1.00  0.00    -0.248 NA
ATOM     37  C   UNL     1       2.587  -0.130  -1.690  1.00  0.00     0.031 C 
ATOM     38  C   UNL     1       5.358   2.338   1.013  1.00  0.00     0.029 A 
ATOM     39  N   UNL     1       4.464   4.171   0.072  1.00  0.00    -0.354 N 
ATOM     40  C   UNL     1       3.387  -1.329   0.094  1.00  0.00     0.074 A 
ATOM     41  C   UNL     1       2.622  -1.353  -1.132  1.00  0.00     0.031 C 
ATOM     42  C   UNL     1       5.519   3.370   1.862  1.00  0.00     0.029 A 
ATOM     43  C   UNL     1       4.657   4.456   1.414  1.00  0.00     0.049 A 
ATOM     44  H   UNL     1       4.319   4.828  -0.646  1.00  0.00     0.167 HD
ATOM     45  C   UNL     1       3.490  -2.156   1.172  1.00  0.00     0.034 A 
ATOM     46  C   UNL     1       3.718   5.133   2.133  1.00  0.00     0.034 A 
ATOM     47  C   UNL     1       3.918  -1.407   2.364  1.00  0.00     0.049 A 
ATOM     48  C   UNL     1       3.222   4.269   3.272  1.00  0.00     0.074 A 
ATOM     49  C   UNL     1       5.135  -0.870   2.745  1.00  0.00     0.029 A 
ATOM     50  N   UNL     1       2.966  -0.839   3.208  1.00  0.00    -0.354 N 
ATOM     51  N   UNL     1       3.401   2.975   3.346  1.00  0.00    -0.248 NA
ATOM     52  C   UNL     1       2.503   4.802   4.419  1.00  0.00     0.031 C 
ATOM     53  C   UNL     1       4.875   0.174   3.675  1.00  0.00     0.029 A 
ATOM     54  C   UNL     1       3.510   0.238   3.911  1.00  0.00     0.049 A 
ATOM     55  H   UNL     1       2.037  -1.154   3.296  1.00  0.00     0.167 HD
ATOM     56  C   UNL     1       2.796   2.486   4.472  1.00  0.00     0.074 A 
ATOM     57  C   UNL     1       2.309   3.686   5.142  1.00  0.00     0.031 C 
ATOM     58  C   UNL     1       2.680   1.141   4.728  1.00  0.00     0.034 A 
BRANCH  45  59
ATOM     59  C   UNL     1       3.434  -3.671   1.124  1.00  0.00     0.023 A 
ATOM     60  C   UNL     1       4.350  -4.323   1.987  1.00  0.00     0.012 A 
ATOM     61  C   UNL     1       2.685  -4.504   0.261  1.00  0.00     0.148 A 
ATOM     62  C   UNL     1       4.560  -5.703   1.967  1.00  0.00     0.002 A 
ATOM     63  C   UNL     1       2.920  -5.889   0.218  1.00  0.00     0.091 A 
ATOM     64  F   UNL     1       1.730  -3.969  -0.506  1.00  0.00    -0.205 F 
ATOM     65  C   UNL     1       3.858  -6.487   1.069  1.00  0.00     0.022 A 
BRANCH  63  66
ATOM     66  S   UNL     1       2.118  -7.003  -0.955  1.00  0.00     0.127 S 
ATOM     67  O   UNL     1       3.258  -7.501  -1.727  1.00  0.00    -0.237 OA
ATOM     68  O   UNL     1       1.503  -7.999  -0.078  1.00  0.00    -0.237 OA
ATOM     69  O   UNL     1       1.181  -6.188  -1.716  1.00  0.00    -0.744 OA
ENDBRANCH  63  66
ENDBRANCH  45  59
BRANCH  46  70
ATOM     70  C   UNL     1       2.908   6.138   1.351  1.00  0.00     0.023 A 
ATOM     71  C   UNL     1       3.624   7.104   0.591  1.00  0.00     0.012 A 
ATOM     72  C   UNL     1       1.536   5.999   1.087  1.00  0.00     0.148 A 
ATOM     73  C   UNL     1       3.030   7.806  -0.465  1.00  0.00     0.002 A 
ATOM     74  C   UNL     1       0.947   6.718   0.034  1.00  0.00     0.091 A 
ATOM     75  F   UNL     1       0.821   5.120   1.802  1.00  0.00    -0.205 F 
ATOM     76  C   UNL     1       1.693   7.596  -0.760  1.00  0.00     0.022 A 
BRANCH  74  77
ATOM     77  S   UNL     1      -0.746   6.366  -0.442  1.00  0.00     0.127 S 
ATOM     78  O   UNL     1      -0.897   7.034  -1.734  1.00  0.00    -0.237 OA
ATOM     79  O   UNL     1      -0.735   4.915  -0.540  1.00  0.00    -0.237 OA
ATOM     80  O   UNL     1      -1.513   6.953   0.649  1.00  0.00    -0.744 OA
ENDBRANCH  74  77
ENDBRANCH  46  70
BRANCH  58  81
ATOM     81  C   UNL     1       1.744   0.588   5.786  1.00  0.00     0.023 A 
ATOM     82  C   UNL     1       0.632   1.316   6.261  1.00  0.00     0.012 A 
ATOM     83  C   UNL     1       1.863  -0.743   6.245  1.00  0.00     0.148 A 
ATOM     84  C   UNL     1      -0.242   0.807   7.226  1.00  0.00     0.002 A 
ATOM     85  C   UNL     1       0.908  -1.294   7.098  1.00  0.00     0.091 A 
ATOM     86  F   UNL     1       2.910  -1.491   5.869  1.00  0.00    -0.205 F 
ATOM     87  C   UNL     1      -0.116  -0.510   7.632  1.00  0.00     0.022 A 
BRANCH  85  88
ATOM     88  S   UNL     1       0.859  -3.069   7.367  1.00  0.00     0.127 S 
ATOM     89  O   UNL     1       1.756  -3.232   8.508  1.00  0.00    -0.237 OA
ATOM     90  O   UNL     1      -0.555  -3.309   7.664  1.00  0.00    -0.237 OA
ATOM     91  O   UNL     1       1.305  -3.633   6.100  1.00  0.00    -0.744 OA
ENDBRANCH  85  88
ENDBRANCH  58  81
ENDBRANCH  32  33
ENDBRANCH  25  27
ENDBRANCH  24  25
ENDBRANCH  23  24
ENDBRANCH   1  23
TORSDOF 18
