REMARK SMILES O=C(OCCOC(=O)c1ccc(C[NH2+]C[C@H]2C[C@H](O)C2)nc1)c1ccc(-c2c3nc(c(-c4cccc(S(=O)(=O)[O-])c4F)c4ccc([nH]4)c(-c4cccc(S(=O)(=O)[O-])c4F)c4nc(c(-c5cccc(S(=O)(=O)[O-])c5F)c5ccc2[nH]5)C=C4)C=C3)cc1
REMARK SMILES IDX 5 1 4 2 3 3 2 4 1 5 23 6 24 7 85 8 25 9 84 10 26 11 27 12
REMARK SMILES IDX 28 13 78 14 29 15 83 16 77 17 79 18 30 19 82 20 76 21 75 22
REMARK SMILES IDX 31 24 63 25 43 26 62 27 44 28 47 29 61 30 80 31 45 32 46 33
REMARK SMILES IDX 60 35 81 36 48 37 32 38 33 39 41 40 34 41 36 42 42 43 35 44
REMARK SMILES IDX 37 45 38 46 39 47 40 48 64 49 65 50 73 51 66 52 68 53 74 54
REMARK SMILES IDX 67 55 69 56 70 57 71 58 72 59 49 60 50 61 58 62 51 63 53 64
REMARK SMILES IDX 59 65 52 66 54 67 55 68 56 69 57 70 6 71 7 72 8 73 9 74
REMARK SMILES IDX 10 75 22 76 11 77 21 78 12 79 13 80 14 81 15 84 16 85 20 86
REMARK SMILES IDX 17 87 18 88 19 89
REMARK H PARENT 79 23 47 34 14 82 14 83 19 90
REMARK Flexibility Score: inf
ROOT
ATOM      1  C   UNL     1       4.068   0.786  -2.235  1.00  0.00     0.275 C 
ENDROOT
BRANCH   1   2
ATOM      2  C   UNL     1       4.129  -0.621  -1.637  1.00  0.00     0.275 C 
BRANCH   2   3
ATOM      3  O   UNL     1       2.987  -0.992  -0.843  1.00  0.00    -0.458 OA
BRANCH   3   4
ATOM      4  C   UNL     1       2.772  -0.856   0.488  1.00  0.00     0.338 C 
ATOM      5  O   UNL     1       1.846  -1.482   1.001  1.00  0.00    -0.246 OA
BRANCH   4   6
ATOM      6  C   UNL     1       3.509   0.120   1.348  1.00  0.00     0.060 A 
ATOM      7  C   UNL     1       4.864   0.436   1.237  1.00  0.00     0.016 A 
ATOM      8  C   UNL     1       2.774   0.722   2.389  1.00  0.00     0.016 A 
ATOM      9  C   UNL     1       5.459   1.357   2.102  1.00  0.00     0.010 A 
ATOM     10  C   UNL     1       3.365   1.645   3.259  1.00  0.00     0.010 A 
ATOM     11  C   UNL     1       4.720   1.954   3.126  1.00  0.00    -0.014 A 
BRANCH  11  12
ATOM     12  C   UNL     1       5.435   2.772   4.128  1.00  0.00     0.031 A 
ATOM     13  C   UNL     1       5.868   2.122   5.408  1.00  0.00     0.074 A 
ATOM     14  C   UNL     1       5.761   4.049   3.863  1.00  0.00     0.049 A 
ATOM     15  N   UNL     1       6.679   2.577   6.325  1.00  0.00    -0.248 NA
ATOM     16  C   UNL     1       5.347   0.771   5.676  1.00  0.00     0.031 C 
ATOM     17  C   UNL     1       5.406   4.771   2.644  1.00  0.00     0.029 A 
ATOM     18  N   UNL     1       6.463   4.966   4.601  1.00  0.00    -0.354 N 
ATOM     19  C   UNL     1       6.781   1.565   7.269  1.00  0.00     0.074 A 
ATOM     20  C   UNL     1       5.920   0.486   6.835  1.00  0.00     0.031 C 
ATOM     21  C   UNL     1       5.853   6.034   2.733  1.00  0.00     0.029 A 
ATOM     22  C   UNL     1       6.551   6.202   4.005  1.00  0.00     0.049 A 
ATOM     23  H   UNL     1       6.867   4.760   5.475  1.00  0.00     0.167 HD
ATOM     24  C   UNL     1       7.550   1.524   8.380  1.00  0.00     0.034 A 
ATOM     25  C   UNL     1       7.149   7.332   4.431  1.00  0.00     0.034 A 
ATOM     26  C   UNL     1       8.385   2.609   8.813  1.00  0.00     0.049 A 
ATOM     27  C   UNL     1       7.973   7.276   5.692  1.00  0.00     0.074 A 
ATOM     28  C   UNL     1       9.217   2.672   9.914  1.00  0.00     0.029 A 
ATOM     29  N   UNL     1       8.470   3.836   8.172  1.00  0.00    -0.354 N 
ATOM     30  N   UNL     1       8.198   6.254   6.483  1.00  0.00    -0.248 NA
ATOM     31  C   UNL     1       8.678   8.504   6.086  1.00  0.00     0.031 C 
ATOM     32  C   UNL     1       9.789   3.949   9.952  1.00  0.00     0.029 A 
ATOM     33  C   UNL     1       9.329   4.672   8.861  1.00  0.00     0.049 A 
ATOM     34  H   UNL     1       7.990   4.077   7.347  1.00  0.00     0.167 HD
ATOM     35  C   UNL     1       9.106   6.698   7.438  1.00  0.00     0.074 A 
ATOM     36  C   UNL     1       9.397   8.082   7.118  1.00  0.00     0.031 C 
ATOM     37  C   UNL     1       9.646   6.028   8.487  1.00  0.00     0.034 A 
BRANCH  24  38
ATOM     38  C   UNL     1       7.527   0.251   9.179  1.00  0.00     0.023 A 
ATOM     39  C   UNL     1       8.196  -0.888   8.684  1.00  0.00     0.012 A 
ATOM     40  C   UNL     1       6.842   0.175  10.405  1.00  0.00     0.148 A 
ATOM     41  C   UNL     1       8.153  -2.094   9.382  1.00  0.00     0.002 A 
ATOM     42  C   UNL     1       6.833  -1.021  11.112  1.00  0.00     0.091 A 
ATOM     43  F   UNL     1       6.188   1.261  10.840  1.00  0.00    -0.205 F 
ATOM     44  C   UNL     1       7.478  -2.159  10.598  1.00  0.00     0.022 A 
BRANCH  42  45
ATOM     45  S   UNL     1       6.033  -1.191  12.710  1.00  0.00     0.127 S 
ATOM     46  O   UNL     1       4.862  -1.998  12.370  1.00  0.00    -0.237 OA
ATOM     47  O   UNL     1       7.052  -1.893  13.491  1.00  0.00    -0.237 OA
ATOM     48  O   UNL     1       5.752   0.165  13.162  1.00  0.00    -0.744 OA
ENDBRANCH  42  45
ENDBRANCH  24  38
BRANCH  25  49
ATOM     49  C   UNL     1       7.067   8.571   3.605  1.00  0.00     0.023 A 
ATOM     50  C   UNL     1       8.221   9.051   2.954  1.00  0.00     0.012 A 
ATOM     51  C   UNL     1       5.845   9.257   3.432  1.00  0.00     0.148 A 
ATOM     52  C   UNL     1       8.170  10.210   2.179  1.00  0.00     0.002 A 
ATOM     53  C   UNL     1       5.789  10.383   2.620  1.00  0.00     0.091 A 
ATOM     54  F   UNL     1       4.755   8.783   4.051  1.00  0.00    -0.205 F 
ATOM     55  C   UNL     1       6.955  10.871   2.007  1.00  0.00     0.022 A 
BRANCH  53  56
ATOM     56  S   UNL     1       4.252  11.241   2.246  1.00  0.00     0.127 S 
ATOM     57  O   UNL     1       4.444  12.510   2.942  1.00  0.00    -0.237 OA
ATOM     58  O   UNL     1       4.304  11.321   0.786  1.00  0.00    -0.237 OA
ATOM     59  O   UNL     1       3.169  10.404   2.755  1.00  0.00    -0.744 OA
ENDBRANCH  53  56
ENDBRANCH  25  49
BRANCH  37  60
ATOM     60  C   UNL     1      10.633   6.764   9.352  1.00  0.00     0.023 A 
ATOM     61  C   UNL     1      10.178   7.751  10.248  1.00  0.00     0.012 A 
ATOM     62  C   UNL     1      11.997   6.411   9.344  1.00  0.00     0.148 A 
ATOM     63  C   UNL     1      11.071   8.395  11.104  1.00  0.00     0.002 A 
ATOM     64  C   UNL     1      12.872   7.023  10.233  1.00  0.00     0.091 A 
ATOM     65  F   UNL     1      12.415   5.487   8.467  1.00  0.00    -0.205 F 
ATOM     66  C   UNL     1      12.413   8.022  11.106  1.00  0.00     0.022 A 
BRANCH  64  67
ATOM     67  S   UNL     1      14.592   6.523  10.367  1.00  0.00     0.127 S 
ATOM     68  O   UNL     1      15.268   7.572   9.605  1.00  0.00    -0.237 OA
ATOM     69  O   UNL     1      14.824   6.573  11.811  1.00  0.00    -0.237 OA
ATOM     70  O   UNL     1      14.659   5.185   9.796  1.00  0.00    -0.744 OA
ENDBRANCH  64  67
ENDBRANCH  37  60
ENDBRANCH  11  12
ENDBRANCH   4   6
ENDBRANCH   3   4
ENDBRANCH   2   3
ENDBRANCH   1   2
BRANCH   1  71
ATOM     71  O   UNL     1       3.577   1.769  -1.316  1.00  0.00    -0.458 OA
BRANCH  71  72
ATOM     72  C   UNL     1       2.243   2.006  -1.406  1.00  0.00     0.339 C 
ATOM     73  O   UNL     1       1.468   1.521  -2.214  1.00  0.00    -0.246 OA
BRANCH  72  74
ATOM     74  C   UNL     1       1.812   2.839  -0.278  1.00  0.00     0.078 A 
ATOM     75  C   UNL     1       2.496   3.975   0.145  1.00  0.00     0.019 A 
ATOM     76  C   UNL     1       0.674   2.453   0.411  1.00  0.00     0.127 A 
ATOM     77  C   UNL     1       2.014   4.677   1.252  1.00  0.00     0.031 A 
ATOM     78  N   UNL     1       0.208   3.098   1.504  1.00  0.00    -0.254 NA
ATOM     79  C   UNL     1       0.881   4.205   1.918  1.00  0.00     0.094 A 
BRANCH  79  80
ATOM     80  C   UNL     1       0.324   4.957   3.116  1.00  0.00     0.317 C 
BRANCH  80  81
ATOM     81  N   UNL     1      -0.988   5.543   2.811  1.00  0.00    -0.341 N 
ATOM     82  H   UNL     1      -1.680   4.794   2.783  1.00  0.00     0.346 HD
ATOM     83  H   UNL     1      -0.907   6.021   1.914  1.00  0.00     0.346 HD
BRANCH  81  84
ATOM     84  C   UNL     1      -1.412   6.531   3.795  1.00  0.00     0.264 C 
BRANCH  84  85
ATOM     85  C   UNL     1      -0.690   7.875   3.698  1.00  0.00     0.049 C 
ATOM     86  C   UNL     1      -1.527   9.054   3.125  1.00  0.00     0.041 C 
ATOM     87  C   UNL     1       0.349   8.219   2.584  1.00  0.00     0.041 C 
ATOM     88  C   UNL     1      -0.198   9.662   2.609  1.00  0.00     0.115 C 
BRANCH  88  89
ATOM     89  O   UNL     1       0.457  10.576   3.506  1.00  0.00    -0.393 OA
ATOM     90  H   UNL     1       0.522  10.174   4.387  1.00  0.00     0.210 HD
ENDBRANCH  88  89
ENDBRANCH  84  85
ENDBRANCH  81  84
ENDBRANCH  80  81
ENDBRANCH  79  80
ENDBRANCH  72  74
ENDBRANCH  71  72
ENDBRANCH   1  71
TORSDOF 19
