REMARK SMILES O=C(C[C@H]1CC[C@@H](C(=O)OCCOC(=O)c2ccc(-c3c4nc(c(-c5cccc(S(=O)(=O)[O-])c5F)c5ccc([nH]5)c(-c5cccc(S(=O)(=O)[O-])c5F)c5nc(c(-c6cccc(S(=O)(=O)[O-])c6F)c6ccc3[nH]6)C=C5)C=C4)cc2)C1)c1ccc(Cl)cc1
REMARK SMILES IDX 11 1 10 2 8 3 9 4 7 5 4 6 5 7 79 8 6 9 3 10 2 11 1 12 80 13
REMARK SMILES IDX 81 14 86 15 82 16 85 17 83 18 84 19 12 20 13 21 14 22 15 23
REMARK SMILES IDX 16 24 17 25 78 26 18 27 77 28 19 29 20 30 21 31 71 32 22 33
REMARK SMILES IDX 76 34 70 35 72 36 23 37 75 38 69 39 68 40 24 42 56 43 36 44
REMARK SMILES IDX 55 45 37 46 40 47 54 48 73 49 38 50 39 51 53 53 74 54 41 55
REMARK SMILES IDX 25 56 26 57 34 58 27 59 29 60 35 61 28 62 30 63 31 64 32 65
REMARK SMILES IDX 33 66 57 67 58 68 66 69 59 70 61 71 67 72 60 73 62 74 63 75
REMARK SMILES IDX 64 76 65 77 42 78 43 79 51 80 44 81 46 82 52 83 45 84 47 85
REMARK SMILES IDX 48 86 49 87 50 88
REMARK H PARENT 72 41 40 52
REMARK Flexibility Score: inf
ROOT
ATOM      1  C   UNL     1       6.444  -5.947   1.962  1.00  0.00     0.274 C 
ENDROOT
BRANCH   1   2
ATOM      2  O   UNL     1       5.707  -5.175   0.987  1.00  0.00    -0.462 OA
BRANCH   2   3
ATOM      3  C   UNL     1       4.407  -4.914   1.285  1.00  0.00     0.309 C 
ATOM      4  O   UNL     1       3.842  -5.289   2.307  1.00  0.00    -0.252 OA
BRANCH   3   5
ATOM      5  C   UNL     1       3.679  -4.130   0.202  1.00  0.00     0.099 C 
ATOM      6  C   UNL     1       3.744  -1.669   0.017  1.00  0.00    -0.003 C 
ATOM      7  C   UNL     1       3.952  -2.311  -1.353  1.00  0.00     0.005 C 
ATOM      8  C   UNL     1       3.054  -2.829   0.756  1.00  0.00     0.019 C 
ATOM      9  C   UNL     1       4.495  -3.694  -1.021  1.00  0.00     0.015 C 
BRANCH   6  10
ATOM     10  C   UNL     1       5.034  -1.221   0.733  1.00  0.00     0.084 C 
BRANCH  10  11
ATOM     11  C   UNL     1       5.971  -0.407  -0.140  1.00  0.00     0.163 C 
ATOM     12  O   UNL     1       5.702   0.710  -0.566  1.00  0.00    -0.294 OA
BRANCH  11  13
ATOM     13  C   UNL     1       7.212  -1.080  -0.579  1.00  0.00     0.018 A 
ATOM     14  C   UNL     1       7.339  -1.397  -1.935  1.00  0.00     0.013 A 
ATOM     15  C   UNL     1       8.171  -1.500   0.345  1.00  0.00     0.013 A 
ATOM     16  C   UNL     1       8.382  -2.219  -2.357  1.00  0.00     0.021 A 
ATOM     17  C   UNL     1       9.235  -2.294  -0.089  1.00  0.00     0.021 A 
ATOM     18  C   UNL     1       9.320  -2.672  -1.431  1.00  0.00     0.041 A 
ATOM     19  Cl  UNL     1      10.581  -3.723  -1.947  1.00  0.00    -0.084 Cl
ENDBRANCH  11  13
ENDBRANCH  10  11
ENDBRANCH   6  10
ENDBRANCH   3   5
ENDBRANCH   2   3
ENDBRANCH   1   2
BRANCH   1  20
ATOM     20  C   UNL     1       7.339  -5.042   2.810  1.00  0.00     0.275 C 
BRANCH  20  21
ATOM     21  O   UNL     1       6.513  -4.103   3.510  1.00  0.00    -0.458 OA
BRANCH  21  22
ATOM     22  C   UNL     1       7.106  -2.943   3.883  1.00  0.00     0.338 C 
ATOM     23  O   UNL     1       8.296  -2.690   3.801  1.00  0.00    -0.246 OA
BRANCH  22  24
ATOM     24  C   UNL     1       6.067  -1.953   4.280  1.00  0.00     0.060 A 
ATOM     25  C   UNL     1       4.716  -2.190   4.023  1.00  0.00     0.016 A 
ATOM     26  C   UNL     1       6.447  -0.717   4.809  1.00  0.00     0.016 A 
ATOM     27  C   UNL     1       3.777  -1.169   4.177  1.00  0.00     0.010 A 
ATOM     28  C   UNL     1       5.481   0.268   5.069  1.00  0.00     0.010 A 
ATOM     29  C   UNL     1       4.132   0.071   4.728  1.00  0.00    -0.014 A 
BRANCH  29  30
ATOM     30  C   UNL     1       3.102   1.133   4.954  1.00  0.00     0.031 A 
ATOM     31  C   UNL     1       3.315   2.545   4.460  1.00  0.00     0.074 A 
ATOM     32  C   UNL     1       1.967   0.852   5.630  1.00  0.00     0.049 A 
ATOM     33  N   UNL     1       2.663   3.636   4.776  1.00  0.00    -0.248 NA
ATOM     34  C   UNL     1       4.413   2.765   3.505  1.00  0.00     0.031 C 
ATOM     35  C   UNL     1       1.600  -0.460   6.165  1.00  0.00     0.029 A 
ATOM     36  N   UNL     1       0.912   1.657   5.995  1.00  0.00    -0.354 N 
ATOM     37  C   UNL     1       3.327   4.680   4.141  1.00  0.00     0.074 A 
ATOM     38  C   UNL     1       4.418   4.088   3.395  1.00  0.00     0.031 C 
ATOM     39  C   UNL     1       0.396  -0.385   6.745  1.00  0.00     0.029 A 
ATOM     40  C   UNL     1      -0.049   1.003   6.732  1.00  0.00     0.049 A 
ATOM     41  H   UNL     1       0.850   2.609   5.751  1.00  0.00     0.167 HD
ATOM     42  C   UNL     1       3.050   6.007   4.170  1.00  0.00     0.034 A 
ATOM     43  C   UNL     1      -1.138   1.459   7.383  1.00  0.00     0.034 A 
ATOM     44  C   UNL     1       1.898   6.586   4.813  1.00  0.00     0.049 A 
ATOM     45  C   UNL     1      -1.444   2.926   7.370  1.00  0.00     0.074 A 
ATOM     46  C   UNL     1       1.512   7.916   4.847  1.00  0.00     0.029 A 
ATOM     47  N   UNL     1       0.933   5.876   5.507  1.00  0.00    -0.354 N 
ATOM     48  N   UNL     1      -0.802   3.894   6.764  1.00  0.00    -0.248 NA
ATOM     49  C   UNL     1      -2.622   3.366   8.131  1.00  0.00     0.031 C 
ATOM     50  C   UNL     1       0.311   8.009   5.560  1.00  0.00     0.029 A 
ATOM     51  C   UNL     1      -0.052   6.737   5.966  1.00  0.00     0.049 A 
ATOM     52  H   UNL     1       0.944   4.902   5.653  1.00  0.00     0.167 HD
ATOM     53  C   UNL     1      -1.497   5.058   7.069  1.00  0.00     0.074 A 
ATOM     54  C   UNL     1      -2.633   4.668   7.880  1.00  0.00     0.031 C 
ATOM     55  C   UNL     1      -1.202   6.337   6.734  1.00  0.00     0.034 A 
BRANCH  42  56
ATOM     56  C   UNL     1       3.987   6.947   3.454  1.00  0.00     0.023 A 
ATOM     57  C   UNL     1       3.933   7.057   2.052  1.00  0.00     0.012 A 
ATOM     58  C   UNL     1       4.845   7.797   4.182  1.00  0.00     0.148 A 
ATOM     59  C   UNL     1       4.729   7.988   1.383  1.00  0.00     0.002 A 
ATOM     60  C   UNL     1       5.605   8.749   3.512  1.00  0.00     0.091 A 
ATOM     61  F   UNL     1       4.901   7.662   5.515  1.00  0.00    -0.205 F 
ATOM     62  C   UNL     1       5.553   8.842   2.112  1.00  0.00     0.022 A 
BRANCH  60  63
ATOM     63  S   UNL     1       6.628   9.947   4.380  1.00  0.00     0.127 S 
ATOM     64  O   UNL     1       7.966   9.391   4.186  1.00  0.00    -0.237 OA
ATOM     65  O   UNL     1       6.368  11.180   3.634  1.00  0.00    -0.237 OA
ATOM     66  O   UNL     1       6.143   9.962   5.753  1.00  0.00    -0.744 OA
ENDBRANCH  60  63
ENDBRANCH  42  56
BRANCH  43  67
ATOM     67  C   UNL     1      -2.012   0.492   8.108  1.00  0.00     0.023 A 
ATOM     68  C   UNL     1      -3.297   0.213   7.608  1.00  0.00     0.012 A 
ATOM     69  C   UNL     1      -1.543  -0.217   9.231  1.00  0.00     0.148 A 
ATOM     70  C   UNL     1      -4.099  -0.754   8.215  1.00  0.00     0.002 A 
ATOM     71  C   UNL     1      -2.316  -1.231   9.783  1.00  0.00     0.091 A 
ATOM     72  F   UNL     1      -0.331   0.086   9.719  1.00  0.00    -0.205 F 
ATOM     73  C   UNL     1      -3.601  -1.492   9.287  1.00  0.00     0.022 A 
BRANCH  71  74
ATOM     74  S   UNL     1      -1.649  -2.340  11.029  1.00  0.00     0.127 S 
ATOM     75  O   UNL     1      -2.156  -1.750  12.263  1.00  0.00    -0.237 OA
ATOM     76  O   UNL     1      -2.254  -3.622  10.665  1.00  0.00    -0.237 OA
ATOM     77  O   UNL     1      -0.204  -2.295  10.837  1.00  0.00    -0.744 OA
ENDBRANCH  71  74
ENDBRANCH  43  67
BRANCH  55  78
ATOM     78  C   UNL     1      -2.124   7.412   7.241  1.00  0.00     0.023 A 
ATOM     79  C   UNL     1      -2.049   7.802   8.593  1.00  0.00     0.012 A 
ATOM     80  C   UNL     1      -3.031   8.060   6.382  1.00  0.00     0.148 A 
ATOM     81  C   UNL     1      -2.884   8.801   9.090  1.00  0.00     0.002 A 
ATOM     82  C   UNL     1      -3.837   9.080   6.877  1.00  0.00     0.091 A 
ATOM     83  F   UNL     1      -3.107   7.658   5.105  1.00  0.00    -0.205 F 
ATOM     84  C   UNL     1      -3.770   9.447   8.231  1.00  0.00     0.022 A 
BRANCH  82  85
ATOM     85  S   UNL     1      -4.956  10.006   5.819  1.00  0.00     0.127 S 
ATOM     86  O   UNL     1      -6.236   9.361   6.100  1.00  0.00    -0.237 OA
ATOM     87  O   UNL     1      -4.833  11.368   6.341  1.00  0.00    -0.237 OA
ATOM     88  O   UNL     1      -4.445   9.837   4.465  1.00  0.00    -0.744 OA
ENDBRANCH  82  85
ENDBRANCH  55  78
ENDBRANCH  29  30
ENDBRANCH  22  24
ENDBRANCH  21  22
ENDBRANCH  20  21
ENDBRANCH   1  20
TORSDOF 17
