REMARK SMILES O=C(OCCOC(=O)c1nccnc1C(=O)Nc1n[nH]c2ncccc12)c1ccc(-c2c3nc(c(-c4cccc(S(=O)(=O)[O-])c4F)c4ccc([nH]4)c(-c4cccc(S(=O)(=O)[O-])c4F)c4nc(c(-c5cccc(S(=O)(=O)[O-])c5F)c5ccc2[nH]5)C=C4)C=C3)cc1
REMARK SMILES IDX 4 1 3 2 2 3 1 4 27 5 28 6 89 7 29 8 88 9 30 10 31 11 32 12
REMARK SMILES IDX 82 13 33 14 87 15 81 16 83 17 34 18 86 19 80 20 79 21 35 23
REMARK SMILES IDX 67 24 47 25 66 26 48 27 51 28 65 29 84 30 49 31 50 32 64 34
REMARK SMILES IDX 85 35 52 36 36 37 37 38 45 39 38 40 40 41 46 42 39 43 41 44
REMARK SMILES IDX 42 45 43 46 44 47 68 48 69 49 77 50 70 51 72 52 78 53 71 54
REMARK SMILES IDX 73 55 74 56 75 57 76 58 53 59 54 60 62 61 55 62 57 63 63 64
REMARK SMILES IDX 56 65 58 66 59 67 60 68 61 69 5 70 6 71 7 72 8 73 9 74 10 75
REMARK SMILES IDX 14 76 11 77 13 78 12 79 15 80 16 81 17 82 18 84 19 85 26 86
REMARK SMILES IDX 20 87 21 88 25 89 22 91 24 92 23 93
REMARK H PARENT 83 22 51 33 17 83 20 90
REMARK Flexibility Score: inf
ROOT
ATOM      1  C   UNL     1       4.681  -0.547   0.992  1.00  0.00     0.275 C 
ENDROOT
BRANCH   1   2
ATOM      2  O   UNL     1       3.329   0.157   1.290  1.00  0.00    -0.458 OA
BRANCH   2   3
ATOM      3  C   UNL     1       2.812   1.323   1.851  1.00  0.00     0.338 C 
ATOM      4  O   UNL     1       2.105   1.288   2.854  1.00  0.00    -0.246 OA
BRANCH   3   5
ATOM      5  C   UNL     1       2.760   2.600   1.030  1.00  0.00     0.060 A 
ATOM      6  C   UNL     1       2.573   2.489  -0.316  1.00  0.00     0.016 A 
ATOM      7  C   UNL     1       2.748   3.916   1.451  1.00  0.00     0.016 A 
ATOM      8  C   UNL     1       3.095   3.416  -1.220  1.00  0.00     0.010 A 
ATOM      9  C   UNL     1       3.052   4.949   0.512  1.00  0.00     0.010 A 
ATOM     10  C   UNL     1       3.514   4.638  -0.789  1.00  0.00    -0.014 A 
BRANCH  10  11
ATOM     11  C   UNL     1       4.535   5.467  -1.541  1.00  0.00     0.031 A 
ATOM     12  C   UNL     1       5.490   6.232  -0.671  1.00  0.00     0.074 A 
ATOM     13  C   UNL     1       4.895   5.474  -2.852  1.00  0.00     0.049 A 
ATOM     14  N   UNL     1       6.069   7.379  -0.858  1.00  0.00    -0.248 NA
ATOM     15  C   UNL     1       5.814   5.593   0.619  1.00  0.00     0.031 C 
ATOM     16  C   UNL     1       4.588   4.488  -3.878  1.00  0.00     0.029 A 
ATOM     17  N   UNL     1       5.619   6.414  -3.569  1.00  0.00    -0.354 N 
ATOM     18  C   UNL     1       6.646   7.688   0.364  1.00  0.00     0.074 A 
ATOM     19  C   UNL     1       6.377   6.596   1.268  1.00  0.00     0.031 C 
ATOM     20  C   UNL     1       4.945   4.934  -5.092  1.00  0.00     0.029 A 
ATOM     21  C   UNL     1       5.517   6.253  -4.941  1.00  0.00     0.049 A 
ATOM     22  H   UNL     1       6.152   7.125  -3.146  1.00  0.00     0.167 HD
ATOM     23  C   UNL     1       7.322   8.809   0.691  1.00  0.00     0.034 A 
ATOM     24  C   UNL     1       5.804   7.083  -5.965  1.00  0.00     0.034 A 
ATOM     25  C   UNL     1       7.709   9.781  -0.288  1.00  0.00     0.049 A 
ATOM     26  C   UNL     1       6.453   8.391  -5.625  1.00  0.00     0.074 A 
ATOM     27  C   UNL     1       8.365  10.981  -0.108  1.00  0.00     0.029 A 
ATOM     28  N   UNL     1       7.504   9.629  -1.653  1.00  0.00    -0.354 N 
ATOM     29  N   UNL     1       6.806   8.833  -4.442  1.00  0.00    -0.248 NA
ATOM     30  C   UNL     1       6.781   9.294  -6.734  1.00  0.00     0.031 C 
ATOM     31  C   UNL     1       8.529  11.570  -1.367  1.00  0.00     0.029 A 
ATOM     32  C   UNL     1       8.018  10.714  -2.332  1.00  0.00     0.049 A 
ATOM     33  H   UNL     1       7.058   8.860  -2.075  1.00  0.00     0.167 HD
ATOM     34  C   UNL     1       7.451  10.038  -4.664  1.00  0.00     0.074 A 
ATOM     35  C   UNL     1       7.431  10.261  -6.098  1.00  0.00     0.031 C 
ATOM     36  C   UNL     1       8.016  10.878  -3.764  1.00  0.00     0.034 A 
BRANCH  23  37
ATOM     37  C   UNL     1       7.558   9.053   2.153  1.00  0.00     0.023 A 
ATOM     38  C   UNL     1       8.440   8.255   2.908  1.00  0.00     0.012 A 
ATOM     39  C   UNL     1       6.809  10.056   2.800  1.00  0.00     0.148 A 
ATOM     40  C   UNL     1       8.518   8.405   4.293  1.00  0.00     0.002 A 
ATOM     41  C   UNL     1       6.942  10.244   4.168  1.00  0.00     0.091 A 
ATOM     42  F   UNL     1       5.946  10.779   2.072  1.00  0.00    -0.205 F 
ATOM     43  C   UNL     1       7.777   9.403   4.920  1.00  0.00     0.022 A 
BRANCH  41  44
ATOM     44  S   UNL     1       6.093  11.558   5.045  1.00  0.00     0.127 S 
ATOM     45  O   UNL     1       5.162  10.801   5.881  1.00  0.00    -0.237 OA
ATOM     46  O   UNL     1       7.192  12.192   5.773  1.00  0.00    -0.237 OA
ATOM     47  O   UNL     1       5.476  12.393   4.025  1.00  0.00    -0.744 OA
ENDBRANCH  41  44
ENDBRANCH  23  37
BRANCH  24  48
ATOM     48  C   UNL     1       5.448   6.722  -7.375  1.00  0.00     0.023 A 
ATOM     49  C   UNL     1       6.451   6.490  -8.336  1.00  0.00     0.012 A 
ATOM     50  C   UNL     1       4.097   6.599  -7.767  1.00  0.00     0.148 A 
ATOM     51  C   UNL     1       6.118   6.170  -9.657  1.00  0.00     0.002 A 
ATOM     52  C   UNL     1       3.772   6.237  -9.072  1.00  0.00     0.091 A 
ATOM     53  F   UNL     1       3.148   6.833  -6.849  1.00  0.00    -0.205 F 
ATOM     54  C   UNL     1       4.781   6.035 -10.024  1.00  0.00     0.022 A 
BRANCH  52  55
ATOM     55  S   UNL     1       2.078   5.937  -9.596  1.00  0.00     0.127 S 
ATOM     56  O   UNL     1       1.836   7.065 -10.491  1.00  0.00    -0.237 OA
ATOM     57  O   UNL     1       2.193   4.637 -10.257  1.00  0.00    -0.237 OA
ATOM     58  O   UNL     1       1.290   5.916  -8.370  1.00  0.00    -0.744 OA
ENDBRANCH  52  55
ENDBRANCH  24  48
BRANCH  36  59
ATOM     59  C   UNL     1       8.727  12.082  -4.303  1.00  0.00     0.023 A 
ATOM     60  C   UNL     1       7.995  13.178  -4.793  1.00  0.00     0.012 A 
ATOM     61  C   UNL     1      10.129  12.154  -4.212  1.00  0.00     0.148 A 
ATOM     62  C   UNL     1       8.658  14.330  -5.207  1.00  0.00     0.002 A 
ATOM     63  C   UNL     1      10.776  13.325  -4.569  1.00  0.00     0.091 A 
ATOM     64  F   UNL     1      10.797  11.081  -3.764  1.00  0.00    -0.205 F 
ATOM     65  C   UNL     1      10.044  14.410  -5.079  1.00  0.00     0.022 A 
BRANCH  63  66
ATOM     66  S   UNL     1      12.539  13.555  -4.326  1.00  0.00     0.127 S 
ATOM     67  O   UNL     1      13.028  13.575  -5.704  1.00  0.00    -0.237 OA
ATOM     68  O   UNL     1      12.588  14.845  -3.639  1.00  0.00    -0.237 OA
ATOM     69  O   UNL     1      12.987  12.424  -3.524  1.00  0.00    -0.744 OA
ENDBRANCH  63  66
ENDBRANCH  36  59
ENDBRANCH  10  11
ENDBRANCH   3   5
ENDBRANCH   2   3
ENDBRANCH   1   2
BRANCH   1  70
ATOM     70  C   UNL     1       5.248  -1.137  -0.660  1.00  0.00     0.275 C 
BRANCH  70  71
ATOM     71  O   UNL     1       4.400  -0.768  -2.475  1.00  0.00    -0.457 OA
BRANCH  71  72
ATOM     72  C   UNL     1       3.258  -0.520  -3.394  1.00  0.00     0.359 C 
ATOM     73  O   UNL     1       2.967  -1.381  -4.229  1.00  0.00    -0.244 OA
BRANCH  72  74
ATOM     74  C   UNL     1       2.412   0.755  -3.447  1.00  0.00     0.179 A 
ATOM     75  N   UNL     1       2.846   1.552  -4.488  1.00  0.00    -0.245 NA
ATOM     76  C   UNL     1       1.209   1.086  -2.782  1.00  0.00     0.161 A 
ATOM     77  C   UNL     1       2.107   2.649  -4.820  1.00  0.00     0.132 A 
ATOM     78  N   UNL     1       0.563   2.273  -3.093  1.00  0.00    -0.247 NA
ATOM     79  C   UNL     1       1.011   3.036  -4.100  1.00  0.00     0.132 A 
BRANCH  76  80
ATOM     80  C   UNL     1       0.397   0.466  -1.642  1.00  0.00     0.278 C 
ATOM     81  O   UNL     1      -0.757   0.874  -1.440  1.00  0.00    -0.267 OA
ATOM     82  N   UNL     1       0.792  -0.485  -0.745  1.00  0.00    -0.303 N 
ATOM     83  H   UNL     1       0.185  -0.638   0.015  1.00  0.00     0.172 HD
BRANCH  82  84
ATOM     84  C   UNL     1       1.907  -1.241  -0.769  1.00  0.00     0.164 A 
ATOM     85  N   UNL     1       1.719  -2.569  -0.747  1.00  0.00    -0.155 NA
ATOM     86  C   UNL     1       3.228  -0.824  -1.013  1.00  0.00     0.063 A 
ATOM     87  N   UNL     1       2.717  -3.147  -1.457  1.00  0.00    -0.259 N 
ATOM     88  C   UNL     1       3.795  -2.351  -1.644  1.00  0.00     0.157 A 
ATOM     89  C   UNL     1       4.364   0.626  -1.227  1.00  0.00     0.017 A 
ATOM     90  H   UNL     1       2.663  -4.065  -1.807  1.00  0.00     0.192 HD
ATOM     91  N   UNL     1       5.262  -2.566  -2.458  1.00  0.00    -0.237 NA
ATOM     92  C   UNL     1       5.889   0.437  -2.099  1.00  0.00     0.021 A 
ATOM     93  C   UNL     1       6.246  -1.154  -2.665  1.00  0.00     0.113 A 
ENDBRANCH  82  84
ENDBRANCH  76  80
ENDBRANCH  72  74
ENDBRANCH  71  72
ENDBRANCH  70  71
ENDBRANCH   1  70
TORSDOF 16
