REMARK SMILES O=C(OCCOC(=O)C1(Cc2ccccc2Cl)CCN(c2ncnc3[nH]ccc23)CC1)c1ccc(-c2c3nc(c(-c4cccc(S(=O)(=O)[O-])c4F)c4ccc([nH]4)c(-c4cccc(S(=O)(=O)[O-])c4F)c4nc(c(-c5cccc(S(=O)(=O)[O-])c5F)c5ccc2[nH]5)C=C4)C=C3)cc1
REMARK SMILES IDX 4 1 3 2 2 3 1 4 32 5 33 6 94 7 34 8 93 9 35 10 36 11 37 12
REMARK SMILES IDX 87 13 38 14 92 15 86 16 88 17 39 18 91 19 85 20 84 21 40 23
REMARK SMILES IDX 72 24 52 25 71 26 53 27 56 28 70 29 89 30 54 31 55 32 69 34
REMARK SMILES IDX 90 35 57 36 41 37 42 38 50 39 43 40 45 41 51 42 44 43 46 44
REMARK SMILES IDX 47 45 48 46 49 47 73 48 74 49 82 50 75 51 77 52 83 53 76 54
REMARK SMILES IDX 78 55 79 56 80 57 81 58 58 59 59 60 67 61 60 62 62 63 68 64
REMARK SMILES IDX 61 65 63 66 64 67 65 68 66 69 5 70 6 71 7 72 8 73 9 74 18 75
REMARK SMILES IDX 31 76 19 77 30 78 20 79 10 80 11 81 12 82 16 83 13 84 15 85
REMARK SMILES IDX 17 86 14 87 21 88 22 89 29 90 23 91 25 92 28 93 24 94 26 95
REMARK SMILES IDX 27 96
REMARK H PARENT 88 22 56 33 26 97
REMARK Flexibility Score: inf
ROOT
ATOM      1  C   UNL     1       3.870  -0.570  -1.445  1.00  0.00     0.275 C 
ENDROOT
BRANCH   1   2
ATOM      2  O   UNL     1       2.634  -1.213  -1.042  1.00  0.00    -0.458 OA
BRANCH   2   3
ATOM      3  C   UNL     1       2.364  -2.163  -0.109  1.00  0.00     0.338 C 
ATOM      4  O   UNL     1       1.425  -2.928  -0.323  1.00  0.00    -0.246 OA
BRANCH   3   5
ATOM      5  C   UNL     1       2.950  -2.166   1.278  1.00  0.00     0.060 A 
ATOM      6  C   UNL     1       4.245  -1.810   1.604  1.00  0.00     0.016 A 
ATOM      7  C   UNL     1       2.099  -2.481   2.370  1.00  0.00     0.016 A 
ATOM      8  C   UNL     1       4.592  -1.605   2.960  1.00  0.00     0.010 A 
ATOM      9  C   UNL     1       2.452  -2.203   3.732  1.00  0.00     0.010 A 
ATOM     10  C   UNL     1       3.694  -1.647   4.048  1.00  0.00    -0.014 A 
BRANCH  10  11
ATOM     11  C   UNL     1       4.276  -1.392   5.438  1.00  0.00     0.031 A 
ATOM     12  C   UNL     1       5.157  -2.503   5.929  1.00  0.00     0.074 A 
ATOM     13  C   UNL     1       4.314  -0.239   6.171  1.00  0.00     0.049 A 
ATOM     14  N   UNL     1       6.112  -2.479   6.820  1.00  0.00    -0.248 NA
ATOM     15  C   UNL     1       4.957  -3.801   5.268  1.00  0.00     0.031 C 
ATOM     16  C   UNL     1       3.572   0.993   5.941  1.00  0.00     0.029 A 
ATOM     17  N   UNL     1       5.140   0.127   7.243  1.00  0.00    -0.354 N 
ATOM     18  C   UNL     1       6.636  -3.758   6.816  1.00  0.00     0.074 A 
ATOM     19  C   UNL     1       5.923  -4.517   5.810  1.00  0.00     0.031 C 
ATOM     20  C   UNL     1       4.080   1.998   6.679  1.00  0.00     0.029 A 
ATOM     21  C   UNL     1       5.112   1.481   7.569  1.00  0.00     0.049 A 
ATOM     22  H   UNL     1       5.697  -0.524   7.728  1.00  0.00     0.167 HD
ATOM     23  C   UNL     1       7.600  -4.295   7.592  1.00  0.00     0.034 A 
ATOM     24  C   UNL     1       5.798   2.234   8.472  1.00  0.00     0.034 A 
ATOM     25  C   UNL     1       8.238  -3.662   8.702  1.00  0.00     0.049 A 
ATOM     26  C   UNL     1       6.754   1.560   9.434  1.00  0.00     0.074 A 
ATOM     27  C   UNL     1       9.102  -4.235   9.617  1.00  0.00     0.029 A 
ATOM     28  N   UNL     1       8.044  -2.353   9.095  1.00  0.00    -0.354 N 
ATOM     29  N   UNL     1       7.268   0.358   9.383  1.00  0.00    -0.248 NA
ATOM     30  C   UNL     1       7.200   2.344  10.606  1.00  0.00     0.031 C 
ATOM     31  C   UNL     1       9.394  -3.284  10.597  1.00  0.00     0.029 A 
ATOM     32  C   UNL     1       8.757  -2.104  10.256  1.00  0.00     0.049 A 
ATOM     33  H   UNL     1       7.485  -1.696   8.621  1.00  0.00     0.167 HD
ATOM     34  C   UNL     1       8.087   0.244  10.506  1.00  0.00     0.074 A 
ATOM     35  C   UNL     1       8.053   1.515  11.191  1.00  0.00     0.031 C 
ATOM     36  C   UNL     1       8.775  -0.839  10.939  1.00  0.00     0.034 A 
BRANCH  23  37
ATOM     37  C   UNL     1       7.914  -5.724   7.301  1.00  0.00     0.023 A 
ATOM     38  C   UNL     1       8.723  -6.053   6.197  1.00  0.00     0.012 A 
ATOM     39  C   UNL     1       7.318  -6.731   8.077  1.00  0.00     0.148 A 
ATOM     40  C   UNL     1       8.910  -7.386   5.849  1.00  0.00     0.002 A 
ATOM     41  C   UNL     1       7.541  -8.055   7.746  1.00  0.00     0.091 A 
ATOM     42  F   UNL     1       6.507  -6.368   9.080  1.00  0.00    -0.205 F 
ATOM     43  C   UNL     1       8.325  -8.386   6.628  1.00  0.00     0.022 A 
BRANCH  41  44
ATOM     44  S   UNL     1       6.853  -9.403   8.703  1.00  0.00     0.127 S 
ATOM     45  O   UNL     1       5.916  -9.992   7.748  1.00  0.00    -0.237 OA
ATOM     46  O   UNL     1       8.040 -10.212   8.977  1.00  0.00    -0.237 OA
ATOM     47  O   UNL     1       6.242  -8.795   9.877  1.00  0.00    -0.744 OA
ENDBRANCH  41  44
ENDBRANCH  23  37
BRANCH  24  48
ATOM     48  C   UNL     1       5.614   3.732   8.612  1.00  0.00     0.023 A 
ATOM     49  C   UNL     1       6.737   4.594   8.557  1.00  0.00     0.012 A 
ATOM     50  C   UNL     1       4.365   4.302   8.921  1.00  0.00     0.148 A 
ATOM     51  C   UNL     1       6.622   5.962   8.845  1.00  0.00     0.002 A 
ATOM     52  C   UNL     1       4.242   5.677   9.118  1.00  0.00     0.091 A 
ATOM     53  F   UNL     1       3.311   3.486   9.063  1.00  0.00    -0.205 F 
ATOM     54  C   UNL     1       5.370   6.506   9.110  1.00  0.00     0.022 A 
BRANCH  52  55
ATOM     55  S   UNL     1       2.640   6.467   9.310  1.00  0.00     0.127 S 
ATOM     56  O   UNL     1       2.625   6.778  10.736  1.00  0.00    -0.237 OA
ATOM     57  O   UNL     1       2.765   7.627   8.426  1.00  0.00    -0.237 OA
ATOM     58  O   UNL     1       1.670   5.477   8.861  1.00  0.00    -0.744 OA
ENDBRANCH  52  55
ENDBRANCH  24  48
BRANCH  36  59
ATOM     59  C   UNL     1       9.576  -0.738  12.214  1.00  0.00     0.023 A 
ATOM     60  C   UNL     1       8.919  -0.641  13.457  1.00  0.00     0.012 A 
ATOM     61  C   UNL     1      10.980  -0.863  12.188  1.00  0.00     0.148 A 
ATOM     62  C   UNL     1       9.646  -0.647  14.649  1.00  0.00     0.002 A 
ATOM     63  C   UNL     1      11.694  -0.921  13.380  1.00  0.00     0.091 A 
ATOM     64  F   UNL     1      11.592  -0.937  10.997  1.00  0.00    -0.205 F 
ATOM     65  C   UNL     1      11.030  -0.802  14.611  1.00  0.00     0.022 A 
BRANCH  63  66
ATOM     66  S   UNL     1      13.464  -1.227  13.430  1.00  0.00     0.127 S 
ATOM     67  O   UNL     1      13.978   0.071  13.866  1.00  0.00    -0.237 OA
ATOM     68  O   UNL     1      13.566  -2.291  14.429  1.00  0.00    -0.237 OA
ATOM     69  O   UNL     1      13.841  -1.626  12.081  1.00  0.00    -0.744 OA
ENDBRANCH  63  66
ENDBRANCH  36  59
ENDBRANCH  10  11
ENDBRANCH   3   5
ENDBRANCH   2   3
ENDBRANCH   1   2
BRANCH   1  70
ATOM     70  C   UNL     1       3.767   0.937  -1.258  1.00  0.00     0.274 C 
BRANCH  70  71
ATOM     71  O   UNL     1       3.662   1.187   0.147  1.00  0.00    -0.462 OA
BRANCH  71  72
ATOM     72  C   UNL     1       2.715   2.059   0.573  1.00  0.00     0.312 C 
ATOM     73  O   UNL     1       1.914   2.623  -0.167  1.00  0.00    -0.252 OA
BRANCH  72  74
ATOM     74  C   UNL     1       2.700   2.126   2.096  1.00  0.00     0.075 C 
ATOM     75  C   UNL     1       2.143   0.785   2.568  1.00  0.00     0.040 C 
ATOM     76  C   UNL     1       1.655   3.195   2.576  1.00  0.00     0.040 C 
ATOM     77  C   UNL     1       0.680   0.474   2.244  1.00  0.00     0.119 C 
ATOM     78  C   UNL     1       0.145   2.841   2.355  1.00  0.00     0.119 C 
ATOM     79  N   UNL     1      -0.127   1.501   2.865  1.00  0.00    -0.356 N 
BRANCH  74  80
ATOM     80  C   UNL     1       4.187   2.473   2.685  1.00  0.00     0.056 C 
BRANCH  80  81
ATOM     81  C   UNL     1       5.507   1.664   2.510  1.00  0.00    -0.028 A 
ATOM     82  C   UNL     1       6.159   1.097   3.627  1.00  0.00     0.005 A 
ATOM     83  C   UNL     1       6.264   1.566   1.334  1.00  0.00     0.044 A 
ATOM     84  C   UNL     1       7.283   0.245   3.528  1.00  0.00     0.000 A 
ATOM     85  C   UNL     1       7.316   0.629   1.186  1.00  0.00     0.021 A 
ATOM     86  Cl  UNL     1       6.178   2.800   0.121  1.00  0.00    -0.084 Cl
ATOM     87  C   UNL     1       7.795  -0.077   2.282  1.00  0.00     0.002 A 
ENDBRANCH  80  81
ENDBRANCH  74  80
BRANCH  79  88
ATOM     88  C   UNL     1      -1.419   1.105   3.206  1.00  0.00     0.141 A 
ATOM     89  N   UNL     1      -2.500   1.574   2.526  1.00  0.00    -0.219 NA
ATOM     90  C   UNL     1      -1.678   0.190   4.263  1.00  0.00     0.061 A 
ATOM     91  C   UNL     1      -3.733   1.135   2.875  1.00  0.00     0.226 A 
ATOM     92  C   UNL     1      -3.001  -0.141   4.522  1.00  0.00     0.142 A 
ATOM     93  C   UNL     1      -0.900  -0.522   5.226  1.00  0.00     0.033 A 
ATOM     94  N   UNL     1      -4.084   0.283   3.857  1.00  0.00    -0.218 NA
ATOM     95  N   UNL     1      -3.036  -0.980   5.605  1.00  0.00    -0.346 N 
ATOM     96  C   UNL     1      -1.760  -1.235   6.036  1.00  0.00     0.085 A 
ATOM     97  H   UNL     1      -3.855  -1.345   6.013  1.00  0.00     0.167 HD
ENDBRANCH  79  88
ENDBRANCH  72  74
ENDBRANCH  71  72
ENDBRANCH  70  71
ENDBRANCH   1  70
TORSDOF 17
