REMARK SMILES CC(=O)Cc1cccc(C(=O)OCCOC(=O)c2ccc(-c3c4nc(c(-c5cccc(S(=O)(=O)[O-])c5F)c5ccc([nH]5)c(-c5cccc(S(=O)(=O)[O-])c5F)c5nc(c(-c6cccc(S(=O)(=O)[O-])c6F)c6ccc3[nH]6)C=C5)C=C4)cc2)c1
REMARK SMILES IDX 14 1 13 2 12 3 10 4 11 5 9 6 5 7 6 8 81 9 7 10 8 11 4 12
REMARK SMILES IDX 2 13 1 14 3 15 15 16 16 17 17 18 18 19 19 20 80 21 20 22
REMARK SMILES IDX 79 23 21 24 22 25 23 26 73 27 24 28 78 29 72 30 74 31 25 32
REMARK SMILES IDX 77 33 71 34 70 35 26 37 58 38 38 39 57 40 39 41 42 42 56 43
REMARK SMILES IDX 75 44 40 45 41 46 55 48 76 49 43 50 27 51 28 52 36 53 29 54
REMARK SMILES IDX 31 55 37 56 30 57 32 58 33 59 34 60 35 61 59 62 60 63 68 64
REMARK SMILES IDX 61 65 63 66 69 67 62 68 64 69 65 70 66 71 67 72 44 73 45 74
REMARK SMILES IDX 53 75 46 76 48 77 54 78 47 79 49 80 50 81 51 82 52 83
REMARK H PARENT 74 36 42 47
REMARK Flexibility Score: inf
ROOT
ATOM      1  C   UNL     1       0.850  -2.638   5.269  1.00  0.00     0.275 C 
ENDROOT
BRANCH   1   2
ATOM      2  C   UNL     1      -0.263  -2.434   4.239  1.00  0.00     0.275 C 
BRANCH   2   3
ATOM      3  O   UNL     1      -0.129  -1.163   3.574  1.00  0.00    -0.458 OA
BRANCH   3   4
ATOM      4  C   UNL     1      -1.039  -0.207   3.894  1.00  0.00     0.338 C 
ATOM      5  O   UNL     1      -1.954  -0.317   4.694  1.00  0.00    -0.246 OA
BRANCH   4   6
ATOM      6  C   UNL     1      -0.719   1.063   3.187  1.00  0.00     0.060 A 
ATOM      7  C   UNL     1       0.334   2.267   1.347  1.00  0.00    -0.040 A 
ATOM      8  C   UNL     1      -0.014   3.475   1.970  1.00  0.00     0.004 A 
ATOM      9  C   UNL     1       0.013   1.065   1.995  1.00  0.00     0.019 A 
ATOM     10  C   UNL     1      -0.749   3.482   3.157  1.00  0.00     0.001 A 
ATOM     11  C   UNL     1      -1.137   2.277   3.742  1.00  0.00     0.016 A 
BRANCH   7  12
ATOM     12  C   UNL     1       1.095   2.291   0.044  1.00  0.00     0.110 C 
BRANCH  12  13
ATOM     13  C   UNL     1       0.681   1.222  -0.952  1.00  0.00     0.134 C 
ATOM     14  C   UNL     1       1.446  -0.078  -0.945  1.00  0.00     0.088 C 
ATOM     15  O   UNL     1      -0.281   1.375  -1.707  1.00  0.00    -0.300 OA
ENDBRANCH  12  13
ENDBRANCH   7  12
ENDBRANCH   4   6
ENDBRANCH   3   4
ENDBRANCH   2   3
ENDBRANCH   1   2
BRANCH   1  16
ATOM     16  O   UNL     1       0.684  -1.732   6.373  1.00  0.00    -0.458 OA
BRANCH  16  17
ATOM     17  C   UNL     1       1.562  -0.704   6.415  1.00  0.00     0.338 C 
ATOM     18  O   UNL     1       2.521  -0.516   5.685  1.00  0.00    -0.246 OA
BRANCH  17  19
ATOM     19  C   UNL     1       1.098   0.293   7.389  1.00  0.00     0.060 A 
ATOM     20  C   UNL     1       0.380   1.374   6.884  1.00  0.00     0.016 A 
ATOM     21  C   UNL     1       1.459   0.256   8.734  1.00  0.00     0.016 A 
ATOM     22  C   UNL     1       0.046   2.447   7.700  1.00  0.00     0.010 A 
ATOM     23  C   UNL     1       1.096   1.326   9.567  1.00  0.00     0.010 A 
ATOM     24  C   UNL     1       0.415   2.446   9.050  1.00  0.00    -0.014 A 
BRANCH  24  25
ATOM     25  C   UNL     1       0.168   3.666   9.867  1.00  0.00     0.031 A 
ATOM     26  C   UNL     1       1.332   4.469  10.387  1.00  0.00     0.074 A 
ATOM     27  C   UNL     1      -1.090   4.094  10.093  1.00  0.00     0.049 A 
ATOM     28  N   UNL     1       1.329   5.524  11.160  1.00  0.00    -0.248 NA
ATOM     29  C   UNL     1       2.678   4.022   9.992  1.00  0.00     0.031 C 
ATOM     30  C   UNL     1      -2.306   3.429   9.621  1.00  0.00     0.029 A 
ATOM     31  N   UNL     1      -1.556   5.191  10.775  1.00  0.00    -0.354 N 
ATOM     32  C   UNL     1       2.665   5.827  11.398  1.00  0.00     0.074 A 
ATOM     33  C   UNL     1       3.453   4.845  10.683  1.00  0.00     0.031 C 
ATOM     34  C   UNL     1      -3.376   4.138  10.015  1.00  0.00     0.029 A 
ATOM     35  C   UNL     1      -2.929   5.274  10.815  1.00  0.00     0.049 A 
ATOM     36  H   UNL     1      -0.963   5.856  11.195  1.00  0.00     0.167 HD
ATOM     37  C   UNL     1       3.191   6.835  12.134  1.00  0.00     0.034 A 
ATOM     38  C   UNL     1      -3.738   6.149  11.446  1.00  0.00     0.034 A 
ATOM     39  C   UNL     1       2.411   7.851  12.789  1.00  0.00     0.049 A 
ATOM     40  C   UNL     1      -3.127   7.271  12.242  1.00  0.00     0.074 A 
ATOM     41  C   UNL     1       2.854   8.931  13.532  1.00  0.00     0.029 A 
ATOM     42  N   UNL     1       1.026   7.922  12.770  1.00  0.00    -0.354 N 
ATOM     43  N   UNL     1      -1.861   7.567  12.413  1.00  0.00    -0.248 NA
ATOM     44  C   UNL     1      -4.056   8.193  12.911  1.00  0.00     0.031 C 
ATOM     45  C   UNL     1       1.736   9.648  13.974  1.00  0.00     0.029 A 
ATOM     46  C   UNL     1       0.598   9.028  13.483  1.00  0.00     0.049 A 
ATOM     47  H   UNL     1       0.434   7.280  12.316  1.00  0.00     0.167 HD
ATOM     48  C   UNL     1      -1.842   8.726  13.182  1.00  0.00     0.074 A 
ATOM     49  C   UNL     1      -3.223   9.091  13.421  1.00  0.00     0.031 C 
ATOM     50  C   UNL     1      -0.778   9.415  13.662  1.00  0.00     0.034 A 
BRANCH  37  51
ATOM     51  C   UNL     1       4.691   6.902  12.260  1.00  0.00     0.023 A 
ATOM     52  C   UNL     1       5.473   7.315  11.162  1.00  0.00     0.012 A 
ATOM     53  C   UNL     1       5.323   6.602  13.483  1.00  0.00     0.148 A 
ATOM     54  C   UNL     1       6.861   7.396  11.269  1.00  0.00     0.002 A 
ATOM     55  C   UNL     1       6.703   6.729  13.596  1.00  0.00     0.091 A 
ATOM     56  F   UNL     1       4.567   6.189  14.510  1.00  0.00    -0.205 F 
ATOM     57  C   UNL     1       7.474   7.114  12.487  1.00  0.00     0.022 A 
BRANCH  55  58
ATOM     58  S   UNL     1       7.575   6.465  15.144  1.00  0.00     0.127 S 
ATOM     59  O   UNL     1       8.254   5.195  14.889  1.00  0.00    -0.237 OA
ATOM     60  O   UNL     1       8.461   7.628  15.202  1.00  0.00    -0.237 OA
ATOM     61  O   UNL     1       6.552   6.431  16.180  1.00  0.00    -0.744 OA
ENDBRANCH  55  58
ENDBRANCH  37  51
BRANCH  38  62
ATOM     62  C   UNL     1      -5.218   6.011  11.331  1.00  0.00     0.023 A 
ATOM     63  C   UNL     1      -5.957   6.984  10.628  1.00  0.00     0.012 A 
ATOM     64  C   UNL     1      -5.895   4.911  11.893  1.00  0.00     0.148 A 
ATOM     65  C   UNL     1      -7.343   6.876  10.510  1.00  0.00     0.002 A 
ATOM     66  C   UNL     1      -7.268   4.778  11.719  1.00  0.00     0.091 A 
ATOM     67  F   UNL     1      -5.180   4.009  12.580  1.00  0.00    -0.205 F 
ATOM     68  C   UNL     1      -7.997   5.768  11.043  1.00  0.00     0.022 A 
BRANCH  66  69
ATOM     69  S   UNL     1      -8.163   3.316  12.253  1.00  0.00     0.127 S 
ATOM     70  O   UNL     1      -8.900   3.821  13.408  1.00  0.00    -0.237 OA
ATOM     71  O   UNL     1      -8.985   3.018  11.079  1.00  0.00    -0.237 OA
ATOM     72  O   UNL     1      -7.143   2.315  12.537  1.00  0.00    -0.744 OA
ENDBRANCH  66  69
ENDBRANCH  38  62
BRANCH  50  73
ATOM     73  C   UNL     1      -1.057  10.665  14.454  1.00  0.00     0.023 A 
ATOM     74  C   UNL     1      -1.577  10.571  15.759  1.00  0.00     0.012 A 
ATOM     75  C   UNL     1      -0.746  11.933  13.924  1.00  0.00     0.148 A 
ATOM     76  C   UNL     1      -1.819  11.720  16.511  1.00  0.00     0.002 A 
ATOM     77  C   UNL     1      -0.944  13.071  14.697  1.00  0.00     0.091 A 
ATOM     78  F   UNL     1      -0.272  12.006  12.671  1.00  0.00    -0.205 F 
ATOM     79  C   UNL     1      -1.493  12.968  15.985  1.00  0.00     0.022 A 
BRANCH  77  80
ATOM     80  S   UNL     1      -0.461  14.707  14.131  1.00  0.00     0.127 S 
ATOM     81  O   UNL     1      -1.750  15.285  13.755  1.00  0.00    -0.237 OA
ATOM     82  O   UNL     1       0.141  15.289  15.331  1.00  0.00    -0.237 OA
ATOM     83  O   UNL     1       0.474  14.487  13.036  1.00  0.00    -0.744 OA
ENDBRANCH  77  80
ENDBRANCH  50  73
ENDBRANCH  24  25
ENDBRANCH  17  19
ENDBRANCH  16  17
ENDBRANCH   1  16
TORSDOF 16
