REMARK SMILES CC[C@](O)(C(=O)OCCOC(=O)c1ccc(-c2c3nc(c(-c4cccc(S(=O)(=O)[O-])c4F)c4ccc([nH]4)c(-c4cccc(S(=O)(=O)[O-])c4F)c4nc(c(-c5cccc(S(=O)(=O)[O-])c5F)c5ccc2[nH]5)C=C4)C=C3)cc1)[C@@H](C)c1ccc2c(c1)OCCO2
REMARK SMILES IDX 9 1 8 2 7 3 5 4 6 5 3 6 2 7 1 8 76 9 77 10 78 11 79 12 83 13
REMARK SMILES IDX 80 14 82 15 81 16 84 17 87 18 85 19 86 20 4 21 10 23 11 24
REMARK SMILES IDX 12 25 13 26 14 27 75 28 15 29 74 30 16 31 17 32 18 33 68 34
REMARK SMILES IDX 19 35 73 36 67 37 69 38 20 39 72 40 66 41 65 42 21 44 53 45
REMARK SMILES IDX 33 46 52 47 34 48 37 49 51 50 70 51 35 52 36 53 50 55 71 56
REMARK SMILES IDX 38 57 22 58 23 59 31 60 24 61 26 62 32 63 25 64 27 65 28 66
REMARK SMILES IDX 29 67 30 68 54 69 55 70 63 71 56 72 58 73 64 74 57 75 59 76
REMARK SMILES IDX 60 77 61 78 62 79 39 80 40 81 48 82 41 83 43 84 49 85 42 86
REMARK SMILES IDX 44 87 45 88 46 89 47 90
REMARK H PARENT 4 22 69 43 37 54
REMARK Flexibility Score: inf
ROOT
ATOM      1  C   UNL     1      -0.658   1.915  -6.080  1.00  0.00     0.275 C 
ENDROOT
BRANCH   1   2
ATOM      2  C   UNL     1      -1.242   0.641  -5.482  1.00  0.00     0.274 C 
BRANCH   2   3
ATOM      3  O   UNL     1      -0.884   0.526  -4.089  1.00  0.00    -0.460 OA
BRANCH   3   4
ATOM      4  C   UNL     1       0.004  -0.463  -3.775  1.00  0.00     0.338 C 
ATOM      5  O   UNL     1       0.569  -1.179  -4.593  1.00  0.00    -0.249 OA
BRANCH   4   6
ATOM      6  C   UNL     1       0.197  -0.583  -2.232  1.00  0.00     0.168 C 
BRANCH   6   7
ATOM      7  C   UNL     1      -0.364  -1.979  -1.866  1.00  0.00     0.044 C 
ATOM      8  C   UNL     1      -1.108  -2.054  -0.541  1.00  0.00     0.007 C 
ENDBRANCH   6   7
BRANCH   6   9
ATOM      9  C   UNL     1       1.725  -0.435  -1.964  1.00  0.00     0.059 C 
ATOM     10  C   UNL     1       2.196   1.021  -2.188  1.00  0.00     0.016 C 
BRANCH   9  11
ATOM     11  C   UNL     1       2.282  -0.861  -0.605  1.00  0.00    -0.038 A 
ATOM     12  C   UNL     1       3.253  -1.879  -0.542  1.00  0.00     0.008 A 
ATOM     13  C   UNL     1       2.089  -0.033   0.510  1.00  0.00     0.054 A 
ATOM     14  C   UNL     1       4.134  -1.948   0.539  1.00  0.00     0.051 A 
ATOM     15  C   UNL     1       3.052  -0.012   1.508  1.00  0.00     0.161 A 
ATOM     16  C   UNL     1       4.083  -0.951   1.505  1.00  0.00     0.161 A 
ATOM     17  O   UNL     1       3.014   1.055   2.363  1.00  0.00    -0.486 OA
ATOM     18  O   UNL     1       5.150  -0.820   2.359  1.00  0.00    -0.486 OA
ATOM     19  C   UNL     1       4.293   1.382   2.928  1.00  0.00     0.271 C 
ATOM     20  C   UNL     1       5.469   0.578   2.377  1.00  0.00     0.271 C 
ENDBRANCH   9  11
ENDBRANCH   6   9
BRANCH   6  21
ATOM     21  O   UNL     1      -0.536   0.426  -1.526  1.00  0.00    -0.378 OA
ATOM     22  H   UNL     1      -0.185   1.301  -1.755  1.00  0.00     0.212 HD
ENDBRANCH   6  21
ENDBRANCH   4   6
ENDBRANCH   3   4
ENDBRANCH   2   3
ENDBRANCH   1   2
BRANCH   1  23
ATOM     23  O   UNL     1       0.774   1.803  -6.105  1.00  0.00    -0.458 OA
BRANCH  23  24
ATOM     24  C   UNL     1       1.456   2.839  -5.562  1.00  0.00     0.338 C 
ATOM     25  O   UNL     1       0.984   3.865  -5.107  1.00  0.00    -0.246 OA
BRANCH  24  26
ATOM     26  C   UNL     1       2.904   2.537  -5.538  1.00  0.00     0.060 A 
ATOM     27  C   UNL     1       3.361   1.265  -5.186  1.00  0.00     0.016 A 
ATOM     28  C   UNL     1       3.814   3.578  -5.716  1.00  0.00     0.016 A 
ATOM     29  C   UNL     1       4.708   1.075  -4.877  1.00  0.00     0.010 A 
ATOM     30  C   UNL     1       5.181   3.344  -5.539  1.00  0.00     0.010 A 
ATOM     31  C   UNL     1       5.646   2.102  -5.072  1.00  0.00    -0.014 A 
BRANCH  31  32
ATOM     32  C   UNL     1       7.099   1.894  -4.791  1.00  0.00     0.031 A 
ATOM     33  C   UNL     1       7.861   2.866  -3.922  1.00  0.00     0.074 A 
ATOM     34  C   UNL     1       7.762   0.860  -5.347  1.00  0.00     0.049 A 
ATOM     35  N   UNL     1       9.154   3.014  -3.785  1.00  0.00    -0.248 NA
ATOM     36  C   UNL     1       7.066   3.811  -3.118  1.00  0.00     0.031 C 
ATOM     37  C   UNL     1       7.168  -0.170  -6.201  1.00  0.00     0.029 A 
ATOM     38  N   UNL     1       9.092   0.512  -5.293  1.00  0.00    -0.354 N 
ATOM     39  C   UNL     1       9.329   4.124  -2.966  1.00  0.00     0.074 A 
ATOM     40  C   UNL     1       8.008   4.596  -2.610  1.00  0.00     0.031 C 
ATOM     41  C   UNL     1       8.113  -1.048  -6.562  1.00  0.00     0.029 A 
ATOM     42  C   UNL     1       9.401  -0.588  -6.059  1.00  0.00     0.049 A 
ATOM     43  H   UNL     1       9.757   1.003  -4.758  1.00  0.00     0.167 HD
ATOM     44  C   UNL     1      10.484   4.694  -2.546  1.00  0.00     0.034 A 
ATOM     45  C   UNL     1      10.588  -1.141  -6.380  1.00  0.00     0.034 A 
ATOM     46  C   UNL     1      11.796   4.164  -2.814  1.00  0.00     0.049 A 
ATOM     47  C   UNL     1      11.851  -0.519  -5.864  1.00  0.00     0.074 A 
ATOM     48  C   UNL     1      13.023   4.653  -2.398  1.00  0.00     0.029 A 
ATOM     49  N   UNL     1      12.052   3.012  -3.540  1.00  0.00    -0.354 N 
ATOM     50  N   UNL     1      11.996   0.529  -5.091  1.00  0.00    -0.248 NA
ATOM     51  C   UNL     1      13.115  -1.153  -6.265  1.00  0.00     0.031 C 
ATOM     52  C   UNL     1      14.021   3.790  -2.867  1.00  0.00     0.029 A 
ATOM     53  C   UNL     1      13.414   2.765  -3.572  1.00  0.00     0.049 A 
ATOM     54  H   UNL     1      11.366   2.451  -3.970  1.00  0.00     0.167 HD
ATOM     55  C   UNL     1      13.365   0.680  -4.910  1.00  0.00     0.074 A 
ATOM     56  C   UNL     1      14.005  -0.407  -5.622  1.00  0.00     0.031 C 
ATOM     57  C   UNL     1      14.034   1.652  -4.243  1.00  0.00     0.034 A 
BRANCH  44  58
ATOM     58  C   UNL     1      10.394   5.948  -1.715  1.00  0.00     0.023 A 
ATOM     59  C   UNL     1      10.045   5.859  -0.353  1.00  0.00     0.012 A 
ATOM     60  C   UNL     1      10.736   7.201  -2.261  1.00  0.00     0.148 A 
ATOM     61  C   UNL     1      10.017   7.002   0.447  1.00  0.00     0.002 A 
ATOM     62  C   UNL     1      10.742   8.330  -1.448  1.00  0.00     0.091 A 
ATOM     63  F   UNL     1      11.040   7.271  -3.565  1.00  0.00    -0.205 F 
ATOM     64  C   UNL     1      10.377   8.233  -0.096  1.00  0.00     0.022 A 
BRANCH  62  65
ATOM     65  S   UNL     1      11.270   9.940  -2.049  1.00  0.00     0.127 S 
ATOM     66  O   UNL     1       9.988  10.604  -2.278  1.00  0.00    -0.237 OA
ATOM     67  O   UNL     1      12.033  10.464  -0.916  1.00  0.00    -0.237 OA
ATOM     68  O   UNL     1      12.067   9.674  -3.238  1.00  0.00    -0.744 OA
ENDBRANCH  62  65
ENDBRANCH  44  58
BRANCH  45  69
ATOM     69  C   UNL     1      10.615  -2.359  -7.237  1.00  0.00     0.023 A 
ATOM     70  C   UNL     1      10.975  -3.595  -6.669  1.00  0.00     0.012 A 
ATOM     71  C   UNL     1      10.200  -2.317  -8.583  1.00  0.00     0.148 A 
ATOM     72  C   UNL     1      10.922  -4.766  -7.427  1.00  0.00     0.002 A 
ATOM     73  C   UNL     1      10.081  -3.495  -9.309  1.00  0.00     0.091 A 
ATOM     74  F   UNL     1       9.892  -1.127  -9.120  1.00  0.00    -0.205 F 
ATOM     75  C   UNL     1      10.455  -4.720  -8.739  1.00  0.00     0.022 A 
BRANCH  73  76
ATOM     76  S   UNL     1       9.309  -3.520 -10.932  1.00  0.00     0.127 S 
ATOM     77  O   UNL     1      10.469  -3.496 -11.819  1.00  0.00    -0.237 OA
ATOM     78  O   UNL     1       8.575  -4.786 -10.911  1.00  0.00    -0.237 OA
ATOM     79  O   UNL     1       8.452  -2.341 -10.960  1.00  0.00    -0.744 OA
ENDBRANCH  73  76
ENDBRANCH  45  69
BRANCH  57  80
ATOM     80  C   UNL     1      15.535   1.581  -4.244  1.00  0.00     0.023 A 
ATOM     81  C   UNL     1      16.242   1.979  -5.395  1.00  0.00     0.012 A 
ATOM     82  C   UNL     1      16.246   1.176  -3.098  1.00  0.00     0.148 A 
ATOM     83  C   UNL     1      17.636   1.953  -5.414  1.00  0.00     0.002 A 
ATOM     84  C   UNL     1      17.636   1.185  -3.113  1.00  0.00     0.091 A 
ATOM     85  F   UNL     1      15.553   0.776  -2.021  1.00  0.00    -0.205 F 
ATOM     86  C   UNL     1      18.332   1.566  -4.272  1.00  0.00     0.022 A 
BRANCH  84  87
ATOM     87  S   UNL     1      18.605   0.770  -1.659  1.00  0.00     0.127 S 
ATOM     88  O   UNL     1      18.990  -0.612  -1.940  1.00  0.00    -0.237 OA
ATOM     89  O   UNL     1      19.705   1.734  -1.724  1.00  0.00    -0.237 OA
ATOM     90  O   UNL     1      17.711   0.959  -0.524  1.00  0.00    -0.744 OA
ENDBRANCH  84  87
ENDBRANCH  57  80
ENDBRANCH  31  32
ENDBRANCH  24  26
ENDBRANCH  23  24
ENDBRANCH   1  23
TORSDOF 18
