REMARK SMILES CC[C@](C)(NC(=O)CCOc1ccc(Cl)c(Cl)c1)C(=O)OCCOC(=O)c1ccc(-c2c3nc(c(-c4cccc(S(=O)(=O)[O-])c4F)c4ccc([nH]4)c(-c4cccc(S(=O)(=O)[O-])c4F)c4nc(c(-c5cccc(S(=O)(=O)[O-])c5F)c5ccc2[nH]5)C=C4)C=C3)cc1
REMARK SMILES IDX 22 1 21 2 19 3 20 4 3 5 4 6 2 7 1 8 5 9 6 10 7 12 8 13 9 14
REMARK SMILES IDX 10 15 11 16 12 17 18 18 13 19 16 20 14 21 17 22 15 23 23 24
REMARK SMILES IDX 24 25 25 26 26 27 27 28 28 29 89 30 29 31 88 32 30 33 31 34
REMARK SMILES IDX 32 35 82 36 33 37 87 38 81 39 83 40 34 41 86 42 80 43 79 44
REMARK SMILES IDX 35 46 67 47 47 48 66 49 48 50 51 51 65 52 84 53 49 54 50 55
REMARK SMILES IDX 64 57 85 58 52 59 36 60 37 61 45 62 38 63 40 64 46 65 39 66
REMARK SMILES IDX 41 67 42 68 43 69 44 70 68 71 69 72 77 73 70 74 72 75 78 76
REMARK SMILES IDX 71 77 73 78 74 79 75 80 76 81 53 82 54 83 62 84 55 85 57 86
REMARK SMILES IDX 63 87 56 88 58 89 59 90 60 91 61 92
REMARK H PARENT 5 11 83 45 51 56
REMARK Flexibility Score: inf
ROOT
ATOM      1  C   UNL     1       5.175  -3.216  -0.373  1.00  0.00     0.274 C 
ENDROOT
BRANCH   1   2
ATOM      2  O   UNL     1       3.800  -3.600  -0.600  1.00  0.00    -0.460 OA
BRANCH   2   3
ATOM      3  C   UNL     1       2.884  -2.786  -0.008  1.00  0.00     0.331 C 
ATOM      4  O   UNL     1       3.186  -1.791   0.644  1.00  0.00    -0.249 OA
BRANCH   3   5
ATOM      5  C   UNL     1       1.412  -3.260  -0.163  1.00  0.00     0.135 C 
ATOM      6  C   UNL     1       0.574  -2.026  -0.515  1.00  0.00     0.047 C 
BRANCH   5   7
ATOM      7  C   UNL     1       0.969  -3.826   1.226  1.00  0.00     0.037 C 
ATOM      8  C   UNL     1       1.130  -2.932   2.450  1.00  0.00     0.007 C 
ENDBRANCH   5   7
BRANCH   5   9
ATOM      9  N   UNL     1       1.088  -4.355  -1.134  1.00  0.00    -0.340 N 
ATOM     10  C   UNL     1       1.118  -4.427  -2.492  1.00  0.00     0.224 C 
ATOM     11  H   UNL     1       0.796  -5.190  -0.702  1.00  0.00     0.164 HD
ATOM     12  O   UNL     1       0.384  -5.259  -3.032  1.00  0.00    -0.275 OA
BRANCH  10  13
ATOM     13  C   UNL     1       2.097  -3.615  -3.293  1.00  0.00     0.141 C 
BRANCH  13  14
ATOM     14  C   UNL     1       1.480  -2.941  -4.514  1.00  0.00     0.239 C 
BRANCH  14  15
ATOM     15  O   UNL     1       0.950  -1.652  -4.193  1.00  0.00    -0.493 OA
BRANCH  15  16
ATOM     16  C   UNL     1      -0.355  -1.523  -3.820  1.00  0.00     0.120 A 
ATOM     17  C   UNL     1      -1.334  -2.509  -3.877  1.00  0.00     0.048 A 
ATOM     18  C   UNL     1      -0.680  -0.267  -3.297  1.00  0.00     0.068 A 
ATOM     19  C   UNL     1      -2.614  -2.255  -3.374  1.00  0.00     0.026 A 
ATOM     20  C   UNL     1      -1.949  -0.015  -2.770  1.00  0.00     0.063 A 
ATOM     21  C   UNL     1      -2.921  -1.016  -2.806  1.00  0.00     0.059 A 
ATOM     22  Cl  UNL     1      -2.231   1.529  -2.052  1.00  0.00    -0.083 Cl
ATOM     23  Cl  UNL     1      -4.504  -0.804  -2.151  1.00  0.00    -0.083 Cl
ENDBRANCH  15  16
ENDBRANCH  14  15
ENDBRANCH  13  14
ENDBRANCH  10  13
ENDBRANCH   5   9
ENDBRANCH   3   5
ENDBRANCH   2   3
ENDBRANCH   1   2
BRANCH   1  24
ATOM     24  C   UNL     1       5.713  -2.275  -1.452  1.00  0.00     0.275 C 
BRANCH  24  25
ATOM     25  O   UNL     1       5.054  -0.992  -1.415  1.00  0.00    -0.458 OA
BRANCH  25  26
ATOM     26  C   UNL     1       4.387  -0.661  -2.541  1.00  0.00     0.338 C 
ATOM     27  O   UNL     1       4.283  -1.338  -3.551  1.00  0.00    -0.246 OA
BRANCH  26  28
ATOM     28  C   UNL     1       3.802   0.685  -2.463  1.00  0.00     0.060 A 
ATOM     29  C   UNL     1       2.682   0.942  -1.669  1.00  0.00     0.016 A 
ATOM     30  C   UNL     1       4.264   1.650  -3.363  1.00  0.00     0.016 A 
ATOM     31  C   UNL     1       1.975   2.135  -1.846  1.00  0.00     0.010 A 
ATOM     32  C   UNL     1       3.593   2.867  -3.489  1.00  0.00     0.010 A 
ATOM     33  C   UNL     1       2.420   3.110  -2.760  1.00  0.00    -0.014 A 
BRANCH  33  34
ATOM     34  C   UNL     1       1.706   4.408  -2.905  1.00  0.00     0.031 A 
ATOM     35  C   UNL     1       1.079   4.827  -4.210  1.00  0.00     0.074 A 
ATOM     36  C   UNL     1       1.667   5.242  -1.847  1.00  0.00     0.049 A 
ATOM     37  N   UNL     1       0.533   5.974  -4.527  1.00  0.00    -0.248 NA
ATOM     38  C   UNL     1       1.070   3.840  -5.302  1.00  0.00     0.031 C 
ATOM     39  C   UNL     1       2.262   4.960  -0.541  1.00  0.00     0.029 A 
ATOM     40  N   UNL     1       1.118   6.490  -1.702  1.00  0.00    -0.354 N 
ATOM     41  C   UNL     1       0.163   5.870  -5.864  1.00  0.00     0.074 A 
ATOM     42  C   UNL     1       0.532   4.538  -6.296  1.00  0.00     0.031 C 
ATOM     43  C   UNL     1       2.018   5.987   0.283  1.00  0.00     0.029 A 
ATOM     44  C   UNL     1       1.313   7.031  -0.453  1.00  0.00     0.049 A 
ATOM     45  H   UNL     1       0.631   6.954  -2.421  1.00  0.00     0.167 HD
ATOM     46  C   UNL     1      -0.435   6.798  -6.651  1.00  0.00     0.034 A 
ATOM     47  C   UNL     1       0.991   8.240   0.046  1.00  0.00     0.034 A 
ATOM     48  C   UNL     1      -0.853   8.101  -6.199  1.00  0.00     0.049 A 
ATOM     49  C   UNL     1       0.294   9.230  -0.837  1.00  0.00     0.074 A 
ATOM     50  C   UNL     1      -1.497   9.095  -6.918  1.00  0.00     0.029 A 
ATOM     51  N   UNL     1      -0.684   8.589  -4.913  1.00  0.00    -0.354 N 
ATOM     52  N   UNL     1      -0.096   9.090  -2.081  1.00  0.00    -0.248 NA
ATOM     53  C   UNL     1      -0.013  10.542  -0.252  1.00  0.00     0.031 C 
ATOM     54  C   UNL     1      -1.718  10.183  -6.066  1.00  0.00     0.029 A 
ATOM     55  C   UNL     1      -1.210   9.867  -4.816  1.00  0.00     0.049 A 
ATOM     56  H   UNL     1      -0.253   8.099  -4.176  1.00  0.00     0.167 HD
ATOM     57  C   UNL     1      -0.688  10.295  -2.431  1.00  0.00     0.074 A 
ATOM     58  C   UNL     1      -0.645  11.140  -1.254  1.00  0.00     0.031 C 
ATOM     59  C   UNL     1      -1.190  10.681  -3.629  1.00  0.00     0.034 A 
BRANCH  46  60
ATOM     60  C   UNL     1      -0.725   6.438  -8.085  1.00  0.00     0.023 A 
ATOM     61  C   UNL     1      -1.864   5.665  -8.385  1.00  0.00     0.012 A 
ATOM     62  C   UNL     1       0.054   6.959  -9.138  1.00  0.00     0.148 A 
ATOM     63  C   UNL     1      -2.220   5.411  -9.710  1.00  0.00     0.002 A 
ATOM     64  C   UNL     1      -0.323   6.725 -10.457  1.00  0.00     0.091 A 
ATOM     65  F   UNL     1       1.148   7.672  -8.834  1.00  0.00    -0.205 F 
ATOM     66  C   UNL     1      -1.458   5.950 -10.745  1.00  0.00     0.022 A 
BRANCH  64  67
ATOM     67  S   UNL     1       0.562   7.441 -11.849  1.00  0.00     0.127 S 
ATOM     68  O   UNL     1       1.371   6.310 -12.299  1.00  0.00    -0.237 OA
ATOM     69  O   UNL     1      -0.523   7.813 -12.758  1.00  0.00    -0.237 OA
ATOM     70  O   UNL     1       1.302   8.572 -11.305  1.00  0.00    -0.744 OA
ENDBRANCH  64  67
ENDBRANCH  46  60
BRANCH  47  71
ATOM     71  C   UNL     1       1.300   8.538   1.471  1.00  0.00     0.023 A 
ATOM     72  C   UNL     1       0.249   8.610   2.404  1.00  0.00     0.012 A 
ATOM     73  C   UNL     1       2.629   8.627   1.927  1.00  0.00     0.148 A 
ATOM     74  C   UNL     1       0.518   8.761   3.765  1.00  0.00     0.002 A 
ATOM     75  C   UNL     1       2.891   8.704   3.290  1.00  0.00     0.091 A 
ATOM     76  F   UNL     1       3.622   8.586   1.026  1.00  0.00    -0.205 F 
ATOM     77  C   UNL     1       1.838   8.785   4.211  1.00  0.00     0.022 A 
BRANCH  75  78
ATOM     78  S   UNL     1       4.571   8.532   3.905  1.00  0.00     0.127 S 
ATOM     79  O   UNL     1       5.048   9.910   3.883  1.00  0.00    -0.237 OA
ATOM     80  O   UNL     1       4.369   7.973   5.243  1.00  0.00    -0.237 OA
ATOM     81  O   UNL     1       5.204   7.608   2.972  1.00  0.00    -0.744 OA
ENDBRANCH  75  78
ENDBRANCH  47  71
BRANCH  59  82
ATOM     82  C   UNL     1      -1.708  12.088  -3.731  1.00  0.00     0.023 A 
ATOM     83  C   UNL     1      -0.786  13.146  -3.858  1.00  0.00     0.012 A 
ATOM     84  C   UNL     1      -3.088  12.365  -3.744  1.00  0.00     0.148 A 
ATOM     85  C   UNL     1      -1.229  14.462  -3.972  1.00  0.00     0.002 A 
ATOM     86  C   UNL     1      -3.522  13.679  -3.888  1.00  0.00     0.091 A 
ATOM     87  F   UNL     1      -3.950  11.349  -3.595  1.00  0.00    -0.205 F 
ATOM     88  C   UNL     1      -2.596  14.728  -3.996  1.00  0.00     0.022 A 
BRANCH  86  89
ATOM     89  S   UNL     1      -5.269  14.089  -3.991  1.00  0.00     0.127 S 
ATOM     90  O   UNL     1      -5.573  14.457  -2.610  1.00  0.00    -0.237 OA
ATOM     91  O   UNL     1      -5.279  15.208  -4.935  1.00  0.00    -0.237 OA
ATOM     92  O   UNL     1      -5.921  12.885  -4.487  1.00  0.00    -0.744 OA
ENDBRANCH  86  89
ENDBRANCH  59  82
ENDBRANCH  33  34
ENDBRANCH  26  28
ENDBRANCH  25  26
ENDBRANCH  24  25
ENDBRANCH   1  24
TORSDOF 20
