REMARK SMILES C[C@@H]1[C@@H](C(=O)OCCOC(=O)c2ccc(-c3c4nc(c(-c5cccc(S(=O)(=O)[O-])c5F)c5ccc([nH]5)c(-c5cccc(S(=O)(=O)[O-])c5F)c5nc(c(-c6cccc(S(=O)(=O)[O-])c6F)c6ccc3[nH]6)C=C5)C=C4)cc2)CCN1C(=O)N1CCC[C@H]2CCC[C@@H]21
REMARK SMILES IDX 8 1 7 2 6 3 4 4 5 5 3 6 1 7 2 8 77 9 75 10 76 11 78 12 79 13
REMARK SMILES IDX 80 14 81 15 88 16 82 17 84 18 87 19 83 20 85 21 86 22 9 23
REMARK SMILES IDX 10 24 11 25 12 26 13 27 74 28 14 29 73 30 15 31 16 32 17 33
REMARK SMILES IDX 67 34 18 35 72 36 66 37 68 38 19 39 71 40 65 41 64 42 20 44
REMARK SMILES IDX 52 45 32 46 51 47 33 48 36 49 50 50 69 51 34 52 35 53 49 55
REMARK SMILES IDX 70 56 37 57 21 58 22 59 30 60 23 61 25 62 31 63 24 64 26 65
REMARK SMILES IDX 27 66 28 67 29 68 53 69 54 70 62 71 55 72 57 73 63 74 56 75
REMARK SMILES IDX 58 76 59 77 60 78 61 79 38 80 39 81 47 82 40 83 42 84 48 85
REMARK SMILES IDX 41 86 43 87 44 88 45 89 46 90
REMARK H PARENT 68 43 36 54
REMARK Flexibility Score: inf
ROOT
ATOM      1  C   UNL     1      -1.191   3.002  -4.220  1.00  0.00     0.275 C 
ENDROOT
BRANCH   1   2
ATOM      2  C   UNL     1      -2.069   1.990  -3.474  1.00  0.00     0.274 C 
BRANCH   2   3
ATOM      3  O   UNL     1      -1.672   1.835  -2.098  1.00  0.00    -0.462 OA
BRANCH   3   4
ATOM      4  C   UNL     1      -0.855   0.774  -1.832  1.00  0.00     0.311 C 
ATOM      5  O   UNL     1      -0.476  -0.031  -2.671  1.00  0.00    -0.252 OA
BRANCH   4   6
ATOM      6  C   UNL     1      -0.415   0.799  -0.379  1.00  0.00     0.123 C 
ATOM      7  C   UNL     1       1.490   0.061   1.079  1.00  0.00     0.032 C 
ATOM      8  C   UNL     1       0.549  -0.357  -0.058  1.00  0.00     0.098 C 
ATOM      9  N   UNL     1      -0.343  -1.461   0.325  1.00  0.00    -0.321 N 
ATOM     10  C   UNL     1      -1.567   0.554   0.594  1.00  0.00     0.039 C 
ATOM     11  C   UNL     1      -1.663  -0.964   0.666  1.00  0.00     0.122 C 
BRANCH   9  12
ATOM     12  C   UNL     1      -0.231  -2.790  -0.069  1.00  0.00     0.320 C 
ATOM     13  O   UNL     1      -1.191  -3.560  -0.030  1.00  0.00    -0.248 OA
BRANCH  12  14
ATOM     14  N   UNL     1       0.969  -3.148  -0.626  1.00  0.00    -0.321 N 
ATOM     15  C   UNL     1       2.191  -3.239   0.162  1.00  0.00     0.121 C 
ATOM     16  C   UNL     1       1.058  -3.827  -1.906  1.00  0.00     0.090 C 
ATOM     17  C   UNL     1       3.377  -2.641  -0.595  1.00  0.00     0.022 C 
ATOM     18  C   UNL     1       2.103  -3.073  -2.731  1.00  0.00     0.012 C 
ATOM     19  C   UNL     1      -0.139  -3.844  -2.848  1.00  0.00     0.025 C 
ATOM     20  C   UNL     1       3.466  -3.149  -2.042  1.00  0.00     0.007 C 
ATOM     21  C   UNL     1       1.964  -3.694  -4.112  1.00  0.00     0.006 C 
ATOM     22  C   UNL     1       0.480  -4.056  -4.234  1.00  0.00     0.002 C 
ENDBRANCH  12  14
ENDBRANCH   9  12
ENDBRANCH   4   6
ENDBRANCH   3   4
ENDBRANCH   2   3
ENDBRANCH   1   2
BRANCH   1  23
ATOM     23  O   UNL     1       0.138   2.506  -4.468  1.00  0.00    -0.458 OA
BRANCH  23  24
ATOM     24  C   UNL     1       1.050   2.792  -3.508  1.00  0.00     0.338 C 
ATOM     25  O   UNL     1       0.858   3.446  -2.495  1.00  0.00    -0.246 OA
BRANCH  24  26
ATOM     26  C   UNL     1       2.309   2.061  -3.757  1.00  0.00     0.060 A 
ATOM     27  C   UNL     1       2.833   1.326  -2.692  1.00  0.00     0.016 A 
ATOM     28  C   UNL     1       2.999   2.126  -4.971  1.00  0.00     0.016 A 
ATOM     29  C   UNL     1       4.032   0.635  -2.840  1.00  0.00     0.010 A 
ATOM     30  C   UNL     1       4.221   1.448  -5.112  1.00  0.00     0.010 A 
ATOM     31  C   UNL     1       4.742   0.697  -4.047  1.00  0.00    -0.014 A 
BRANCH  31  32
ATOM     32  C   UNL     1       6.053   0.003  -4.121  1.00  0.00     0.031 A 
ATOM     33  C   UNL     1       7.286   0.705  -3.649  1.00  0.00     0.074 A 
ATOM     34  C   UNL     1       6.118  -1.285  -4.504  1.00  0.00     0.049 A 
ATOM     35  N   UNL     1       8.499   0.237  -3.529  1.00  0.00    -0.248 NA
ATOM     36  C   UNL     1       7.141   2.123  -3.288  1.00  0.00     0.031 C 
ATOM     37  C   UNL     1       4.986  -2.054  -5.001  1.00  0.00     0.029 A 
ATOM     38  N   UNL     1       7.150  -2.193  -4.474  1.00  0.00    -0.354 N 
ATOM     39  C   UNL     1       9.284   1.323  -3.170  1.00  0.00     0.074 A 
ATOM     40  C   UNL     1       8.396   2.457  -3.019  1.00  0.00     0.031 C 
ATOM     41  C   UNL     1       5.343  -3.345  -5.102  1.00  0.00     0.029 A 
ATOM     42  C   UNL     1       6.750  -3.486  -4.743  1.00  0.00     0.049 A 
ATOM     43  H   UNL     1       8.082  -1.946  -4.280  1.00  0.00     0.167 HD
ATOM     44  C   UNL     1      10.629   1.374  -3.030  1.00  0.00     0.034 A 
ATOM     45  C   UNL     1       7.438  -4.646  -4.683  1.00  0.00     0.034 A 
ATOM     46  C   UNL     1      11.501   0.240  -3.186  1.00  0.00     0.049 A 
ATOM     47  C   UNL     1       8.917  -4.580  -4.403  1.00  0.00     0.074 A 
ATOM     48  C   UNL     1      12.883   0.203  -3.128  1.00  0.00     0.029 A 
ATOM     49  N   UNL     1      11.077  -1.056  -3.433  1.00  0.00    -0.354 N 
ATOM     50  N   UNL     1       9.646  -3.550  -4.047  1.00  0.00    -0.248 NA
ATOM     51  C   UNL     1       9.678  -5.830  -4.556  1.00  0.00     0.031 C 
ATOM     52  C   UNL     1      13.295  -1.115  -3.357  1.00  0.00     0.029 A 
ATOM     53  C   UNL     1      12.168  -1.903  -3.525  1.00  0.00     0.049 A 
ATOM     54  H   UNL     1      10.137  -1.334  -3.530  1.00  0.00     0.167 HD
ATOM     55  C   UNL     1      10.951  -4.019  -3.966  1.00  0.00     0.074 A 
ATOM     56  C   UNL     1      10.903  -5.442  -4.228  1.00  0.00     0.031 C 
ATOM     57  C   UNL     1      12.096  -3.324  -3.753  1.00  0.00     0.034 A 
BRANCH  44  58
ATOM     58  C   UNL     1      11.240   2.719  -2.758  1.00  0.00     0.023 A 
ATOM     59  C   UNL     1      11.145   3.296  -1.477  1.00  0.00     0.012 A 
ATOM     60  C   UNL     1      11.926   3.404  -3.780  1.00  0.00     0.148 A 
ATOM     61  C   UNL     1      11.700   4.551  -1.226  1.00  0.00     0.002 A 
ATOM     62  C   UNL     1      12.513   4.633  -3.511  1.00  0.00     0.091 A 
ATOM     63  F   UNL     1      11.976   2.848  -4.999  1.00  0.00    -0.205 F 
ATOM     64  C   UNL     1      12.391   5.213  -2.239  1.00  0.00     0.022 A 
BRANCH  62  65
ATOM     65  S   UNL     1      13.478   5.530  -4.731  1.00  0.00     0.127 S 
ATOM     66  O   UNL     1      12.607   6.671  -5.014  1.00  0.00    -0.237 OA
ATOM     67  O   UNL     1      14.690   5.859  -3.981  1.00  0.00    -0.237 OA
ATOM     68  O   UNL     1      13.680   4.610  -5.841  1.00  0.00    -0.744 OA
ENDBRANCH  62  65
ENDBRANCH  44  58
BRANCH  45  69
ATOM     69  C   UNL     1       6.759  -5.969  -4.853  1.00  0.00     0.023 A 
ATOM     70  C   UNL     1       6.798  -6.904  -3.796  1.00  0.00     0.012 A 
ATOM     71  C   UNL     1       6.077  -6.320  -6.032  1.00  0.00     0.148 A 
ATOM     72  C   UNL     1       6.199  -8.160  -3.921  1.00  0.00     0.002 A 
ATOM     73  C   UNL     1       5.409  -7.538  -6.118  1.00  0.00     0.091 A 
ATOM     74  F   UNL     1       6.092  -5.461  -7.061  1.00  0.00    -0.205 F 
ATOM     75  C   UNL     1       5.487  -8.471  -5.075  1.00  0.00     0.022 A 
BRANCH  73  76
ATOM     76  S   UNL     1       4.321  -7.904  -7.500  1.00  0.00     0.127 S 
ATOM     77  O   UNL     1       5.194  -8.676  -8.378  1.00  0.00    -0.237 OA
ATOM     78  O   UNL     1       3.251  -8.672  -6.862  1.00  0.00    -0.237 OA
ATOM     79  O   UNL     1       3.898  -6.598  -7.992  1.00  0.00    -0.744 OA
ENDBRANCH  73  76
ENDBRANCH  45  69
BRANCH  57  80
ATOM     80  C   UNL     1      13.392  -4.087  -3.818  1.00  0.00     0.023 A 
ATOM     81  C   UNL     1      13.876  -4.525  -5.068  1.00  0.00     0.012 A 
ATOM     82  C   UNL     1      14.165  -4.303  -2.662  1.00  0.00     0.148 A 
ATOM     83  C   UNL     1      15.096  -5.193  -5.162  1.00  0.00     0.002 A 
ATOM     84  C   UNL     1      15.401  -4.929  -2.770  1.00  0.00     0.091 A 
ATOM     85  F   UNL     1      13.678  -3.894  -1.482  1.00  0.00    -0.205 F 
ATOM     86  C   UNL     1      15.863  -5.384  -4.016  1.00  0.00     0.022 A 
BRANCH  84  87
ATOM     87  S   UNL     1      16.499  -5.139  -1.363  1.00  0.00     0.127 S 
ATOM     88  O   UNL     1      16.409  -6.580  -1.130  1.00  0.00    -0.237 OA
ATOM     89  O   UNL     1      17.782  -4.686  -1.901  1.00  0.00    -0.237 OA
ATOM     90  O   UNL     1      15.957  -4.300  -0.303  1.00  0.00    -0.744 OA
ENDBRANCH  84  87
ENDBRANCH  57  80
ENDBRANCH  31  32
ENDBRANCH  24  26
ENDBRANCH  23  24
ENDBRANCH   1  23
TORSDOF 16
