REMARK SMILES Cc1cc(S(=O)(=O)Nc2ccc(Cl)cc2F)ccc1OCC(=O)OCCOC(=O)c1ccc(-c2c3nc(c(-c4cccc(S(=O)(=O)[O-])c4F)c4ccc([nH]4)c(-c4cccc(S(=O)(=O)[O-])c4F)c4nc(c(-c5cccc(S(=O)(=O)[O-])c5F)c5ccc2[nH]5)C=C4)C=C3)cc1
REMARK SMILES IDX 25 1 24 2 22 3 23 4 21 5 20 6 19 7 1 8 2 9 3 10 4 11 18 12
REMARK SMILES IDX 17 13 5 14 6 15 7 16 8 17 9 19 10 20 15 21 11 22 14 23 16 24
REMARK SMILES IDX 12 25 13 26 26 27 27 28 28 29 29 30 30 31 31 32 92 33 32 34
REMARK SMILES IDX 91 35 33 36 34 37 35 38 85 39 36 40 90 41 84 42 86 43 37 44
REMARK SMILES IDX 89 45 83 46 82 47 38 49 70 50 50 51 69 52 51 53 54 54 68 55
REMARK SMILES IDX 87 56 52 57 53 58 67 60 88 61 55 62 39 63 40 64 48 65 41 66
REMARK SMILES IDX 43 67 49 68 42 69 44 70 45 71 46 72 47 73 71 74 72 75 80 76
REMARK SMILES IDX 73 77 75 78 81 79 74 80 76 81 77 82 78 83 79 84 56 85 57 86
REMARK SMILES IDX 65 87 58 88 60 89 66 90 59 91 61 92 62 93 63 94 64 95
REMARK H PARENT 8 18 86 48 54 59
REMARK Flexibility Score: inf
ROOT
ATOM      1  C   UNL     1       1.139   1.375   3.778  1.00  0.00     0.274 C 
ENDROOT
BRANCH   1   2
ATOM      2  O   UNL     1       0.960   1.598   2.385  1.00  0.00    -0.460 OA
BRANCH   2   3
ATOM      3  C   UNL     1       1.056   2.892   1.983  1.00  0.00     0.344 C 
ATOM      4  O   UNL     1       1.176   3.836   2.754  1.00  0.00    -0.248 OA
BRANCH   3   5
ATOM      5  C   UNL     1       0.902   3.048   0.462  1.00  0.00     0.351 C 
BRANCH   5   6
ATOM      6  O   UNL     1       1.026   1.931  -0.409  1.00  0.00    -0.482 OA
BRANCH   6   7
ATOM      7  C   UNL     1       0.152   0.885  -0.302  1.00  0.00     0.123 A 
ATOM      8  C   UNL     1       1.724  -0.419  -1.850  1.00  0.00     0.048 C 
ATOM      9  C   UNL     1       0.484  -0.293  -1.000  1.00  0.00    -0.008 A 
ATOM     10  C   UNL     1      -0.322  -1.435  -0.845  1.00  0.00     0.029 A 
ATOM     11  C   UNL     1      -1.437  -1.400  -0.008  1.00  0.00     0.088 A 
ATOM     12  C   UNL     1      -0.993   0.913   0.500  1.00  0.00     0.048 A 
ATOM     13  C   UNL     1      -1.738  -0.242   0.707  1.00  0.00     0.026 A 
BRANCH  11  14
ATOM     14  S   UNL     1      -2.432  -2.844   0.222  1.00  0.00     0.262 S 
ATOM     15  O   UNL     1      -1.895  -3.934  -0.577  1.00  0.00    -0.201 OA
ATOM     16  O   UNL     1      -2.638  -3.016   1.642  1.00  0.00    -0.201 OA
BRANCH  14  17
ATOM     17  N   UNL     1      -3.995  -2.545  -0.416  1.00  0.00    -0.277 N 
ATOM     18  H   UNL     1      -4.532  -3.278  -0.793  1.00  0.00     0.180 HD
BRANCH  17  19
ATOM     19  C   UNL     1      -4.504  -1.201  -0.389  1.00  0.00     0.085 A 
ATOM     20  C   UNL     1      -5.307  -0.769   0.671  1.00  0.00     0.031 A 
ATOM     21  C   UNL     1      -4.145  -0.294  -1.394  1.00  0.00     0.148 A 
ATOM     22  C   UNL     1      -5.743   0.561   0.710  1.00  0.00     0.023 A 
ATOM     23  C   UNL     1      -4.559   1.033  -1.350  1.00  0.00     0.062 A 
ATOM     24  F   UNL     1      -3.367  -0.694  -2.410  1.00  0.00    -0.205 F 
ATOM     25  C   UNL     1      -5.363   1.454  -0.296  1.00  0.00     0.044 A 
ATOM     26  Cl  UNL     1      -5.893   3.089  -0.227  1.00  0.00    -0.084 Cl
ENDBRANCH  17  19
ENDBRANCH  14  17
ENDBRANCH  11  14
ENDBRANCH   6   7
ENDBRANCH   5   6
ENDBRANCH   3   5
ENDBRANCH   2   3
ENDBRANCH   1   2
BRANCH   1  27
ATOM     27  C   UNL     1       1.062  -0.122   4.104  1.00  0.00     0.275 C 
BRANCH  27  28
ATOM     28  O   UNL     1       1.535  -1.145   3.168  1.00  0.00    -0.458 OA
BRANCH  28  29
ATOM     29  C   UNL     1       2.428  -1.105   2.147  1.00  0.00     0.338 C 
ATOM     30  O   UNL     1       2.473  -1.975   1.286  1.00  0.00    -0.246 OA
BRANCH  29  31
ATOM     31  C   UNL     1       3.406  -0.018   2.169  1.00  0.00     0.060 A 
ATOM     32  C   UNL     1       3.690   0.739   1.017  1.00  0.00     0.016 A 
ATOM     33  C   UNL     1       3.968   0.292   3.395  1.00  0.00     0.016 A 
ATOM     34  C   UNL     1       4.451   1.899   1.106  1.00  0.00     0.010 A 
ATOM     35  C   UNL     1       4.610   1.493   3.509  1.00  0.00     0.010 A 
ATOM     36  C   UNL     1       4.886   2.276   2.366  1.00  0.00    -0.014 A 
BRANCH  36  37
ATOM     37  C   UNL     1       5.860   3.318   2.635  1.00  0.00     0.031 A 
ATOM     38  C   UNL     1       5.499   4.736   2.772  1.00  0.00     0.074 A 
ATOM     39  C   UNL     1       6.981   2.759   3.140  1.00  0.00     0.049 A 
ATOM     40  N   UNL     1       6.329   5.637   3.159  1.00  0.00    -0.248 NA
ATOM     41  C   UNL     1       4.174   5.274   2.493  1.00  0.00     0.031 C 
ATOM     42  C   UNL     1       7.939   3.261   4.100  1.00  0.00     0.029 A 
ATOM     43  N   UNL     1       7.500   1.506   2.778  1.00  0.00    -0.354 N 
ATOM     44  C   UNL     1       5.609   6.773   3.475  1.00  0.00     0.074 A 
ATOM     45  C   UNL     1       4.287   6.526   2.956  1.00  0.00     0.031 C 
ATOM     46  C   UNL     1       9.050   2.502   4.020  1.00  0.00     0.029 A 
ATOM     47  C   UNL     1       8.882   1.647   2.846  1.00  0.00     0.049 A 
ATOM     48  H   UNL     1       6.994   0.699   2.528  1.00  0.00     0.167 HD
ATOM     49  C   UNL     1       6.209   7.699   4.277  1.00  0.00     0.034 A 
ATOM     50  C   UNL     1       9.618   1.718   1.693  1.00  0.00     0.034 A 
ATOM     51  C   UNL     1       7.623   7.333   4.466  1.00  0.00     0.049 A 
ATOM     52  C   UNL     1      10.318   3.059   1.619  1.00  0.00     0.074 A 
ATOM     53  C   UNL     1       8.280   6.637   5.467  1.00  0.00     0.029 A 
ATOM     54  N   UNL     1       8.485   7.365   3.373  1.00  0.00    -0.354 N 
ATOM     55  N   UNL     1       9.857   4.159   2.152  1.00  0.00    -0.248 NA
ATOM     56  C   UNL     1      11.646   3.227   1.044  1.00  0.00     0.031 C 
ATOM     57  C   UNL     1       9.497   6.142   4.920  1.00  0.00     0.029 A 
ATOM     58  C   UNL     1       9.588   6.558   3.600  1.00  0.00     0.049 A 
ATOM     59  H   UNL     1       8.332   7.889   2.554  1.00  0.00     0.167 HD
ATOM     60  C   UNL     1      10.798   5.146   2.062  1.00  0.00     0.074 A 
ATOM     61  C   UNL     1      11.901   4.510   1.353  1.00  0.00     0.031 C 
ATOM     62  C   UNL     1      10.618   6.401   2.579  1.00  0.00     0.034 A 
BRANCH  49  63
ATOM     63  C   UNL     1       5.527   8.763   5.134  1.00  0.00     0.023 A 
ATOM     64  C   UNL     1       6.293   9.290   6.206  1.00  0.00     0.012 A 
ATOM     65  C   UNL     1       4.199   9.245   5.042  1.00  0.00     0.148 A 
ATOM     66  C   UNL     1       5.771  10.165   7.164  1.00  0.00     0.002 A 
ATOM     67  C   UNL     1       3.669  10.116   6.008  1.00  0.00     0.091 A 
ATOM     68  F   UNL     1       3.435   8.894   4.006  1.00  0.00    -0.205 F 
ATOM     69  C   UNL     1       4.452  10.567   7.075  1.00  0.00     0.022 A 
BRANCH  67  70
ATOM     70  S   UNL     1       1.961  10.703   5.989  1.00  0.00     0.127 S 
ATOM     71  O   UNL     1       1.454  10.211   7.272  1.00  0.00    -0.237 OA
ATOM     72  O   UNL     1       2.128  12.154   5.922  1.00  0.00    -0.237 OA
ATOM     73  O   UNL     1       1.331  10.102   4.820  1.00  0.00    -0.744 OA
ENDBRANCH  67  70
ENDBRANCH  49  63
BRANCH  50  74
ATOM     74  C   UNL     1       9.014   0.963   0.534  1.00  0.00     0.023 A 
ATOM     75  C   UNL     1       8.760  -0.421   0.740  1.00  0.00     0.012 A 
ATOM     76  C   UNL     1       8.348   1.604  -0.529  1.00  0.00     0.148 A 
ATOM     77  C   UNL     1       7.768  -1.097   0.023  1.00  0.00     0.002 A 
ATOM     78  C   UNL     1       7.368   0.914  -1.254  1.00  0.00     0.091 A 
ATOM     79  F   UNL     1       8.629   2.888  -0.786  1.00  0.00    -0.205 F 
ATOM     80  C   UNL     1       7.050  -0.420  -0.953  1.00  0.00     0.022 A 
BRANCH  78  81
ATOM     81  S   UNL     1       6.370   1.732  -2.512  1.00  0.00     0.127 S 
ATOM     82  O   UNL     1       7.162   1.495  -3.716  1.00  0.00    -0.237 OA
ATOM     83  O   UNL     1       5.106   0.994  -2.454  1.00  0.00    -0.237 OA
ATOM     84  O   UNL     1       6.266   3.110  -2.057  1.00  0.00    -0.744 OA
ENDBRANCH  78  81
ENDBRANCH  50  74
BRANCH  62  85
ATOM     85  C   UNL     1      11.431   7.611   2.172  1.00  0.00     0.023 A 
ATOM     86  C   UNL     1      12.152   7.641   0.963  1.00  0.00     0.012 A 
ATOM     87  C   UNL     1      11.332   8.833   2.885  1.00  0.00     0.148 A 
ATOM     88  C   UNL     1      12.796   8.795   0.512  1.00  0.00     0.002 A 
ATOM     89  C   UNL     1      11.861  10.009   2.364  1.00  0.00     0.091 A 
ATOM     90  F   UNL     1      10.727   8.871   4.082  1.00  0.00    -0.205 F 
ATOM     91  C   UNL     1      12.627   9.988   1.198  1.00  0.00     0.022 A 
BRANCH  89  92
ATOM     92  S   UNL     1      11.411  11.605   3.061  1.00  0.00     0.127 S 
ATOM     93  O   UNL     1      12.496  11.840   4.009  1.00  0.00    -0.237 OA
ATOM     94  O   UNL     1      11.429  12.477   1.885  1.00  0.00    -0.237 OA
ATOM     95  O   UNL     1      10.085  11.405   3.630  1.00  0.00    -0.744 OA
ENDBRANCH  89  92
ENDBRANCH  62  85
ENDBRANCH  36  37
ENDBRANCH  29  31
ENDBRANCH  28  29
ENDBRANCH  27  28
ENDBRANCH   1  27
TORSDOF 19
