REMARK SMILES NS(=O)(=O)c1ccc(-n2nc(C(=O)NCCCC(=O)OCCOC(=O)c3ccc(-c4c5nc(c(-c6cccc(S(=O)(=O)[O-])c6F)c6ccc([nH]6)c(-c6cccc(S(=O)(=O)[O-])c6F)c6nc(c(-c7cccc(S(=O)(=O)[O-])c7F)c7ccc4[nH]7)C=C6)C=C5)cc3)cc2-c2ccccc2)cc1
REMARK SMILES IDX 18 1 19 2 17 3 16 4 15 5 14 6 12 7 13 8 11 10 9 11 10 12
REMARK SMILES IDX 90 13 89 14 8 15 5 16 6 17 98 18 7 19 97 20 2 21 3 22 4 23
REMARK SMILES IDX 1 24 91 27 92 28 96 29 93 30 95 31 94 32 20 33 21 34 22 35
REMARK SMILES IDX 23 36 24 37 25 38 26 39 27 40 88 41 28 42 87 43 29 44 30 45
REMARK SMILES IDX 31 46 81 47 32 48 86 49 80 50 82 51 33 52 85 53 79 54 78 55
REMARK SMILES IDX 34 57 66 58 46 59 65 60 47 61 50 62 64 63 83 64 48 65 49 66
REMARK SMILES IDX 63 68 84 69 51 70 35 71 36 72 44 73 37 74 39 75 45 76 38 77
REMARK SMILES IDX 40 78 41 79 42 80 43 81 67 82 68 83 76 84 69 85 71 86 77 87
REMARK SMILES IDX 70 88 72 89 73 90 74 91 75 92 52 93 53 94 61 95 54 96 56 97
REMARK SMILES IDX 62 98 55 99 57 100 58 101 59 102 60 103
REMARK H PARENT 14 9 1 25 1 26 82 56 50 67
REMARK Flexibility Score: inf
ROOT
ATOM      1  C   UNL     1       3.835 -10.631  -9.628  1.00  0.00     0.305 C 
ATOM      2  O   UNL     1       3.949 -11.272 -10.665  1.00  0.00    -0.252 OA
ENDROOT
BRANCH   1   3
ATOM      3  C   UNL     1       4.192  -9.165  -9.526  1.00  0.00     0.124 C 
BRANCH   3   4
ATOM      4  C   UNL     1       3.186  -8.221  -8.872  1.00  0.00     0.033 C 
BRANCH   4   5
ATOM      5  C   UNL     1       2.818  -8.476  -7.413  1.00  0.00     0.117 C 
BRANCH   5   6
ATOM      6  N   UNL     1       3.955  -8.329  -6.519  1.00  0.00    -0.351 N 
ATOM      7  C   UNL     1       4.126  -7.556  -5.391  1.00  0.00     0.271 C 
ATOM      8  O   UNL     1       5.268  -7.499  -4.928  1.00  0.00    -0.267 OA
ATOM      9  H   UNL     1       4.737  -8.877  -6.760  1.00  0.00     0.163 HD
BRANCH   7  10
ATOM     10  C   UNL     1       2.982  -6.862  -4.761  1.00  0.00     0.151 A 
ATOM     11  N   UNL     1       1.937  -5.500  -3.477  1.00  0.00    -0.232 N 
ATOM     12  N   UNL     1       3.159  -5.759  -3.999  1.00  0.00    -0.162 NA
ATOM     13  C   UNL     1       0.937  -6.220  -4.110  1.00  0.00     0.075 A 
ATOM     14  C   UNL     1       1.605  -7.209  -4.796  1.00  0.00     0.065 A 
BRANCH  11  15
ATOM     15  C   UNL     1       1.764  -4.584  -2.408  1.00  0.00     0.065 A 
ATOM     16  C   UNL     1       1.107  -2.654  -0.523  1.00  0.00     0.082 A 
ATOM     17  C   UNL     1       0.498  -3.909  -0.459  1.00  0.00     0.024 A 
ATOM     18  C   UNL     1       2.081  -2.377  -1.492  1.00  0.00     0.024 A 
ATOM     19  C   UNL     1       0.826  -4.874  -1.404  1.00  0.00     0.030 A 
ATOM     20  C   UNL     1       2.436  -3.358  -2.424  1.00  0.00     0.030 A 
BRANCH  16  21
ATOM     21  S   UNL     1       0.567  -1.432   0.632  1.00  0.00     0.238 S 
ATOM     22  O   UNL     1       1.216  -1.671   1.891  1.00  0.00    -0.207 OA
ATOM     23  O   UNL     1      -0.872  -1.288   0.507  1.00  0.00    -0.207 OA
BRANCH  21  24
ATOM     24  N   UNL     1       1.196   0.015   0.055  1.00  0.00    -0.225 NA
ATOM     25  H   UNL     1       0.924   0.776   0.677  1.00  0.00     0.137 HD
ATOM     26  H   UNL     1       0.832   0.194  -0.881  1.00  0.00     0.137 HD
ENDBRANCH  21  24
ENDBRANCH  16  21
ENDBRANCH  11  15
BRANCH  13  27
ATOM     27  C   UNL     1      -0.497  -5.921  -4.065  1.00  0.00     0.000 A 
ATOM     28  C   UNL     1      -0.962  -4.600  -4.186  1.00  0.00     0.010 A 
ATOM     29  C   UNL     1      -1.429  -6.954  -3.936  1.00  0.00     0.010 A 
ATOM     30  C   UNL     1      -2.327  -4.317  -4.137  1.00  0.00     0.001 A 
ATOM     31  C   UNL     1      -2.795  -6.672  -3.899  1.00  0.00     0.001 A 
ATOM     32  C   UNL     1      -3.243  -5.355  -3.992  1.00  0.00     0.000 A 
ENDBRANCH  13  27
ENDBRANCH   7  10
ENDBRANCH   5   6
ENDBRANCH   4   5
ENDBRANCH   3   4
ENDBRANCH   1   3
BRANCH   1  33
ATOM     33  O   UNL     1       3.485 -11.160  -8.426  1.00  0.00    -0.462 OA
BRANCH  33  34
ATOM     34  C   UNL     1       3.049 -12.534  -8.433  1.00  0.00     0.274 C 
BRANCH  34  35
ATOM     35  C   UNL     1       1.547 -12.649  -8.652  1.00  0.00     0.275 C 
BRANCH  35  36
ATOM     36  O   UNL     1       1.178 -12.295  -9.983  1.00  0.00    -0.458 OA
BRANCH  36  37
ATOM     37  C   UNL     1       0.744 -11.024 -10.120  1.00  0.00     0.338 C 
ATOM     38  O   UNL     1       0.925 -10.104  -9.339  1.00  0.00    -0.246 OA
BRANCH  37  39
ATOM     39  C   UNL     1      -0.197 -10.934 -11.237  1.00  0.00     0.060 A 
ATOM     40  C   UNL     1      -0.568  -9.661 -11.680  1.00  0.00     0.016 A 
ATOM     41  C   UNL     1      -0.887 -12.087 -11.633  1.00  0.00     0.016 A 
ATOM     42  C   UNL     1      -1.725  -9.534 -12.422  1.00  0.00     0.010 A 
ATOM     43  C   UNL     1      -2.050 -11.956 -12.354  1.00  0.00     0.010 A 
ATOM     44  C   UNL     1      -2.487 -10.677 -12.693  1.00  0.00    -0.014 A 
BRANCH  44  45
ATOM     45  C   UNL     1      -3.655 -10.542 -13.543  1.00  0.00     0.031 A 
ATOM     46  C   UNL     1      -3.267 -10.239 -14.941  1.00  0.00     0.074 A 
ATOM     47  C   UNL     1      -4.908 -10.805 -13.122  1.00  0.00     0.049 A 
ATOM     48  N   UNL     1      -3.447  -9.127 -15.574  1.00  0.00    -0.248 NA
ATOM     49  C   UNL     1      -2.380 -11.187 -15.638  1.00  0.00     0.031 C 
ATOM     50  C   UNL     1      -5.304 -11.361 -11.825  1.00  0.00     0.029 A 
ATOM     51  N   UNL     1      -6.085 -10.769 -13.812  1.00  0.00    -0.354 N 
ATOM     52  C   UNL     1      -2.966  -9.373 -16.855  1.00  0.00     0.074 A 
ATOM     53  C   UNL     1      -2.102 -10.516 -16.756  1.00  0.00     0.031 C 
ATOM     54  C   UNL     1      -6.565 -11.842 -11.914  1.00  0.00     0.029 A 
ATOM     55  C   UNL     1      -7.101 -11.527 -13.226  1.00  0.00     0.049 A 
ATOM     56  H   UNL     1      -6.207 -10.257 -14.644  1.00  0.00     0.167 HD
ATOM     57  C   UNL     1      -3.615  -8.858 -17.933  1.00  0.00     0.034 A 
ATOM     58  C   UNL     1      -8.256 -11.937 -13.814  1.00  0.00     0.034 A 
ATOM     59  C   UNL     1      -4.470  -7.761 -17.552  1.00  0.00     0.049 A 
ATOM     60  C   UNL     1      -8.493 -11.059 -14.978  1.00  0.00     0.074 A 
ATOM     61  C   UNL     1      -4.298  -6.558 -16.896  1.00  0.00     0.029 A 
ATOM     62  N   UNL     1      -5.812  -8.039 -17.502  1.00  0.00    -0.354 N 
ATOM     63  N   UNL     1      -8.784  -9.794 -14.876  1.00  0.00    -0.248 NA
ATOM     64  C   UNL     1      -7.999 -11.486 -16.275  1.00  0.00     0.031 C 
ATOM     65  C   UNL     1      -5.483  -6.383 -16.122  1.00  0.00     0.029 A 
ATOM     66  C   UNL     1      -6.352  -7.440 -16.399  1.00  0.00     0.049 A 
ATOM     67  H   UNL     1      -6.307  -8.584 -18.156  1.00  0.00     0.167 HD
ATOM     68  C   UNL     1      -8.041  -9.200 -15.886  1.00  0.00     0.074 A 
ATOM     69  C   UNL     1      -7.705 -10.293 -16.797  1.00  0.00     0.031 C 
ATOM     70  C   UNL     1      -7.517  -7.951 -15.711  1.00  0.00     0.034 A 
BRANCH  57  71
ATOM     71  C   UNL     1      -3.853  -9.636 -19.213  1.00  0.00     0.023 A 
ATOM     72  C   UNL     1      -4.432  -8.934 -20.292  1.00  0.00     0.012 A 
ATOM     73  C   UNL     1      -3.822 -11.049 -19.317  1.00  0.00     0.148 A 
ATOM     74  C   UNL     1      -4.992  -9.603 -21.387  1.00  0.00     0.002 A 
ATOM     75  C   UNL     1      -4.293 -11.703 -20.448  1.00  0.00     0.091 A 
ATOM     76  F   UNL     1      -3.475 -11.796 -18.268  1.00  0.00    -0.205 F 
ATOM     77  C   UNL     1      -4.912 -10.987 -21.472  1.00  0.00     0.022 A 
BRANCH  75  78
ATOM     78  S   UNL     1      -4.165 -13.488 -20.624  1.00  0.00     0.127 S 
ATOM     79  O   UNL     1      -5.561 -13.894 -20.498  1.00  0.00    -0.237 OA
ATOM     80  O   UNL     1      -3.599 -13.611 -21.967  1.00  0.00    -0.237 OA
ATOM     81  O   UNL     1      -3.272 -13.927 -19.558  1.00  0.00    -0.744 OA
ENDBRANCH  75  78
ENDBRANCH  57  71
BRANCH  58  82
ATOM     82  C   UNL     1      -9.038 -13.187 -13.634  1.00  0.00     0.023 A 
ATOM     83  C   UNL     1     -10.351 -13.269 -14.148  1.00  0.00     0.012 A 
ATOM     84  C   UNL     1      -8.405 -14.388 -13.247  1.00  0.00     0.148 A 
ATOM     85  C   UNL     1     -10.990 -14.504 -14.315  1.00  0.00     0.002 A 
ATOM     86  C   UNL     1      -9.046 -15.613 -13.409  1.00  0.00     0.091 A 
ATOM     87  F   UNL     1      -7.140 -14.341 -12.813  1.00  0.00    -0.205 F 
ATOM     88  C   UNL     1     -10.333 -15.678 -13.957  1.00  0.00     0.022 A 
BRANCH  86  89
ATOM     89  S   UNL     1      -8.244 -17.169 -12.997  1.00  0.00     0.127 S 
ATOM     90  O   UNL     1      -9.271 -17.836 -12.197  1.00  0.00    -0.237 OA
ATOM     91  O   UNL     1      -8.019 -17.752 -14.317  1.00  0.00    -0.237 OA
ATOM     92  O   UNL     1      -7.043 -16.813 -12.251  1.00  0.00    -0.744 OA
ENDBRANCH  86  89
ENDBRANCH  58  82
BRANCH  70  93
ATOM     93  C   UNL     1      -8.064  -7.115 -14.579  1.00  0.00     0.023 A 
ATOM     94  C   UNL     1      -7.983  -7.497 -13.223  1.00  0.00     0.012 A 
ATOM     95  C   UNL     1      -8.588  -5.852 -14.896  1.00  0.00     0.148 A 
ATOM     96  C   UNL     1      -8.457  -6.653 -12.213  1.00  0.00     0.002 A 
ATOM     97  C   UNL     1      -9.013  -4.997 -13.889  1.00  0.00     0.091 A 
ATOM     98  F   UNL     1      -8.658  -5.501 -16.190  1.00  0.00    -0.205 F 
ATOM     99  C   UNL     1      -8.962  -5.398 -12.545  1.00  0.00     0.022 A 
BRANCH  97 100
ATOM    100  S   UNL     1      -9.569  -3.334 -14.258  1.00  0.00     0.127 S 
ATOM    101  O   UNL     1     -11.021  -3.471 -14.169  1.00  0.00    -0.237 OA
ATOM    102  O   UNL     1      -8.961  -2.550 -13.182  1.00  0.00    -0.237 OA
ATOM    103  O   UNL     1      -9.045  -3.025 -15.584  1.00  0.00    -0.744 OA
ENDBRANCH  97 100
ENDBRANCH  70  93
ENDBRANCH  44  45
ENDBRANCH  37  39
ENDBRANCH  36  37
ENDBRANCH  35  36
ENDBRANCH  34  35
ENDBRANCH  33  34
ENDBRANCH   1  33
TORSDOF 22
