REMARK SMILES O=C(OCCOC(=O)[C@H]1C[C@H]2CCCC[C@@H]2[N@@H+]1CC[C@@H]1CCCO1)c1ccc(-c2c3nc(c(-c4cccc(S(=O)(=O)[O-])c4F)c4ccc([nH]4)c(-c4cccc(S(=O)(=O)[O-])c4F)c4nc(c(-c5cccc(S(=O)(=O)[O-])c5F)c5ccc2[nH]5)C=C4)C=C3)cc1
REMARK SMILES IDX 4 1 3 2 2 3 1 4 25 5 26 6 87 7 27 8 86 9 28 10 29 11 30 12
REMARK SMILES IDX 80 13 31 14 85 15 79 16 81 17 32 18 84 19 78 20 77 21 33 23
REMARK SMILES IDX 65 24 45 25 64 26 46 27 49 28 63 29 82 30 47 31 48 32 62 34
REMARK SMILES IDX 83 35 50 36 34 37 35 38 43 39 36 40 38 41 44 42 37 43 39 44
REMARK SMILES IDX 40 45 41 46 42 47 66 48 67 49 75 50 68 51 70 52 76 53 69 54
REMARK SMILES IDX 71 55 72 56 73 57 74 58 51 59 52 60 60 61 53 62 55 63 61 64
REMARK SMILES IDX 54 65 56 66 57 67 58 68 59 69 5 70 6 71 7 72 8 73 9 74 10 75
REMARK SMILES IDX 17 76 11 77 16 78 12 80 15 81 13 82 14 83 18 84 19 85 20 86
REMARK SMILES IDX 21 87 24 88 22 89 23 90
REMARK H PARENT 81 22 49 33 17 79
REMARK Flexibility Score: inf
ROOT
ATOM      1  C   UNL     1      -1.681   2.207   2.345  1.00  0.00     0.275 C 
ENDROOT
BRANCH   1   2
ATOM      2  O   UNL     1      -1.262   1.139   1.473  1.00  0.00    -0.458 OA
BRANCH   2   3
ATOM      3  C   UNL     1      -0.244   1.107   0.576  1.00  0.00     0.338 C 
ATOM      4  O   UNL     1      -0.254   0.235  -0.293  1.00  0.00    -0.246 OA
BRANCH   3   5
ATOM      5  C   UNL     1       0.979   1.969   0.682  1.00  0.00     0.060 A 
ATOM      6  C   UNL     1       1.045   3.231   1.277  1.00  0.00     0.016 A 
ATOM      7  C   UNL     1       2.178   1.418   0.188  1.00  0.00     0.016 A 
ATOM      8  C   UNL     1       2.265   3.882   1.468  1.00  0.00     0.010 A 
ATOM      9  C   UNL     1       3.407   2.060   0.386  1.00  0.00     0.010 A 
ATOM     10  C   UNL     1       3.454   3.302   1.030  1.00  0.00    -0.014 A 
BRANCH  10  11
ATOM     11  C   UNL     1       4.693   4.111   1.074  1.00  0.00     0.031 A 
ATOM     12  C   UNL     1       5.152   4.740  -0.207  1.00  0.00     0.074 A 
ATOM     13  C   UNL     1       5.332   4.363   2.233  1.00  0.00     0.049 A 
ATOM     14  N   UNL     1       6.119   5.591  -0.403  1.00  0.00    -0.248 NA
ATOM     15  C   UNL     1       4.391   4.399  -1.423  1.00  0.00     0.031 C 
ATOM     16  C   UNL     1       4.925   3.871   3.547  1.00  0.00     0.029 A 
ATOM     17  N   UNL     1       6.465   5.089   2.497  1.00  0.00    -0.354 N 
ATOM     18  C   UNL     1       6.065   5.909  -1.752  1.00  0.00     0.074 A 
ATOM     19  C   UNL     1       5.017   5.112  -2.344  1.00  0.00     0.031 C 
ATOM     20  C   UNL     1       5.839   4.229   4.464  1.00  0.00     0.029 A 
ATOM     21  C   UNL     1       6.875   5.019   3.810  1.00  0.00     0.049 A 
ATOM     22  H   UNL     1       6.942   5.611   1.812  1.00  0.00     0.167 HD
ATOM     23  C   UNL     1       6.789   6.826  -2.428  1.00  0.00     0.034 A 
ATOM     24  C   UNL     1       7.957   5.549   4.414  1.00  0.00     0.034 A 
ATOM     25  C   UNL     1       7.842   7.596  -1.835  1.00  0.00     0.049 A 
ATOM     26  C   UNL     1       8.822   6.485   3.610  1.00  0.00     0.074 A 
ATOM     27  C   UNL     1       8.663   8.534  -2.428  1.00  0.00     0.029 A 
ATOM     28  N   UNL     1       8.234   7.495  -0.507  1.00  0.00    -0.354 N 
ATOM     29  N   UNL     1       8.686   6.861   2.360  1.00  0.00    -0.248 NA
ATOM     30  C   UNL     1       9.941   7.129   4.311  1.00  0.00     0.031 C 
ATOM     31  C   UNL     1       9.575   8.979  -1.465  1.00  0.00     0.029 A 
ATOM     32  C   UNL     1       9.293   8.348  -0.262  1.00  0.00     0.049 A 
ATOM     33  H   UNL     1       7.818   6.904   0.161  1.00  0.00     0.167 HD
ATOM     34  C   UNL     1       9.662   7.824   2.141  1.00  0.00     0.074 A 
ATOM     35  C   UNL     1      10.374   7.983   3.394  1.00  0.00     0.031 C 
ATOM     36  C   UNL     1       9.949   8.515   1.010  1.00  0.00     0.034 A 
BRANCH  23  37
ATOM     37  C   UNL     1       6.434   7.038  -3.872  1.00  0.00     0.023 A 
ATOM     38  C   UNL     1       5.222   7.682  -4.204  1.00  0.00     0.012 A 
ATOM     39  C   UNL     1       7.280   6.583  -4.898  1.00  0.00     0.148 A 
ATOM     40  C   UNL     1       4.840   7.833  -5.535  1.00  0.00     0.002 A 
ATOM     41  C   UNL     1       6.914   6.777  -6.223  1.00  0.00     0.091 A 
ATOM     42  F   UNL     1       8.411   5.948  -4.558  1.00  0.00    -0.205 F 
ATOM     43  C   UNL     1       5.689   7.388  -6.544  1.00  0.00     0.022 A 
BRANCH  41  44
ATOM     44  S   UNL     1       7.962   6.294  -7.598  1.00  0.00     0.127 S 
ATOM     45  O   UNL     1       7.150   5.259  -8.238  1.00  0.00    -0.237 OA
ATOM     46  O   UNL     1       8.065   7.543  -8.352  1.00  0.00    -0.237 OA
ATOM     47  O   UNL     1       9.210   5.827  -7.011  1.00  0.00    -0.744 OA
ENDBRANCH  41  44
ENDBRANCH  23  37
BRANCH  24  48
ATOM     48  C   UNL     1       8.248   5.272   5.852  1.00  0.00     0.023 A 
ATOM     49  C   UNL     1       8.157   6.305   6.806  1.00  0.00     0.012 A 
ATOM     50  C   UNL     1       8.647   3.987   6.276  1.00  0.00     0.148 A 
ATOM     51  C   UNL     1       8.506   6.079   8.140  1.00  0.00     0.002 A 
ATOM     52  C   UNL     1       8.949   3.757   7.615  1.00  0.00     0.091 A 
ATOM     53  F   UNL     1       8.738   3.015   5.357  1.00  0.00    -0.205 F 
ATOM     54  C   UNL     1       8.898   4.807   8.545  1.00  0.00     0.022 A 
BRANCH  52  55
ATOM     55  S   UNL     1       9.369   2.128   8.248  1.00  0.00     0.127 S 
ATOM     56  O   UNL     1      10.794   2.277   8.534  1.00  0.00    -0.237 OA
ATOM     57  O   UNL     1       8.511   2.033   9.430  1.00  0.00    -0.237 OA
ATOM     58  O   UNL     1       9.030   1.192   7.185  1.00  0.00    -0.744 OA
ENDBRANCH  52  55
ENDBRANCH  24  48
BRANCH  36  59
ATOM     59  C   UNL     1      11.051   9.536   1.084  1.00  0.00     0.023 A 
ATOM     60  C   UNL     1      12.392   9.121   1.195  1.00  0.00     0.012 A 
ATOM     61  C   UNL     1      10.756  10.908   0.962  1.00  0.00     0.148 A 
ATOM     62  C   UNL     1      13.421  10.059   1.222  1.00  0.00     0.002 A 
ATOM     63  C   UNL     1      11.790  11.833   0.929  1.00  0.00     0.091 A 
ATOM     64  F   UNL     1       9.470  11.282   0.875  1.00  0.00    -0.205 F 
ATOM     65  C   UNL     1      13.122  11.412   1.075  1.00  0.00     0.022 A 
BRANCH  63  66
ATOM     66  S   UNL     1      11.506  13.580   0.632  1.00  0.00     0.127 S 
ATOM     67  O   UNL     1      11.778  14.154   1.948  1.00  0.00    -0.237 OA
ATOM     68  O   UNL     1      12.510  13.887  -0.388  1.00  0.00    -0.237 OA
ATOM     69  O   UNL     1      10.127  13.692   0.175  1.00  0.00    -0.744 OA
ENDBRANCH  63  66
ENDBRANCH  36  59
ENDBRANCH  10  11
ENDBRANCH   3   5
ENDBRANCH   2   3
ENDBRANCH   1   2
BRANCH   1  70
ATOM     70  C   UNL     1      -1.042   2.177   3.738  1.00  0.00     0.274 C 
BRANCH  70  71
ATOM     71  O   UNL     1       0.348   1.823   3.696  1.00  0.00    -0.458 OA
BRANCH  71  72
ATOM     72  C   UNL     1       0.620   0.501   3.921  1.00  0.00     0.365 C 
ATOM     73  O   UNL     1      -0.216  -0.302   4.329  1.00  0.00    -0.245 OA
BRANCH  72  74
ATOM     74  C   UNL     1       2.083   0.178   3.539  1.00  0.00     0.295 C 
ATOM     75  C   UNL     1       3.077   0.688   4.589  1.00  0.00     0.087 C 
ATOM     76  N   UNL     1       2.260  -1.293   3.472  1.00  0.00    -0.320 N 
ATOM     77  C   UNL     1       3.785  -0.566   5.076  1.00  0.00     0.054 C 
ATOM     78  C   UNL     1       2.762  -1.645   4.792  1.00  0.00     0.188 C 
ATOM     79  H   UNL     1       1.396  -1.809   3.308  1.00  0.00     0.349 HD
ATOM     80  C   UNL     1       4.229  -0.569   6.528  1.00  0.00     0.010 C 
ATOM     81  C   UNL     1       3.284  -3.034   5.073  1.00  0.00     0.065 C 
ATOM     82  C   UNL     1       4.671  -1.966   6.979  1.00  0.00     0.001 C 
ATOM     83  C   UNL     1       3.754  -3.114   6.530  1.00  0.00     0.006 C 
BRANCH  76  84
ATOM     84  C   UNL     1       2.898  -1.815   2.260  1.00  0.00     0.265 C 
BRANCH  84  85
ATOM     85  C   UNL     1       4.223  -1.262   1.676  1.00  0.00     0.093 C 
BRANCH  85  86
ATOM     86  C   UNL     1       5.550  -2.041   1.795  1.00  0.00     0.123 C 
ATOM     87  C   UNL     1       5.542  -3.554   1.925  1.00  0.00     0.034 C 
ATOM     88  O   UNL     1       6.340  -1.502   2.853  1.00  0.00    -0.378 OA
ATOM     89  C   UNL     1       6.440  -3.865   3.100  1.00  0.00     0.031 C 
ATOM     90  C   UNL     1       6.744  -2.534   3.740  1.00  0.00     0.160 C 
ENDBRANCH  85  86
ENDBRANCH  84  85
ENDBRANCH  76  84
ENDBRANCH  72  74
ENDBRANCH  71  72
ENDBRANCH  70  71
ENDBRANCH   1  70
TORSDOF 17
