REMARK SMILES CCC(CC)[C@H](C(=O)OCCOC(=O)c1ccc(-c2c3nc(c(-c4cccc(S(=O)(=O)[O-])c4F)c4ccc([nH]4)c(-c4cccc(S(=O)(=O)[O-])c4F)c4nc(c(-c5cccc(S(=O)(=O)[O-])c5F)c5ccc2[nH]5)C=C4)C=C3)cc1)c1ccccc1
REMARK SMILES IDX 11 1 10 2 9 3 7 4 8 5 6 6 3 7 2 8 1 9 4 10 5 11 78 12 79 13
REMARK SMILES IDX 83 14 80 15 82 16 81 17 12 18 13 19 14 20 15 21 16 22 77 23
REMARK SMILES IDX 17 24 76 25 18 26 19 27 20 28 70 29 21 30 75 31 69 32 71 33
REMARK SMILES IDX 22 34 74 35 68 36 67 37 23 39 55 40 35 41 54 42 36 43 39 44
REMARK SMILES IDX 53 45 72 46 37 47 38 48 52 50 73 51 40 52 24 53 25 54 33 55
REMARK SMILES IDX 26 56 28 57 34 58 27 59 29 60 30 61 31 62 32 63 56 64 57 65
REMARK SMILES IDX 65 66 58 67 60 68 66 69 59 70 61 71 62 72 63 73 64 74 41 75
REMARK SMILES IDX 42 76 50 77 43 78 45 79 51 80 44 81 46 82 47 83 48 84 49 85
REMARK H PARENT 71 38 39 49
REMARK Flexibility Score: inf
ROOT
ATOM      1  C   UNL     1       0.412  -2.307   0.018  1.00  0.00     0.275 C 
ENDROOT
BRANCH   1   2
ATOM      2  C   UNL     1       0.022  -0.867  -0.315  1.00  0.00     0.274 C 
BRANCH   2   3
ATOM      3  O   UNL     1      -0.253  -0.690  -1.720  1.00  0.00    -0.462 OA
BRANCH   3   4
ATOM      4  C   UNL     1       0.818  -0.259  -2.453  1.00  0.00     0.313 C 
ATOM      5  O   UNL     1       1.930  -0.067  -1.976  1.00  0.00    -0.252 OA
BRANCH   4   6
ATOM      6  C   UNL     1       0.444   0.018  -3.921  1.00  0.00     0.132 C 
BRANCH   6   7
ATOM      7  C   UNL     1       1.131   1.383  -4.314  1.00  0.00     0.007 C 
BRANCH   7   8
ATOM      8  C   UNL     1       2.684   1.327  -4.414  1.00  0.00     0.001 C 
ATOM      9  C   UNL     1       3.355   2.348  -5.316  1.00  0.00     0.004 C 
ENDBRANCH   7   8
BRANCH   7  10
ATOM     10  C   UNL     1       0.361   2.187  -5.390  1.00  0.00     0.001 C 
ATOM     11  C   UNL     1       0.143   1.555  -6.751  1.00  0.00     0.004 C 
ENDBRANCH   7  10
ENDBRANCH   6   7
BRANCH   6  12
ATOM     12  C   UNL     1       0.589  -1.222  -4.815  1.00  0.00    -0.034 A 
ATOM     13  C   UNL     1      -0.170  -2.372  -4.519  1.00  0.00     0.004 A 
ATOM     14  C   UNL     1       1.420  -1.293  -5.945  1.00  0.00     0.004 A 
ATOM     15  C   UNL     1      -0.072  -3.536  -5.294  1.00  0.00     0.000 A 
ATOM     16  C   UNL     1       1.512  -2.450  -6.728  1.00  0.00     0.000 A 
ATOM     17  C   UNL     1       0.770  -3.575  -6.399  1.00  0.00     0.000 A 
ENDBRANCH   6  12
ENDBRANCH   4   6
ENDBRANCH   3   4
ENDBRANCH   2   3
ENDBRANCH   1   2
BRANCH   1  18
ATOM     18  O   UNL     1       1.497  -2.732  -0.818  1.00  0.00    -0.458 OA
BRANCH  18  19
ATOM     19  C   UNL     1       1.354  -3.936  -1.416  1.00  0.00     0.338 C 
ATOM     20  O   UNL     1       0.442  -4.737  -1.234  1.00  0.00    -0.246 OA
BRANCH  19  21
ATOM     21  C   UNL     1       2.464  -4.174  -2.360  1.00  0.00     0.060 A 
ATOM     22  C   UNL     1       2.956  -3.142  -3.157  1.00  0.00     0.016 A 
ATOM     23  C   UNL     1       2.961  -5.467  -2.525  1.00  0.00     0.016 A 
ATOM     24  C   UNL     1       3.871  -3.406  -4.171  1.00  0.00     0.010 A 
ATOM     25  C   UNL     1       3.959  -5.711  -3.474  1.00  0.00     0.010 A 
ATOM     26  C   UNL     1       4.407  -4.687  -4.327  1.00  0.00    -0.014 A 
BRANCH  26  27
ATOM     27  C   UNL     1       5.431  -4.962  -5.371  1.00  0.00     0.031 A 
ATOM     28  C   UNL     1       5.195  -6.036  -6.397  1.00  0.00     0.074 A 
ATOM     29  C   UNL     1       6.587  -4.268  -5.385  1.00  0.00     0.049 A 
ATOM     30  N   UNL     1       6.044  -6.588  -7.224  1.00  0.00    -0.248 NA
ATOM     31  C   UNL     1       3.825  -6.566  -6.501  1.00  0.00     0.031 C 
ATOM     32  C   UNL     1       6.926  -3.165  -4.483  1.00  0.00     0.029 A 
ATOM     33  N   UNL     1       7.702  -4.399  -6.176  1.00  0.00    -0.354 N 
ATOM     34  C   UNL     1       5.335  -7.579  -7.891  1.00  0.00     0.074 A 
ATOM     35  C   UNL     1       3.978  -7.540  -7.388  1.00  0.00     0.031 C 
ATOM     36  C   UNL     1       8.151  -2.709  -4.781  1.00  0.00     0.029 A 
ATOM     37  C   UNL     1       8.727  -3.553  -5.820  1.00  0.00     0.049 A 
ATOM     38  H   UNL     1       7.763  -5.036  -6.925  1.00  0.00     0.167 HD
ATOM     39  C   UNL     1       5.776  -8.439  -8.839  1.00  0.00     0.034 A 
ATOM     40  C   UNL     1      10.009  -3.499  -6.230  1.00  0.00     0.034 A 
ATOM     41  C   UNL     1       7.109  -8.427  -9.381  1.00  0.00     0.049 A 
ATOM     42  C   UNL     1      10.492  -4.503  -7.235  1.00  0.00     0.074 A 
ATOM     43  C   UNL     1       7.642  -9.230 -10.373  1.00  0.00     0.029 A 
ATOM     44  N   UNL     1       8.117  -7.565  -8.979  1.00  0.00    -0.354 N 
ATOM     45  N   UNL     1       9.810  -5.423  -7.873  1.00  0.00    -0.248 NA
ATOM     46  C   UNL     1      11.923  -4.473  -7.568  1.00  0.00     0.031 C 
ATOM     47  C   UNL     1       8.979  -8.861 -10.562  1.00  0.00     0.029 A 
ATOM     48  C   UNL     1       9.275  -7.824  -9.692  1.00  0.00     0.049 A 
ATOM     49  H   UNL     1       8.023  -6.870  -8.288  1.00  0.00     0.167 HD
ATOM     50  C   UNL     1      10.726  -6.082  -8.684  1.00  0.00     0.074 A 
ATOM     51  C   UNL     1      12.006  -5.432  -8.482  1.00  0.00     0.031 C 
ATOM     52  C   UNL     1      10.531  -7.145  -9.501  1.00  0.00     0.034 A 
BRANCH  39  53
ATOM     53  C   UNL     1       4.801  -9.455  -9.370  1.00  0.00     0.023 A 
ATOM     54  C   UNL     1       3.815  -9.060 -10.296  1.00  0.00     0.012 A 
ATOM     55  C   UNL     1       4.889 -10.808  -8.988  1.00  0.00     0.148 A 
ATOM     56  C   UNL     1       2.917  -9.992 -10.815  1.00  0.00     0.002 A 
ATOM     57  C   UNL     1       4.011 -11.738  -9.536  1.00  0.00     0.091 A 
ATOM     58  F   UNL     1       5.814 -11.161  -8.083  1.00  0.00    -0.205 F 
ATOM     59  C   UNL     1       3.021 -11.330 -10.444  1.00  0.00     0.022 A 
BRANCH  57  60
ATOM     60  S   UNL     1       4.117 -13.491  -9.158  1.00  0.00     0.127 S 
ATOM     61  O   UNL     1       3.048 -13.647  -8.173  1.00  0.00    -0.237 OA
ATOM     62  O   UNL     1       3.842 -14.110 -10.457  1.00  0.00    -0.237 OA
ATOM     63  O   UNL     1       5.470 -13.707  -8.665  1.00  0.00    -0.744 OA
ENDBRANCH  57  60
ENDBRANCH  39  53
BRANCH  40  64
ATOM     64  C   UNL     1      10.920  -2.462  -5.667  1.00  0.00     0.023 A 
ATOM     65  C   UNL     1      11.363  -1.414  -6.494  1.00  0.00     0.012 A 
ATOM     66  C   UNL     1      11.287  -2.465  -4.306  1.00  0.00     0.148 A 
ATOM     67  C   UNL     1      12.154  -0.387  -5.976  1.00  0.00     0.002 A 
ATOM     68  C   UNL     1      12.021  -1.407  -3.783  1.00  0.00     0.091 A 
ATOM     69  F   UNL     1      10.885  -3.490  -3.540  1.00  0.00    -0.205 F 
ATOM     70  C   UNL     1      12.467  -0.373  -4.619  1.00  0.00     0.022 A 
BRANCH  68  71
ATOM     71  S   UNL     1      12.324  -1.238  -2.019  1.00  0.00     0.127 S 
ATOM     72  O   UNL     1      13.725  -1.636  -1.917  1.00  0.00    -0.237 OA
ATOM     73  O   UNL     1      12.070   0.186  -1.799  1.00  0.00    -0.237 OA
ATOM     74  O   UNL     1      11.361  -2.121  -1.375  1.00  0.00    -0.744 OA
ENDBRANCH  68  71
ENDBRANCH  40  64
BRANCH  52  75
ATOM     75  C   UNL     1      11.730  -7.681 -10.233  1.00  0.00     0.023 A 
ATOM     76  C   UNL     1      12.662  -8.474  -9.536  1.00  0.00     0.012 A 
ATOM     77  C   UNL     1      11.897  -7.465 -11.614  1.00  0.00     0.148 A 
ATOM     78  C   UNL     1      13.754  -9.030 -10.199  1.00  0.00     0.002 A 
ATOM     79  C   UNL     1      12.967  -8.054 -12.277  1.00  0.00     0.091 A 
ATOM     80  F   UNL     1      11.007  -6.691 -12.252  1.00  0.00    -0.205 F 
ATOM     81  C   UNL     1      13.901  -8.830 -11.569  1.00  0.00     0.022 A 
BRANCH  79  82
ATOM     82  S   UNL     1      13.195  -7.917 -14.053  1.00  0.00     0.127 S 
ATOM     83  O   UNL     1      14.346  -7.020 -14.138  1.00  0.00    -0.237 OA
ATOM     84  O   UNL     1      13.470  -9.301 -14.439  1.00  0.00    -0.237 OA
ATOM     85  O   UNL     1      11.946  -7.381 -14.577  1.00  0.00    -0.744 OA
ENDBRANCH  79  82
ENDBRANCH  52  75
ENDBRANCH  26  27
ENDBRANCH  19  21
ENDBRANCH  18  19
ENDBRANCH   1  18
TORSDOF 18
