REMARK SMILES COc1cc(C)cc2c1[C@@H](C)[C@@H](CC(=O)N[C@@H](Cc1c[nH]c3ccccc13)C(=O)OCCOC(=O)c1ccc(-c3c4nc(c(-c5cccc(S(=O)(=O)[O-])c5F)c5ccc([nH]5)c(-c5cccc(S(=O)(=O)[O-])c5F)c5nc(c(-c6cccc(S(=O)(=O)[O-])c6F)c6ccc3[nH]6)C=C5)C=C4)cc1)C(=O)O2
REMARK SMILES IDX 31 1 30 2 28 3 29 4 17 5 16 6 14 7 15 8 13 10 12 11 3 12
REMARK SMILES IDX 4 13 9 14 5 15 8 16 10 17 6 18 7 19 101 20 11 21 99 22
REMARK SMILES IDX 100 23 2 24 1 25 18 26 19 27 20 28 27 29 21 30 22 31 26 32
REMARK SMILES IDX 23 34 25 35 24 36 32 37 33 38 34 39 35 40 36 41 37 42 98 43
REMARK SMILES IDX 38 44 97 45 39 46 40 47 41 48 91 49 42 50 96 51 90 52 92 53
REMARK SMILES IDX 43 54 95 55 89 56 88 57 44 59 76 60 56 61 75 62 57 63 60 64
REMARK SMILES IDX 74 65 93 66 58 67 59 68 73 70 94 71 61 72 45 73 46 74 54 75
REMARK SMILES IDX 47 76 49 77 55 78 48 79 50 80 51 81 52 82 53 83 77 84 78 85
REMARK SMILES IDX 86 86 79 87 81 88 87 89 80 90 82 91 83 92 84 93 85 94 62 95
REMARK SMILES IDX 63 96 71 97 64 98 66 99 72 100 65 101 67 102 68 103 69 104
REMARK SMILES IDX 70 105
REMARK H PARENT 16 9 21 33 92 58 60 69
REMARK Flexibility Score: inf
ROOT
ATOM      1  C   UNL     1      -1.544  -3.965  -9.080  1.00  0.00     0.274 C 
ENDROOT
BRANCH   1   2
ATOM      2  O   UNL     1      -2.368  -3.608  -7.951  1.00  0.00    -0.461 OA
BRANCH   2   3
ATOM      3  C   UNL     1      -2.104  -4.294  -6.814  1.00  0.00     0.329 C 
ATOM      4  O   UNL     1      -1.296  -5.217  -6.732  1.00  0.00    -0.250 OA
BRANCH   3   5
ATOM      5  C   UNL     1      -2.987  -3.905  -5.630  1.00  0.00     0.196 C 
BRANCH   5   6
ATOM      6  N   UNL     1      -3.581  -2.583  -5.521  1.00  0.00    -0.342 N 
ATOM      7  C   UNL     1      -3.942  -1.926  -4.368  1.00  0.00     0.221 C 
ATOM      8  O   UNL     1      -4.910  -1.169  -4.376  1.00  0.00    -0.275 OA
ATOM      9  H   UNL     1      -3.742  -2.104  -6.367  1.00  0.00     0.164 HD
BRANCH   7  10
ATOM     10  C   UNL     1      -3.010  -1.991  -3.166  1.00  0.00     0.116 C 
BRANCH  10  11
ATOM     11  C   UNL     1      -3.462  -2.736  -1.888  1.00  0.00     0.116 C 
ATOM     12  C   UNL     1       0.160  -2.898  -1.197  1.00  0.00     0.126 A 
ATOM     13  C   UNL     1       1.147  -3.361  -2.082  1.00  0.00     0.050 A 
ATOM     14  C   UNL     1      -1.150  -3.370  -1.328  1.00  0.00     0.041 A 
ATOM     15  C   UNL     1       0.840  -4.300  -3.087  1.00  0.00    -0.044 A 
ATOM     16  C   UNL     1      -1.375  -4.443  -2.204  1.00  0.00     0.138 A 
ATOM     17  C   UNL     1      -2.397  -2.721  -0.747  1.00  0.00     0.038 C 
ATOM     18  C   UNL     1       1.789  -4.636  -4.196  1.00  0.00     0.044 C 
ATOM     19  C   UNL     1      -0.402  -4.920  -3.069  1.00  0.00     0.051 A 
ATOM     20  O   UNL     1      -2.659  -4.997  -2.352  1.00  0.00    -0.426 OA
ATOM     21  C   UNL     1      -2.277  -1.307  -0.176  1.00  0.00     0.014 C 
ATOM     22  C   UNL     1      -3.762  -4.196  -2.095  1.00  0.00     0.315 C 
ATOM     23  O   UNL     1      -4.896  -4.662  -2.059  1.00  0.00    -0.251 OA
BRANCH  12  24
ATOM     24  O   UNL     1       0.416  -2.059  -0.153  1.00  0.00    -0.496 OA
ATOM     25  C   UNL     1       1.272  -0.946  -0.395  1.00  0.00     0.278 C 
ENDBRANCH  12  24
ENDBRANCH  10  11
ENDBRANCH   7  10
ENDBRANCH   5   6
BRANCH   5  26
ATOM     26  C   UNL     1      -3.981  -5.043  -5.408  1.00  0.00     0.074 C 
BRANCH  26  27
ATOM     27  C   UNL     1      -5.332  -5.212  -6.061  1.00  0.00    -0.020 A 
ATOM     28  C   UNL     1      -5.870  -6.491  -6.131  1.00  0.00     0.087 A 
ATOM     29  C   UNL     1      -6.418  -4.316  -6.391  1.00  0.00     0.003 A 
ATOM     30  N   UNL     1      -7.225  -6.372  -6.055  1.00  0.00    -0.361 N 
ATOM     31  C   UNL     1      -7.594  -5.067  -6.248  1.00  0.00     0.046 A 
ATOM     32  C   UNL     1      -6.595  -2.947  -6.695  1.00  0.00     0.010 A 
ATOM     33  H   UNL     1      -7.848  -7.115  -5.886  1.00  0.00     0.166 HD
ATOM     34  C   UNL     1      -8.882  -4.512  -6.261  1.00  0.00     0.026 A 
ATOM     35  C   UNL     1      -7.879  -2.385  -6.783  1.00  0.00     0.001 A 
ATOM     36  C   UNL     1      -9.007  -3.153  -6.535  1.00  0.00     0.002 A 
ENDBRANCH  26  27
ENDBRANCH   5  26
ENDBRANCH   3   5
ENDBRANCH   2   3
ENDBRANCH   1   2
BRANCH   1  37
ATOM     37  C   UNL     1      -0.712  -2.769  -9.541  1.00  0.00     0.275 C 
BRANCH  37  38
ATOM     38  O   UNL     1       0.286  -2.409  -8.566  1.00  0.00    -0.458 OA
BRANCH  38  39
ATOM     39  C   UNL     1      -0.130  -1.517  -7.629  1.00  0.00     0.338 C 
ATOM     40  O   UNL     1      -1.233  -1.016  -7.554  1.00  0.00    -0.246 OA
BRANCH  39  41
ATOM     41  C   UNL     1       0.925  -1.309  -6.608  1.00  0.00     0.060 A 
ATOM     42  C   UNL     1       2.293  -1.278  -6.909  1.00  0.00     0.016 A 
ATOM     43  C   UNL     1       0.502  -1.092  -5.299  1.00  0.00     0.016 A 
ATOM     44  C   UNL     1       3.236  -1.033  -5.893  1.00  0.00     0.010 A 
ATOM     45  C   UNL     1       1.444  -0.873  -4.294  1.00  0.00     0.010 A 
ATOM     46  C   UNL     1       2.823  -0.841  -4.568  1.00  0.00    -0.014 A 
BRANCH  46  47
ATOM     47  C   UNL     1       3.780  -0.508  -3.472  1.00  0.00     0.031 A 
ATOM     48  C   UNL     1       4.685  -1.538  -2.839  1.00  0.00     0.074 A 
ATOM     49  C   UNL     1       3.746   0.733  -2.949  1.00  0.00     0.049 A 
ATOM     50  N   UNL     1       5.483  -1.419  -1.808  1.00  0.00    -0.248 NA
ATOM     51  C   UNL     1       4.641  -2.894  -3.391  1.00  0.00     0.031 C 
ATOM     52  C   UNL     1       2.875   1.815  -3.408  1.00  0.00     0.029 A 
ATOM     53  N   UNL     1       4.446   1.286  -1.907  1.00  0.00    -0.354 N 
ATOM     54  C   UNL     1       5.967  -2.698  -1.541  1.00  0.00     0.074 A 
ATOM     55  C   UNL     1       5.345  -3.582  -2.502  1.00  0.00     0.031 C 
ATOM     56  C   UNL     1       3.087   2.900  -2.649  1.00  0.00     0.029 A 
ATOM     57  C   UNL     1       4.137   2.604  -1.679  1.00  0.00     0.049 A 
ATOM     58  H   UNL     1       5.107   0.786  -1.374  1.00  0.00     0.167 HD
ATOM     59  C   UNL     1       6.874  -3.097  -0.613  1.00  0.00     0.034 A 
ATOM     60  C   UNL     1       4.674   3.499  -0.829  1.00  0.00     0.034 A 
ATOM     61  C   UNL     1       7.592  -2.193   0.245  1.00  0.00     0.049 A 
ATOM     62  C   UNL     1       5.836   3.098   0.031  1.00  0.00     0.074 A 
ATOM     63  C   UNL     1       8.616  -2.474   1.133  1.00  0.00     0.029 A 
ATOM     64  N   UNL     1       7.382  -0.825   0.297  1.00  0.00    -0.354 N 
ATOM     65  N   UNL     1       6.385   1.916   0.163  1.00  0.00    -0.248 NA
ATOM     66  C   UNL     1       6.493   4.158   0.809  1.00  0.00     0.031 C 
ATOM     67  C   UNL     1       9.027  -1.272   1.720  1.00  0.00     0.029 A 
ATOM     68  C   UNL     1       8.263  -0.245   1.190  1.00  0.00     0.049 A 
ATOM     69  H   UNL     1       6.704  -0.338  -0.225  1.00  0.00     0.167 HD
ATOM     70  C   UNL     1       7.468   2.092   1.014  1.00  0.00     0.074 A 
ATOM     71  C   UNL     1       7.506   3.498   1.360  1.00  0.00     0.031 C 
ATOM     72  C   UNL     1       8.339   1.164   1.476  1.00  0.00     0.034 A 
BRANCH  59  73
ATOM     73  C   UNL     1       7.214  -4.567  -0.526  1.00  0.00     0.023 A 
ATOM     74  C   UNL     1       7.978  -5.165  -1.549  1.00  0.00     0.012 A 
ATOM     75  C   UNL     1       6.845  -5.338   0.596  1.00  0.00     0.148 A 
ATOM     76  C   UNL     1       8.326  -6.514  -1.485  1.00  0.00     0.002 A 
ATOM     77  C   UNL     1       7.227  -6.675   0.671  1.00  0.00     0.091 A 
ATOM     78  F   UNL     1       6.138  -4.750   1.571  1.00  0.00    -0.205 F 
ATOM     79  C   UNL     1       7.954  -7.267  -0.375  1.00  0.00     0.022 A 
BRANCH  77  80
ATOM     80  S   UNL     1       6.855  -7.728   2.080  1.00  0.00     0.127 S 
ATOM     81  O   UNL     1       6.023  -8.762   1.464  1.00  0.00    -0.237 OA
ATOM     82  O   UNL     1       8.187  -8.179   2.482  1.00  0.00    -0.237 OA
ATOM     83  O   UNL     1       6.172  -6.884   3.049  1.00  0.00    -0.744 OA
ENDBRANCH  77  80
ENDBRANCH  59  73
BRANCH  60  84
ATOM     84  C   UNL     1       4.229   4.913  -0.931  1.00  0.00     0.023 A 
ATOM     85  C   UNL     1       4.987   5.792  -1.730  1.00  0.00     0.012 A 
ATOM     86  C   UNL     1       3.010   5.347  -0.381  1.00  0.00     0.148 A 
ATOM     87  C   UNL     1       4.538   7.087  -1.979  1.00  0.00     0.002 A 
ATOM     88  C   UNL     1       2.554   6.630  -0.659  1.00  0.00     0.091 A 
ATOM     89  F   UNL     1       2.308   4.483   0.365  1.00  0.00    -0.205 F 
ATOM     90  C   UNL     1       3.318   7.502  -1.453  1.00  0.00     0.022 A 
BRANCH  88  91
ATOM     91  S   UNL     1       0.944   7.222  -0.124  1.00  0.00     0.127 S 
ATOM     92  O   UNL     1       1.314   8.224   0.873  1.00  0.00    -0.237 OA
ATOM     93  O   UNL     1       0.393   7.763  -1.367  1.00  0.00    -0.237 OA
ATOM     94  O   UNL     1       0.246   6.051   0.386  1.00  0.00    -0.744 OA
ENDBRANCH  88  91
ENDBRANCH  60  84
BRANCH  72  95
ATOM     95  C   UNL     1       9.440   1.603   2.399  1.00  0.00     0.023 A 
ATOM     96  C   UNL     1       9.160   1.775   3.768  1.00  0.00     0.012 A 
ATOM     97  C   UNL     1      10.771   1.664   1.944  1.00  0.00     0.148 A 
ATOM     98  C   UNL     1      10.195   1.992   4.676  1.00  0.00     0.002 A 
ATOM     99  C   UNL     1      11.800   1.848   2.859  1.00  0.00     0.091 A 
ATOM    100  F   UNL     1      11.004   1.516   0.632  1.00  0.00    -0.205 F 
ATOM    101  C   UNL     1      11.514   2.013   4.225  1.00  0.00     0.022 A 
BRANCH  99 102
ATOM    102  S   UNL     1      13.533   1.798   2.386  1.00  0.00     0.127 S 
ATOM    103  O   UNL     1      13.931   3.194   2.564  1.00  0.00    -0.237 OA
ATOM    104  O   UNL     1      14.096   0.872   3.369  1.00  0.00    -0.237 OA
ATOM    105  O   UNL     1      13.561   1.314   1.012  1.00  0.00    -0.744 OA
ENDBRANCH  99 102
ENDBRANCH  72  95
ENDBRANCH  46  47
ENDBRANCH  39  41
ENDBRANCH  38  39
ENDBRANCH  37  38
ENDBRANCH   1  37
TORSDOF 20
