REMARK SMILES CC1(C)[C@H]2CC[C@]1(C)[C@H](NC(=O)CCC(=O)OCCOC(=O)c1ccc(-c3c4nc(c(-c5cccc(S(=O)(=O)[O-])c5F)c5ccc([nH]5)c(-c5cccc(S(=O)(=O)[O-])c5F)c5nc(c(-c6cccc(S(=O)(=O)[O-])c6F)c6ccc3[nH]6)C=C5)C=C4)cc1)C2
REMARK SMILES IDX 18 1 17 2 15 3 16 4 14 5 13 6 11 7 10 8 12 10 9 11 1 12 2 13
REMARK SMILES IDX 3 14 4 15 7 16 5 17 86 18 6 19 8 20 19 21 20 22 21 23 22 24
REMARK SMILES IDX 23 25 24 26 85 27 25 28 84 29 26 30 27 31 28 32 78 33 29 34
REMARK SMILES IDX 83 35 77 36 79 37 30 38 82 39 76 40 75 41 31 43 63 44 43 45
REMARK SMILES IDX 62 46 44 47 47 48 61 49 80 50 45 51 46 52 60 54 81 55 48 56
REMARK SMILES IDX 32 57 33 58 41 59 34 60 36 61 42 62 35 63 37 64 38 65 39 66
REMARK SMILES IDX 40 67 64 68 65 69 73 70 66 71 68 72 74 73 67 74 69 75 70 76
REMARK SMILES IDX 71 77 72 78 49 79 50 80 58 81 51 82 53 83 59 84 52 85 54 86
REMARK SMILES IDX 55 87 56 88 57 89
REMARK H PARENT 10 9 79 42 47 53
REMARK Flexibility Score: inf
ROOT
ATOM      1  C   UNL     1       0.219   0.505   3.634  1.00  0.00     0.274 C 
ENDROOT
BRANCH   1   2
ATOM      2  O   UNL     1      -1.093   0.167   3.022  1.00  0.00    -0.462 OA
BRANCH   2   3
ATOM      3  C   UNL     1      -1.955   1.174   2.646  1.00  0.00     0.306 C 
ATOM      4  O   UNL     1      -1.638   2.359   2.707  1.00  0.00    -0.252 OA
BRANCH   3   5
ATOM      5  C   UNL     1      -3.434   0.727   2.225  1.00  0.00     0.132 C 
BRANCH   5   6
ATOM      6  C   UNL     1      -3.960  -0.097   0.961  1.00  0.00     0.111 C 
BRANCH   6   7
ATOM      7  C   UNL     1      -3.812  -1.670   0.721  1.00  0.00     0.220 C 
ATOM      8  N   UNL     1      -2.756  -2.285   0.028  1.00  0.00    -0.353 N 
ATOM      9  H   UNL     1      -3.015  -3.047  -0.539  1.00  0.00     0.163 HD
ATOM     10  O   UNL     1      -4.759  -2.402   1.036  1.00  0.00    -0.275 OA
BRANCH   8  11
ATOM     11  C   UNL     1      -1.301  -1.956   0.022  1.00  0.00     0.088 C 
ATOM     12  C   UNL     1       0.746   0.269  -2.681  1.00  0.00     0.012 C 
ATOM     13  C   UNL     1       0.075  -0.159  -1.362  1.00  0.00    -0.025 C 
ATOM     14  C   UNL     1       0.863   0.684  -0.373  1.00  0.00     0.012 C 
ATOM     15  C   UNL     1      -1.341   0.203  -1.051  1.00  0.00    -0.003 C 
ATOM     16  C   UNL     1      -0.344  -1.742  -1.251  1.00  0.00    -0.007 C 
ATOM     17  C   UNL     1      -2.080  -0.505  -2.226  1.00  0.00     0.005 C 
ATOM     18  C   UNL     1      -1.282  -0.542   0.326  1.00  0.00     0.029 C 
ATOM     19  C   UNL     1      -1.295  -1.828  -2.441  1.00  0.00     0.010 C 
ATOM     20  C   UNL     1       0.885  -2.625  -1.198  1.00  0.00     0.014 C 
ENDBRANCH   8  11
ENDBRANCH   6   7
ENDBRANCH   5   6
ENDBRANCH   3   5
ENDBRANCH   2   3
ENDBRANCH   1   2
BRANCH   1  21
ATOM     21  C   UNL     1       1.545   0.126   2.870  1.00  0.00     0.275 C 
BRANCH  21  22
ATOM     22  O   UNL     1       2.162   1.281   2.217  1.00  0.00    -0.458 OA
BRANCH  22  23
ATOM     23  C   UNL     1       3.297   1.099   1.458  1.00  0.00     0.338 C 
ATOM     24  O   UNL     1       4.000   0.087   1.487  1.00  0.00    -0.246 OA
BRANCH  23  25
ATOM     25  C   UNL     1       3.399   2.157   0.369  1.00  0.00     0.060 A 
ATOM     26  C   UNL     1       2.403   3.128   0.299  1.00  0.00     0.016 A 
ATOM     27  C   UNL     1       4.245   2.023  -0.753  1.00  0.00     0.016 A 
ATOM     28  C   UNL     1       2.155   3.801  -0.906  1.00  0.00     0.010 A 
ATOM     29  C   UNL     1       4.108   2.876  -1.890  1.00  0.00     0.010 A 
ATOM     30  C   UNL     1       3.057   3.802  -1.979  1.00  0.00    -0.014 A 
BRANCH  30  31
ATOM     31  C   UNL     1       2.952   4.882  -3.035  1.00  0.00     0.031 A 
ATOM     32  C   UNL     1       3.113   4.633  -4.526  1.00  0.00     0.074 A 
ATOM     33  C   UNL     1       2.753   6.164  -2.634  1.00  0.00     0.049 A 
ATOM     34  N   UNL     1       3.393   5.491  -5.482  1.00  0.00    -0.248 NA
ATOM     35  C   UNL     1       2.902   3.263  -5.016  1.00  0.00     0.031 C 
ATOM     36  C   UNL     1       2.483   6.605  -1.259  1.00  0.00     0.029 A 
ATOM     37  N   UNL     1       2.785   7.353  -3.335  1.00  0.00    -0.354 N 
ATOM     38  C   UNL     1       3.466   4.762  -6.669  1.00  0.00     0.074 A 
ATOM     39  C   UNL     1       3.147   3.391  -6.319  1.00  0.00     0.031 C 
ATOM     40  C   UNL     1       2.362   7.931  -1.214  1.00  0.00     0.029 A 
ATOM     41  C   UNL     1       2.735   8.457  -2.508  1.00  0.00     0.049 A 
ATOM     42  H   UNL     1       2.837   7.407  -4.317  1.00  0.00     0.167 HD
ATOM     43  C   UNL     1       3.784   5.194  -7.920  1.00  0.00     0.034 A 
ATOM     44  C   UNL     1       3.078   9.745  -2.689  1.00  0.00     0.034 A 
ATOM     45  C   UNL     1       4.059   6.573  -8.259  1.00  0.00     0.049 A 
ATOM     46  C   UNL     1       3.564  10.179  -4.030  1.00  0.00     0.074 A 
ATOM     47  C   UNL     1       4.410   7.109  -9.490  1.00  0.00     0.029 A 
ATOM     48  N   UNL     1       4.014   7.636  -7.370  1.00  0.00    -0.354 N 
ATOM     49  N   UNL     1       3.686   9.471  -5.124  1.00  0.00    -0.248 NA
ATOM     50  C   UNL     1       3.944  11.589  -4.168  1.00  0.00     0.031 C 
ATOM     51  C   UNL     1       4.615   8.485  -9.334  1.00  0.00     0.029 A 
ATOM     52  C   UNL     1       4.345   8.817  -8.017  1.00  0.00     0.049 A 
ATOM     53  H   UNL     1       3.780   7.564  -6.417  1.00  0.00     0.167 HD
ATOM     54  C   UNL     1       4.117  10.360  -6.096  1.00  0.00     0.074 A 
ATOM     55  C   UNL     1       4.224  11.659  -5.462  1.00  0.00     0.031 C 
ATOM     56  C   UNL     1       4.401  10.116  -7.397  1.00  0.00     0.034 A 
BRANCH  43  57
ATOM     57  C   UNL     1       3.892   4.177  -9.041  1.00  0.00     0.023 A 
ATOM     58  C   UNL     1       2.734   3.618  -9.616  1.00  0.00     0.012 A 
ATOM     59  C   UNL     1       5.152   3.860  -9.599  1.00  0.00     0.148 A 
ATOM     60  C   UNL     1       2.828   2.736 -10.698  1.00  0.00     0.002 A 
ATOM     61  C   UNL     1       5.236   3.011 -10.700  1.00  0.00     0.091 A 
ATOM     62  F   UNL     1       6.247   4.403  -9.049  1.00  0.00    -0.205 F 
ATOM     63  C   UNL     1       4.075   2.439 -11.243  1.00  0.00     0.022 A 
BRANCH  61  64
ATOM     64  S   UNL     1       6.790   2.626 -11.521  1.00  0.00     0.127 S 
ATOM     65  O   UNL     1       6.973   1.221 -11.159  1.00  0.00    -0.237 OA
ATOM     66  O   UNL     1       6.462   2.854 -12.929  1.00  0.00    -0.237 OA
ATOM     67  O   UNL     1       7.775   3.545 -10.970  1.00  0.00    -0.744 OA
ENDBRANCH  61  64
ENDBRANCH  43  57
BRANCH  44  68
ATOM     68  C   UNL     1       3.035  10.689  -1.533  1.00  0.00     0.023 A 
ATOM     69  C   UNL     1       2.080  11.721  -1.519  1.00  0.00     0.012 A 
ATOM     70  C   UNL     1       3.891  10.527  -0.421  1.00  0.00     0.148 A 
ATOM     71  C   UNL     1       1.994  12.590  -0.430  1.00  0.00     0.002 A 
ATOM     72  C   UNL     1       3.752  11.352   0.688  1.00  0.00     0.091 A 
ATOM     73  F   UNL     1       4.801   9.543  -0.455  1.00  0.00    -0.205 F 
ATOM     74  C   UNL     1       2.817  12.397   0.677  1.00  0.00     0.022 A 
BRANCH  72  75
ATOM     75  S   UNL     1       4.661  11.076   2.214  1.00  0.00     0.127 S 
ATOM     76  O   UNL     1       5.605  12.190   2.204  1.00  0.00    -0.237 OA
ATOM     77  O   UNL     1       3.602  11.175   3.219  1.00  0.00    -0.237 OA
ATOM     78  O   UNL     1       5.245   9.748   2.090  1.00  0.00    -0.744 OA
ENDBRANCH  72  75
ENDBRANCH  44  68
BRANCH  56  79
ATOM     79  C   UNL     1       4.783  11.296  -8.246  1.00  0.00     0.023 A 
ATOM     80  C   UNL     1       6.043  11.906  -8.091  1.00  0.00     0.012 A 
ATOM     81  C   UNL     1       3.896  11.777  -9.228  1.00  0.00     0.148 A 
ATOM     82  C   UNL     1       6.402  12.998  -8.879  1.00  0.00     0.002 A 
ATOM     83  C   UNL     1       4.281  12.830 -10.047  1.00  0.00     0.091 A 
ATOM     84  F   UNL     1       2.690  11.201  -9.337  1.00  0.00    -0.205 F 
ATOM     85  C   UNL     1       5.527  13.451  -9.865  1.00  0.00     0.022 A 
BRANCH  83  86
ATOM     86  S   UNL     1       3.261  13.418 -11.402  1.00  0.00     0.127 S 
ATOM     87  O   UNL     1       2.857  14.738 -10.922  1.00  0.00    -0.237 OA
ATOM     88  O   UNL     1       4.211  13.437 -12.515  1.00  0.00    -0.237 OA
ATOM     89  O   UNL     1       2.181  12.451 -11.544  1.00  0.00    -0.744 OA
ENDBRANCH  83  86
ENDBRANCH  56  79
ENDBRANCH  30  31
ENDBRANCH  23  25
ENDBRANCH  22  23
ENDBRANCH  21  22
ENDBRANCH   1  21
TORSDOF 17
