REMARK SMILES C[C@](Nc1ccc(C(N)=O)nn1)(C(=O)OCCOC(=O)c1ccc(-c2c3nc(c(-c4cccc(S(=O)(=O)[O-])c4F)c4ccc([nH]4)c(-c4cccc(S(=O)(=O)[O-])c4F)c4nc(c(-c5cccc(S(=O)(=O)[O-])c5F)c5ccc2[nH]5)C=C4)C=C3)cc1)c1ccccc1
REMARK SMILES IDX 16 1 15 2 13 3 14 4 2 5 1 6 84 7 85 8 89 9 86 10 88 11 87 12
REMARK SMILES IDX 3 13 4 15 5 16 12 17 6 18 11 19 7 20 8 21 9 22 10 23 17 26
REMARK SMILES IDX 18 27 19 28 20 29 21 30 22 31 83 32 23 33 82 34 24 35 25 36
REMARK SMILES IDX 26 37 76 38 27 39 81 40 75 41 77 42 28 43 80 44 74 45 73 46
REMARK SMILES IDX 29 48 61 49 41 50 60 51 42 52 45 53 59 54 78 55 43 56 44 57
REMARK SMILES IDX 58 59 79 60 46 61 30 62 31 63 39 64 32 65 34 66 40 67 33 68
REMARK SMILES IDX 35 69 36 70 37 71 38 72 62 73 63 74 71 75 64 76 66 77 72 78
REMARK SMILES IDX 65 79 67 80 68 81 69 82 70 83 47 84 48 85 56 86 49 87 51 88
REMARK SMILES IDX 57 89 50 90 52 91 53 92 54 93 55 94
REMARK H PARENT 3 14 9 24 9 25 77 47 45 58
REMARK Flexibility Score: inf
ROOT
ATOM      1  C   UNL     1      -2.561  -0.404  -0.919  1.00  0.00     0.274 C 
ENDROOT
BRANCH   1   2
ATOM      2  O   UNL     1      -1.128  -0.234  -0.821  1.00  0.00    -0.460 OA
BRANCH   2   3
ATOM      3  C   UNL     1      -0.604   0.769  -1.596  1.00  0.00     0.336 C 
ATOM      4  O   UNL     1      -1.288   1.507  -2.301  1.00  0.00    -0.249 OA
BRANCH   3   5
ATOM      5  C   UNL     1       0.962   0.785  -1.595  1.00  0.00     0.160 C 
ATOM      6  C   UNL     1       1.322   0.181  -2.977  1.00  0.00     0.053 C 
BRANCH   5   7
ATOM      7  C   UNL     1       1.462   2.233  -1.404  1.00  0.00    -0.012 A 
ATOM      8  C   UNL     1       1.896   2.704  -0.145  1.00  0.00     0.007 A 
ATOM      9  C   UNL     1       1.524   3.134  -2.484  1.00  0.00     0.007 A 
ATOM     10  C   UNL     1       2.473   3.970  -0.001  1.00  0.00     0.000 A 
ATOM     11  C   UNL     1       2.074   4.411  -2.332  1.00  0.00     0.000 A 
ATOM     12  C   UNL     1       2.571   4.819  -1.098  1.00  0.00     0.000 A 
ENDBRANCH   5   7
BRANCH   5  13
ATOM     13  N   UNL     1       1.520  -0.123  -0.568  1.00  0.00    -0.350 N 
ATOM     14  H   UNL     1       0.863  -0.562   0.019  1.00  0.00     0.163 HD
BRANCH  13  15
ATOM     15  C   UNL     1       2.836  -0.433  -0.329  1.00  0.00     0.149 A 
ATOM     16  C   UNL     1       3.916   0.278  -0.845  1.00  0.00     0.051 A 
ATOM     17  N   UNL     1       3.084  -1.482   0.486  1.00  0.00    -0.132 NA
ATOM     18  C   UNL     1       5.223  -0.055  -0.501  1.00  0.00     0.040 A 
ATOM     19  N   UNL     1       4.379  -1.856   0.810  1.00  0.00    -0.143 NA
ATOM     20  C   UNL     1       5.416  -1.135   0.329  1.00  0.00     0.150 A 
BRANCH  20  21
ATOM     21  C   UNL     1       6.791  -1.569   0.690  1.00  0.00     0.269 C 
ATOM     22  N   UNL     1       6.897  -2.757   1.361  1.00  0.00    -0.364 N 
ATOM     23  O   UNL     1       7.786  -0.921   0.387  1.00  0.00    -0.268 OA
ATOM     24  H   UNL     1       6.086  -3.264   1.595  1.00  0.00     0.160 HD
ATOM     25  H   UNL     1       7.784  -3.106   1.608  1.00  0.00     0.160 HD
ENDBRANCH  20  21
ENDBRANCH  13  15
ENDBRANCH   5  13
ENDBRANCH   3   5
ENDBRANCH   2   3
ENDBRANCH   1   2
BRANCH   1  26
ATOM     26  C   UNL     1      -3.277   0.187   0.293  1.00  0.00     0.275 C 
BRANCH  26  27
ATOM     27  O   UNL     1      -3.006   1.591   0.360  1.00  0.00    -0.458 OA
BRANCH  27  28
ATOM     28  C   UNL     1      -2.608   2.065   1.563  1.00  0.00     0.338 C 
ATOM     29  O   UNL     1      -2.552   1.438   2.617  1.00  0.00    -0.246 OA
BRANCH  28  30
ATOM     30  C   UNL     1      -2.196   3.472   1.432  1.00  0.00     0.060 A 
ATOM     31  C   UNL     1      -1.354   3.847   0.392  1.00  0.00     0.016 A 
ATOM     32  C   UNL     1      -2.542   4.401   2.410  1.00  0.00     0.016 A 
ATOM     33  C   UNL     1      -0.770   5.110   0.388  1.00  0.00     0.010 A 
ATOM     34  C   UNL     1      -2.019   5.702   2.353  1.00  0.00     0.010 A 
ATOM     35  C   UNL     1      -1.073   6.054   1.374  1.00  0.00    -0.014 A 
BRANCH  35  36
ATOM     36  C   UNL     1      -0.325   7.348   1.434  1.00  0.00     0.031 A 
ATOM     37  C   UNL     1       0.404   7.738   2.698  1.00  0.00     0.074 A 
ATOM     38  C   UNL     1      -0.233   8.160   0.360  1.00  0.00     0.049 A 
ATOM     39  N   UNL     1       0.951   8.883   3.019  1.00  0.00    -0.248 NA
ATOM     40  C   UNL     1       0.527   6.707   3.743  1.00  0.00     0.031 C 
ATOM     41  C   UNL     1      -0.816   7.900  -0.957  1.00  0.00     0.029 A 
ATOM     42  N   UNL     1       0.400   9.372   0.203  1.00  0.00    -0.354 N 
ATOM     43  C   UNL     1       1.387   8.743   4.332  1.00  0.00     0.074 A 
ATOM     44  C   UNL     1       1.068   7.392   4.740  1.00  0.00     0.031 C 
ATOM     45  C   UNL     1      -0.473   8.888  -1.796  1.00  0.00     0.029 A 
ATOM     46  C   UNL     1       0.264   9.907  -1.057  1.00  0.00     0.049 A 
ATOM     47  H   UNL     1       0.903   9.814   0.925  1.00  0.00     0.167 HD
ATOM     48  C   UNL     1       2.000   9.651   5.128  1.00  0.00     0.034 A 
ATOM     49  C   UNL     1       0.644  11.100  -1.557  1.00  0.00     0.034 A 
ATOM     50  C   UNL     1       2.414  10.959   4.698  1.00  0.00     0.049 A 
ATOM     51  C   UNL     1       1.323  12.094  -0.656  1.00  0.00     0.074 A 
ATOM     52  C   UNL     1       3.052  11.944   5.432  1.00  0.00     0.029 A 
ATOM     53  N   UNL     1       2.259  11.455   3.414  1.00  0.00    -0.354 N 
ATOM     54  N   UNL     1       1.708  11.953   0.588  1.00  0.00    -0.248 NA
ATOM     55  C   UNL     1       1.613  13.418  -1.229  1.00  0.00     0.031 C 
ATOM     56  C   UNL     1       3.282  13.038   4.590  1.00  0.00     0.029 A 
ATOM     57  C   UNL     1       2.793  12.730   3.332  1.00  0.00     0.049 A 
ATOM     58  H   UNL     1       1.832  10.973   2.670  1.00  0.00     0.167 HD
ATOM     59  C   UNL     1       2.291  13.163   0.946  1.00  0.00     0.074 A 
ATOM     60  C   UNL     1       2.244  14.014  -0.225  1.00  0.00     0.031 C 
ATOM     61  C   UNL     1       2.792  13.547   2.146  1.00  0.00     0.034 A 
BRANCH  48  62
ATOM     62  C   UNL     1       2.270   9.256   6.555  1.00  0.00     0.023 A 
ATOM     63  C   UNL     1       3.343   8.396   6.858  1.00  0.00     0.012 A 
ATOM     64  C   UNL     1       1.479   9.773   7.600  1.00  0.00     0.148 A 
ATOM     65  C   UNL     1       3.607   8.033   8.179  1.00  0.00     0.002 A 
ATOM     66  C   UNL     1       1.771   9.436   8.917  1.00  0.00     0.091 A 
ATOM     67  F   UNL     1       0.444  10.566   7.290  1.00  0.00    -0.205 F 
ATOM     68  C   UNL     1       2.829   8.560   9.208  1.00  0.00     0.022 A 
BRANCH  66  69
ATOM     69  S   UNL     1       0.860  10.130  10.301  1.00  0.00     0.127 S 
ATOM     70  O   UNL     1      -0.070   9.047  10.617  1.00  0.00    -0.237 OA
ATOM     71  O   UNL     1       1.911  10.339  11.298  1.00  0.00    -0.237 OA
ATOM     72  O   UNL     1       0.258  11.357   9.798  1.00  0.00    -0.744 OA
ENDBRANCH  66  69
ENDBRANCH  48  62
BRANCH  49  73
ATOM     73  C   UNL     1       0.387  11.422  -2.991  1.00  0.00     0.023 A 
ATOM     74  C   UNL     1       1.476  11.556  -3.874  1.00  0.00     0.012 A 
ATOM     75  C   UNL     1      -0.922  11.553  -3.494  1.00  0.00     0.148 A 
ATOM     76  C   UNL     1       1.265  11.826  -5.227  1.00  0.00     0.002 A 
ATOM     77  C   UNL     1      -1.127  11.754  -4.854  1.00  0.00     0.091 A 
ATOM     78  F   UNL     1      -1.947  11.460  -2.635  1.00  0.00    -0.205 F 
ATOM     79  C   UNL     1      -0.034  11.907  -5.720  1.00  0.00     0.022 A 
BRANCH  77  80
ATOM     80  S   UNL     1      -2.766  11.708  -5.586  1.00  0.00     0.127 S 
ATOM     81  O   UNL     1      -3.025  13.124  -5.832  1.00  0.00    -0.237 OA
ATOM     82  O   UNL     1      -2.542  10.904  -6.789  1.00  0.00    -0.237 OA
ATOM     83  O   UNL     1      -3.616  11.066  -4.592  1.00  0.00    -0.744 OA
ENDBRANCH  77  80
ENDBRANCH  49  73
BRANCH  61  84
ATOM     84  C   UNL     1       3.342  14.943   2.258  1.00  0.00     0.023 A 
ATOM     85  C   UNL     1       2.453  16.032   2.337  1.00  0.00     0.012 A 
ATOM     86  C   UNL     1       4.728  15.171   2.361  1.00  0.00     0.148 A 
ATOM     87  C   UNL     1       2.934  17.331   2.493  1.00  0.00     0.002 A 
ATOM     88  C   UNL     1       5.199  16.465   2.557  1.00  0.00     0.091 A 
ATOM     89  F   UNL     1       5.560  14.124   2.260  1.00  0.00    -0.205 F 
ATOM     90  C   UNL     1       4.305  17.546   2.615  1.00  0.00     0.022 A 
BRANCH  88  91
ATOM     91  S   UNL     1       6.943  16.819   2.807  1.00  0.00     0.127 S 
ATOM     92  O   UNL     1       7.334  17.336   1.497  1.00  0.00    -0.237 OA
ATOM     93  O   UNL     1       6.912  17.820   3.874  1.00  0.00    -0.237 OA
ATOM     94  O   UNL     1       7.552  15.552   3.192  1.00  0.00    -0.744 OA
ENDBRANCH  88  91
ENDBRANCH  61  84
ENDBRANCH  35  36
ENDBRANCH  28  30
ENDBRANCH  27  28
ENDBRANCH  26  27
ENDBRANCH   1  26
TORSDOF 18
