REMARK SMILES C[C@]1(C(=O)N2CCC(CC(=O)OCCOC(=O)c3ccc(-c4c5nc(c(-c6cccc(S(=O)(=O)[O-])c6F)c6ccc([nH]6)c(-c6cccc(S(=O)(=O)[O-])c6F)c6nc(c(-c7cccc(S(=O)(=O)[O-])c7F)c7ccc4[nH]7)C=C6)C=C5)cc3)CC2)CCC[NH2+]C1
REMARK SMILES IDX 14 1 13 2 12 3 10 4 11 5 9 6 8 7 3 8 4 9 5 10 6 11 82 12
REMARK SMILES IDX 7 13 81 14 2 15 1 16 83 17 87 18 84 19 86 20 85 21 15 24
REMARK SMILES IDX 16 25 17 26 18 27 19 28 80 29 20 30 79 31 21 32 22 33 23 34
REMARK SMILES IDX 73 35 24 36 78 37 72 38 74 39 25 40 77 41 71 42 70 43 26 45
REMARK SMILES IDX 58 46 38 47 57 48 39 49 42 50 56 51 75 52 40 53 41 54 55 56
REMARK SMILES IDX 76 57 43 58 27 59 28 60 36 61 29 62 31 63 37 64 30 65 32 66
REMARK SMILES IDX 33 67 34 68 35 69 59 70 60 71 68 72 61 73 63 74 69 75 62 76
REMARK SMILES IDX 64 77 65 78 66 79 67 80 44 81 45 82 53 83 46 84 48 85 54 86
REMARK SMILES IDX 47 87 49 88 50 89 51 90 52 91
REMARK H PARENT 86 22 86 23 74 44 42 55
REMARK Flexibility Score: inf
ROOT
ATOM      1  C   UNL     1      -0.558  -6.320   4.774  1.00  0.00     0.275 C 
ENDROOT
BRANCH   1   2
ATOM      2  C   UNL     1      -1.251  -5.031   5.216  1.00  0.00     0.274 C 
BRANCH   2   3
ATOM      3  O   UNL     1      -0.598  -3.872   4.666  1.00  0.00    -0.462 OA
BRANCH   3   4
ATOM      4  C   UNL     1       0.276  -3.242   5.489  1.00  0.00     0.306 C 
ATOM      5  O   UNL     1       0.482  -3.545   6.657  1.00  0.00    -0.252 OA
BRANCH   4   6
ATOM      6  C   UNL     1       0.929  -2.045   4.841  1.00  0.00     0.126 C 
BRANCH   6   7
ATOM      7  C   UNL     1       1.476  -2.235   3.412  1.00  0.00     0.003 C 
ATOM      8  C   UNL     1       1.758   0.382   0.138  1.00  0.00     0.234 C 
ATOM      9  O   UNL     1       2.798   0.679  -0.468  1.00  0.00    -0.274 OA
ATOM     10  N   UNL     1       1.752  -0.708   0.979  1.00  0.00    -0.342 N 
ATOM     11  C   UNL     1       2.963  -1.009   1.722  1.00  0.00     0.120 C 
ATOM     12  C   UNL     1       0.807  -1.810   0.949  1.00  0.00     0.120 C 
ATOM     13  C   UNL     1       2.588  -1.184   3.184  1.00  0.00     0.026 C 
ATOM     14  C   UNL     1       0.342  -2.177   2.357  1.00  0.00     0.026 C 
BRANCH   8  15
ATOM     15  C   UNL     1       0.518   1.310   0.009  1.00  0.00     0.095 C 
ATOM     16  C   UNL     1       0.143   1.313  -1.488  1.00  0.00     0.028 C 
ATOM     17  C   UNL     1      -0.753   1.016   0.832  1.00  0.00     0.028 C 
ATOM     18  C   UNL     1       1.001   2.742   0.396  1.00  0.00     0.277 C 
ATOM     19  C   UNL     1      -0.585   1.302   2.322  1.00  0.00     0.063 C 
ATOM     20  N   UNL     1       1.162   2.942   1.844  1.00  0.00    -0.345 N 
ATOM     21  C   UNL     1      -0.083   2.717   2.566  1.00  0.00     0.260 C 
ATOM     22  H   UNL     1       1.866   2.290   2.190  1.00  0.00     0.346 HD
ATOM     23  H   UNL     1       1.447   3.909   2.000  1.00  0.00     0.346 HD
ENDBRANCH   8  15
ENDBRANCH   6   7
ENDBRANCH   4   6
ENDBRANCH   3   4
ENDBRANCH   2   3
ENDBRANCH   1   2
BRANCH   1  24
ATOM     24  O   UNL     1       0.757  -6.427   5.344  1.00  0.00    -0.458 OA
BRANCH  24  25
ATOM     25  C   UNL     1       1.778  -6.057   4.535  1.00  0.00     0.338 C 
ATOM     26  O   UNL     1       1.709  -5.684   3.378  1.00  0.00    -0.246 OA
BRANCH  25  27
ATOM     27  C   UNL     1       3.031  -6.092   5.303  1.00  0.00     0.060 A 
ATOM     28  C   UNL     1       3.580  -4.894   5.769  1.00  0.00     0.016 A 
ATOM     29  C   UNL     1       3.686  -7.306   5.512  1.00  0.00     0.016 A 
ATOM     30  C   UNL     1       4.795  -4.906   6.453  1.00  0.00     0.010 A 
ATOM     31  C   UNL     1       4.896  -7.316   6.209  1.00  0.00     0.010 A 
ATOM     32  C   UNL     1       5.462  -6.117   6.679  1.00  0.00    -0.014 A 
BRANCH  32  33
ATOM     33  C   UNL     1       6.753  -6.150   7.410  1.00  0.00     0.031 A 
ATOM     34  C   UNL     1       8.023  -6.478   6.679  1.00  0.00     0.074 A 
ATOM     35  C   UNL     1       6.768  -5.950   8.742  1.00  0.00     0.049 A 
ATOM     36  N   UNL     1       9.220  -6.690   7.159  1.00  0.00    -0.248 NA
ATOM     37  C   UNL     1       7.933  -6.588   5.214  1.00  0.00     0.031 C 
ATOM     38  C   UNL     1       5.598  -5.627   9.559  1.00  0.00     0.029 A 
ATOM     39  N   UNL     1       7.798  -6.027   9.646  1.00  0.00    -0.354 N 
ATOM     40  C   UNL     1      10.019  -6.999   6.066  1.00  0.00     0.074 A 
ATOM     41  C   UNL     1       9.170  -6.946   4.894  1.00  0.00     0.031 C 
ATOM     42  C   UNL     1       5.969  -5.562  10.848  1.00  0.00     0.029 A 
ATOM     43  C   UNL     1       7.390  -5.880  10.952  1.00  0.00     0.049 A 
ATOM     44  H   UNL     1       8.736  -6.173   9.386  1.00  0.00     0.167 HD
ATOM     45  C   UNL     1      11.342  -7.287   6.040  1.00  0.00     0.034 A 
ATOM     46  C   UNL     1       8.075  -6.024  12.104  1.00  0.00     0.034 A 
ATOM     47  C   UNL     1      12.187  -7.305   7.204  1.00  0.00     0.049 A 
ATOM     48  C   UNL     1       9.537  -6.377  12.048  1.00  0.00     0.074 A 
ATOM     49  C   UNL     1      13.552  -7.526   7.272  1.00  0.00     0.029 A 
ATOM     50  N   UNL     1      11.749  -7.106   8.504  1.00  0.00    -0.354 N 
ATOM     51  N   UNL     1      10.303  -6.552  10.999  1.00  0.00    -0.248 NA
ATOM     52  C   UNL     1      10.234  -6.533  13.333  1.00  0.00     0.031 C 
ATOM     53  C   UNL     1      13.935  -7.482   8.617  1.00  0.00     0.029 A 
ATOM     54  C   UNL     1      12.812  -7.216   9.384  1.00  0.00     0.049 A 
ATOM     55  H   UNL     1      10.819  -6.914   8.763  1.00  0.00     0.167 HD
ATOM     56  C   UNL     1      11.575  -6.814  11.495  1.00  0.00     0.074 A 
ATOM     57  C   UNL     1      11.482  -6.751  12.939  1.00  0.00     0.031 C 
ATOM     58  C   UNL     1      12.714  -7.101  10.817  1.00  0.00     0.034 A 
BRANCH  45  59
ATOM     59  C   UNL     1      11.973  -7.575   4.704  1.00  0.00     0.023 A 
ATOM     60  C   UNL     1      12.220  -6.514   3.809  1.00  0.00     0.012 A 
ATOM     61  C   UNL     1      12.382  -8.879   4.361  1.00  0.00     0.148 A 
ATOM     62  C   UNL     1      12.843  -6.750   2.584  1.00  0.00     0.002 A 
ATOM     63  C   UNL     1      13.036  -9.100   3.154  1.00  0.00     0.091 A 
ATOM     64  F   UNL     1      12.118  -9.877   5.216  1.00  0.00    -0.205 F 
ATOM     65  C   UNL     1      13.259  -8.039   2.262  1.00  0.00     0.022 A 
BRANCH  63  66
ATOM     66  S   UNL     1      13.672 -10.712   2.679  1.00  0.00     0.127 S 
ATOM     67  O   UNL     1      12.739 -11.097   1.622  1.00  0.00    -0.237 OA
ATOM     68  O   UNL     1      15.021 -10.386   2.213  1.00  0.00    -0.237 OA
ATOM     69  O   UNL     1      13.628 -11.531   3.882  1.00  0.00    -0.744 OA
ENDBRANCH  63  66
ENDBRANCH  45  59
BRANCH  46  70
ATOM     70  C   UNL     1       7.386  -5.815  13.409  1.00  0.00     0.023 A 
ATOM     71  C   UNL     1       7.715  -4.691  14.190  1.00  0.00     0.012 A 
ATOM     72  C   UNL     1       6.390  -6.701  13.865  1.00  0.00     0.148 A 
ATOM     73  C   UNL     1       7.082  -4.465  15.412  1.00  0.00     0.002 A 
ATOM     74  C   UNL     1       5.725  -6.441  15.057  1.00  0.00     0.091 A 
ATOM     75  F   UNL     1       6.107  -7.779  13.119  1.00  0.00    -0.205 F 
ATOM     76  C   UNL     1       6.079  -5.332  15.840  1.00  0.00     0.022 A 
BRANCH  74  77
ATOM     77  S   UNL     1       4.335  -7.433  15.617  1.00  0.00     0.127 S 
ATOM     78  O   UNL     1       4.930  -8.189  16.716  1.00  0.00    -0.237 OA
ATOM     79  O   UNL     1       3.373  -6.408  16.024  1.00  0.00    -0.237 OA
ATOM     80  O   UNL     1       3.921  -8.214  14.459  1.00  0.00    -0.744 OA
ENDBRANCH  74  77
ENDBRANCH  46  70
BRANCH  58  81
ATOM     81  C   UNL     1      13.962  -7.354  11.620  1.00  0.00     0.023 A 
ATOM     82  C   UNL     1      14.109  -8.575  12.308  1.00  0.00     0.012 A 
ATOM     83  C   UNL     1      15.022  -6.426  11.621  1.00  0.00     0.148 A 
ATOM     84  C   UNL     1      15.284  -8.860  13.003  1.00  0.00     0.002 A 
ATOM     85  C   UNL     1      16.207  -6.736  12.279  1.00  0.00     0.091 A 
ATOM     86  F   UNL     1      14.855  -5.264  10.974  1.00  0.00    -0.205 F 
ATOM     87  C   UNL     1      16.336  -7.947  12.978  1.00  0.00     0.022 A 
BRANCH  85  88
ATOM     88  S   UNL     1      17.649  -5.665  12.229  1.00  0.00     0.127 S 
ATOM     89  O   UNL     1      17.703  -5.174  13.605  1.00  0.00    -0.237 OA
ATOM     90  O   UNL     1      18.717  -6.600  11.873  1.00  0.00    -0.237 OA
ATOM     91  O   UNL     1      17.366  -4.655  11.218  1.00  0.00    -0.744 OA
ENDBRANCH  85  88
ENDBRANCH  58  81
ENDBRANCH  32  33
ENDBRANCH  25  27
ENDBRANCH  24  25
ENDBRANCH   1  24
TORSDOF 16
