REMARK SMILES C[C@H]([C@H](C)C(=O)OCCOC(=O)c1ccc(-c2c3nc(c(-c4cccc(S(=O)(=O)[O-])c4F)c4ccc([nH]4)c(-c4cccc(S(=O)(=O)[O-])c4F)c4nc(c(-c5cccc(S(=O)(=O)[O-])c5F)c5ccc2[nH]5)C=C4)C=C3)cc1)[C@H](O)c1cncn1C1CC1
REMARK SMILES IDX 8 1 7 2 5 3 6 4 3 5 4 6 2 7 1 8 76 9 78 10 79 11 82 12 80 13
REMARK SMILES IDX 81 14 83 15 84 16 85 17 77 18 9 20 10 21 11 22 12 23 13 24
REMARK SMILES IDX 14 25 75 26 15 27 74 28 16 29 17 30 18 31 68 32 19 33 73 34
REMARK SMILES IDX 67 35 69 36 20 37 72 38 66 39 65 40 21 42 53 43 33 44 52 45
REMARK SMILES IDX 34 46 37 47 51 48 70 49 35 50 36 51 50 53 71 54 38 55 22 56
REMARK SMILES IDX 23 57 31 58 24 59 26 60 32 61 25 62 27 63 28 64 29 65 30 66
REMARK SMILES IDX 54 67 55 68 63 69 56 70 58 71 64 72 57 73 59 74 60 75 61 76
REMARK SMILES IDX 62 77 39 78 40 79 48 80 41 81 43 82 49 83 42 84 44 85 45 86
REMARK SMILES IDX 46 87 47 88
REMARK H PARENT 77 19 69 41 37 52
REMARK Flexibility Score: inf
ROOT
ATOM      1  C   UNL     1      -3.151  -2.038  -1.549  1.00  0.00     0.274 C 
ENDROOT
BRANCH   1   2
ATOM      2  O   UNL     1      -2.632  -0.871  -0.879  1.00  0.00    -0.462 OA
BRANCH   2   3
ATOM      3  C   UNL     1      -3.518  -0.130  -0.167  1.00  0.00     0.309 C 
ATOM      4  O   UNL     1      -4.717  -0.370  -0.074  1.00  0.00    -0.252 OA
BRANCH   3   5
ATOM      5  C   UNL     1      -2.878   1.081   0.509  1.00  0.00     0.102 C 
ATOM      6  C   UNL     1      -1.351   1.042   0.565  1.00  0.00     0.020 C 
BRANCH   5   7
ATOM      7  C   UNL     1      -3.484   2.395  -0.048  1.00  0.00     0.035 C 
ATOM      8  C   UNL     1      -3.324   3.533   0.975  1.00  0.00     0.012 C 
BRANCH   7   9
ATOM      9  C   UNL     1      -2.952   2.809  -1.438  1.00  0.00     0.166 C 
BRANCH   9  10
ATOM     10  C   UNL     1      -3.377   1.923  -2.555  1.00  0.00     0.067 A 
ATOM     11  C   UNL     1      -2.559   1.119  -3.337  1.00  0.00     0.137 A 
ATOM     12  N   UNL     1      -4.649   1.615  -2.992  1.00  0.00    -0.329 N 
ATOM     13  N   UNL     1      -3.279   0.300  -4.158  1.00  0.00    -0.245 NA
ATOM     14  C   UNL     1      -4.532   0.591  -3.898  1.00  0.00     0.199 A 
BRANCH  12  15
ATOM     15  C   UNL     1      -5.948   2.203  -2.733  1.00  0.00     0.088 C 
ATOM     16  C   UNL     1      -6.348   3.246  -1.719  1.00  0.00     0.027 C 
ATOM     17  C   UNL     1      -6.235   3.634  -3.153  1.00  0.00     0.027 C 
ENDBRANCH  12  15
ENDBRANCH   9  10
BRANCH   9  18
ATOM     18  O   UNL     1      -3.333   4.130  -1.795  1.00  0.00    -0.387 OA
ATOM     19  H   UNL     1      -4.296   4.172  -1.897  1.00  0.00     0.211 HD
ENDBRANCH   9  18
ENDBRANCH   7   9
ENDBRANCH   5   7
ENDBRANCH   3   5
ENDBRANCH   2   3
ENDBRANCH   1   2
BRANCH   1  20
ATOM     20  C   UNL     1      -2.602  -3.313  -0.912  1.00  0.00     0.275 C 
BRANCH  20  21
ATOM     21  O   UNL     1      -3.072  -3.452   0.439  1.00  0.00    -0.458 OA
BRANCH  21  22
ATOM     22  C   UNL     1      -2.259  -2.917   1.379  1.00  0.00     0.338 C 
ATOM     23  O   UNL     1      -1.162  -2.411   1.218  1.00  0.00    -0.246 OA
BRANCH  22  24
ATOM     24  C   UNL     1      -2.963  -2.906   2.665  1.00  0.00     0.060 A 
ATOM     25  C   UNL     1      -3.429  -1.683   3.150  1.00  0.00     0.016 A 
ATOM     26  C   UNL     1      -3.083  -4.068   3.423  1.00  0.00     0.016 A 
ATOM     27  C   UNL     1      -3.997  -1.601   4.414  1.00  0.00     0.010 A 
ATOM     28  C   UNL     1      -3.668  -3.990   4.687  1.00  0.00     0.010 A 
ATOM     29  C   UNL     1      -4.106  -2.753   5.196  1.00  0.00    -0.014 A 
BRANCH  29  30
ATOM     30  C   UNL     1      -4.617  -2.659   6.580  1.00  0.00     0.031 A 
ATOM     31  C   UNL     1      -3.667  -2.851   7.726  1.00  0.00     0.074 A 
ATOM     32  C   UNL     1      -5.924  -2.426   6.797  1.00  0.00     0.049 A 
ATOM     33  N   UNL     1      -3.923  -2.958   9.001  1.00  0.00    -0.248 NA
ATOM     34  C   UNL     1      -2.237  -2.948   7.386  1.00  0.00     0.031 C 
ATOM     35  C   UNL     1      -6.925  -2.200   5.753  1.00  0.00     0.029 A 
ATOM     36  N   UNL     1      -6.638  -2.372   7.966  1.00  0.00    -0.354 N 
ATOM     37  C   UNL     1      -2.697  -3.189   9.613  1.00  0.00     0.074 A 
ATOM     38  C   UNL     1      -1.696  -3.203   8.569  1.00  0.00     0.031 C 
ATOM     39  C   UNL     1      -8.130  -2.061   6.327  1.00  0.00     0.029 A 
ATOM     40  C   UNL     1      -7.992  -2.233   7.770  1.00  0.00     0.049 A 
ATOM     41  H   UNL     1      -6.223  -2.426   8.857  1.00  0.00     0.167 HD
ATOM     42  C   UNL     1      -2.434  -3.366  10.929  1.00  0.00     0.034 A 
ATOM     43  C   UNL     1      -9.007  -2.281   8.653  1.00  0.00     0.034 A 
ATOM     44  C   UNL     1      -3.437  -3.309  11.958  1.00  0.00     0.049 A 
ATOM     45  C   UNL     1      -8.688  -2.481  10.110  1.00  0.00     0.074 A 
ATOM     46  C   UNL     1      -3.277  -3.439  13.325  1.00  0.00     0.029 A 
ATOM     47  N   UNL     1      -4.789  -3.103  11.729  1.00  0.00    -0.354 N 
ATOM     48  N   UNL     1      -7.518  -2.627  10.685  1.00  0.00    -0.248 NA
ATOM     49  C   UNL     1      -9.823  -2.501  11.042  1.00  0.00     0.031 C 
ATOM     50  C   UNL     1      -4.537  -3.324  13.923  1.00  0.00     0.029 A 
ATOM     51  C   UNL     1      -5.478  -3.103  12.929  1.00  0.00     0.049 A 
ATOM     52  H   UNL     1      -5.199  -2.975  10.843  1.00  0.00     0.167 HD
ATOM     53  C   UNL     1      -7.771  -2.728  12.047  1.00  0.00     0.074 A 
ATOM     54  C   UNL     1      -9.206  -2.603  12.213  1.00  0.00     0.031 C 
ATOM     55  C   UNL     1      -6.901  -2.924  13.069  1.00  0.00     0.034 A 
BRANCH  42  56
ATOM     56  C   UNL     1      -1.004  -3.616  11.326  1.00  0.00     0.023 A 
ATOM     57  C   UNL     1      -0.075  -2.557  11.295  1.00  0.00     0.012 A 
ATOM     58  C   UNL     1      -0.586  -4.889  11.761  1.00  0.00     0.148 A 
ATOM     59  C   UNL     1       1.255  -2.767  11.659  1.00  0.00     0.002 A 
ATOM     60  C   UNL     1       0.732  -5.081  12.162  1.00  0.00     0.091 A 
ATOM     61  F   UNL     1      -1.476  -5.891  11.758  1.00  0.00    -0.205 F 
ATOM     62  C   UNL     1       1.655  -4.025  12.101  1.00  0.00     0.022 A 
BRANCH  60  63
ATOM     63  S   UNL     1       1.326  -6.648  12.811  1.00  0.00     0.127 S 
ATOM     64  O   UNL     1       2.132  -7.143  11.697  1.00  0.00    -0.237 OA
ATOM     65  O   UNL     1       2.097  -6.225  13.981  1.00  0.00    -0.237 OA
ATOM     66  O   UNL     1       0.136  -7.428  13.121  1.00  0.00    -0.744 OA
ENDBRANCH  60  63
ENDBRANCH  42  56
BRANCH  43  67
ATOM     67  C   UNL     1     -10.409  -2.110   8.180  1.00  0.00     0.023 A 
ATOM     68  C   UNL     1     -11.111  -0.935   8.507  1.00  0.00     0.012 A 
ATOM     69  C   UNL     1     -11.032  -3.079   7.368  1.00  0.00     0.148 A 
ATOM     70  C   UNL     1     -12.415  -0.736   8.052  1.00  0.00     0.002 A 
ATOM     71  C   UNL     1     -12.310  -2.850   6.872  1.00  0.00     0.091 A 
ATOM     72  F   UNL     1     -10.355  -4.201   7.083  1.00  0.00    -0.205 F 
ATOM     73  C   UNL     1     -13.010  -1.686   7.224  1.00  0.00     0.022 A 
BRANCH  71  74
ATOM     74  S   UNL     1     -13.095  -3.955   5.692  1.00  0.00     0.127 S 
ATOM     75  O   UNL     1     -14.107  -4.606   6.520  1.00  0.00    -0.237 OA
ATOM     76  O   UNL     1     -13.622  -3.017   4.699  1.00  0.00    -0.237 OA
ATOM     77  O   UNL     1     -12.031  -4.816   5.195  1.00  0.00    -0.744 OA
ENDBRANCH  71  74
ENDBRANCH  43  67
BRANCH  55  78
ATOM     78  C   UNL     1      -7.471  -2.988  14.460  1.00  0.00     0.023 A 
ATOM     79  C   UNL     1      -8.166  -4.141  14.876  1.00  0.00     0.012 A 
ATOM     80  C   UNL     1      -7.249  -1.943  15.377  1.00  0.00     0.148 A 
ATOM     81  C   UNL     1      -8.656  -4.240  16.177  1.00  0.00     0.002 A 
ATOM     82  C   UNL     1      -7.701  -2.068  16.685  1.00  0.00     0.091 A 
ATOM     83  F   UNL     1      -6.604  -0.846  14.954  1.00  0.00    -0.205 F 
ATOM     84  C   UNL     1      -8.413  -3.211  17.084  1.00  0.00     0.022 A 
BRANCH  82  85
ATOM     85  S   UNL     1      -7.350  -0.833  17.942  1.00  0.00     0.127 S 
ATOM     86  O   UNL     1      -8.643  -0.163  18.070  1.00  0.00    -0.237 OA
ATOM     87  O   UNL     1      -6.973  -1.656  19.092  1.00  0.00    -0.237 OA
ATOM     88  O   UNL     1      -6.269  -0.016  17.407  1.00  0.00    -0.744 OA
ENDBRANCH  82  85
ENDBRANCH  55  78
ENDBRANCH  29  30
ENDBRANCH  22  24
ENDBRANCH  21  22
ENDBRANCH  20  21
ENDBRANCH   1  20
TORSDOF 19
