REMARK SMILES COc1ccc(S(=O)(=O)N(Cc2ccccc2)c2ccccc2C(=O)OCCOC(=O)c2ccc(-c3c4nc(c(-c5cccc(S(=O)(=O)[O-])c5F)c5ccc([nH]5)c(-c5cccc(S(=O)(=O)[O-])c5F)c5nc(c(-c6cccc(S(=O)(=O)[O-])c6F)c6ccc3[nH]6)C=C5)C=C4)cc2)cc1
REMARK SMILES IDX 27 1 26 2 24 3 25 4 23 5 18 6 19 7 20 8 22 9 21 10 10 11
REMARK SMILES IDX 7 12 8 13 9 14 6 15 3 16 4 17 96 18 5 19 95 20 2 21 1 22
REMARK SMILES IDX 11 23 12 24 13 25 17 26 14 27 16 28 15 29 28 30 29 31 30 32
REMARK SMILES IDX 31 33 32 34 33 35 94 36 34 37 93 38 35 39 36 40 37 41 87 42
REMARK SMILES IDX 38 43 92 44 86 45 88 46 39 47 91 48 85 49 84 50 40 52 72 53
REMARK SMILES IDX 52 54 71 55 53 56 56 57 70 58 89 59 54 60 55 61 69 63 90 64
REMARK SMILES IDX 57 65 41 66 42 67 50 68 43 69 45 70 51 71 44 72 46 73 47 74
REMARK SMILES IDX 48 75 49 76 73 77 74 78 82 79 75 80 77 81 83 82 76 83 78 84
REMARK SMILES IDX 79 85 80 86 81 87 58 88 59 89 67 90 60 91 62 92 68 93 61 94
REMARK SMILES IDX 63 95 64 96 65 97 66 98
REMARK H PARENT 88 51 56 62
REMARK Flexibility Score: inf
ROOT
ATOM      1  C   UNL     1       0.861   4.444  -5.593  1.00  0.00     0.275 C 
ENDROOT
BRANCH   1   2
ATOM      2  O   UNL     1       2.199   4.193  -6.071  1.00  0.00    -0.458 OA
BRANCH   2   3
ATOM      3  C   UNL     1       2.356   4.247  -7.417  1.00  0.00     0.340 C 
ATOM      4  O   UNL     1       1.503   4.579  -8.228  1.00  0.00    -0.246 OA
BRANCH   3   5
ATOM      5  C   UNL     1       3.724   3.876  -7.843  1.00  0.00     0.084 A 
ATOM      6  C   UNL     1       4.322   2.680  -7.443  1.00  0.00     0.067 A 
ATOM      7  C   UNL     1       5.480   2.251  -8.114  1.00  0.00     0.028 A 
ATOM      8  C   UNL     1       6.146   3.079  -9.019  1.00  0.00     0.002 A 
ATOM      9  C   UNL     1       4.387   4.687  -8.783  1.00  0.00     0.018 A 
ATOM     10  C   UNL     1       5.617   4.321  -9.325  1.00  0.00     0.001 A 
BRANCH   6  11
ATOM     11  N   UNL     1       3.887   1.981  -6.250  1.00  0.00    -0.261 N 
BRANCH  11  12
ATOM     12  S   UNL     1       2.704   0.785  -6.445  1.00  0.00     0.264 S 
ATOM     13  O   UNL     1       3.334  -0.476  -6.780  1.00  0.00    -0.201 OA
ATOM     14  O   UNL     1       1.672   1.313  -7.312  1.00  0.00    -0.201 OA
BRANCH  12  15
ATOM     15  C   UNL     1       1.934   0.547  -4.838  1.00  0.00     0.088 A 
ATOM     16  C   UNL     1       0.708   0.009  -2.361  1.00  0.00     0.118 A 
ATOM     17  C   UNL     1      -0.058   0.392  -3.466  1.00  0.00     0.048 A 
ATOM     18  C   UNL     1       2.082  -0.139  -2.509  1.00  0.00     0.048 A 
ATOM     19  C   UNL     1       0.549   0.679  -4.699  1.00  0.00     0.026 A 
ATOM     20  C   UNL     1       2.680   0.094  -3.748  1.00  0.00     0.026 A 
BRANCH  16  21
ATOM     21  O   UNL     1       0.019  -0.286  -1.218  1.00  0.00    -0.497 OA
ATOM     22  C   UNL     1       0.698  -0.011   0.005  1.00  0.00     0.278 C 
ENDBRANCH  16  21
ENDBRANCH  12  15
ENDBRANCH  11  12
BRANCH  11  23
ATOM     23  C   UNL     1       4.879   2.005  -5.144  1.00  0.00     0.171 C 
BRANCH  23  24
ATOM     24  C   UNL     1       6.103   1.118  -5.292  1.00  0.00    -0.027 A 
ATOM     25  C   UNL     1       6.011  -0.277  -5.384  1.00  0.00     0.005 A 
ATOM     26  C   UNL     1       7.373   1.701  -5.435  1.00  0.00     0.005 A 
ATOM     27  C   UNL     1       7.125  -1.062  -5.676  1.00  0.00     0.000 A 
ATOM     28  C   UNL     1       8.492   0.915  -5.723  1.00  0.00     0.000 A 
ATOM     29  C   UNL     1       8.365  -0.465  -5.856  1.00  0.00     0.000 A 
ENDBRANCH  23  24
ENDBRANCH  11  23
ENDBRANCH   6  11
ENDBRANCH   3   5
ENDBRANCH   2   3
ENDBRANCH   1   2
BRANCH   1  30
ATOM     30  C   UNL     1       0.739   5.818  -4.936  1.00  0.00     0.275 C 
BRANCH  30  31
ATOM     31  O   UNL     1       0.861   6.866  -5.907  1.00  0.00    -0.458 OA
BRANCH  31  32
ATOM     32  C   UNL     1       2.118   7.332  -6.070  1.00  0.00     0.338 C 
ATOM     33  O   UNL     1       3.119   7.012  -5.453  1.00  0.00    -0.246 OA
BRANCH  32  34
ATOM     34  C   UNL     1       2.157   8.240  -7.218  1.00  0.00     0.060 A 
ATOM     35  C   UNL     1       2.425   7.689  -8.465  1.00  0.00     0.016 A 
ATOM     36  C   UNL     1       2.101   9.616  -7.055  1.00  0.00     0.016 A 
ATOM     37  C   UNL     1       2.798   8.490  -9.529  1.00  0.00     0.010 A 
ATOM     38  C   UNL     1       2.331  10.430  -8.166  1.00  0.00     0.010 A 
ATOM     39  C   UNL     1       2.725   9.875  -9.401  1.00  0.00    -0.014 A 
BRANCH  39  40
ATOM     40  C   UNL     1       3.058  10.752 -10.550  1.00  0.00     0.031 A 
ATOM     41  C   UNL     1       4.089  11.828 -10.376  1.00  0.00     0.074 A 
ATOM     42  C   UNL     1       2.391  10.619 -11.714  1.00  0.00     0.049 A 
ATOM     43  N   UNL     1       4.319  12.877 -11.115  1.00  0.00    -0.248 NA
ATOM     44  C   UNL     1       4.957  11.725  -9.189  1.00  0.00     0.031 C 
ATOM     45  C   UNL     1       1.398   9.583 -12.015  1.00  0.00     0.029 A 
ATOM     46  N   UNL     1       2.416  11.390 -12.849  1.00  0.00    -0.354 N 
ATOM     47  C   UNL     1       5.281  13.613 -10.434  1.00  0.00     0.074 A 
ATOM     48  C   UNL     1       5.610  12.877  -9.233  1.00  0.00     0.031 C 
ATOM     49  C   UNL     1       0.900   9.788 -13.241  1.00  0.00     0.029 A 
ATOM     50  C   UNL     1       1.456  11.026 -13.766  1.00  0.00     0.049 A 
ATOM     51  H   UNL     1       3.054  12.125 -12.993  1.00  0.00     0.167 HD
ATOM     52  C   UNL     1       5.825  14.803 -10.782  1.00  0.00     0.034 A 
ATOM     53  C   UNL     1       1.008  11.660 -14.865  1.00  0.00     0.034 A 
ATOM     54  C   UNL     1       5.516  15.483 -12.011  1.00  0.00     0.049 A 
ATOM     55  C   UNL     1       1.625  12.976 -15.231  1.00  0.00     0.074 A 
ATOM     56  C   UNL     1       6.048  16.662 -12.500  1.00  0.00     0.029 A 
ATOM     57  N   UNL     1       4.587  15.043 -12.944  1.00  0.00    -0.354 N 
ATOM     58  N   UNL     1       2.559  13.649 -14.602  1.00  0.00    -0.248 NA
ATOM     59  C   UNL     1       1.143  13.615 -16.461  1.00  0.00     0.031 C 
ATOM     60  C   UNL     1       5.413  16.954 -13.711  1.00  0.00     0.029 A 
ATOM     61  C   UNL     1       4.521  15.932 -14.002  1.00  0.00     0.049 A 
ATOM     62  H   UNL     1       4.053  14.220 -12.864  1.00  0.00     0.167 HD
ATOM     63  C   UNL     1       2.806  14.773 -15.379  1.00  0.00     0.074 A 
ATOM     64  C   UNL     1       1.928  14.682 -16.530  1.00  0.00     0.031 C 
ATOM     65  C   UNL     1       3.674  15.790 -15.159  1.00  0.00     0.034 A 
BRANCH  52  66
ATOM     66  C   UNL     1       6.787  15.448  -9.818  1.00  0.00     0.023 A 
ATOM     67  C   UNL     1       8.063  14.891  -9.600  1.00  0.00     0.012 A 
ATOM     68  C   UNL     1       6.431  16.636  -9.147  1.00  0.00     0.148 A 
ATOM     69  C   UNL     1       8.952  15.481  -8.700  1.00  0.00     0.002 A 
ATOM     70  C   UNL     1       7.340  17.246  -8.291  1.00  0.00     0.091 A 
ATOM     71  F   UNL     1       5.204  17.139  -9.346  1.00  0.00    -0.205 F 
ATOM     72  C   UNL     1       8.594  16.662  -8.054  1.00  0.00     0.022 A 
BRANCH  70  73
ATOM     73  S   UNL     1       7.004  18.812  -7.478  1.00  0.00     0.127 S 
ATOM     74  O   UNL     1       6.855  18.395  -6.084  1.00  0.00    -0.237 OA
ATOM     75  O   UNL     1       8.223  19.571  -7.760  1.00  0.00    -0.237 OA
ATOM     76  O   UNL     1       5.801  19.341  -8.104  1.00  0.00    -0.744 OA
ENDBRANCH  70  73
ENDBRANCH  52  66
BRANCH  53  77
ATOM     77  C   UNL     1      -0.085  11.051 -15.674  1.00  0.00     0.023 A 
ATOM     78  C   UNL     1       0.205  10.529 -16.948  1.00  0.00     0.012 A 
ATOM     79  C   UNL     1      -1.392  10.923 -15.158  1.00  0.00     0.148 A 
ATOM     80  C   UNL     1      -0.791   9.909 -17.703  1.00  0.00     0.002 A 
ATOM     81  C   UNL     1      -2.363  10.251 -15.890  1.00  0.00     0.091 A 
ATOM     82  F   UNL     1      -1.648  11.432 -13.944  1.00  0.00    -0.205 F 
ATOM     83  C   UNL     1      -2.069   9.758 -17.171  1.00  0.00     0.022 A 
BRANCH  81  84
ATOM     84  S   UNL     1      -3.994   9.889 -15.231  1.00  0.00     0.127 S 
ATOM     85  O   UNL     1      -4.848  10.724 -16.073  1.00  0.00    -0.237 OA
ATOM     86  O   UNL     1      -4.105   8.451 -15.476  1.00  0.00    -0.237 OA
ATOM     87  O   UNL     1      -3.944  10.258 -13.823  1.00  0.00    -0.744 OA
ENDBRANCH  81  84
ENDBRANCH  53  77
BRANCH  65  88
ATOM     88  C   UNL     1       3.772  16.855 -16.216  1.00  0.00     0.023 A 
ATOM     89  C   UNL     1       2.740  17.800 -16.370  1.00  0.00     0.012 A 
ATOM     90  C   UNL     1       4.938  16.962 -16.999  1.00  0.00     0.148 A 
ATOM     91  C   UNL     1       2.855  18.821 -17.312  1.00  0.00     0.002 A 
ATOM     92  C   UNL     1       5.070  18.014 -17.894  1.00  0.00     0.091 A 
ATOM     93  F   UNL     1       5.897  16.038 -16.846  1.00  0.00    -0.205 F 
ATOM     94  C   UNL     1       4.024  18.937 -18.062  1.00  0.00     0.022 A 
BRANCH  92  95
ATOM     95  S   UNL     1       6.580  18.302 -18.821  1.00  0.00     0.127 S 
ATOM     96  O   UNL     1       6.157  17.986 -20.185  1.00  0.00    -0.237 OA
ATOM     97  O   UNL     1       6.827  19.723 -18.573  1.00  0.00    -0.237 OA
ATOM     98  O   UNL     1       7.579  17.405 -18.256  1.00  0.00    -0.744 OA
ENDBRANCH  92  95
ENDBRANCH  65  88
ENDBRANCH  39  40
ENDBRANCH  32  34
ENDBRANCH  31  32
ENDBRANCH  30  31
ENDBRANCH   1  30
TORSDOF 20
