REMARK SMILES CC(C)(C)N(CC(=O)OCCOC(=O)c1ccc(-c2c3nc(c(-c4cccc(S(=O)(=O)[O-])c4F)c4ccc([nH]4)c(-c4cccc(S(=O)(=O)[O-])c4F)c4nc(c(-c5cccc(S(=O)(=O)[O-])c5F)c5ccc2[nH]5)C=C4)C=C3)cc1)C(=O)N1CC[C@H](C[NH3+])C1
REMARK SMILES IDX 10 1 9 2 7 3 8 4 6 5 5 6 2 7 1 8 3 9 4 10 78 11 79 12 80 13
REMARK SMILES IDX 81 14 86 15 82 16 83 17 84 18 85 19 11 23 12 24 13 25 14 26
REMARK SMILES IDX 15 27 16 28 77 29 17 30 76 31 18 32 19 33 20 34 70 35 21 36
REMARK SMILES IDX 75 37 69 38 71 39 22 40 74 41 68 42 67 43 23 45 55 46 35 47
REMARK SMILES IDX 54 48 36 49 39 50 53 51 72 52 37 53 38 54 52 56 73 57 40 58
REMARK SMILES IDX 24 59 25 60 33 61 26 62 28 63 34 64 27 65 29 66 30 67 31 68
REMARK SMILES IDX 32 69 56 70 57 71 65 72 58 73 60 74 66 75 59 76 61 77 62 78
REMARK SMILES IDX 63 79 64 80 41 81 42 82 50 83 43 84 45 85 51 86 44 87 46 88
REMARK SMILES IDX 47 89 48 90 49 91
REMARK H PARENT 85 20 85 21 85 22 71 44 39 55
REMARK Flexibility Score: inf
ROOT
ATOM      1  C   UNL     1       5.032  -2.046   2.262  1.00  0.00     0.274 C 
ENDROOT
BRANCH   1   2
ATOM      2  O   UNL     1       3.606  -1.825   2.269  1.00  0.00    -0.461 OA
BRANCH   2   3
ATOM      3  C   UNL     1       2.982  -1.888   1.059  1.00  0.00     0.325 C 
ATOM      4  O   UNL     1       3.561  -1.857  -0.022  1.00  0.00    -0.250 OA
BRANCH   3   5
ATOM      5  C   UNL     1       1.482  -2.195   1.174  1.00  0.00     0.244 C 
BRANCH   5   6
ATOM      6  N   UNL     1       0.677  -1.395   2.110  1.00  0.00    -0.309 N 
BRANCH   6   7
ATOM      7  C   UNL     1       0.277  -0.004   1.663  1.00  0.00     0.037 C 
ATOM      8  C   UNL     1       0.929   0.458   0.329  1.00  0.00     0.034 C 
ATOM      9  C   UNL     1       0.721   1.016   2.730  1.00  0.00     0.034 C 
ATOM     10  C   UNL     1      -1.249   0.098   1.416  1.00  0.00     0.034 C 
ENDBRANCH   6   7
BRANCH   6  11
ATOM     11  C   UNL     1       0.060  -1.935   3.244  1.00  0.00     0.320 C 
ATOM     12  O   UNL     1      -0.894  -1.375   3.788  1.00  0.00    -0.248 OA
BRANCH  11  13
ATOM     13  N   UNL     1       0.483  -3.143   3.749  1.00  0.00    -0.324 N 
ATOM     14  C   UNL     1       1.850  -3.515   4.021  1.00  0.00     0.122 C 
ATOM     15  C   UNL     1      -0.407  -3.919   4.613  1.00  0.00     0.130 C 
ATOM     16  C   UNL     1       1.774  -4.914   4.583  1.00  0.00     0.033 C 
ATOM     17  C   UNL     1       0.474  -4.926   5.372  1.00  0.00     0.065 C 
BRANCH  17  18
ATOM     18  C   UNL     1      -0.162  -6.311   5.425  1.00  0.00     0.264 C 
BRANCH  18  19
ATOM     19  N   UNL     1       0.728  -7.339   5.951  1.00  0.00    -0.357 N 
ATOM     20  H   UNL     1       1.542  -7.429   5.342  1.00  0.00     0.344 HD
ATOM     21  H   UNL     1       0.233  -8.230   5.990  1.00  0.00     0.344 HD
ATOM     22  H   UNL     1       1.032  -7.078   6.889  1.00  0.00     0.344 HD
ENDBRANCH  18  19
ENDBRANCH  17  18
ENDBRANCH  11  13
ENDBRANCH   6  11
ENDBRANCH   5   6
ENDBRANCH   3   5
ENDBRANCH   2   3
ENDBRANCH   1   2
BRANCH   1  23
ATOM     23  C   UNL     1       5.403  -3.252   3.146  1.00  0.00     0.275 C 
BRANCH  23  24
ATOM     24  O   UNL     1       4.630  -4.453   2.933  1.00  0.00    -0.458 OA
BRANCH  24  25
ATOM     25  C   UNL     1       4.588  -4.979   1.684  1.00  0.00     0.338 C 
ATOM     26  O   UNL     1       5.186  -4.580   0.711  1.00  0.00    -0.246 OA
BRANCH  25  27
ATOM     27  C   UNL     1       3.519  -6.008   1.661  1.00  0.00     0.060 A 
ATOM     28  C   UNL     1       2.425  -5.815   0.810  1.00  0.00     0.016 A 
ATOM     29  C   UNL     1       3.575  -7.143   2.478  1.00  0.00     0.016 A 
ATOM     30  C   UNL     1       1.375  -6.741   0.786  1.00  0.00     0.010 A 
ATOM     31  C   UNL     1       2.545  -8.095   2.417  1.00  0.00     0.010 A 
ATOM     32  C   UNL     1       1.442  -7.912   1.560  1.00  0.00    -0.014 A 
BRANCH  32  33
ATOM     33  C   UNL     1       0.567  -9.073   1.234  1.00  0.00     0.031 A 
ATOM     34  C   UNL     1      -0.612  -9.494   2.054  1.00  0.00     0.074 A 
ATOM     35  C   UNL     1       0.913  -9.812   0.167  1.00  0.00     0.049 A 
ATOM     36  N   UNL     1      -1.153 -10.675   2.197  1.00  0.00    -0.248 NA
ATOM     37  C   UNL     1      -1.270  -8.446   2.826  1.00  0.00     0.031 C 
ATOM     38  C   UNL     1       2.004  -9.491  -0.754  1.00  0.00     0.029 A 
ATOM     39  N   UNL     1       0.404 -10.992  -0.303  1.00  0.00    -0.354 N 
ATOM     40  C   UNL     1      -2.117 -10.540   3.195  1.00  0.00     0.074 A 
ATOM     41  C   UNL     1      -2.103  -9.146   3.591  1.00  0.00     0.031 C 
ATOM     42  C   UNL     1       2.104 -10.467  -1.664  1.00  0.00     0.029 A 
ATOM     43  C   UNL     1       1.128 -11.504  -1.350  1.00  0.00     0.049 A 
ATOM     44  H   UNL     1      -0.397 -11.427   0.071  1.00  0.00     0.167 HD
ATOM     45  C   UNL     1      -2.952 -11.490   3.690  1.00  0.00     0.034 A 
ATOM     46  C   UNL     1       1.049 -12.699  -1.960  1.00  0.00     0.034 A 
ATOM     47  C   UNL     1      -3.144 -12.775   3.055  1.00  0.00     0.049 A 
ATOM     48  C   UNL     1       0.000 -13.669  -1.515  1.00  0.00     0.074 A 
ATOM     49  C   UNL     1      -4.044 -13.775   3.384  1.00  0.00     0.029 A 
ATOM     50  N   UNL     1      -2.493 -13.194   1.904  1.00  0.00    -0.354 N 
ATOM     51  N   UNL     1      -0.829 -13.574  -0.504  1.00  0.00    -0.248 NA
ATOM     52  C   UNL     1      -0.154 -14.889  -2.314  1.00  0.00     0.031 C 
ATOM     53  C   UNL     1      -3.965 -14.778   2.410  1.00  0.00     0.029 A 
ATOM     54  C   UNL     1      -3.012 -14.405   1.477  1.00  0.00     0.049 A 
ATOM     55  H   UNL     1      -1.768 -12.702   1.455  1.00  0.00     0.167 HD
ATOM     56  C   UNL     1      -1.625 -14.710  -0.559  1.00  0.00     0.074 A 
ATOM     57  C   UNL     1      -1.190 -15.466  -1.718  1.00  0.00     0.031 C 
ATOM     58  C   UNL     1      -2.610 -15.105   0.284  1.00  0.00     0.034 A 
BRANCH  45  59
ATOM     59  C   UNL     1      -3.790 -11.190   4.915  1.00  0.00     0.023 A 
ATOM     60  C   UNL     1      -4.869 -10.287   4.850  1.00  0.00     0.012 A 
ATOM     61  C   UNL     1      -3.589 -11.922   6.109  1.00  0.00     0.148 A 
ATOM     62  C   UNL     1      -5.702 -10.088   5.954  1.00  0.00     0.002 A 
ATOM     63  C   UNL     1      -4.461 -11.764   7.184  1.00  0.00     0.091 A 
ATOM     64  F   UNL     1      -2.555 -12.774   6.172  1.00  0.00    -0.205 F 
ATOM     65  C   UNL     1      -5.509 -10.835   7.113  1.00  0.00     0.022 A 
BRANCH  63  66
ATOM     66  S   UNL     1      -4.369 -12.788   8.661  1.00  0.00     0.127 S 
ATOM     67  O   UNL     1      -3.737 -11.879   9.616  1.00  0.00    -0.237 OA
ATOM     68  O   UNL     1      -5.779 -13.073   8.935  1.00  0.00    -0.237 OA
ATOM     69  O   UNL     1      -3.584 -13.955   8.284  1.00  0.00    -0.744 OA
ENDBRANCH  63  66
ENDBRANCH  45  59
BRANCH  46  70
ATOM     70  C   UNL     1       1.976 -12.978  -3.085  1.00  0.00     0.023 A 
ATOM     71  C   UNL     1       1.491 -12.922  -4.404  1.00  0.00     0.012 A 
ATOM     72  C   UNL     1       3.356 -13.145  -2.858  1.00  0.00     0.148 A 
ATOM     73  C   UNL     1       2.367 -13.034  -5.482  1.00  0.00     0.002 A 
ATOM     74  C   UNL     1       4.229 -13.191  -3.937  1.00  0.00     0.091 A 
ATOM     75  F   UNL     1       3.791 -13.199  -1.591  1.00  0.00    -0.205 F 
ATOM     76  C   UNL     1       3.736 -13.150  -5.249  1.00  0.00     0.022 A 
BRANCH  74  77
ATOM     77  S   UNL     1       6.012 -13.157  -3.714  1.00  0.00     0.127 S 
ATOM     78  O   UNL     1       6.369 -14.553  -3.947  1.00  0.00    -0.237 OA
ATOM     79  O   UNL     1       6.435 -12.228  -4.762  1.00  0.00    -0.237 OA
ATOM     80  O   UNL     1       6.222 -12.660  -2.360  1.00  0.00    -0.744 OA
ENDBRANCH  74  77
ENDBRANCH  46  70
BRANCH  58  81
ATOM     81  C   UNL     1      -3.316 -16.391  -0.044  1.00  0.00     0.023 A 
ATOM     82  C   UNL     1      -2.675 -17.619   0.216  1.00  0.00     0.012 A 
ATOM     83  C   UNL     1      -4.623 -16.385  -0.566  1.00  0.00     0.148 A 
ATOM     84  C   UNL     1      -3.315 -18.823  -0.071  1.00  0.00     0.002 A 
ATOM     85  C   UNL     1      -5.269 -17.590  -0.815  1.00  0.00     0.091 A 
ATOM     86  F   UNL     1      -5.204 -15.204  -0.825  1.00  0.00    -0.205 F 
ATOM     87  C   UNL     1      -4.613 -18.809  -0.577  1.00  0.00     0.022 A 
BRANCH  85  88
ATOM     88  S   UNL     1      -6.965 -17.669  -1.400  1.00  0.00     0.127 S 
ATOM     89  O   UNL     1      -6.779 -18.030  -2.804  1.00  0.00    -0.237 OA
ATOM     90  O   UNL     1      -7.534 -18.729  -0.567  1.00  0.00    -0.237 OA
ATOM     91  O   UNL     1      -7.530 -16.347  -1.162  1.00  0.00    -0.744 OA
ENDBRANCH  85  88
ENDBRANCH  58  81
ENDBRANCH  32  33
ENDBRANCH  25  27
ENDBRANCH  24  25
ENDBRANCH  23  24
ENDBRANCH   1  23
TORSDOF 20
