REMARK SMILES Cc1nsc(N(C)C(=O)[C@@H](C)CCC[C@H](C)[NH3+])c1C(=O)OCCOC(=O)c1ccc(-c2c3nc(c(-c4cccc(S(=O)(=O)[O-])c4F)c4ccc([nH]4)c(-c4cccc(S(=O)(=O)[O-])c4F)c4nc(c(-c5cccc(S(=O)(=O)[O-])c5F)c5ccc2[nH]5)C=C4)C=C3)cc1
REMARK SMILES IDX 19 1 20 2 18 3 1 4 2 5 3 6 4 7 5 8 6 9 7 10 8 11 9 12 10 13
REMARK SMILES IDX 11 14 12 15 13 16 14 17 15 18 16 19 17 20 21 24 22 25 23 26
REMARK SMILES IDX 24 27 25 28 26 29 27 30 28 31 89 32 29 33 88 34 30 35 31 36
REMARK SMILES IDX 32 37 82 38 33 39 87 40 81 41 83 42 34 43 86 44 80 45 79 46
REMARK SMILES IDX 35 48 67 49 47 50 66 51 48 52 51 53 65 54 84 55 49 56 50 57
REMARK SMILES IDX 64 59 85 60 52 61 36 62 37 63 45 64 38 65 40 66 46 67 39 68
REMARK SMILES IDX 41 69 42 70 43 71 44 72 68 73 69 74 77 75 70 76 72 77 78 78
REMARK SMILES IDX 71 79 73 80 74 81 75 82 76 83 53 84 54 85 62 86 55 87 57 88
REMARK SMILES IDX 63 89 56 90 58 91 59 92 60 93 61 94
REMARK H PARENT 17 21 17 22 17 23 83 47 51 58
REMARK Flexibility Score: inf
ROOT
ATOM      1  C   UNL     1       5.844   5.612  10.542  1.00  0.00     0.343 C 
ATOM      2  O   UNL     1       5.172   6.594  10.250  1.00  0.00    -0.246 OA
ENDROOT
BRANCH   1   3
ATOM      3  C   UNL     1       5.330   4.444  11.252  1.00  0.00     0.117 A 
ATOM      4  C   UNL     1       7.425   4.142  12.825  1.00  0.00     0.069 C 
ATOM      5  C   UNL     1       6.050   3.807  12.347  1.00  0.00     0.068 A 
ATOM      6  N   UNL     1       5.404   2.848  13.004  1.00  0.00    -0.195 NA
ATOM      7  S   UNL     1       3.968   2.583  12.267  1.00  0.00    -0.017 S 
ATOM      8  C   UNL     1       4.129   3.764  11.014  1.00  0.00     0.133 A 
BRANCH   8   9
ATOM      9  N   UNL     1       3.098   3.778  10.021  1.00  0.00    -0.305 N 
ATOM     10  C   UNL     1       1.835   3.068  10.256  1.00  0.00     0.154 C 
BRANCH   9  11
ATOM     11  C   UNL     1       3.415   4.288   8.755  1.00  0.00     0.230 C 
ATOM     12  O   UNL     1       4.545   4.694   8.462  1.00  0.00    -0.274 OA
BRANCH  11  13
ATOM     13  C   UNL     1       2.373   4.349   7.615  1.00  0.00     0.076 C 
ATOM     14  C   UNL     1       1.840   2.993   7.150  1.00  0.00     0.018 C 
BRANCH  13  15
ATOM     15  C   UNL     1       1.259   5.391   7.811  1.00  0.00     0.013 C 
BRANCH  15  16
ATOM     16  C   UNL     1       1.754   6.821   8.035  1.00  0.00     0.007 C 
BRANCH  16  17
ATOM     17  C   UNL     1       2.617   7.448   6.932  1.00  0.00     0.064 C 
BRANCH  17  18
ATOM     18  C   UNL     1       1.919   7.603   5.565  1.00  0.00     0.177 C 
ATOM     19  C   UNL     1       2.151   6.413   4.633  1.00  0.00     0.075 C 
BRANCH  18  20
ATOM     20  N   UNL     1       2.439   8.795   4.882  1.00  0.00    -0.355 N 
ATOM     21  H   UNL     1       3.437   8.678   4.708  1.00  0.00     0.344 HD
ATOM     22  H   UNL     1       2.290   9.615   5.469  1.00  0.00     0.344 HD
ATOM     23  H   UNL     1       1.951   8.918   3.995  1.00  0.00     0.344 HD
ENDBRANCH  18  20
ENDBRANCH  17  18
ENDBRANCH  16  17
ENDBRANCH  15  16
ENDBRANCH  13  15
ENDBRANCH  11  13
ENDBRANCH   9  11
ENDBRANCH   8   9
ENDBRANCH   1   3
BRANCH   1  24
ATOM     24  O   UNL     1       7.190   5.520  10.339  1.00  0.00    -0.458 OA
BRANCH  24  25
ATOM     25  C   UNL     1       7.757   6.252   9.244  1.00  0.00     0.275 C 
BRANCH  25  26
ATOM     26  C   UNL     1       8.473   5.261   8.332  1.00  0.00     0.275 C 
BRANCH  26  27
ATOM     27  O   UNL     1       7.521   4.423   7.677  1.00  0.00    -0.458 OA
BRANCH  27  28
ATOM     28  C   UNL     1       7.159   3.292   8.329  1.00  0.00     0.338 C 
ATOM     29  O   UNL     1       7.533   2.925   9.429  1.00  0.00    -0.246 OA
BRANCH  28  30
ATOM     30  C   UNL     1       6.292   2.489   7.448  1.00  0.00     0.060 A 
ATOM     31  C   UNL     1       5.704   1.329   7.970  1.00  0.00     0.016 A 
ATOM     32  C   UNL     1       6.183   2.813   6.089  1.00  0.00     0.016 A 
ATOM     33  C   UNL     1       5.123   0.419   7.102  1.00  0.00     0.010 A 
ATOM     34  C   UNL     1       5.617   1.905   5.225  1.00  0.00     0.010 A 
ATOM     35  C   UNL     1       5.148   0.691   5.733  1.00  0.00    -0.014 A 
BRANCH  35  36
ATOM     36  C   UNL     1       4.847  -0.374   4.794  1.00  0.00     0.031 A 
ATOM     37  C   UNL     1       3.454  -0.491   4.293  1.00  0.00     0.074 A 
ATOM     38  C   UNL     1       5.879  -1.035   4.230  1.00  0.00     0.049 A 
ATOM     39  N   UNL     1       2.710  -1.549   4.253  1.00  0.00    -0.248 NA
ATOM     40  C   UNL     1       2.781   0.727   3.819  1.00  0.00     0.031 C 
ATOM     41  C   UNL     1       7.309  -0.723   4.371  1.00  0.00     0.029 A 
ATOM     42  N   UNL     1       5.861  -1.983   3.254  1.00  0.00    -0.354 N 
ATOM     43  C   UNL     1       1.542  -1.176   3.584  1.00  0.00     0.074 A 
ATOM     44  C   UNL     1       1.587   0.256   3.457  1.00  0.00     0.031 C 
ATOM     45  C   UNL     1       7.977  -1.257   3.328  1.00  0.00     0.029 A 
ATOM     46  C   UNL     1       7.047  -2.038   2.533  1.00  0.00     0.049 A 
ATOM     47  H   UNL     1       5.089  -2.568   3.077  1.00  0.00     0.167 HD
ATOM     48  C   UNL     1       0.702  -2.089   3.023  1.00  0.00     0.034 A 
ATOM     49  C   UNL     1       7.217  -2.577   1.304  1.00  0.00     0.034 A 
ATOM     50  C   UNL     1       0.961  -3.419   3.503  1.00  0.00     0.049 A 
ATOM     51  C   UNL     1       6.081  -3.494   1.052  1.00  0.00     0.074 A 
ATOM     52  C   UNL     1       0.939  -4.035   4.737  1.00  0.00     0.029 A 
ATOM     53  N   UNL     1       1.619  -4.282   2.662  1.00  0.00    -0.354 N 
ATOM     54  N   UNL     1       5.866  -4.590   1.728  1.00  0.00    -0.248 NA
ATOM     55  C   UNL     1       4.936  -2.981   0.316  1.00  0.00     0.031 C 
ATOM     56  C   UNL     1       1.989  -4.996   4.684  1.00  0.00     0.029 A 
ATOM     57  C   UNL     1       2.568  -4.917   3.415  1.00  0.00     0.049 A 
ATOM     58  H   UNL     1       1.442  -4.417   1.703  1.00  0.00     0.167 HD
ATOM     59  C   UNL     1       4.484  -4.664   1.850  1.00  0.00     0.074 A 
ATOM     60  C   UNL     1       3.967  -3.721   0.861  1.00  0.00     0.031 C 
ATOM     61  C   UNL     1       3.893  -5.251   2.935  1.00  0.00     0.034 A 
BRANCH  48  62
ATOM     62  C   UNL     1      -0.181  -1.861   1.818  1.00  0.00     0.023 A 
ATOM     63  C   UNL     1      -1.109  -2.881   1.497  1.00  0.00     0.012 A 
ATOM     64  C   UNL     1       0.027  -0.860   0.845  1.00  0.00     0.148 A 
ATOM     65  C   UNL     1      -1.740  -2.942   0.250  1.00  0.00     0.002 A 
ATOM     66  C   UNL     1      -0.664  -0.882  -0.364  1.00  0.00     0.091 A 
ATOM     67  F   UNL     1       0.989   0.053   1.013  1.00  0.00    -0.205 F 
ATOM     68  C   UNL     1      -1.522  -1.937  -0.681  1.00  0.00     0.022 A 
BRANCH  66  69
ATOM     69  S   UNL     1      -0.458   0.438  -1.565  1.00  0.00     0.127 S 
ATOM     70  O   UNL     1       0.583  -0.108  -2.429  1.00  0.00    -0.237 OA
ATOM     71  O   UNL     1      -1.788   0.517  -2.172  1.00  0.00    -0.237 OA
ATOM     72  O   UNL     1      -0.101   1.608  -0.770  1.00  0.00    -0.744 OA
ENDBRANCH  66  69
ENDBRANCH  48  62
BRANCH  49  73
ATOM     73  C   UNL     1       8.149  -2.118   0.250  1.00  0.00     0.023 A 
ATOM     74  C   UNL     1       8.595  -3.011  -0.740  1.00  0.00     0.012 A 
ATOM     75  C   UNL     1       8.459  -0.745   0.097  1.00  0.00     0.148 A 
ATOM     76  C   UNL     1       9.333  -2.554  -1.840  1.00  0.00     0.002 A 
ATOM     77  C   UNL     1       9.218  -0.300  -0.980  1.00  0.00     0.091 A 
ATOM     78  F   UNL     1       7.936   0.139   0.958  1.00  0.00    -0.205 F 
ATOM     79  C   UNL     1       9.651  -1.202  -1.957  1.00  0.00     0.022 A 
BRANCH  77  80
ATOM     80  S   UNL     1       9.680   1.429  -1.158  1.00  0.00     0.127 S 
ATOM     81  O   UNL     1      11.063   1.334  -1.629  1.00  0.00    -0.237 OA
ATOM     82  O   UNL     1       8.725   1.900  -2.155  1.00  0.00    -0.237 OA
ATOM     83  O   UNL     1       9.550   2.005   0.176  1.00  0.00    -0.744 OA
ENDBRANCH  77  80
ENDBRANCH  49  73
BRANCH  61  84
ATOM     84  C   UNL     1       4.755  -6.016   3.911  1.00  0.00     0.023 A 
ATOM     85  C   UNL     1       5.761  -5.367   4.657  1.00  0.00     0.012 A 
ATOM     86  C   UNL     1       4.382  -7.322   4.275  1.00  0.00     0.148 A 
ATOM     87  C   UNL     1       6.386  -6.003   5.732  1.00  0.00     0.002 A 
ATOM     88  C   UNL     1       4.972  -7.934   5.377  1.00  0.00     0.091 A 
ATOM     89  F   UNL     1       3.416  -7.929   3.567  1.00  0.00    -0.205 F 
ATOM     90  C   UNL     1       5.979  -7.280   6.103  1.00  0.00     0.022 A 
BRANCH  88  91
ATOM     91  S   UNL     1       4.378  -9.510   6.001  1.00  0.00     0.127 S 
ATOM     92  O   UNL     1       5.364 -10.445   5.465  1.00  0.00    -0.237 OA
ATOM     93  O   UNL     1       4.439  -9.323   7.453  1.00  0.00    -0.237 OA
ATOM     94  O   UNL     1       3.023  -9.654   5.483  1.00  0.00    -0.744 OA
ENDBRANCH  88  91
ENDBRANCH  61  84
ENDBRANCH  35  36
ENDBRANCH  28  30
ENDBRANCH  27  28
ENDBRANCH  26  27
ENDBRANCH  25  26
ENDBRANCH  24  25
ENDBRANCH   1  24
TORSDOF 22
