REMARK SMILES Cc1ccc2nc(CC3(CC(=O)OCCOC(=O)c4ccc(-c5c6nc(c(-c7cccc(S(=O)(=O)[O-])c7F)c7ccc([nH]7)c(-c7cccc(S(=O)(=O)[O-])c7F)c7nc(c(-c8cccc(S(=O)(=O)[O-])c8F)c8ccc5[nH]8)C=C7)C=C6)cc4)CCCCC3)sc2c1
REMARK SMILES IDX 14 1 13 2 11 3 12 4 10 5 9 6 82 7 86 8 83 9 85 10 84 11 8 12
REMARK SMILES IDX 7 13 1 14 2 15 3 16 89 17 4 18 88 19 5 20 87 21 6 22 15 23
REMARK SMILES IDX 16 24 17 25 18 26 19 27 20 28 81 29 21 30 80 31 22 32 23 33
REMARK SMILES IDX 24 34 74 35 25 36 79 37 73 38 75 39 26 40 78 41 72 42 71 43
REMARK SMILES IDX 27 45 59 46 39 47 58 48 40 49 43 50 57 51 76 52 41 53 42 54
REMARK SMILES IDX 56 56 77 57 44 58 28 59 29 60 37 61 30 62 32 63 38 64 31 65
REMARK SMILES IDX 33 66 34 67 35 68 36 69 60 70 61 71 69 72 62 73 64 74 70 75
REMARK SMILES IDX 63 76 65 77 66 78 67 79 68 80 45 81 46 82 54 83 47 84 49 85
REMARK SMILES IDX 55 86 48 87 50 88 51 89 52 90 53 91
REMARK H PARENT 75 44 43 55
REMARK Flexibility Score: inf
ROOT
ATOM      1  C   UNL     1      -5.946  -4.506   1.221  1.00  0.00     0.274 C 
ENDROOT
BRANCH   1   2
ATOM      2  O   UNL     1      -5.389  -3.608   0.241  1.00  0.00    -0.462 OA
BRANCH   2   3
ATOM      3  C   UNL     1      -6.278  -2.992  -0.569  1.00  0.00     0.306 C 
ATOM      4  O   UNL     1      -7.491  -3.172  -0.536  1.00  0.00    -0.252 OA
BRANCH   3   5
ATOM      5  C   UNL     1      -5.664  -2.025  -1.562  1.00  0.00     0.130 C 
BRANCH   5   6
ATOM      6  C   UNL     1      -4.124  -1.771  -1.628  1.00  0.00    -0.013 C 
ATOM      7  C   UNL     1      -3.864  -0.834  -2.852  1.00  0.00     0.008 C 
ATOM      8  C   UNL     1      -3.328  -3.078  -1.879  1.00  0.00     0.008 C 
ATOM      9  C   UNL     1      -4.176  -1.482  -4.207  1.00  0.00     0.001 C 
ATOM     10  C   UNL     1      -3.708  -3.766  -3.188  1.00  0.00     0.001 C 
ATOM     11  C   UNL     1      -3.493  -2.836  -4.378  1.00  0.00     0.000 C 
BRANCH   6  12
ATOM     12  C   UNL     1      -3.684  -1.043  -0.313  1.00  0.00     0.075 C 
BRANCH  12  13
ATOM     13  C   UNL     1      -2.215  -0.722  -0.217  1.00  0.00     0.094 A 
ATOM     14  C   UNL     1       3.676   1.178   0.004  1.00  0.00     0.044 C 
ATOM     15  C   UNL     1       2.387   0.407  -0.016  1.00  0.00    -0.050 A 
ATOM     16  C   UNL     1       2.394  -0.986   0.091  1.00  0.00     0.006 A 
ATOM     17  C   UNL     1       1.167   1.096  -0.128  1.00  0.00     0.024 A 
ATOM     18  C   UNL     1       1.198  -1.710   0.086  1.00  0.00     0.030 A 
ATOM     19  C   UNL     1      -0.029   0.356  -0.140  1.00  0.00     0.055 A 
ATOM     20  C   UNL     1      -0.032  -1.034  -0.032  1.00  0.00     0.082 A 
ATOM     21  S   UNL     1      -1.658   0.904  -0.278  1.00  0.00    -0.119 S 
ATOM     22  N   UNL     1      -1.278  -1.631  -0.057  1.00  0.00    -0.241 NA
ENDBRANCH  12  13
ENDBRANCH   6  12
ENDBRANCH   5   6
ENDBRANCH   3   5
ENDBRANCH   2   3
ENDBRANCH   1   2
BRANCH   1  23
ATOM     23  C   UNL     1      -5.952  -3.851   2.598  1.00  0.00     0.275 C 
BRANCH  23  24
ATOM     24  O   UNL     1      -6.665  -2.605   2.533  1.00  0.00    -0.458 OA
BRANCH  24  25
ATOM     25  C   UNL     1      -5.966  -1.512   2.915  1.00  0.00     0.338 C 
ATOM     26  O   UNL     1      -4.834  -1.473   3.363  1.00  0.00    -0.246 OA
BRANCH  25  27
ATOM     27  C   UNL     1      -6.784  -0.309   2.706  1.00  0.00     0.060 A 
ATOM     28  C   UNL     1      -7.246   0.021   1.430  1.00  0.00     0.016 A 
ATOM     29  C   UNL     1      -7.012   0.545   3.784  1.00  0.00     0.016 A 
ATOM     30  C   UNL     1      -7.897   1.235   1.218  1.00  0.00     0.010 A 
ATOM     31  C   UNL     1      -7.726   1.726   3.583  1.00  0.00     0.010 A 
ATOM     32  C   UNL     1      -8.153   2.094   2.296  1.00  0.00    -0.014 A 
BRANCH  32  33
ATOM     33  C   UNL     1      -8.877   3.376   2.103  1.00  0.00     0.031 A 
ATOM     34  C   UNL     1      -8.194   4.680   2.410  1.00  0.00     0.074 A 
ATOM     35  C   UNL     1     -10.172   3.360   1.732  1.00  0.00     0.049 A 
ATOM     36  N   UNL     1      -8.704   5.880   2.489  1.00  0.00    -0.248 NA
ATOM     37  C   UNL     1      -6.747   4.623   2.679  1.00  0.00     0.031 C 
ATOM     38  C   UNL     1     -10.946   2.157   1.419  1.00  0.00     0.029 A 
ATOM     39  N   UNL     1     -11.076   4.383   1.593  1.00  0.00    -0.354 N 
ATOM     40  C   UNL     1      -7.661   6.712   2.876  1.00  0.00     0.074 A 
ATOM     41  C   UNL     1      -6.484   5.881   3.007  1.00  0.00     0.031 C 
ATOM     42  C   UNL     1     -12.211   2.508   1.143  1.00  0.00     0.029 A 
ATOM     43  C   UNL     1     -12.351   3.950   1.312  1.00  0.00     0.049 A 
ATOM     44  H   UNL     1     -10.835   5.333   1.686  1.00  0.00     0.167 HD
ATOM     45  C   UNL     1      -7.682   8.049   3.093  1.00  0.00     0.034 A 
ATOM     46  C   UNL     1     -13.511   4.630   1.238  1.00  0.00     0.034 A 
ATOM     47  C   UNL     1      -8.843   8.878   2.906  1.00  0.00     0.049 A 
ATOM     48  C   UNL     1     -13.502   6.116   1.463  1.00  0.00     0.074 A 
ATOM     49  C   UNL     1      -8.950  10.251   3.040  1.00  0.00     0.029 A 
ATOM     50  N   UNL     1     -10.096   8.412   2.539  1.00  0.00    -0.354 N 
ATOM     51  N   UNL     1     -12.489   6.901   1.738  1.00  0.00    -0.248 NA
ATOM     52  C   UNL     1     -14.790   6.814   1.348  1.00  0.00     0.031 C 
ATOM     53  C   UNL     1     -10.272  10.615   2.760  1.00  0.00     0.029 A 
ATOM     54  C   UNL     1     -10.985   9.470   2.444  1.00  0.00     0.049 A 
ATOM     55  H   UNL     1     -10.321   7.469   2.372  1.00  0.00     0.167 HD
ATOM     56  C   UNL     1     -13.010   8.186   1.807  1.00  0.00     0.074 A 
ATOM     57  C   UNL     1     -14.427   8.078   1.520  1.00  0.00     0.031 C 
ATOM     58  C   UNL     1     -12.379   9.349   2.103  1.00  0.00     0.034 A 
BRANCH  45  59
ATOM     59  C   UNL     1      -6.399   8.711   3.521  1.00  0.00     0.023 A 
ATOM     60  C   UNL     1      -5.385   8.938   2.569  1.00  0.00     0.012 A 
ATOM     61  C   UNL     1      -6.221   9.163   4.843  1.00  0.00     0.148 A 
ATOM     62  C   UNL     1      -4.204   9.585   2.931  1.00  0.00     0.002 A 
ATOM     63  C   UNL     1      -5.056   9.839   5.188  1.00  0.00     0.091 A 
ATOM     64  F   UNL     1      -7.185   8.914   5.741  1.00  0.00    -0.205 F 
ATOM     65  C   UNL     1      -4.044  10.044   4.236  1.00  0.00     0.022 A 
BRANCH  63  66
ATOM     66  S   UNL     1      -4.793  10.527   6.827  1.00  0.00     0.127 S 
ATOM     67  O   UNL     1      -3.874   9.552   7.413  1.00  0.00    -0.237 OA
ATOM     68  O   UNL     1      -4.191  11.827   6.529  1.00  0.00    -0.237 OA
ATOM     69  O   UNL     1      -6.111  10.601   7.442  1.00  0.00    -0.744 OA
ENDBRANCH  63  66
ENDBRANCH  45  59
BRANCH  46  70
ATOM     70  C   UNL     1     -14.768   3.904   0.902  1.00  0.00     0.023 A 
ATOM     71  C   UNL     1     -15.353   4.093  -0.364  1.00  0.00     0.012 A 
ATOM     72  C   UNL     1     -15.345   2.981   1.796  1.00  0.00     0.148 A 
ATOM     73  C   UNL     1     -16.499   3.386  -0.729  1.00  0.00     0.002 A 
ATOM     74  C   UNL     1     -16.454   2.239   1.405  1.00  0.00     0.091 A 
ATOM     75  F   UNL     1     -14.788   2.832   3.006  1.00  0.00    -0.205 F 
ATOM     76  C   UNL     1     -17.041   2.450   0.148  1.00  0.00     0.022 A 
BRANCH  74  77
ATOM     77  S   UNL     1     -17.118   0.913   2.420  1.00  0.00     0.127 S 
ATOM     78  O   UNL     1     -18.293   1.547   3.011  1.00  0.00    -0.237 OA
ATOM     79  O   UNL     1     -17.410  -0.120   1.426  1.00  0.00    -0.237 OA
ATOM     80  O   UNL     1     -16.046   0.563   3.343  1.00  0.00    -0.744 OA
ENDBRANCH  74  77
ENDBRANCH  46  70
BRANCH  58  81
ATOM     81  C   UNL     1     -13.208  10.604   2.113  1.00  0.00     0.023 A 
ATOM     82  C   UNL     1     -14.065  10.859   3.201  1.00  0.00     0.012 A 
ATOM     83  C   UNL     1     -13.086  11.560   1.087  1.00  0.00     0.148 A 
ATOM     84  C   UNL     1     -14.807  12.038   3.257  1.00  0.00     0.002 A 
ATOM     85  C   UNL     1     -13.799  12.751   1.168  1.00  0.00     0.091 A 
ATOM     86  F   UNL     1     -12.283  11.288   0.048  1.00  0.00    -0.205 F 
ATOM     87  C   UNL     1     -14.665  12.988   2.247  1.00  0.00     0.022 A 
BRANCH  85  88
ATOM     88  S   UNL     1     -13.608  14.060  -0.047  1.00  0.00     0.127 S 
ATOM     89  O   UNL     1     -14.798  13.876  -0.875  1.00  0.00    -0.237 OA
ATOM     90  O   UNL     1     -13.623  15.266   0.782  1.00  0.00    -0.237 OA
ATOM     91  O   UNL     1     -12.334  13.803  -0.707  1.00  0.00    -0.744 OA
ENDBRANCH  85  88
ENDBRANCH  58  81
ENDBRANCH  32  33
ENDBRANCH  25  27
ENDBRANCH  24  25
ENDBRANCH  23  24
ENDBRANCH   1  23
TORSDOF 17
