REMARK SMILES Cc1cc(Oc2ccnc(C(=O)OCCOC(=O)c3ccc(-c4c5nc(c(-c6cccc(S(=O)(=O)[O-])c6F)c6ccc([nH]6)c(-c6cccc(S(=O)(=O)[O-])c6F)c6nc(c(-c7cccc(S(=O)(=O)[O-])c7F)c7ccc4[nH]7)C=C6)C=C5)cc3)c2)cc(C)c1Cl
REMARK SMILES IDX 15 1 14 2 13 3 11 4 12 5 10 6 6 7 7 8 82 9 8 10 9 11 5 12
REMARK SMILES IDX 4 13 1 14 2 15 3 16 86 17 84 18 87 19 83 20 85 21 16 22
REMARK SMILES IDX 17 23 18 24 19 25 20 26 81 27 21 28 80 29 22 30 23 31 24 32
REMARK SMILES IDX 74 33 25 34 79 35 73 36 75 37 26 38 78 39 72 40 71 41 27 43
REMARK SMILES IDX 59 44 39 45 58 46 40 47 43 48 57 49 76 50 41 51 42 52 56 54
REMARK SMILES IDX 77 55 44 56 28 57 29 58 37 59 30 60 32 61 38 62 31 63 33 64
REMARK SMILES IDX 34 65 35 66 36 67 60 68 61 69 69 70 62 71 64 72 70 73 63 74
REMARK SMILES IDX 65 75 66 76 67 77 68 78 45 79 46 80 54 81 47 82 49 83 55 84
REMARK SMILES IDX 48 85 50 86 51 87 52 88 53 89
REMARK H PARENT 75 42 43 53
REMARK Flexibility Score: inf
ROOT
ATOM      1  C   UNL     1       7.460   3.882  -4.784  1.00  0.00     0.275 C 
ENDROOT
BRANCH   1   2
ATOM      2  C   UNL     1       7.999   2.605  -4.130  1.00  0.00     0.275 C 
BRANCH   2   3
ATOM      3  O   UNL     1       7.128   2.133  -3.083  1.00  0.00    -0.457 OA
BRANCH   3   4
ATOM      4  C   UNL     1       7.536   2.405  -1.810  1.00  0.00     0.357 C 
ATOM      5  O   UNL     1       8.589   2.930  -1.506  1.00  0.00    -0.244 OA
BRANCH   4   6
ATOM      6  C   UNL     1       6.471   2.024  -0.825  1.00  0.00     0.152 A 
ATOM      7  C   UNL     1       4.546   0.804  -0.143  1.00  0.00     0.131 A 
ATOM      8  C   UNL     1       4.571   1.468   1.080  1.00  0.00     0.067 A 
ATOM      9  C   UNL     1       5.508   1.073  -1.114  1.00  0.00     0.083 A 
ATOM     10  C   UNL     1       5.569   2.400   1.282  1.00  0.00     0.116 A 
ATOM     11  N   UNL     1       6.523   2.675   0.370  1.00  0.00    -0.249 NA
BRANCH   7  12
ATOM     12  O   UNL     1       3.679  -0.224  -0.417  1.00  0.00    -0.457 OA
BRANCH  12  13
ATOM     13  C   UNL     1       2.328  -0.064  -0.223  1.00  0.00     0.128 A 
ATOM     14  C   UNL     1      -0.458   2.517  -0.107  1.00  0.00     0.046 C 
ATOM     15  C   UNL     1       0.244   1.185  -0.097  1.00  0.00    -0.028 A 
ATOM     16  C   UNL     1       1.643   1.151  -0.240  1.00  0.00     0.052 A 
ATOM     17  C   UNL     1      -0.464  -0.029   0.019  1.00  0.00     0.047 A 
ATOM     18  C   UNL     1       0.217  -1.260   0.018  1.00  0.00    -0.028 A 
ATOM     19  Cl  UNL     1      -2.196  -0.010   0.139  1.00  0.00    -0.084 Cl
ATOM     20  C   UNL     1       1.614  -1.258  -0.098  1.00  0.00     0.052 A 
ATOM     21  C   UNL     1      -0.503  -2.577   0.104  1.00  0.00     0.046 C 
ENDBRANCH  12  13
ENDBRANCH   7  12
ENDBRANCH   4   6
ENDBRANCH   3   4
ENDBRANCH   2   3
ENDBRANCH   1   2
BRANCH   1  22
ATOM     22  O   UNL     1       7.498   5.009  -3.889  1.00  0.00    -0.458 OA
BRANCH  22  23
ATOM     23  C   UNL     1       6.358   5.225  -3.191  1.00  0.00     0.338 C 
ATOM     24  O   UNL     1       5.318   4.589  -3.270  1.00  0.00    -0.246 OA
BRANCH  23  25
ATOM     25  C   UNL     1       6.571   6.282  -2.189  1.00  0.00     0.060 A 
ATOM     26  C   UNL     1       6.474   5.917  -0.847  1.00  0.00     0.016 A 
ATOM     27  C   UNL     1       6.768   7.618  -2.541  1.00  0.00     0.016 A 
ATOM     28  C   UNL     1       6.556   6.878   0.154  1.00  0.00     0.010 A 
ATOM     29  C   UNL     1       6.862   8.586  -1.531  1.00  0.00     0.010 A 
ATOM     30  C   UNL     1       6.741   8.225  -0.177  1.00  0.00    -0.014 A 
BRANCH  30  31
ATOM     31  C   UNL     1       6.764   9.239   0.908  1.00  0.00     0.031 A 
ATOM     32  C   UNL     1       5.618  10.198   1.073  1.00  0.00     0.074 A 
ATOM     33  C   UNL     1       7.798   9.273   1.771  1.00  0.00     0.049 A 
ATOM     34  N   UNL     1       5.467  11.162   1.943  1.00  0.00    -0.248 NA
ATOM     35  C   UNL     1       4.492  10.054   0.136  1.00  0.00     0.031 C 
ATOM     36  C   UNL     1       8.961   8.386   1.727  1.00  0.00     0.029 A 
ATOM     37  N   UNL     1       8.040  10.088   2.849  1.00  0.00    -0.354 N 
ATOM     38  C   UNL     1       4.255  11.768   1.635  1.00  0.00     0.074 A 
ATOM     39  C   UNL     1       3.709  11.062   0.496  1.00  0.00     0.031 C 
ATOM     40  C   UNL     1       9.793   8.703   2.732  1.00  0.00     0.029 A 
ATOM     41  C   UNL     1       9.243   9.838   3.468  1.00  0.00     0.049 A 
ATOM     42  H   UNL     1       7.413  10.784   3.151  1.00  0.00     0.167 HD
ATOM     43  C   UNL     1       3.645  12.807   2.254  1.00  0.00     0.034 A 
ATOM     44  C   UNL     1       9.844  10.464   4.499  1.00  0.00     0.034 A 
ATOM     45  C   UNL     1       4.164  13.477   3.417  1.00  0.00     0.049 A 
ATOM     46  C   UNL     1       9.143  11.616   5.166  1.00  0.00     0.074 A 
ATOM     47  C   UNL     1       3.598  14.515   4.136  1.00  0.00     0.029 A 
ATOM     48  N   UNL     1       5.369  13.175   4.033  1.00  0.00    -0.354 N 
ATOM     49  N   UNL     1       7.958  12.117   4.916  1.00  0.00    -0.248 NA
ATOM     50  C   UNL     1       9.852  12.275   6.273  1.00  0.00     0.031 C 
ATOM     51  C   UNL     1       4.466  14.847   5.182  1.00  0.00     0.029 A 
ATOM     52  C   UNL     1       5.567  14.008   5.121  1.00  0.00     0.049 A 
ATOM     53  H   UNL     1       5.992  12.471   3.741  1.00  0.00     0.167 HD
ATOM     54  C   UNL     1       7.769  13.133   5.846  1.00  0.00     0.074 A 
ATOM     55  C   UNL     1       8.951  13.158   6.684  1.00  0.00     0.031 C 
ATOM     56  C   UNL     1       6.723  13.985   5.980  1.00  0.00     0.034 A 
BRANCH  43  57
ATOM     57  C   UNL     1       2.321  13.267   1.705  1.00  0.00     0.023 A 
ATOM     58  C   UNL     1       1.162  12.504   1.956  1.00  0.00     0.012 A 
ATOM     59  C   UNL     1       2.212  14.478   0.994  1.00  0.00     0.148 A 
ATOM     60  C   UNL     1      -0.081  12.927   1.486  1.00  0.00     0.002 A 
ATOM     61  C   UNL     1       0.964  14.911   0.559  1.00  0.00     0.091 A 
ATOM     62  F   UNL     1       3.329  15.176   0.744  1.00  0.00    -0.205 F 
ATOM     63  C   UNL     1      -0.181  14.133   0.797  1.00  0.00     0.022 A 
BRANCH  61  64
ATOM     64  S   UNL     1       0.726  16.483  -0.276  1.00  0.00     0.127 S 
ATOM     65  O   UNL     1       0.517  16.055  -1.658  1.00  0.00    -0.237 OA
ATOM     66  O   UNL     1      -0.469  17.009   0.385  1.00  0.00    -0.237 OA
ATOM     67  O   UNL     1       1.939  17.252  -0.032  1.00  0.00    -0.744 OA
ENDBRANCH  61  64
ENDBRANCH  43  57
BRANCH  44  68
ATOM     68  C   UNL     1      11.169   9.987   4.986  1.00  0.00     0.023 A 
ATOM     69  C   UNL     1      11.261   9.365   6.246  1.00  0.00     0.012 A 
ATOM     70  C   UNL     1      12.330  10.116   4.199  1.00  0.00     0.148 A 
ATOM     71  C   UNL     1      12.488   8.898   6.721  1.00  0.00     0.002 A 
ATOM     72  C   UNL     1      13.538   9.600   4.654  1.00  0.00     0.091 A 
ATOM     73  F   UNL     1      12.230  10.736   3.014  1.00  0.00    -0.205 F 
ATOM     74  C   UNL     1      13.622   9.004   5.921  1.00  0.00     0.022 A 
BRANCH  72  75
ATOM     75  S   UNL     1      15.013   9.580   3.628  1.00  0.00     0.127 S 
ATOM     76  O   UNL     1      15.788  10.679   4.197  1.00  0.00    -0.237 OA
ATOM     77  O   UNL     1      15.553   8.245   3.890  1.00  0.00    -0.237 OA
ATOM     78  O   UNL     1      14.537   9.773   2.264  1.00  0.00    -0.744 OA
ENDBRANCH  72  75
ENDBRANCH  44  68
BRANCH  56  79
ATOM     79  C   UNL     1       6.794  15.008   7.083  1.00  0.00     0.023 A 
ATOM     80  C   UNL     1       7.640  16.125   6.938  1.00  0.00     0.012 A 
ATOM     81  C   UNL     1       5.972  14.905   8.222  1.00  0.00     0.148 A 
ATOM     82  C   UNL     1       7.688  17.110   7.923  1.00  0.00     0.002 A 
ATOM     83  C   UNL     1       5.994  15.912   9.180  1.00  0.00     0.091 A 
ATOM     84  F   UNL     1       5.189  13.824   8.352  1.00  0.00    -0.205 F 
ATOM     85  C   UNL     1       6.858  17.010   9.037  1.00  0.00     0.022 A 
BRANCH  83  86
ATOM     86  S   UNL     1       4.894  15.906  10.601  1.00  0.00     0.127 S 
ATOM     87  O   UNL     1       5.793  15.484  11.674  1.00  0.00    -0.237 OA
ATOM     88  O   UNL     1       4.470  17.304  10.676  1.00  0.00    -0.237 OA
ATOM     89  O   UNL     1       3.826  14.972  10.271  1.00  0.00    -0.744 OA
ENDBRANCH  83  86
ENDBRANCH  56  79
ENDBRANCH  30  31
ENDBRANCH  23  25
ENDBRANCH  22  23
ENDBRANCH   1  22
TORSDOF 16
