REMARK SMILES COc1c(C(=O)OCCOC(=O)c2ccc(-c3c4nc(c(-c5cccc(S(=O)(=O)[O-])c5F)c5ccc([nH]5)c(-c5cccc(S(=O)(=O)[O-])c5F)c5nc(c(-c6cccc(S(=O)(=O)[O-])c6F)c6ccc3[nH]6)C=C5)C=C4)cc2)cccc1-c1cc(C)ccc1C
REMARK SMILES IDX 9 1 8 2 7 3 5 4 6 5 4 6 3 7 79 8 76 9 78 10 77 11 2 12 1 13
REMARK SMILES IDX 80 14 81 15 86 16 82 17 85 18 87 19 83 20 84 21 10 22 11 23
REMARK SMILES IDX 12 24 13 25 14 26 75 27 15 28 74 29 16 30 17 31 18 32 68 33
REMARK SMILES IDX 19 34 73 35 67 36 69 37 20 38 72 39 66 40 65 41 21 43 53 44
REMARK SMILES IDX 33 45 52 46 34 47 37 48 51 49 70 50 35 51 36 52 50 54 71 55
REMARK SMILES IDX 38 56 22 57 23 58 31 59 24 60 26 61 32 62 25 63 27 64 28 65
REMARK SMILES IDX 29 66 30 67 54 68 55 69 63 70 56 71 58 72 64 73 57 74 59 75
REMARK SMILES IDX 60 76 61 77 62 78 39 79 40 80 48 81 41 82 43 83 49 84 42 85
REMARK SMILES IDX 44 86 45 87 46 88 47 89
REMARK H PARENT 69 42 37 53
REMARK Flexibility Score: inf
ROOT
ATOM      1  C   UNL     1      -4.111   2.039  -1.056  1.00  0.00     0.275 C 
ENDROOT
BRANCH   1   2
ATOM      2  C   UNL     1      -3.342   0.926  -1.765  1.00  0.00     0.275 C 
BRANCH   2   3
ATOM      3  O   UNL     1      -1.925   1.180  -1.701  1.00  0.00    -0.458 OA
BRANCH   3   4
ATOM      4  C   UNL     1      -1.288   1.366  -2.882  1.00  0.00     0.342 C 
ATOM      5  O   UNL     1      -1.801   1.350  -3.991  1.00  0.00    -0.246 OA
BRANCH   4   6
ATOM      6  C   UNL     1       0.124   1.762  -2.670  1.00  0.00     0.102 A 
ATOM      7  C   UNL     1       0.969   1.136  -1.743  1.00  0.00     0.141 A 
ATOM      8  C   UNL     1       2.326   1.530  -1.655  1.00  0.00     0.025 A 
ATOM      9  C   UNL     1       0.625   2.784  -3.492  1.00  0.00     0.019 A 
ATOM     10  C   UNL     1       2.755   2.646  -2.407  1.00  0.00     0.012 A 
ATOM     11  C   UNL     1       1.914   3.268  -3.321  1.00  0.00     0.002 A 
BRANCH   7  12
ATOM     12  O   UNL     1       0.496   0.029  -1.077  1.00  0.00    -0.495 OA
ATOM     13  C   UNL     1       0.430   0.238   0.333  1.00  0.00     0.278 C 
ENDBRANCH   7  12
BRANCH   8  14
ATOM     14  C   UNL     1       3.362   0.760  -0.938  1.00  0.00    -0.011 A 
ATOM     15  C   UNL     1       4.114   1.391   0.075  1.00  0.00     0.012 A 
ATOM     16  C   UNL     1       3.702  -0.562  -1.306  1.00  0.00    -0.043 A 
ATOM     17  C   UNL     1       5.174   0.740   0.719  1.00  0.00    -0.050 A 
ATOM     18  C   UNL     1       4.731  -1.226  -0.620  1.00  0.00     0.004 A 
ATOM     19  C   UNL     1       2.993  -1.313  -2.405  1.00  0.00     0.045 C 
ATOM     20  C   UNL     1       5.997   1.474   1.735  1.00  0.00     0.044 C 
ATOM     21  C   UNL     1       5.466  -0.580   0.373  1.00  0.00     0.004 A 
ENDBRANCH   8  14
ENDBRANCH   4   6
ENDBRANCH   3   4
ENDBRANCH   2   3
ENDBRANCH   1   2
BRANCH   1  22
ATOM     22  O   UNL     1      -4.005   3.262  -1.804  1.00  0.00    -0.458 OA
BRANCH  22  23
ATOM     23  C   UNL     1      -3.145   4.178  -1.304  1.00  0.00     0.338 C 
ATOM     24  O   UNL     1      -2.505   4.118  -0.269  1.00  0.00    -0.246 OA
BRANCH  23  25
ATOM     25  C   UNL     1      -3.005   5.270  -2.276  1.00  0.00     0.060 A 
ATOM     26  C   UNL     1      -2.104   5.099  -3.323  1.00  0.00     0.016 A 
ATOM     27  C   UNL     1      -3.667   6.480  -2.107  1.00  0.00     0.016 A 
ATOM     28  C   UNL     1      -1.789   6.161  -4.165  1.00  0.00     0.010 A 
ATOM     29  C   UNL     1      -3.418   7.521  -3.009  1.00  0.00     0.010 A 
ATOM     30  C   UNL     1      -2.452   7.386  -4.027  1.00  0.00    -0.014 A 
BRANCH  30  31
ATOM     31  C   UNL     1      -2.136   8.533  -4.923  1.00  0.00     0.031 A 
ATOM     32  C   UNL     1      -1.671   9.838  -4.336  1.00  0.00     0.074 A 
ATOM     33  C   UNL     1      -2.314   8.430  -6.255  1.00  0.00     0.049 A 
ATOM     34  N   UNL     1      -1.564  11.011  -4.904  1.00  0.00    -0.248 NA
ATOM     35  C   UNL     1      -1.299   9.825  -2.912  1.00  0.00     0.031 C 
ATOM     36  C   UNL     1      -2.748   7.223  -6.961  1.00  0.00     0.029 A 
ATOM     37  N   UNL     1      -2.185   9.368  -7.251  1.00  0.00    -0.354 N 
ATOM     38  C   UNL     1      -1.198  11.891  -3.892  1.00  0.00     0.074 A 
ATOM     39  C   UNL     1      -1.086  11.112  -2.677  1.00  0.00     0.031 C 
ATOM     40  C   UNL     1      -2.860   7.495  -8.269  1.00  0.00     0.029 A 
ATOM     41  C   UNL     1      -2.583   8.910  -8.486  1.00  0.00     0.049 A 
ATOM     42  H   UNL     1      -1.842  10.278  -7.096  1.00  0.00     0.167 HD
ATOM     43  C   UNL     1      -0.972  13.225  -3.968  1.00  0.00     0.034 A 
ATOM     44  C   UNL     1      -2.760   9.560  -9.653  1.00  0.00     0.034 A 
ATOM     45  C   UNL     1      -1.011  13.981  -5.192  1.00  0.00     0.049 A 
ATOM     46  C   UNL     1      -2.479  11.034  -9.723  1.00  0.00     0.074 A 
ATOM     47  C   UNL     1      -0.733  15.322  -5.384  1.00  0.00     0.029 A 
ATOM     48  N   UNL     1      -1.344  13.460  -6.434  1.00  0.00    -0.354 N 
ATOM     49  N   UNL     1      -2.074  11.841  -8.772  1.00  0.00    -0.248 NA
ATOM     50  C   UNL     1      -2.661  11.686 -11.027  1.00  0.00     0.031 C 
ATOM     51  C   UNL     1      -0.910  15.616  -6.742  1.00  0.00     0.029 A 
ATOM     52  C   UNL     1      -1.282  14.453  -7.397  1.00  0.00     0.049 A 
ATOM     53  H   UNL     1      -1.589  12.522  -6.605  1.00  0.00     0.167 HD
ATOM     54  C   UNL     1      -1.934  13.090  -9.364  1.00  0.00     0.074 A 
ATOM     55  C   UNL     1      -2.274  12.928 -10.764  1.00  0.00     0.031 C 
ATOM     56  C   UNL     1      -1.575  14.268  -8.796  1.00  0.00     0.034 A 
BRANCH  43  57
ATOM     57  C   UNL     1      -0.647  13.949  -2.687  1.00  0.00     0.023 A 
ATOM     58  C   UNL     1       0.612  13.773  -2.078  1.00  0.00     0.012 A 
ATOM     59  C   UNL     1      -1.580  14.825  -2.099  1.00  0.00     0.148 A 
ATOM     60  C   UNL     1       0.919  14.422  -0.882  1.00  0.00     0.002 A 
ATOM     61  C   UNL     1      -1.250  15.502  -0.930  1.00  0.00     0.091 A 
ATOM     62  F   UNL     1      -2.783  14.964  -2.675  1.00  0.00    -0.205 F 
ATOM     63  C   UNL     1      -0.007  15.292  -0.313  1.00  0.00     0.022 A 
BRANCH  61  64
ATOM     64  S   UNL     1      -2.357  16.700  -0.175  1.00  0.00     0.127 S 
ATOM     65  O   UNL     1      -2.960  15.913   0.898  1.00  0.00    -0.237 OA
ATOM     66  O   UNL     1      -1.432  17.740   0.279  1.00  0.00    -0.237 OA
ATOM     67  O   UNL     1      -3.260  17.124  -1.237  1.00  0.00    -0.744 OA
ENDBRANCH  61  64
ENDBRANCH  43  57
BRANCH  44  68
ATOM     68  C   UNL     1      -3.225   8.798 -10.846  1.00  0.00     0.023 A 
ATOM     69  C   UNL     1      -2.325   8.540 -11.897  1.00  0.00     0.012 A 
ATOM     70  C   UNL     1      -4.524   8.254 -10.902  1.00  0.00     0.148 A 
ATOM     71  C   UNL     1      -2.712   7.759 -12.986  1.00  0.00     0.002 A 
ATOM     72  C   UNL     1      -4.883   7.427 -11.960  1.00  0.00     0.091 A 
ATOM     73  F   UNL     1      -5.370   8.526  -9.898  1.00  0.00    -0.205 F 
ATOM     74  C   UNL     1      -3.983   7.190 -13.010  1.00  0.00     0.022 A 
BRANCH  72  75
ATOM     75  S   UNL     1      -6.441   6.532 -12.000  1.00  0.00     0.127 S 
ATOM     76  O   UNL     1      -7.134   7.189 -13.105  1.00  0.00    -0.237 OA
ATOM     77  O   UNL     1      -5.995   5.166 -12.277  1.00  0.00    -0.237 OA
ATOM     78  O   UNL     1      -7.036   6.716 -10.684  1.00  0.00    -0.744 OA
ENDBRANCH  72  75
ENDBRANCH  44  68
BRANCH  56  79
ATOM     79  C   UNL     1      -1.502  15.478  -9.689  1.00  0.00     0.023 A 
ATOM     80  C   UNL     1      -2.690  16.097 -10.124  1.00  0.00     0.012 A 
ATOM     81  C   UNL     1      -0.259  16.046 -10.032  1.00  0.00     0.148 A 
ATOM     82  C   UNL     1      -2.642  17.250 -10.907  1.00  0.00     0.002 A 
ATOM     83  C   UNL     1      -0.220  17.220 -10.776  1.00  0.00     0.091 A 
ATOM     84  F   UNL     1       0.861  15.429  -9.627  1.00  0.00    -0.205 F 
ATOM     85  C   UNL     1      -1.410  17.817 -11.222  1.00  0.00     0.022 A 
BRANCH  83  86
ATOM     86  S   UNL     1       1.319  18.067 -11.150  1.00  0.00     0.127 S 
ATOM     87  O   UNL     1       1.504  17.741 -12.562  1.00  0.00    -0.237 OA
ATOM     88  O   UNL     1       0.978  19.466 -10.886  1.00  0.00    -0.237 OA
ATOM     89  O   UNL     1       2.312  17.510 -10.241  1.00  0.00    -0.744 OA
ENDBRANCH  83  86
ENDBRANCH  56  79
ENDBRANCH  30  31
ENDBRANCH  23  25
ENDBRANCH  22  23
ENDBRANCH   1  22
TORSDOF 16
