REMARK SMILES COc1cc2c(cc1OC)[C@@H](CC(=O)OCCOC(=O)c1ccc(-c3c4nc(c(-c5cccc(S(=O)(=O)[O-])c5F)c5ccc([nH]5)c(-c5cccc(S(=O)(=O)[O-])c5F)c5nc(c(-c6cccc(S(=O)(=O)[O-])c6F)c6ccc3[nH]6)C=C5)C=C4)cc1)N(C(=O)Nc1ccc(Cl)cc1)CC2
REMARK SMILES IDX 16 1 15 2 13 3 14 4 12 5 11 6 3 7 4 8 8 9 5 10 7 11 6 12
REMARK SMILES IDX 96 13 95 14 84 15 2 16 1 17 9 18 10 19 85 20 86 21 87 22
REMARK SMILES IDX 88 24 89 25 94 26 90 27 93 28 91 29 92 30 17 31 18 32 19 33
REMARK SMILES IDX 20 34 21 35 22 36 83 37 23 38 82 39 24 40 25 41 26 42 76 43
REMARK SMILES IDX 27 44 81 45 75 46 77 47 28 48 80 49 74 50 73 51 29 53 61 54
REMARK SMILES IDX 41 55 60 56 42 57 45 58 59 59 78 60 43 61 44 62 58 64 79 65
REMARK SMILES IDX 46 66 30 67 31 68 39 69 32 70 34 71 40 72 33 73 35 74 36 75
REMARK SMILES IDX 37 76 38 77 62 78 63 79 71 80 64 81 66 82 72 83 65 84 67 85
REMARK SMILES IDX 68 86 69 87 70 88 47 89 48 90 56 91 49 92 51 93 57 94 50 95
REMARK SMILES IDX 52 96 53 97 54 98 55 99
REMARK H PARENT 87 23 77 52 45 63
REMARK Flexibility Score: inf
ROOT
ATOM      1  C   UNL     1       3.848   6.470  -7.977  1.00  0.00     0.274 C 
ENDROOT
BRANCH   1   2
ATOM      2  O   UNL     1       3.378   5.374  -7.168  1.00  0.00    -0.462 OA
BRANCH   2   3
ATOM      3  C   UNL     1       4.322   4.593  -6.593  1.00  0.00     0.308 C 
ATOM      4  O   UNL     1       5.530   4.810  -6.657  1.00  0.00    -0.252 OA
BRANCH   3   5
ATOM      5  C   UNL     1       3.785   3.404  -5.825  1.00  0.00     0.152 C 
BRANCH   5   6
ATOM      6  C   UNL     1       2.273   3.317  -5.515  1.00  0.00     0.128 C 
ATOM      7  C   UNL     1       1.219   0.686  -2.157  1.00  0.00     0.161 A 
ATOM      8  C   UNL     1       0.243   1.291  -2.943  1.00  0.00     0.054 A 
ATOM      9  C   UNL     1       2.574   0.931  -2.411  1.00  0.00     0.161 A 
ATOM     10  C   UNL     1       0.612   2.136  -3.995  1.00  0.00    -0.037 A 
ATOM     11  C   UNL     1       2.932   1.774  -3.481  1.00  0.00     0.056 A 
ATOM     12  C   UNL     1       1.964   2.384  -4.303  1.00  0.00    -0.018 A 
ATOM     13  C   UNL     1      -0.425   2.738  -4.889  1.00  0.00     0.057 C 
ATOM     14  C   UNL     1       0.021   2.474  -6.318  1.00  0.00     0.127 C 
ATOM     15  N   UNL     1       1.334   3.031  -6.668  1.00  0.00    -0.317 N 
BRANCH   7  16
ATOM     16  O   UNL     1       0.759  -0.223  -1.238  1.00  0.00    -0.493 OA
ATOM     17  C   UNL     1       1.072   0.147   0.102  1.00  0.00     0.278 C 
ENDBRANCH   7  16
BRANCH   9  18
ATOM     18  O   UNL     1       3.482   0.265  -1.628  1.00  0.00    -0.493 OA
ATOM     19  C   UNL     1       4.809   0.777  -1.596  1.00  0.00     0.278 C 
ENDBRANCH   9  18
BRANCH  15  20
ATOM     20  C   UNL     1       1.760   3.159  -7.970  1.00  0.00     0.322 C 
ATOM     21  O   UNL     1       2.918   2.928  -8.326  1.00  0.00    -0.248 OA
ATOM     22  N   UNL     1       0.960   3.679  -8.948  1.00  0.00    -0.308 N 
ATOM     23  H   UNL     1       1.364   4.380  -9.508  1.00  0.00     0.171 HD
BRANCH  22  24
ATOM     24  C   UNL     1      -0.359   3.339  -9.254  1.00  0.00     0.042 A 
ATOM     25  C   UNL     1      -0.578   2.225 -10.065  1.00  0.00     0.028 A 
ATOM     26  C   UNL     1      -1.429   4.117  -8.805  1.00  0.00     0.028 A 
ATOM     27  C   UNL     1      -1.882   1.819 -10.341  1.00  0.00     0.022 A 
ATOM     28  C   UNL     1      -2.735   3.697  -9.067  1.00  0.00     0.022 A 
ATOM     29  C   UNL     1      -2.954   2.542  -9.821  1.00  0.00     0.041 A 
ATOM     30  Cl  UNL     1      -4.560   1.993 -10.100  1.00  0.00    -0.084 Cl
ENDBRANCH  22  24
ENDBRANCH  15  20
ENDBRANCH   5   6
ENDBRANCH   3   5
ENDBRANCH   2   3
ENDBRANCH   1   2
BRANCH   1  31
ATOM     31  C   UNL     1       3.356   7.800  -7.409  1.00  0.00     0.275 C 
BRANCH  31  32
ATOM     32  O   UNL     1       3.927   8.042  -6.112  1.00  0.00    -0.458 OA
BRANCH  32  33
ATOM     33  C   UNL     1       3.241   7.505  -5.080  1.00  0.00     0.338 C 
ATOM     34  O   UNL     1       2.153   6.941  -5.120  1.00  0.00    -0.246 OA
BRANCH  33  35
ATOM     35  C   UNL     1       4.069   7.550  -3.870  1.00  0.00     0.060 A 
ATOM     36  C   UNL     1       4.338   6.345  -3.213  1.00  0.00     0.016 A 
ATOM     37  C   UNL     1       4.528   8.764  -3.357  1.00  0.00     0.016 A 
ATOM     38  C   UNL     1       5.061   6.349  -2.025  1.00  0.00     0.010 A 
ATOM     39  C   UNL     1       5.248   8.767  -2.162  1.00  0.00     0.010 A 
ATOM     40  C   UNL     1       5.502   7.562  -1.482  1.00  0.00    -0.014 A 
BRANCH  40  41
ATOM     41  C   UNL     1       6.173   7.579  -0.164  1.00  0.00     0.031 A 
ATOM     42  C   UNL     1       5.416   8.047   1.044  1.00  0.00     0.074 A 
ATOM     43  C   UNL     1       7.457   7.192  -0.061  1.00  0.00     0.049 A 
ATOM     44  N   UNL     1       5.834   8.202   2.272  1.00  0.00    -0.248 NA
ATOM     45  C   UNL     1       3.998   8.390   0.843  1.00  0.00     0.031 C 
ATOM     46  C   UNL     1       8.285   6.717  -1.170  1.00  0.00     0.029 A 
ATOM     47  N   UNL     1       8.295   7.161   1.023  1.00  0.00    -0.354 N 
ATOM     48  C   UNL     1       4.748   8.695   2.983  1.00  0.00     0.074 A 
ATOM     49  C   UNL     1       3.650   8.817   2.048  1.00  0.00     0.031 C 
ATOM     50  C   UNL     1       9.522   6.461  -0.712  1.00  0.00     0.029 A 
ATOM     51  C   UNL     1       9.580   6.783   0.712  1.00  0.00     0.049 A 
ATOM     52  H   UNL     1       8.005   7.387   1.937  1.00  0.00     0.167 HD
ATOM     53  C   UNL     1       4.670   9.005   4.299  1.00  0.00     0.034 A 
ATOM     54  C   UNL     1      10.682   6.726   1.485  1.00  0.00     0.034 A 
ATOM     55  C   UNL     1       5.758   8.853   5.226  1.00  0.00     0.049 A 
ATOM     56  C   UNL     1      10.568   7.083   2.943  1.00  0.00     0.074 A 
ATOM     57  C   UNL     1       5.770   9.100   6.587  1.00  0.00     0.029 A 
ATOM     58  N   UNL     1       7.030   8.417   4.887  1.00  0.00    -0.354 N 
ATOM     59  N   UNL     1       9.508   7.449   3.623  1.00  0.00    -0.248 NA
ATOM     60  C   UNL     1      11.795   6.993   3.746  1.00  0.00     0.031 C 
ATOM     61  C   UNL     1       7.055   8.825   7.069  1.00  0.00     0.029 A 
ATOM     62  C   UNL     1       7.838   8.392   6.011  1.00  0.00     0.049 A 
ATOM     63  H   UNL     1       7.316   8.163   3.980  1.00  0.00     0.167 HD
ATOM     64  C   UNL     1       9.932   7.604   4.938  1.00  0.00     0.074 A 
ATOM     65  C   UNL     1      11.342   7.270   4.962  1.00  0.00     0.031 C 
ATOM     66  C   UNL     1       9.225   8.003   6.024  1.00  0.00     0.034 A 
BRANCH  53  67
ATOM     67  C   UNL     1       3.350   9.511   4.817  1.00  0.00     0.023 A 
ATOM     68  C   UNL     1       2.281   8.609   4.991  1.00  0.00     0.012 A 
ATOM     69  C   UNL     1       3.179  10.863   5.172  1.00  0.00     0.148 A 
ATOM     70  C   UNL     1       1.053   9.050   5.482  1.00  0.00     0.002 A 
ATOM     71  C   UNL     1       1.964  11.287   5.697  1.00  0.00     0.091 A 
ATOM     72  F   UNL     1       4.199  11.711   4.974  1.00  0.00    -0.205 F 
ATOM     73  C   UNL     1       0.898  10.385   5.844  1.00  0.00     0.022 A 
BRANCH  71  74
ATOM     74  S   UNL     1       1.691  12.974   6.253  1.00  0.00     0.127 S 
ATOM     75  O   UNL     1       0.857  13.508   5.177  1.00  0.00    -0.237 OA
ATOM     76  O   UNL     1       0.991  12.773   7.522  1.00  0.00    -0.237 OA
ATOM     77  O   UNL     1       3.013  13.570   6.380  1.00  0.00    -0.744 OA
ENDBRANCH  71  74
ENDBRANCH  53  67
BRANCH  54  78
ATOM     78  C   UNL     1      11.974   6.271   0.901  1.00  0.00     0.023 A 
ATOM     79  C   UNL     1      12.499   5.020   1.277  1.00  0.00     0.012 A 
ATOM     80  C   UNL     1      12.665   7.050  -0.048  1.00  0.00     0.148 A 
ATOM     81  C   UNL     1      13.701   4.562   0.735  1.00  0.00     0.002 A 
ATOM     82  C   UNL     1      13.834   6.564  -0.624  1.00  0.00     0.091 A 
ATOM     83  F   UNL     1      12.161   8.247  -0.377  1.00  0.00    -0.205 F 
ATOM     84  C   UNL     1      14.361   5.327  -0.223  1.00  0.00     0.022 A 
BRANCH  82  85
ATOM     85  S   UNL     1      14.677   7.426  -1.956  1.00  0.00     0.127 S 
ATOM     86  O   UNL     1      15.849   7.962  -1.270  1.00  0.00    -0.237 OA
ATOM     87  O   UNL     1      14.956   6.338  -2.894  1.00  0.00    -0.237 OA
ATOM     88  O   UNL     1      13.723   8.410  -2.449  1.00  0.00    -0.744 OA
ENDBRANCH  82  85
ENDBRANCH  54  78
BRANCH  66  89
ATOM     89  C   UNL     1       9.954   8.078   7.339  1.00  0.00     0.023 A 
ATOM     90  C   UNL     1      10.854   9.135   7.577  1.00  0.00     0.012 A 
ATOM     91  C   UNL     1       9.689   7.148   8.364  1.00  0.00     0.148 A 
ATOM     92  C   UNL     1      11.502   9.249   8.807  1.00  0.00     0.002 A 
ATOM     93  C   UNL     1      10.305   7.295   9.601  1.00  0.00     0.091 A 
ATOM     94  F   UNL     1       8.845   6.137   8.110  1.00  0.00    -0.205 F 
ATOM     95  C   UNL     1      11.218   8.338   9.822  1.00  0.00     0.022 A 
BRANCH  93  96
ATOM     96  S   UNL     1       9.926   6.220  10.991  1.00  0.00     0.127 S 
ATOM     97  O   UNL     1      11.098   5.347  11.021  1.00  0.00    -0.237 OA
ATOM     98  O   UNL     1       9.841   7.166  12.105  1.00  0.00    -0.237 OA
ATOM     99  O   UNL     1       8.665   5.571  10.658  1.00  0.00    -0.744 OA
ENDBRANCH  93  96
ENDBRANCH  66  89
ENDBRANCH  40  41
ENDBRANCH  33  35
ENDBRANCH  32  33
ENDBRANCH  31  32
ENDBRANCH   1  31
TORSDOF 19
