REMARK SMILES O=C(OCCOC(=O)[C@H](NC(=O)[C@H]1CC[C@@H](CNC(=O)[C@@H]2Cc3ccccc3C[NH2+]2)CC1)c1ccccc1)c1ccc(-c2c3nc(c(-c4cccc(S(=O)(=O)[O-])c4F)c4ccc([nH]4)c(-c4cccc(S(=O)(=O)[O-])c4F)c4nc(c(-c5cccc(S(=O)(=O)[O-])c5F)c5ccc2[nH]5)C=C4)C=C3)cc1
REMARK SMILES IDX 5 1 4 2 3 3 2 4 1 5 39 6 40 7 101 8 41 9 100 10 42 11 43 12
REMARK SMILES IDX 44 13 94 14 45 15 99 16 93 17 95 18 46 19 98 20 92 21 91 22
REMARK SMILES IDX 47 24 79 25 59 26 78 27 60 28 63 29 77 30 96 31 61 32 62 33
REMARK SMILES IDX 76 35 97 36 64 37 48 38 49 39 57 40 50 41 52 42 58 43 51 44
REMARK SMILES IDX 53 45 54 46 55 47 56 48 80 49 81 50 89 51 82 52 84 53 90 54
REMARK SMILES IDX 83 55 85 56 86 57 87 58 88 59 65 60 66 61 74 62 67 63 69 64
REMARK SMILES IDX 75 65 68 66 70 67 71 68 72 69 73 70 6 71 7 72 8 73 9 74
REMARK SMILES IDX 33 75 34 76 38 77 35 78 37 79 36 80 10 81 11 82 12 84 13 85
REMARK SMILES IDX 32 86 14 87 31 88 15 89 16 90 17 91 18 92 19 93 20 95 21 96
REMARK SMILES IDX 22 97 30 98 23 99 29 100 24 103 28 104 25 105 27 106 26 107
REMARK H PARENT 95 23 63 34 10 83 18 94 30 101 30 102
REMARK Flexibility Score: inf
ROOT
ATOM      1  C   UNL     1     -10.977   2.202  -2.137  1.00  0.00     0.274 C 
ENDROOT
BRANCH   1   2
ATOM      2  C   UNL     1     -11.755   3.514  -2.033  1.00  0.00     0.275 C 
BRANCH   2   3
ATOM      3  O   UNL     1     -11.645   4.344  -3.203  1.00  0.00    -0.458 OA
BRANCH   3   4
ATOM      4  C   UNL     1     -10.685   5.206  -3.608  1.00  0.00     0.338 C 
ATOM      5  O   UNL     1     -10.858   5.794  -4.675  1.00  0.00    -0.246 OA
BRANCH   4   6
ATOM      6  C   UNL     1      -9.386   5.450  -2.893  1.00  0.00     0.060 A 
ATOM      7  C   UNL     1      -9.093   5.133  -1.563  1.00  0.00     0.016 A 
ATOM      8  C   UNL     1      -8.364   6.056  -3.651  1.00  0.00     0.016 A 
ATOM      9  C   UNL     1      -7.824   5.359  -1.020  1.00  0.00     0.010 A 
ATOM     10  C   UNL     1      -7.099   6.307  -3.104  1.00  0.00     0.010 A 
ATOM     11  C   UNL     1      -6.820   5.956  -1.782  1.00  0.00    -0.014 A 
BRANCH  11  12
ATOM     12  C   UNL     1      -5.570   6.376  -1.109  1.00  0.00     0.031 A 
ATOM     13  C   UNL     1      -5.452   7.809  -0.695  1.00  0.00     0.074 A 
ATOM     14  C   UNL     1      -4.608   5.489  -0.794  1.00  0.00     0.049 A 
ATOM     15  N   UNL     1      -4.551   8.373   0.059  1.00  0.00    -0.248 NA
ATOM     16  C   UNL     1      -6.490   8.726  -1.194  1.00  0.00     0.031 C 
ATOM     17  C   UNL     1      -4.615   4.085  -1.185  1.00  0.00     0.029 A 
ATOM     18  N   UNL     1      -3.449   5.622  -0.074  1.00  0.00    -0.354 N 
ATOM     19  C   UNL     1      -4.900   9.715   0.107  1.00  0.00     0.074 A 
ATOM     20  C   UNL     1      -6.080   9.884  -0.708  1.00  0.00     0.031 C 
ATOM     21  C   UNL     1      -3.539   3.469  -0.668  1.00  0.00     0.029 A 
ATOM     22  C   UNL     1      -2.745   4.445   0.070  1.00  0.00     0.049 A 
ATOM     23  H   UNL     1      -3.147   6.479   0.306  1.00  0.00     0.167 HD
ATOM     24  C   UNL     1      -4.295  10.717   0.781  1.00  0.00     0.034 A 
ATOM     25  C   UNL     1      -1.596   4.191   0.728  1.00  0.00     0.034 A 
ATOM     26  C   UNL     1      -3.108  10.541   1.565  1.00  0.00     0.049 A 
ATOM     27  C   UNL     1      -0.942   5.325   1.474  1.00  0.00     0.074 A 
ATOM     28  C   UNL     1      -2.403  11.484   2.287  1.00  0.00     0.029 A 
ATOM     29  N   UNL     1      -2.433   9.336   1.704  1.00  0.00    -0.354 N 
ATOM     30  N   UNL     1      -1.350   6.566   1.604  1.00  0.00    -0.248 NA
ATOM     31  C   UNL     1       0.306   5.025   2.188  1.00  0.00     0.031 C 
ATOM     32  C   UNL     1      -1.280  10.855   2.836  1.00  0.00     0.029 A 
ATOM     33  C   UNL     1      -1.313   9.511   2.494  1.00  0.00     0.049 A 
ATOM     34  H   UNL     1      -2.711   8.483   1.300  1.00  0.00     0.167 HD
ATOM     35  C   UNL     1      -0.433   7.184   2.444  1.00  0.00     0.074 A 
ATOM     36  C   UNL     1       0.542   6.173   2.808  1.00  0.00     0.031 C 
ATOM     37  C   UNL     1      -0.389   8.471   2.870  1.00  0.00     0.034 A 
BRANCH  24  38
ATOM     38  C   UNL     1      -4.911  12.081   0.651  1.00  0.00     0.023 A 
ATOM     39  C   UNL     1      -6.149  12.359   1.267  1.00  0.00     0.012 A 
ATOM     40  C   UNL     1      -4.285  13.071  -0.128  1.00  0.00     0.148 A 
ATOM     41  C   UNL     1      -6.780  13.586   1.067  1.00  0.00     0.002 A 
ATOM     42  C   UNL     1      -4.896  14.307  -0.283  1.00  0.00     0.091 A 
ATOM     43  F   UNL     1      -3.126  12.771  -0.730  1.00  0.00    -0.205 F 
ATOM     44  C   UNL     1      -6.150  14.561   0.297  1.00  0.00     0.022 A 
BRANCH  42  45
ATOM     45  S   UNL     1      -4.140  15.649  -1.205  1.00  0.00     0.127 S 
ATOM     46  O   UNL     1      -5.043  15.766  -2.349  1.00  0.00    -0.237 OA
ATOM     47  O   UNL     1      -4.218  16.753  -0.249  1.00  0.00    -0.237 OA
ATOM     48  O   UNL     1      -2.789  15.208  -1.521  1.00  0.00    -0.744 OA
ENDBRANCH  42  45
ENDBRANCH  24  38
BRANCH  25  49
ATOM     49  C   UNL     1      -1.026   2.810   0.771  1.00  0.00     0.023 A 
ATOM     50  C   UNL     1      -0.977   2.111   1.995  1.00  0.00     0.012 A 
ATOM     51  C   UNL     1      -0.540   2.180  -0.391  1.00  0.00     0.148 A 
ATOM     52  C   UNL     1      -0.427   0.829   2.067  1.00  0.00     0.002 A 
ATOM     53  C   UNL     1      -0.045   0.881  -0.324  1.00  0.00     0.091 A 
ATOM     54  F   UNL     1      -0.578   2.861  -1.544  1.00  0.00    -0.205 F 
ATOM     55  C   UNL     1       0.029   0.210   0.906  1.00  0.00     0.022 A 
BRANCH  53  56
ATOM     56  S   UNL     1       0.442  -0.041  -1.788  1.00  0.00     0.127 S 
ATOM     57  O   UNL     1       1.886  -0.157  -1.604  1.00  0.00    -0.237 OA
ATOM     58  O   UNL     1      -0.306  -1.287  -1.617  1.00  0.00    -0.237 OA
ATOM     59  O   UNL     1       0.015   0.769  -2.921  1.00  0.00    -0.744 OA
ENDBRANCH  53  56
ENDBRANCH  25  49
BRANCH  37  60
ATOM     60  C   UNL     1       0.716   8.848   3.817  1.00  0.00     0.023 A 
ATOM     61  C   UNL     1       2.041   8.962   3.354  1.00  0.00     0.012 A 
ATOM     62  C   UNL     1       0.418   9.167   5.156  1.00  0.00     0.148 A 
ATOM     63  C   UNL     1       3.059   9.354   4.220  1.00  0.00     0.002 A 
ATOM     64  C   UNL     1       1.427   9.611   5.998  1.00  0.00     0.091 A 
ATOM     65  F   UNL     1      -0.847   9.030   5.580  1.00  0.00    -0.205 F 
ATOM     66  C   UNL     1       2.751   9.691   5.537  1.00  0.00     0.022 A 
BRANCH  64  67
ATOM     67  S   UNL     1       1.096  10.167   7.673  1.00  0.00     0.127 S 
ATOM     68  O   UNL     1       1.613   9.052   8.464  1.00  0.00    -0.237 OA
ATOM     69  O   UNL     1       1.888  11.394   7.755  1.00  0.00    -0.237 OA
ATOM     70  O   UNL     1      -0.344  10.374   7.747  1.00  0.00    -0.744 OA
ENDBRANCH  64  67
ENDBRANCH  37  60
ENDBRANCH  11  12
ENDBRANCH   4   6
ENDBRANCH   3   4
ENDBRANCH   2   3
ENDBRANCH   1   2
BRANCH   1  71
ATOM     71  O   UNL     1      -9.609   2.408  -2.516  1.00  0.00    -0.460 OA
BRANCH  71  72
ATOM     72  C   UNL     1      -9.277   2.132  -3.816  1.00  0.00     0.333 C 
ATOM     73  O   UNL     1     -10.055   1.692  -4.657  1.00  0.00    -0.249 OA
BRANCH  72  74
ATOM     74  C   UNL     1      -7.788   2.446  -4.077  1.00  0.00     0.223 C 
BRANCH  74  75
ATOM     75  C   UNL     1      -6.910   1.350  -3.515  1.00  0.00    -0.014 A 
ATOM     76  C   UNL     1      -6.359   0.338  -4.311  1.00  0.00     0.006 A 
ATOM     77  C   UNL     1      -6.619   1.357  -2.139  1.00  0.00     0.006 A 
ATOM     78  C   UNL     1      -5.457  -0.575  -3.761  1.00  0.00     0.000 A 
ATOM     79  C   UNL     1      -5.715   0.449  -1.594  1.00  0.00     0.000 A 
ATOM     80  C   UNL     1      -5.118  -0.504  -2.411  1.00  0.00     0.000 A 
ENDBRANCH  74  75
BRANCH  74  81
ATOM     81  N   UNL     1      -7.595   2.708  -5.506  1.00  0.00    -0.339 N 
ATOM     82  C   UNL     1      -6.687   3.470  -6.175  1.00  0.00     0.224 C 
ATOM     83  H   UNL     1      -8.240   2.248  -6.089  1.00  0.00     0.164 HD
ATOM     84  O   UNL     1      -6.833   3.564  -7.396  1.00  0.00    -0.275 OA
BRANCH  82  85
ATOM     85  C   UNL     1      -5.526   4.164  -5.452  1.00  0.00     0.078 C 
ATOM     86  C   UNL     1      -4.332   3.218  -5.292  1.00  0.00     0.014 C 
ATOM     87  C   UNL     1      -5.118   5.439  -6.223  1.00  0.00     0.014 C 
ATOM     88  C   UNL     1      -3.099   3.923  -4.726  1.00  0.00     0.006 C 
ATOM     89  C   UNL     1      -3.850   6.104  -5.682  1.00  0.00     0.006 C 
ATOM     90  C   UNL     1      -2.665   5.134  -5.561  1.00  0.00     0.008 C 
BRANCH  90  91
ATOM     91  C   UNL     1      -2.090   4.683  -6.915  1.00  0.00     0.119 C 
BRANCH  91  92
ATOM     92  N   UNL     1      -1.400   5.759  -7.610  1.00  0.00    -0.351 N 
ATOM     93  C   UNL     1      -0.211   5.719  -8.280  1.00  0.00     0.278 C 
ATOM     94  H   UNL     1      -1.851   6.634  -7.595  1.00  0.00     0.163 HD
ATOM     95  O   UNL     1       0.151   6.723  -8.905  1.00  0.00    -0.268 OA
BRANCH  93  96
ATOM     96  C   UNL     1       0.647   4.440  -8.259  1.00  0.00     0.277 C 
ATOM     97  C   UNL     1       1.437   4.377  -6.937  1.00  0.00     0.111 C 
ATOM     98  N   UNL     1       1.466   4.391  -9.512  1.00  0.00    -0.332 N 
ATOM     99  C   UNL     1       2.363   3.193  -6.991  1.00  0.00    -0.033 A 
ATOM    100  C   UNL     1       2.864   4.007  -9.292  1.00  0.00     0.298 C 
ATOM    101  H   UNL     1       1.451   5.316  -9.942  1.00  0.00     0.347 HD
ATOM    102  H   UNL     1       1.052   3.675 -10.109  1.00  0.00     0.347 HD
ATOM    103  C   UNL     1       2.537   2.318  -5.918  1.00  0.00     0.004 A 
ATOM    104  C   UNL     1       3.047   2.983  -8.201  1.00  0.00     0.010 A 
ATOM    105  C   UNL     1       3.384   1.220  -6.058  1.00  0.00     0.000 A 
ATOM    106  C   UNL     1       3.901   1.884  -8.329  1.00  0.00     0.010 A 
ATOM    107  C   UNL     1       4.061   1.000  -7.260  1.00  0.00     0.001 A 
ENDBRANCH  93  96
ENDBRANCH  91  92
ENDBRANCH  90  91
ENDBRANCH  82  85
ENDBRANCH  74  81
ENDBRANCH  72  74
ENDBRANCH  71  72
ENDBRANCH   1  71
TORSDOF 20
