REMARK SMILES CCCCc1[nH]ncc1C(=O)OCCOC(=O)c1ccc(-c2c3nc(c(-c4cccc(S(=O)(=O)[O-])c4F)c4ccc([nH]4)c(-c4cccc(S(=O)(=O)[O-])c4F)c4nc(c(-c5cccc(S(=O)(=O)[O-])c5F)c5ccc2[nH]5)C=C4)C=C3)cc1
REMARK SMILES IDX 13 1 12 2 10 3 11 4 9 5 5 6 6 7 7 8 8 10 4 11 3 12 2 13 1 14
REMARK SMILES IDX 14 15 15 16 16 17 17 18 18 19 19 20 80 21 20 22 79 23 21 24
REMARK SMILES IDX 22 25 23 26 73 27 24 28 78 29 72 30 74 31 25 32 77 33 71 34
REMARK SMILES IDX 70 35 26 37 58 38 38 39 57 40 39 41 42 42 56 43 75 44 40 45
REMARK SMILES IDX 41 46 55 48 76 49 43 50 27 51 28 52 36 53 29 54 31 55 37 56
REMARK SMILES IDX 30 57 32 58 33 59 34 60 35 61 59 62 60 63 68 64 61 65 63 66
REMARK SMILES IDX 69 67 62 68 64 69 65 70 66 71 67 72 44 73 45 74 53 75 46 76
REMARK SMILES IDX 48 77 54 78 47 79 49 80 50 81 51 82 52 83
REMARK H PARENT 6 9 74 36 42 47
REMARK Flexibility Score: inf
ROOT
ATOM      1  C   UNL     1       0.012  -6.947   0.630  1.00  0.00     0.275 C 
ENDROOT
BRANCH   1   2
ATOM      2  O   UNL     1      -0.205  -5.525   0.536  1.00  0.00    -0.458 OA
BRANCH   2   3
ATOM      3  C   UNL     1      -1.268  -5.121  -0.223  1.00  0.00     0.341 C 
ATOM      4  O   UNL     1      -1.967  -5.870  -0.884  1.00  0.00    -0.246 OA
BRANCH   3   5
ATOM      5  C   UNL     1      -1.565  -3.705  -0.077  1.00  0.00     0.100 A 
ATOM      6  C   UNL     1      -0.762  -2.644   0.313  1.00  0.00     0.050 A 
ATOM      7  N   UNL     1      -1.614  -1.580   0.469  1.00  0.00    -0.282 N 
ATOM      8  N   UNL     1      -2.844  -1.803  -0.005  1.00  0.00    -0.183 NA
ATOM      9  H   UNL     1      -1.345  -0.732   0.891  1.00  0.00     0.190 HD
ATOM     10  C   UNL     1      -2.812  -3.090  -0.351  1.00  0.00     0.150 A 
BRANCH   6  11
ATOM     11  C   UNL     1       0.706  -2.491   0.511  1.00  0.00     0.056 C 
BRANCH  11  12
ATOM     12  C   UNL     1       1.389  -1.976  -0.768  1.00  0.00     0.006 C 
BRANCH  12  13
ATOM     13  C   UNL     1       0.996  -0.560  -1.212  1.00  0.00    -0.003 C 
ATOM     14  C   UNL     1       1.313   0.513  -0.183  1.00  0.00     0.004 C 
ENDBRANCH  12  13
ENDBRANCH  11  12
ENDBRANCH   6  11
ENDBRANCH   3   5
ENDBRANCH   2   3
ENDBRANCH   1   2
BRANCH   1  15
ATOM     15  C   UNL     1      -0.455  -7.484   1.985  1.00  0.00     0.275 C 
BRANCH  15  16
ATOM     16  O   UNL     1      -1.891  -7.463   2.076  1.00  0.00    -0.458 OA
BRANCH  16  17
ATOM     17  C   UNL     1      -2.416  -6.489   2.856  1.00  0.00     0.338 C 
ATOM     18  O   UNL     1      -1.811  -5.662   3.515  1.00  0.00    -0.246 OA
BRANCH  17  19
ATOM     19  C   UNL     1      -3.877  -6.477   2.685  1.00  0.00     0.060 A 
ATOM     20  C   UNL     1      -4.413  -5.535   1.810  1.00  0.00     0.016 A 
ATOM     21  C   UNL     1      -4.715  -7.312   3.421  1.00  0.00     0.016 A 
ATOM     22  C   UNL     1      -5.790  -5.406   1.666  1.00  0.00     0.010 A 
ATOM     23  C   UNL     1      -6.103  -7.197   3.264  1.00  0.00     0.010 A 
ATOM     24  C   UNL     1      -6.651  -6.233   2.396  1.00  0.00    -0.014 A 
BRANCH  24  25
ATOM     25  C   UNL     1      -8.120  -6.043   2.282  1.00  0.00     0.031 A 
ATOM     26  C   UNL     1      -8.898  -5.499   3.448  1.00  0.00     0.074 A 
ATOM     27  C   UNL     1      -8.753  -6.341   1.131  1.00  0.00     0.049 A 
ATOM     28  N   UNL     1     -10.190  -5.343   3.579  1.00  0.00    -0.248 NA
ATOM     29  C   UNL     1      -8.120  -5.081   4.626  1.00  0.00     0.031 C 
ATOM     30  C   UNL     1      -8.108  -6.851  -0.079  1.00  0.00     0.029 A 
ATOM     31  N   UNL     1     -10.082  -6.266   0.794  1.00  0.00    -0.354 N 
ATOM     32  C   UNL     1     -10.386  -4.865   4.868  1.00  0.00     0.074 A 
ATOM     33  C   UNL     1      -9.080  -4.748   5.479  1.00  0.00     0.031 C 
ATOM     34  C   UNL     1      -9.041  -7.044  -1.026  1.00  0.00     0.029 A 
ATOM     35  C   UNL     1     -10.354  -6.717  -0.476  1.00  0.00     0.049 A 
ATOM     36  H   UNL     1     -10.775  -5.922   1.404  1.00  0.00     0.167 HD
ATOM     37  C   UNL     1     -11.549  -4.541   5.483  1.00  0.00     0.034 A 
ATOM     38  C   UNL     1     -11.529  -6.875  -1.118  1.00  0.00     0.034 A 
ATOM     39  C   UNL     1     -12.840  -4.596   4.853  1.00  0.00     0.049 A 
ATOM     40  C   UNL     1     -12.805  -6.500  -0.412  1.00  0.00     0.074 A 
ATOM     41  C   UNL     1     -14.071  -4.248   5.382  1.00  0.00     0.029 A 
ATOM     42  N   UNL     1     -13.069  -5.019   3.552  1.00  0.00    -0.354 N 
ATOM     43  N   UNL     1     -12.966  -5.984   0.782  1.00  0.00    -0.248 NA
ATOM     44  C   UNL     1     -14.059  -6.712  -1.149  1.00  0.00     0.031 C 
ATOM     45  C   UNL     1     -15.046  -4.468   4.403  1.00  0.00     0.029 A 
ATOM     46  C   UNL     1     -14.421  -4.944   3.261  1.00  0.00     0.049 A 
ATOM     47  H   UNL     1     -12.373  -5.327   2.928  1.00  0.00     0.167 HD
ATOM     48  C   UNL     1     -14.334  -5.789   0.932  1.00  0.00     0.074 A 
ATOM     49  C   UNL     1     -14.955  -6.218  -0.304  1.00  0.00     0.031 C 
ATOM     50  C   UNL     1     -15.018  -5.320   2.005  1.00  0.00     0.034 A 
BRANCH  37  51
ATOM     51  C   UNL     1     -11.475  -4.070   6.911  1.00  0.00     0.023 A 
ATOM     52  C   UNL     1     -11.025  -2.765   7.193  1.00  0.00     0.012 A 
ATOM     53  C   UNL     1     -11.902  -4.900   7.966  1.00  0.00     0.148 A 
ATOM     54  C   UNL     1     -10.976  -2.302   8.507  1.00  0.00     0.002 A 
ATOM     55  C   UNL     1     -11.885  -4.418   9.270  1.00  0.00     0.091 A 
ATOM     56  F   UNL     1     -12.302  -6.147   7.680  1.00  0.00    -0.205 F 
ATOM     57  C   UNL     1     -11.415  -3.123   9.543  1.00  0.00     0.022 A 
BRANCH  55  58
ATOM     58  S   UNL     1     -12.496  -5.378  10.660  1.00  0.00     0.127 S 
ATOM     59  O   UNL     1     -11.251  -5.795  11.302  1.00  0.00    -0.237 OA
ATOM     60  O   UNL     1     -13.266  -4.386  11.411  1.00  0.00    -0.237 OA
ATOM     61  O   UNL     1     -13.296  -6.450  10.082  1.00  0.00    -0.744 OA
ENDBRANCH  55  58
ENDBRANCH  37  51
BRANCH  38  62
ATOM     62  C   UNL     1     -11.548  -7.385  -2.518  1.00  0.00     0.023 A 
ATOM     63  C   UNL     1     -11.916  -6.518  -3.565  1.00  0.00     0.012 A 
ATOM     64  C   UNL     1     -11.171  -8.707  -2.824  1.00  0.00     0.148 A 
ATOM     65  C   UNL     1     -11.926  -6.964  -4.888  1.00  0.00     0.002 A 
ATOM     66  C   UNL     1     -11.128  -9.128  -4.148  1.00  0.00     0.091 A 
ATOM     67  F   UNL     1     -10.851  -9.528  -1.813  1.00  0.00    -0.205 F 
ATOM     68  C   UNL     1     -11.519  -8.263  -5.181  1.00  0.00     0.022 A 
BRANCH  66  69
ATOM     69  S   UNL     1     -10.484 -10.739  -4.617  1.00  0.00     0.127 S 
ATOM     70  O   UNL     1     -11.709 -11.478  -4.908  1.00  0.00    -0.237 OA
ATOM     71  O   UNL     1      -9.667 -10.415  -5.787  1.00  0.00    -0.237 OA
ATOM     72  O   UNL     1      -9.719 -11.199  -3.465  1.00  0.00    -0.744 OA
ENDBRANCH  66  69
ENDBRANCH  38  62
BRANCH  50  73
ATOM     73  C   UNL     1     -16.516  -5.225   1.891  1.00  0.00     0.023 A 
ATOM     74  C   UNL     1     -17.292  -6.399   1.960  1.00  0.00     0.012 A 
ATOM     75  C   UNL     1     -17.157  -3.975   1.793  1.00  0.00     0.148 A 
ATOM     76  C   UNL     1     -18.683  -6.332   1.909  1.00  0.00     0.002 A 
ATOM     77  C   UNL     1     -18.546  -3.913   1.784  1.00  0.00     0.091 A 
ATOM     78  F   UNL     1     -16.401  -2.871   1.706  1.00  0.00    -0.205 F 
ATOM     79  C   UNL     1     -19.310  -5.090   1.833  1.00  0.00     0.022 A 
BRANCH  77  80
ATOM     80  S   UNL     1     -19.434  -2.351   1.778  1.00  0.00     0.127 S 
ATOM     81  O   UNL     1     -19.867  -2.259   0.385  1.00  0.00    -0.237 OA
ATOM     82  O   UNL     1     -20.512  -2.598   2.736  1.00  0.00    -0.237 OA
ATOM     83  O   UNL     1     -18.471  -1.345   2.206  1.00  0.00    -0.744 OA
ENDBRANCH  77  80
ENDBRANCH  50  73
ENDBRANCH  24  25
ENDBRANCH  17  19
ENDBRANCH  16  17
ENDBRANCH  15  16
ENDBRANCH   1  15
TORSDOF 17
