REMARK SMILES Cc1c(NC(=O)c2cccc(-c3cc4ccccc4oc3=O)c2)cccc1C(=O)OCCOC(=O)c1ccc(-c2c3nc(c(-c4cccc(S(=O)(=O)[O-])c4F)c4ccc([nH]4)c(-c4cccc(S(=O)(=O)[O-])c4F)c4nc(c(-c5cccc(S(=O)(=O)[O-])c5F)c5ccc2[nH]5)C=C4)C=C3)cc1
REMARK SMILES IDX 31 1 30 2 28 3 29 4 27 5 1 6 2 7 3 8 24 9 26 10 25 11 4 12
REMARK SMILES IDX 5 13 6 15 7 16 8 17 23 18 9 19 11 20 10 21 12 22 13 23 21 24
REMARK SMILES IDX 14 25 20 26 22 27 15 28 19 29 16 30 18 31 17 32 32 33 33 34
REMARK SMILES IDX 34 35 35 36 36 37 37 38 98 39 38 40 97 41 39 42 40 43 41 44
REMARK SMILES IDX 91 45 42 46 96 47 90 48 92 49 43 50 95 51 89 52 88 53 44 55
REMARK SMILES IDX 76 56 56 57 75 58 57 59 60 60 74 61 93 62 58 63 59 64 73 66
REMARK SMILES IDX 94 67 61 68 45 69 46 70 54 71 47 72 49 73 55 74 48 75 50 76
REMARK SMILES IDX 51 77 52 78 53 79 77 80 78 81 86 82 79 83 81 84 87 85 80 86
REMARK SMILES IDX 82 87 83 88 84 89 85 90 62 91 63 92 71 93 64 94 66 95 72 96
REMARK SMILES IDX 65 97 67 98 68 99 69 100 70 101
REMARK H PARENT 4 14 92 54 60 65
REMARK Flexibility Score: inf
ROOT
ATOM      1  C   UNL     1       3.757   2.921  -1.437  1.00  0.00     0.275 C 
ENDROOT
BRANCH   1   2
ATOM      2  O   UNL     1       3.031   1.807  -0.848  1.00  0.00    -0.458 OA
BRANCH   2   3
ATOM      3  C   UNL     1       1.801   1.502  -1.290  1.00  0.00     0.338 C 
ATOM      4  O   UNL     1       1.250   2.130  -2.178  1.00  0.00    -0.246 OA
BRANCH   3   5
ATOM      5  C   UNL     1       1.063   0.424  -0.560  1.00  0.00     0.065 A 
ATOM      6  C   UNL     1       3.056  -1.078  -0.017  1.00  0.00     0.047 C 
ATOM      7  C   UNL     1       1.583  -0.774  -0.033  1.00  0.00    -0.013 A 
ATOM      8  C   UNL     1       0.638  -1.756   0.374  1.00  0.00     0.045 A 
ATOM      9  C   UNL     1      -0.700  -1.414   0.604  1.00  0.00     0.026 A 
ATOM     10  C   UNL     1      -0.332   0.641  -0.521  1.00  0.00     0.016 A 
ATOM     11  C   UNL     1      -1.193  -0.210   0.148  1.00  0.00     0.003 A 
BRANCH   8  12
ATOM     12  N   UNL     1       1.012  -3.112   0.443  1.00  0.00    -0.322 N 
ATOM     13  C   UNL     1       0.291  -4.254   0.130  1.00  0.00     0.255 C 
ATOM     14  H   UNL     1       1.928  -3.274   0.763  1.00  0.00     0.170 HD
ATOM     15  O   UNL     1       0.783  -5.349   0.418  1.00  0.00    -0.269 OA
BRANCH  13  16
ATOM     16  C   UNL     1      -0.994  -4.262  -0.654  1.00  0.00     0.040 A 
ATOM     17  C   UNL     1      -1.829  -5.379  -0.519  1.00  0.00     0.014 A 
ATOM     18  C   UNL     1      -1.327  -3.307  -1.629  1.00  0.00     0.022 A 
ATOM     19  C   UNL     1      -2.986  -5.510  -1.294  1.00  0.00     0.001 A 
ATOM     20  C   UNL     1      -2.497  -3.417  -2.416  1.00  0.00    -0.010 A 
ATOM     21  C   UNL     1      -3.324  -4.529  -2.227  1.00  0.00     0.009 A 
BRANCH  20  22
ATOM     22  C   UNL     1      -2.744  -2.576  -3.637  1.00  0.00     0.068 A 
ATOM     23  C   UNL     1      -2.450  -1.259  -3.641  1.00  0.00     0.028 A 
ATOM     24  C   UNL     1      -2.098  -3.220  -4.830  1.00  0.00     0.344 A 
ATOM     25  C   UNL     1      -1.127  -0.854  -4.122  1.00  0.00     0.018 A 
ATOM     26  O   UNL     1      -0.714  -3.156  -4.797  1.00  0.00    -0.422 OA
ATOM     27  O   UNL     1      -2.739  -3.829  -5.677  1.00  0.00    -0.246 OA
ATOM     28  C   UNL     1      -0.673   0.456  -4.119  1.00  0.00     0.012 A 
ATOM     29  C   UNL     1      -0.237  -1.875  -4.482  1.00  0.00     0.138 A 
ATOM     30  C   UNL     1       0.676   0.701  -4.389  1.00  0.00     0.001 A 
ATOM     31  C   UNL     1       1.128  -1.654  -4.581  1.00  0.00     0.048 A 
ATOM     32  C   UNL     1       1.591  -0.349  -4.510  1.00  0.00     0.004 A 
ENDBRANCH  20  22
ENDBRANCH  13  16
ENDBRANCH   8  12
ENDBRANCH   3   5
ENDBRANCH   2   3
ENDBRANCH   1   2
BRANCH   1  33
ATOM     33  C   UNL     1       3.198   3.859  -2.562  1.00  0.00     0.275 C 
BRANCH  33  34
ATOM     34  O   UNL     1       2.093   4.839  -2.525  1.00  0.00    -0.458 OA
BRANCH  34  35
ATOM     35  C   UNL     1       0.916   4.867  -1.846  1.00  0.00     0.338 C 
ATOM     36  O   UNL     1      -0.125   5.320  -2.307  1.00  0.00    -0.246 OA
BRANCH  35  37
ATOM     37  C   UNL     1       1.036   4.498  -0.444  1.00  0.00     0.060 A 
ATOM     38  C   UNL     1       0.058   3.739   0.215  1.00  0.00     0.016 A 
ATOM     39  C   UNL     1       2.236   4.837   0.157  1.00  0.00     0.016 A 
ATOM     40  C   UNL     1       0.355   3.176   1.449  1.00  0.00     0.010 A 
ATOM     41  C   UNL     1       2.601   4.156   1.276  1.00  0.00     0.010 A 
ATOM     42  C   UNL     1       1.633   3.398   1.954  1.00  0.00    -0.014 A 
BRANCH  42  43
ATOM     43  C   UNL     1       1.930   3.396   3.370  1.00  0.00     0.031 A 
ATOM     44  C   UNL     1       2.556   2.243   4.008  1.00  0.00     0.074 A 
ATOM     45  C   UNL     1       1.882   4.675   3.816  1.00  0.00     0.049 A 
ATOM     46  N   UNL     1       2.613   2.087   5.279  1.00  0.00    -0.248 NA
ATOM     47  C   UNL     1       3.142   1.131   3.266  1.00  0.00     0.031 C 
ATOM     48  C   UNL     1       2.538   5.357   4.907  1.00  0.00     0.029 A 
ATOM     49  N   UNL     1       1.079   5.681   3.243  1.00  0.00    -0.354 N 
ATOM     50  C   UNL     1       3.530   1.083   5.519  1.00  0.00     0.074 A 
ATOM     51  C   UNL     1       3.679   0.406   4.255  1.00  0.00     0.031 C 
ATOM     52  C   UNL     1       1.883   6.521   5.120  1.00  0.00     0.029 A 
ATOM     53  C   UNL     1       0.688   6.520   4.271  1.00  0.00     0.049 A 
ATOM     54  H   UNL     1       0.841   5.771   2.292  1.00  0.00     0.167 HD
ATOM     55  C   UNL     1       4.199   1.109   6.708  1.00  0.00     0.034 A 
ATOM     56  C   UNL     1      -0.621   6.483   4.669  1.00  0.00     0.034 A 
ATOM     57  C   UNL     1       3.711   2.256   7.502  1.00  0.00     0.049 A 
ATOM     58  C   UNL     1      -0.698   5.883   6.059  1.00  0.00     0.074 A 
ATOM     59  C   UNL     1       4.191   3.549   7.632  1.00  0.00     0.029 A 
ATOM     60  N   UNL     1       2.393   2.280   7.952  1.00  0.00    -0.354 N 
ATOM     61  N   UNL     1       0.237   5.143   6.590  1.00  0.00    -0.248 NA
ATOM     62  C   UNL     1      -1.827   6.089   6.954  1.00  0.00     0.031 C 
ATOM     63  C   UNL     1       3.104   4.376   8.035  1.00  0.00     0.029 A 
ATOM     64  C   UNL     1       1.973   3.587   8.175  1.00  0.00     0.049 A 
ATOM     65  H   UNL     1       1.835   1.482   8.093  1.00  0.00     0.167 HD
ATOM     66  C   UNL     1      -0.142   4.735   7.832  1.00  0.00     0.074 A 
ATOM     67  C   UNL     1      -1.427   5.392   8.031  1.00  0.00     0.031 C 
ATOM     68  C   UNL     1       0.595   3.859   8.581  1.00  0.00     0.034 A 
BRANCH  55  69
ATOM     69  C   UNL     1       5.487   0.371   7.069  1.00  0.00     0.023 A 
ATOM     70  C   UNL     1       6.145   0.806   8.246  1.00  0.00     0.012 A 
ATOM     71  C   UNL     1       6.140  -0.664   6.355  1.00  0.00     0.148 A 
ATOM     72  C   UNL     1       7.386   0.308   8.657  1.00  0.00     0.002 A 
ATOM     73  C   UNL     1       7.388  -1.163   6.762  1.00  0.00     0.091 A 
ATOM     74  F   UNL     1       5.565  -1.202   5.280  1.00  0.00    -0.205 F 
ATOM     75  C   UNL     1       8.016  -0.671   7.908  1.00  0.00     0.022 A 
BRANCH  73  76
ATOM     76  S   UNL     1       8.284  -2.441   5.854  1.00  0.00     0.127 S 
ATOM     77  O   UNL     1       9.527  -1.752   5.503  1.00  0.00    -0.237 OA
ATOM     78  O   UNL     1       8.436  -3.492   6.860  1.00  0.00    -0.237 OA
ATOM     79  O   UNL     1       7.451  -2.799   4.712  1.00  0.00    -0.744 OA
ENDBRANCH  73  76
ENDBRANCH  55  69
BRANCH  56  80
ATOM     80  C   UNL     1      -1.629   6.210   3.563  1.00  0.00     0.023 A 
ATOM     81  C   UNL     1      -1.565   7.014   2.391  1.00  0.00     0.012 A 
ATOM     82  C   UNL     1      -2.398   5.032   3.498  1.00  0.00     0.148 A 
ATOM     83  C   UNL     1      -2.150   6.610   1.184  1.00  0.00     0.002 A 
ATOM     84  C   UNL     1      -2.975   4.630   2.285  1.00  0.00     0.091 A 
ATOM     85  F   UNL     1      -2.530   4.281   4.598  1.00  0.00    -0.205 F 
ATOM     86  C   UNL     1      -2.843   5.409   1.127  1.00  0.00     0.022 A 
BRANCH  84  87
ATOM     87  S   UNL     1      -3.735   3.003   2.116  1.00  0.00     0.127 S 
ATOM     88  O   UNL     1      -3.553   2.698   0.695  1.00  0.00    -0.237 OA
ATOM     89  O   UNL     1      -2.951   2.149   2.996  1.00  0.00    -0.237 OA
ATOM     90  O   UNL     1      -5.113   3.270   2.515  1.00  0.00    -0.744 OA
ENDBRANCH  84  87
ENDBRANCH  56  80
BRANCH  68  91
ATOM     91  C   UNL     1       0.042   3.158   9.794  1.00  0.00     0.023 A 
ATOM     92  C   UNL     1      -1.335   2.904   9.936  1.00  0.00     0.012 A 
ATOM     93  C   UNL     1       0.909   2.569  10.743  1.00  0.00     0.148 A 
ATOM     94  C   UNL     1      -1.841   2.184  11.018  1.00  0.00     0.002 A 
ATOM     95  C   UNL     1       0.411   1.733  11.734  1.00  0.00     0.091 A 
ATOM     96  F   UNL     1       2.227   2.816  10.696  1.00  0.00    -0.205 F 
ATOM     97  C   UNL     1      -0.966   1.576  11.905  1.00  0.00     0.022 A 
BRANCH  95  98
ATOM     98  S   UNL     1       1.527   0.688  12.675  1.00  0.00     0.127 S 
ATOM     99  O   UNL     1       1.860   1.541  13.813  1.00  0.00    -0.237 OA
ATOM    100  O   UNL     1       0.685  -0.464  13.001  1.00  0.00    -0.237 OA
ATOM    101  O   UNL     1       2.614   0.385  11.752  1.00  0.00    -0.744 OA
ENDBRANCH  95  98
ENDBRANCH  68  91
ENDBRANCH  42  43
ENDBRANCH  35  37
ENDBRANCH  34  35
ENDBRANCH  33  34
ENDBRANCH   1  33
TORSDOF 17
