REMARK SMILES O=C(OCCOC(=O)c1cn(C2CN(C(=O)Nc3ccsc3)C2)nn1)c1ccc(-c2c3nc(c(-c4cccc(S(=O)(=O)[O-])c4F)c4ccc([nH]4)c(-c4cccc(S(=O)(=O)[O-])c4F)c4nc(c(-c5cccc(S(=O)(=O)[O-])c5F)c5ccc2[nH]5)C=C4)C=C3)cc1
REMARK SMILES IDX 4 1 3 2 2 3 1 4 26 5 27 6 88 7 28 8 87 9 29 10 30 11 31 12
REMARK SMILES IDX 81 13 32 14 86 15 80 16 82 17 33 18 85 19 79 20 78 21 34 23
REMARK SMILES IDX 66 24 46 25 65 26 47 27 50 28 64 29 83 30 48 31 49 32 63 34
REMARK SMILES IDX 84 35 51 36 35 37 36 38 44 39 37 40 39 41 45 42 38 43 40 44
REMARK SMILES IDX 41 45 42 46 43 47 67 48 68 49 76 50 69 51 71 52 77 53 70 54
REMARK SMILES IDX 72 55 73 56 74 57 75 58 52 59 53 60 61 61 54 62 56 63 62 64
REMARK SMILES IDX 55 65 57 66 58 67 59 68 60 69 5 70 6 71 7 72 8 73 9 74 10 75
REMARK SMILES IDX 25 76 11 77 24 78 12 79 13 80 23 81 14 82 15 83 16 84 17 85
REMARK SMILES IDX 18 87 19 88 22 89 20 90 21 91
REMARK H PARENT 82 22 50 33 17 86
REMARK Flexibility Score: inf
ROOT
ATOM      1  C   UNL     1       4.655  -1.145   0.616  1.00  0.00     0.275 C 
ENDROOT
BRANCH   1   2
ATOM      2  O   UNL     1       3.441  -0.860   1.342  1.00  0.00    -0.458 OA
BRANCH   2   3
ATOM      3  C   UNL     1       2.382  -0.340   0.678  1.00  0.00     0.338 C 
ATOM      4  O   UNL     1       1.604  -0.991   0.003  1.00  0.00    -0.246 OA
BRANCH   3   5
ATOM      5  C   UNL     1       2.214   1.088   1.026  1.00  0.00     0.060 A 
ATOM      6  C   UNL     1       3.329   1.900   1.270  1.00  0.00     0.016 A 
ATOM      7  C   UNL     1       0.922   1.618   1.104  1.00  0.00     0.016 A 
ATOM      8  C   UNL     1       3.154   3.211   1.674  1.00  0.00     0.010 A 
ATOM      9  C   UNL     1       0.746   2.936   1.508  1.00  0.00     0.010 A 
ATOM     10  C   UNL     1       1.862   3.716   1.823  1.00  0.00    -0.014 A 
BRANCH  10  11
ATOM     11  C   UNL     1       1.737   5.111   2.230  1.00  0.00     0.031 A 
ATOM     12  C   UNL     1       2.196   6.116   1.232  1.00  0.00     0.074 A 
ATOM     13  C   UNL     1       1.139   5.484   3.378  1.00  0.00     0.049 A 
ATOM     14  N   UNL     1       3.131   7.003   1.359  1.00  0.00    -0.248 NA
ATOM     15  C   UNL     1       1.597   6.066  -0.109  1.00  0.00     0.031 C 
ATOM     16  C   UNL     1       0.382   4.632   4.299  1.00  0.00     0.029 A 
ATOM     17  N   UNL     1       0.953   6.738   3.883  1.00  0.00    -0.354 N 
ATOM     18  C   UNL     1       3.084   7.771   0.194  1.00  0.00     0.074 A 
ATOM     19  C   UNL     1       2.240   7.057  -0.727  1.00  0.00     0.031 C 
ATOM     20  C   UNL     1      -0.390   5.415   5.084  1.00  0.00     0.029 A 
ATOM     21  C   UNL     1      -0.080   6.808   4.811  1.00  0.00     0.049 A 
ATOM     22  H   UNL     1       1.495   7.516   3.617  1.00  0.00     0.167 HD
ATOM     23  C   UNL     1       3.561   9.047   0.155  1.00  0.00     0.034 A 
ATOM     24  C   UNL     1      -0.699   7.928   5.253  1.00  0.00     0.034 A 
ATOM     25  C   UNL     1       4.442   9.325   1.259  1.00  0.00     0.049 A 
ATOM     26  C   UNL     1       0.191   9.077   4.980  1.00  0.00     0.074 A 
ATOM     27  C   UNL     1       5.621   8.793   1.742  1.00  0.00     0.029 A 
ATOM     28  N   UNL     1       3.958  10.130   2.259  1.00  0.00    -0.354 N 
ATOM     29  N   UNL     1       1.322   9.283   5.592  1.00  0.00    -0.248 NA
ATOM     30  C   UNL     1      -0.001   9.827   3.750  1.00  0.00     0.031 C 
ATOM     31  C   UNL     1       5.534   8.930   3.158  1.00  0.00     0.029 A 
ATOM     32  C   UNL     1       4.327   9.568   3.448  1.00  0.00     0.049 A 
ATOM     33  H   UNL     1       3.440  10.960   2.141  1.00  0.00     0.167 HD
ATOM     34  C   UNL     1       2.150   9.818   4.616  1.00  0.00     0.074 A 
ATOM     35  C   UNL     1       1.248  10.255   3.555  1.00  0.00     0.031 C 
ATOM     36  C   UNL     1       3.496   9.585   4.632  1.00  0.00     0.034 A 
BRANCH  23  37
ATOM     37  C   UNL     1       2.962  10.179  -0.659  1.00  0.00     0.023 A 
ATOM     38  C   UNL     1       3.650  11.417  -0.648  1.00  0.00     0.012 A 
ATOM     39  C   UNL     1       1.643  10.190  -1.167  1.00  0.00     0.148 A 
ATOM     40  C   UNL     1       3.029  12.611  -1.032  1.00  0.00     0.002 A 
ATOM     41  C   UNL     1       1.059  11.368  -1.624  1.00  0.00     0.091 A 
ATOM     42  F   UNL     1       0.885   9.094  -1.096  1.00  0.00    -0.205 F 
ATOM     43  C   UNL     1       1.732  12.587  -1.523  1.00  0.00     0.022 A 
BRANCH  41  44
ATOM     44  S   UNL     1      -0.596  11.380  -2.326  1.00  0.00     0.127 S 
ATOM     45  O   UNL     1      -1.378  11.918  -1.218  1.00  0.00    -0.237 OA
ATOM     46  O   UNL     1      -0.432  12.281  -3.467  1.00  0.00    -0.237 OA
ATOM     47  O   UNL     1      -0.865   9.996  -2.697  1.00  0.00    -0.744 OA
ENDBRANCH  41  44
ENDBRANCH  23  37
BRANCH  24  48
ATOM     48  C   UNL     1      -2.100   8.113   5.694  1.00  0.00     0.023 A 
ATOM     49  C   UNL     1      -2.435   9.212   6.508  1.00  0.00     0.012 A 
ATOM     50  C   UNL     1      -3.151   7.370   5.109  1.00  0.00     0.148 A 
ATOM     51  C   UNL     1      -3.771   9.577   6.712  1.00  0.00     0.002 A 
ATOM     52  C   UNL     1      -4.477   7.728   5.326  1.00  0.00     0.091 A 
ATOM     53  F   UNL     1      -2.848   6.374   4.267  1.00  0.00    -0.205 F 
ATOM     54  C   UNL     1      -4.791   8.839   6.117  1.00  0.00     0.022 A 
BRANCH  52  55
ATOM     55  S   UNL     1      -5.843   6.827   4.581  1.00  0.00     0.127 S 
ATOM     56  O   UNL     1      -6.761   6.677   5.711  1.00  0.00    -0.237 OA
ATOM     57  O   UNL     1      -6.291   7.756   3.548  1.00  0.00    -0.237 OA
ATOM     58  O   UNL     1      -5.275   5.572   4.104  1.00  0.00    -0.744 OA
ENDBRANCH  52  55
ENDBRANCH  24  48
BRANCH  36  59
ATOM     59  C   UNL     1       4.110   9.007   5.880  1.00  0.00     0.023 A 
ATOM     60  C   UNL     1       3.736   7.742   6.381  1.00  0.00     0.012 A 
ATOM     61  C   UNL     1       5.210   9.666   6.455  1.00  0.00     0.148 A 
ATOM     62  C   UNL     1       4.424   7.163   7.449  1.00  0.00     0.002 A 
ATOM     63  C   UNL     1       5.924   9.064   7.484  1.00  0.00     0.091 A 
ATOM     64  F   UNL     1       5.560  10.866   5.965  1.00  0.00    -0.205 F 
ATOM     65  C   UNL     1       5.527   7.817   7.992  1.00  0.00     0.022 A 
BRANCH  63  66
ATOM     66  S   UNL     1       7.434   9.792   8.124  1.00  0.00     0.127 S 
ATOM     67  O   UNL     1       6.979  10.396   9.373  1.00  0.00    -0.237 OA
ATOM     68  O   UNL     1       8.304   8.625   8.290  1.00  0.00    -0.237 OA
ATOM     69  O   UNL     1       7.889  10.726   7.100  1.00  0.00    -0.744 OA
ENDBRANCH  63  66
ENDBRANCH  36  59
ENDBRANCH  10  11
ENDBRANCH   3   5
ENDBRANCH   2   3
ENDBRANCH   1   2
BRANCH   1  70
ATOM     70  C   UNL     1       4.528  -1.436  -0.878  1.00  0.00     0.275 C 
BRANCH  70  71
ATOM     71  O   UNL     1       4.143  -0.228  -1.547  1.00  0.00    -0.457 OA
BRANCH  71  72
ATOM     72  C   UNL     1       3.166  -0.352  -2.490  1.00  0.00     0.360 C 
ATOM     73  O   UNL     1       2.779  -1.409  -2.977  1.00  0.00    -0.244 OA
BRANCH  72  74
ATOM     74  C   UNL     1       2.681   0.948  -2.882  1.00  0.00     0.190 A 
ATOM     75  C   UNL     1       3.263   1.824  -3.775  1.00  0.00     0.147 A 
ATOM     76  N   UNL     1       1.560   1.523  -2.348  1.00  0.00    -0.123 NA
ATOM     77  N   UNL     1       2.428   2.905  -3.759  1.00  0.00    -0.245 N 
ATOM     78  N   UNL     1       1.429   2.731  -2.875  1.00  0.00    -0.066 NA
BRANCH  77  79
ATOM     79  C   UNL     1       2.390   3.992  -4.682  1.00  0.00     0.148 C 
ATOM     80  C   UNL     1       3.676   4.414  -5.402  1.00  0.00     0.150 C 
ATOM     81  C   UNL     1       1.921   3.457  -6.053  1.00  0.00     0.150 C 
ATOM     82  N   UNL     1       2.868   4.388  -6.625  1.00  0.00    -0.320 N 
ATOM     83  C   UNL     1       3.261   4.731  -7.877  1.00  0.00     0.322 C 
ATOM     84  O   UNL     1       4.356   5.266  -8.073  1.00  0.00    -0.248 OA
ATOM     85  N   UNL     1       2.538   4.357  -8.966  1.00  0.00    -0.307 N 
ATOM     86  H   UNL     1       3.047   4.367  -9.809  1.00  0.00     0.171 HD
BRANCH  85  87
ATOM     87  C   UNL     1       1.219   3.965  -9.107  1.00  0.00     0.053 A 
ATOM     88  C   UNL     1       0.088   4.375  -8.345  1.00  0.00     0.038 A 
ATOM     89  C   UNL     1       0.835   3.130 -10.137  1.00  0.00     0.091 A 
ATOM     90  C   UNL     1      -1.058   3.688  -8.683  1.00  0.00     0.067 A 
ATOM     91  S   UNL     1      -0.809   2.664 -10.028  1.00  0.00    -0.150 S 
ENDBRANCH  85  87
ENDBRANCH  77  79
ENDBRANCH  72  74
ENDBRANCH  71  72
ENDBRANCH  70  71
ENDBRANCH   1  70
TORSDOF 16
