REMARK SMILES C[C@@H]1CN(S(=O)(=O)c2cccc(C(=O)N3CCC[C@@H]3C(=O)OCCOC(=O)c3ccc(-c4c5nc(c(-c6cccc(S(=O)(=O)[O-])c6F)c6ccc([nH]6)c(-c6cccc(S(=O)(=O)[O-])c6F)c6nc(c(-c7cccc(S(=O)(=O)[O-])c7F)c7ccc4[nH]7)C=C6)C=C5)cc3)c2)C[C@H](C)O1
REMARK SMILES IDX 23 1 22 2 20 3 21 4 19 5 15 6 16 7 17 8 18 9 13 10 14 11
REMARK SMILES IDX 12 12 8 13 9 14 91 15 10 16 11 17 5 18 6 19 7 20 4 21 1 22
REMARK SMILES IDX 2 23 3 24 95 25 93 26 92 27 94 28 24 29 25 30 26 31 27 32
REMARK SMILES IDX 28 33 29 34 90 35 30 36 89 37 31 38 32 39 33 40 83 41 34 42
REMARK SMILES IDX 88 43 82 44 84 45 35 46 87 47 81 48 80 49 36 51 68 52 48 53
REMARK SMILES IDX 67 54 49 55 52 56 66 57 85 58 50 59 51 60 65 62 86 63 53 64
REMARK SMILES IDX 37 65 38 66 46 67 39 68 41 69 47 70 40 71 42 72 43 73 44 74
REMARK SMILES IDX 45 75 69 76 70 77 78 78 71 79 73 80 79 81 72 82 74 83 75 84
REMARK SMILES IDX 76 85 77 86 54 87 55 88 63 89 56 90 58 91 64 92 57 93 59 94
REMARK SMILES IDX 60 95 61 96 62 97
REMARK H PARENT 84 50 52 61
REMARK Flexibility Score: inf
ROOT
ATOM      1  C   UNL     1       2.917  -3.058  -1.116  1.00  0.00     0.274 C 
ENDROOT
BRANCH   1   2
ATOM      2  O   UNL     1       2.559  -2.480  -2.390  1.00  0.00    -0.461 OA
BRANCH   2   3
ATOM      3  C   UNL     1       3.460  -2.668  -3.391  1.00  0.00     0.328 C 
ATOM      4  O   UNL     1       4.589  -3.112  -3.213  1.00  0.00    -0.250 OA
BRANCH   3   5
ATOM      5  C   UNL     1       2.974  -2.187  -4.769  1.00  0.00     0.195 C 
ATOM      6  N   UNL     1       3.534  -0.896  -5.139  1.00  0.00    -0.325 N 
ATOM      7  C   UNL     1       2.672  -0.291  -6.128  1.00  0.00     0.121 C 
ATOM      8  C   UNL     1       1.297  -0.612  -5.583  1.00  0.00     0.024 C 
ATOM      9  C   UNL     1       1.461  -2.013  -4.979  1.00  0.00     0.039 C 
BRANCH   6  10
ATOM     10  C   UNL     1       4.905  -0.731  -5.205  1.00  0.00     0.254 C 
ATOM     11  O   UNL     1       5.651  -1.409  -5.892  1.00  0.00    -0.269 OA
BRANCH  10  12
ATOM     12  C   UNL     1       5.402   0.273  -4.220  1.00  0.00     0.041 A 
ATOM     13  C   UNL     1       4.906   2.099  -2.704  1.00  0.00     0.083 A 
ATOM     14  C   UNL     1       6.202   2.037  -2.193  1.00  0.00     0.022 A 
ATOM     15  C   UNL     1       4.528   1.251  -3.738  1.00  0.00     0.035 A 
ATOM     16  C   UNL     1       7.099   1.088  -2.704  1.00  0.00     0.002 A 
ATOM     17  C   UNL     1       6.698   0.199  -3.711  1.00  0.00     0.014 A 
BRANCH  13  18
ATOM     18  S   UNL     1       3.765   3.366  -2.226  1.00  0.00     0.243 S 
ATOM     19  O   UNL     1       3.137   3.852  -3.438  1.00  0.00    -0.207 OA
ATOM     20  O   UNL     1       4.462   4.281  -1.345  1.00  0.00    -0.207 OA
BRANCH  18  21
ATOM     21  N   UNL     1       2.526   2.601  -1.285  1.00  0.00    -0.193 NA
ATOM     22  C   UNL     1       0.918  -0.053  -0.102  1.00  0.00     0.040 C 
ATOM     23  C   UNL     1       0.553   0.996  -1.146  1.00  0.00     0.130 C 
ATOM     24  C   UNL     1       1.752   1.511  -1.978  1.00  0.00     0.134 C 
ATOM     25  O   UNL     1      -0.254   2.033  -0.576  1.00  0.00    -0.373 OA
ATOM     26  C   UNL     1       0.467   3.082   0.076  1.00  0.00     0.130 C 
ATOM     27  C   UNL     1       1.555   3.663  -0.827  1.00  0.00     0.134 C 
ATOM     28  C   UNL     1       0.983   2.690   1.455  1.00  0.00     0.040 C 
ENDBRANCH  18  21
ENDBRANCH  13  18
ENDBRANCH  10  12
ENDBRANCH   6  10
ENDBRANCH   3   5
ENDBRANCH   2   3
ENDBRANCH   1   2
BRANCH   1  29
ATOM     29  C   UNL     1       1.988  -4.228  -0.783  1.00  0.00     0.275 C 
BRANCH  29  30
ATOM     30  O   UNL     1       2.221  -5.340  -1.665  1.00  0.00    -0.458 OA
BRANCH  30  31
ATOM     31  C   UNL     1       1.487  -5.345  -2.802  1.00  0.00     0.338 C 
ATOM     32  O   UNL     1       0.623  -4.550  -3.130  1.00  0.00    -0.246 OA
BRANCH  31  33
ATOM     33  C   UNL     1       2.015  -6.374  -3.708  1.00  0.00     0.060 A 
ATOM     34  C   UNL     1       2.660  -5.949  -4.872  1.00  0.00     0.016 A 
ATOM     35  C   UNL     1       1.853  -7.731  -3.441  1.00  0.00     0.016 A 
ATOM     36  C   UNL     1       3.160  -6.875  -5.776  1.00  0.00     0.010 A 
ATOM     37  C   UNL     1       2.362  -8.665  -4.347  1.00  0.00     0.010 A 
ATOM     38  C   UNL     1       3.021  -8.241  -5.515  1.00  0.00    -0.014 A 
BRANCH  38  39
ATOM     39  C   UNL     1       3.588  -9.231  -6.457  1.00  0.00     0.031 A 
ATOM     40  C   UNL     1       2.678 -10.058  -7.312  1.00  0.00     0.074 A 
ATOM     41  C   UNL     1       4.923  -9.397  -6.508  1.00  0.00     0.049 A 
ATOM     42  N   UNL     1       2.972 -11.063  -8.092  1.00  0.00    -0.248 NA
ATOM     43  C   UNL     1       1.248  -9.710  -7.287  1.00  0.00     0.031 C 
ATOM     44  C   UNL     1       5.898  -8.624  -5.735  1.00  0.00     0.029 A 
ATOM     45  N   UNL     1       5.686 -10.288  -7.216  1.00  0.00    -0.354 N 
ATOM     46  C   UNL     1       1.764 -11.500  -8.617  1.00  0.00     0.074 A 
ATOM     47  C   UNL     1       0.731 -10.643  -8.074  1.00  0.00     0.031 C 
ATOM     48  C   UNL     1       7.128  -9.095  -5.987  1.00  0.00     0.029 A 
ATOM     49  C   UNL     1       7.023 -10.231  -6.897  1.00  0.00     0.049 A 
ATOM     50  H   UNL     1       5.315 -10.907  -7.885  1.00  0.00     0.167 HD
ATOM     51  C   UNL     1       1.542 -12.519  -9.480  1.00  0.00     0.034 A 
ATOM     52  C   UNL     1       8.041 -11.035  -7.261  1.00  0.00     0.034 A 
ATOM     53  C   UNL     1       2.583 -13.339 -10.038  1.00  0.00     0.049 A 
ATOM     54  C   UNL     1       7.759 -12.187  -8.183  1.00  0.00     0.074 A 
ATOM     55  C   UNL     1       2.471 -14.359 -10.966  1.00  0.00     0.029 A 
ATOM     56  N   UNL     1       3.928 -13.241  -9.711  1.00  0.00    -0.354 N 
ATOM     57  N   UNL     1       6.627 -12.532  -8.749  1.00  0.00    -0.248 NA
ATOM     58  C   UNL     1       8.893 -13.056  -8.527  1.00  0.00     0.031 C 
ATOM     59  C   UNL     1       3.747 -14.892 -11.183  1.00  0.00     0.029 A 
ATOM     60  C   UNL     1       4.654 -14.196 -10.400  1.00  0.00     0.049 A 
ATOM     61  H   UNL     1       4.309 -12.587  -9.081  1.00  0.00     0.167 HD
ATOM     62  C   UNL     1       6.912 -13.649  -9.523  1.00  0.00     0.074 A 
ATOM     63  C   UNL     1       8.332 -13.904  -9.379  1.00  0.00     0.031 C 
ATOM     64  C   UNL     1       6.073 -14.411 -10.268  1.00  0.00     0.034 A 
BRANCH  51  65
ATOM     65  C   UNL     1       0.121 -12.791  -9.891  1.00  0.00     0.023 A 
ATOM     66  C   UNL     1      -0.508 -11.943 -10.824  1.00  0.00     0.012 A 
ATOM     67  C   UNL     1      -0.571 -13.913  -9.397  1.00  0.00     0.148 A 
ATOM     68  C   UNL     1      -1.814 -12.195 -11.243  1.00  0.00     0.002 A 
ATOM     69  C   UNL     1      -1.861 -14.178  -9.845  1.00  0.00     0.091 A 
ATOM     70  F   UNL     1       0.036 -14.691  -8.489  1.00  0.00    -0.205 F 
ATOM     71  C   UNL     1      -2.485 -13.317 -10.762  1.00  0.00     0.022 A 
BRANCH  69  72
ATOM     72  S   UNL     1      -2.784 -15.630  -9.328  1.00  0.00     0.127 S 
ATOM     73  O   UNL     1      -3.772 -15.044  -8.423  1.00  0.00    -0.237 OA
ATOM     74  O   UNL     1      -3.331 -16.116 -10.595  1.00  0.00    -0.237 OA
ATOM     75  O   UNL     1      -1.814 -16.520  -8.706  1.00  0.00    -0.744 OA
ENDBRANCH  69  72
ENDBRANCH  51  65
BRANCH  52  76
ATOM     76  C   UNL     1       9.413 -10.769  -6.746  1.00  0.00     0.023 A 
ATOM     77  C   UNL     1      10.405 -10.305  -7.630  1.00  0.00     0.012 A 
ATOM     78  C   UNL     1       9.727 -10.927  -5.381  1.00  0.00     0.148 A 
ATOM     79  C   UNL     1      11.690 -10.017  -7.166  1.00  0.00     0.002 A 
ATOM     80  C   UNL     1      10.992 -10.587  -4.917  1.00  0.00     0.091 A 
ATOM     81  F   UNL     1       8.777 -11.395  -4.560  1.00  0.00    -0.205 F 
ATOM     82  C   UNL     1      11.979 -10.144  -5.809  1.00  0.00     0.022 A 
BRANCH  80  83
ATOM     83  S   UNL     1      11.401 -10.596  -3.167  1.00  0.00     0.127 S 
ATOM     84  O   UNL     1      12.206 -11.809  -3.054  1.00  0.00    -0.237 OA
ATOM     85  O   UNL     1      12.147  -9.346  -3.018  1.00  0.00    -0.237 OA
ATOM     86  O   UNL     1      10.122 -10.613  -2.469  1.00  0.00    -0.744 OA
ENDBRANCH  80  83
ENDBRANCH  52  76
BRANCH  64  87
ATOM     87  C   UNL     1       6.665 -15.599 -10.977  1.00  0.00     0.023 A 
ATOM     88  C   UNL     1       6.993 -16.750 -10.234  1.00  0.00     0.012 A 
ATOM     89  C   UNL     1       6.823 -15.607 -12.376  1.00  0.00     0.148 A 
ATOM     90  C   UNL     1       7.492 -17.885 -10.870  1.00  0.00     0.002 A 
ATOM     91  C   UNL     1       7.281 -16.757 -13.008  1.00  0.00     0.091 A 
ATOM     92  F   UNL     1       6.521 -14.494 -13.060  1.00  0.00    -0.205 F 
ATOM     93  C   UNL     1       7.625 -17.892 -12.257  1.00  0.00     0.022 A 
BRANCH  91  94
ATOM     94  S   UNL     1       7.402 -16.890 -14.796  1.00  0.00     0.127 S 
ATOM     95  O   UNL     1       8.850 -16.858 -14.999  1.00  0.00    -0.237 OA
ATOM     96  O   UNL     1       6.778 -18.188 -15.054  1.00  0.00    -0.237 OA
ATOM     97  O   UNL     1       6.671 -15.751 -15.333  1.00  0.00    -0.744 OA
ENDBRANCH  91  94
ENDBRANCH  64  87
ENDBRANCH  38  39
ENDBRANCH  31  33
ENDBRANCH  30  31
ENDBRANCH  29  30
ENDBRANCH   1  29
TORSDOF 18
