REMARK SMILES Cc1csc([C@H](C)Nc2cc(C)c(N)c(C(=O)OCCOC(=O)c3ccc(-c4c5nc(c(-c6cccc(S(=O)(=O)[O-])c6F)c6ccc([nH]6)c(-c6cccc(S(=O)(=O)[O-])c6F)c6nc(c(-c7cccc(S(=O)(=O)[O-])c7F)c7ccc4[nH]7)C=C6)C=C5)cc3)c2)n1
REMARK SMILES IDX 19 1 18 2 16 3 17 4 15 5 9 6 10 7 87 8 11 9 12 10 13 11 8 12
REMARK SMILES IDX 6 14 7 15 5 16 1 17 2 18 3 19 88 20 4 21 14 22 20 25 21 26
REMARK SMILES IDX 22 27 23 28 24 29 25 30 86 31 26 32 85 33 27 34 28 35 29 36
REMARK SMILES IDX 79 37 30 38 84 39 78 40 80 41 31 42 83 43 77 44 76 45 32 47
REMARK SMILES IDX 64 48 44 49 63 50 45 51 48 52 62 53 81 54 46 55 47 56 61 58
REMARK SMILES IDX 82 59 49 60 33 61 34 62 42 63 35 64 37 65 43 66 36 67 38 68
REMARK SMILES IDX 39 69 40 70 41 71 65 72 66 73 74 74 67 75 69 76 75 77 68 78
REMARK SMILES IDX 70 79 71 80 72 81 73 82 50 83 51 84 59 85 52 86 54 87 60 88
REMARK SMILES IDX 53 89 55 90 56 91 57 92 58 93
REMARK H PARENT 8 13 14 23 14 24 80 46 48 57
REMARK Flexibility Score: inf
ROOT
ATOM      1  C   UNL     1       1.229   3.267   7.380  1.00  0.00     0.275 C 
ENDROOT
BRANCH   1   2
ATOM      2  O   UNL     1       1.495   3.336   5.963  1.00  0.00    -0.458 OA
BRANCH   2   3
ATOM      3  C   UNL     1       2.058   4.494   5.512  1.00  0.00     0.340 C 
ATOM      4  O   UNL     1       2.319   5.473   6.183  1.00  0.00    -0.246 OA
BRANCH   3   5
ATOM      5  C   UNL     1       2.380   4.375   4.061  1.00  0.00     0.085 A 
ATOM      6  C   UNL     1       1.772   3.517   1.857  1.00  0.00     0.036 A 
ATOM      7  C   UNL     1       3.002   3.978   1.386  1.00  0.00     0.031 A 
ATOM      8  C   UNL     1       1.497   3.682   3.217  1.00  0.00     0.043 A 
ATOM      9  C   UNL     1       3.891   4.700   2.203  1.00  0.00    -0.025 A 
ATOM     10  C   UNL     1       5.204   5.152   1.617  1.00  0.00     0.047 C 
ATOM     11  C   UNL     1       3.543   4.977   3.537  1.00  0.00     0.049 A 
BRANCH   6  12
ATOM     12  N   UNL     1       0.854   2.843   1.075  1.00  0.00    -0.376 N 
ATOM     13  H   UNL     1      -0.060   2.748   1.427  1.00  0.00     0.161 HD
BRANCH  12  14
ATOM     14  C   UNL     1       1.136   2.257  -0.242  1.00  0.00     0.135 C 
ATOM     15  C   UNL     1       0.244   1.008  -0.335  1.00  0.00     0.039 C 
BRANCH  14  16
ATOM     16  C   UNL     1       0.966   3.195  -1.441  1.00  0.00     0.115 A 
ATOM     17  C   UNL     1       1.136   6.545  -2.781  1.00  0.00     0.067 C 
ATOM     18  C   UNL     1       0.976   5.075  -2.645  1.00  0.00     0.049 A 
ATOM     19  C   UNL     1       0.775   4.169  -3.665  1.00  0.00     0.090 A 
ATOM     20  N   UNL     1       1.051   4.513  -1.382  1.00  0.00    -0.244 NA
ATOM     21  S   UNL     1       0.751   2.578  -3.042  1.00  0.00    -0.125 S 
ENDBRANCH  14  16
ENDBRANCH  12  14
ENDBRANCH   6  12
BRANCH  11  22
ATOM     22  N   UNL     1       4.403   5.725   4.338  1.00  0.00    -0.398 N 
ATOM     23  H   UNL     1       5.208   6.135   3.947  1.00  0.00     0.156 HD
ATOM     24  H   UNL     1       4.205   5.844   5.295  1.00  0.00     0.156 HD
ENDBRANCH  11  22
ENDBRANCH   3   5
ENDBRANCH   2   3
ENDBRANCH   1   2
BRANCH   1  25
ATOM     25  C   UNL     1       2.252   2.368   8.075  1.00  0.00     0.275 C 
BRANCH  25  26
ATOM     26  O   UNL     1       3.548   2.977   7.980  1.00  0.00    -0.458 OA
BRANCH  26  27
ATOM     27  C   UNL     1       4.593   2.137   7.787  1.00  0.00     0.338 C 
ATOM     28  O   UNL     1       4.559   0.917   7.795  1.00  0.00    -0.246 OA
BRANCH  27  29
ATOM     29  C   UNL     1       5.824   2.925   7.545  1.00  0.00     0.060 A 
ATOM     30  C   UNL     1       5.763   4.108   6.814  1.00  0.00     0.016 A 
ATOM     31  C   UNL     1       7.064   2.444   7.963  1.00  0.00     0.016 A 
ATOM     32  C   UNL     1       6.934   4.760   6.421  1.00  0.00     0.010 A 
ATOM     33  C   UNL     1       8.232   3.159   7.655  1.00  0.00     0.010 A 
ATOM     34  C   UNL     1       8.192   4.307   6.840  1.00  0.00    -0.014 A 
BRANCH  34  35
ATOM     35  C   UNL     1       9.452   4.978   6.377  1.00  0.00     0.031 A 
ATOM     36  C   UNL     1      10.557   4.159   5.748  1.00  0.00     0.074 A 
ATOM     37  C   UNL     1       9.630   6.312   6.492  1.00  0.00     0.049 A 
ATOM     38  N   UNL     1      11.802   4.488   5.509  1.00  0.00    -0.248 NA
ATOM     39  C   UNL     1      10.224   2.779   5.357  1.00  0.00     0.031 C 
ATOM     40  C   UNL     1       8.657   7.259   7.038  1.00  0.00     0.029 A 
ATOM     41  N   UNL     1      10.701   7.109   6.151  1.00  0.00    -0.354 N 
ATOM     42  C   UNL     1      12.422   3.332   5.046  1.00  0.00     0.074 A 
ATOM     43  C   UNL     1      11.410   2.297   5.014  1.00  0.00     0.031 C 
ATOM     44  C   UNL     1       9.149   8.504   6.950  1.00  0.00     0.029 A 
ATOM     45  C   UNL     1      10.516   8.442   6.445  1.00  0.00     0.049 A 
ATOM     46  H   UNL     1      11.523   6.758   5.737  1.00  0.00     0.167 HD
ATOM     47  C   UNL     1      13.712   3.146   4.673  1.00  0.00     0.034 A 
ATOM     48  C   UNL     1      11.359   9.493   6.372  1.00  0.00     0.034 A 
ATOM     49  C   UNL     1      14.691   4.198   4.592  1.00  0.00     0.049 A 
ATOM     50  C   UNL     1      12.778   9.271   5.926  1.00  0.00     0.074 A 
ATOM     51  C   UNL     1      16.018   4.111   4.208  1.00  0.00     0.029 A 
ATOM     52  N   UNL     1      14.442   5.534   4.862  1.00  0.00    -0.354 N 
ATOM     53  N   UNL     1      13.352   8.165   5.520  1.00  0.00    -0.248 NA
ATOM     54  C   UNL     1      13.669  10.441   5.935  1.00  0.00     0.031 C 
ATOM     55  C   UNL     1      16.571   5.396   4.242  1.00  0.00     0.029 A 
ATOM     56  C   UNL     1      15.585   6.284   4.638  1.00  0.00     0.049 A 
ATOM     57  H   UNL     1      13.580   5.897   5.169  1.00  0.00     0.167 HD
ATOM     58  C   UNL     1      14.664   8.507   5.216  1.00  0.00     0.074 A 
ATOM     59  C   UNL     1      14.791   9.931   5.448  1.00  0.00     0.031 C 
ATOM     60  C   UNL     1      15.682   7.709   4.812  1.00  0.00     0.034 A 
BRANCH  47  61
ATOM     61  C   UNL     1      14.145   1.752   4.297  1.00  0.00     0.023 A 
ATOM     62  C   UNL     1      13.756   1.204   3.059  1.00  0.00     0.012 A 
ATOM     63  C   UNL     1      14.994   1.010   5.144  1.00  0.00     0.148 A 
ATOM     64  C   UNL     1      14.179  -0.071   2.683  1.00  0.00     0.002 A 
ATOM     65  C   UNL     1      15.447  -0.242   4.743  1.00  0.00     0.091 A 
ATOM     66  F   UNL     1      15.340   1.539   6.327  1.00  0.00    -0.205 F 
ATOM     67  C   UNL     1      15.032  -0.788   3.519  1.00  0.00     0.022 A 
BRANCH  65  68
ATOM     68  S   UNL     1      16.615  -1.204   5.713  1.00  0.00     0.127 S 
ATOM     69  O   UNL     1      15.755  -2.257   6.252  1.00  0.00    -0.237 OA
ATOM     70  O   UNL     1      17.565  -1.656   4.697  1.00  0.00    -0.237 OA
ATOM     71  O   UNL     1      17.172  -0.285   6.695  1.00  0.00    -0.744 OA
ENDBRANCH  65  68
ENDBRANCH  47  61
BRANCH  48  72
ATOM     72  C   UNL     1      10.882  10.860   6.740  1.00  0.00     0.023 A 
ATOM     73  C   UNL     1      10.783  11.852   5.744  1.00  0.00     0.012 A 
ATOM     74  C   UNL     1      10.492  11.175   8.056  1.00  0.00     0.148 A 
ATOM     75  C   UNL     1      10.319  13.131   6.055  1.00  0.00     0.002 A 
ATOM     76  C   UNL     1       9.962  12.427   8.344  1.00  0.00     0.091 A 
ATOM     77  F   UNL     1      10.631  10.237   9.004  1.00  0.00    -0.205 F 
ATOM     78  C   UNL     1       9.891  13.413   7.350  1.00  0.00     0.022 A 
BRANCH  76  79
ATOM     79  S   UNL     1       9.234  12.797   9.944  1.00  0.00     0.127 S 
ATOM     80  O   UNL     1      10.300  13.555  10.593  1.00  0.00    -0.237 OA
ATOM     81  O   UNL     1       8.056  13.584   9.574  1.00  0.00    -0.237 OA
ATOM     82  O   UNL     1       8.920  11.500  10.529  1.00  0.00    -0.744 OA
ENDBRANCH  76  79
ENDBRANCH  48  72
BRANCH  60  83
ATOM     83  C   UNL     1      17.018   8.357   4.564  1.00  0.00     0.023 A 
ATOM     84  C   UNL     1      17.815   8.750   5.657  1.00  0.00     0.012 A 
ATOM     85  C   UNL     1      17.509   8.522   3.254  1.00  0.00     0.148 A 
ATOM     86  C   UNL     1      19.068   9.324   5.450  1.00  0.00     0.002 A 
ATOM     87  C   UNL     1      18.776   9.058   3.057  1.00  0.00     0.091 A 
ATOM     88  F   UNL     1      16.726   8.161   2.227  1.00  0.00    -0.205 F 
ATOM     89  C   UNL     1      19.553   9.469   4.152  1.00  0.00     0.022 A 
BRANCH  87  90
ATOM     90  S   UNL     1      19.512   9.205   1.424  1.00  0.00     0.127 S 
ATOM     91  O   UNL     1      19.395  10.640   1.172  1.00  0.00    -0.237 OA
ATOM     92  O   UNL     1      20.879   8.736   1.654  1.00  0.00    -0.237 OA
ATOM     93  O   UNL     1      18.721   8.348   0.552  1.00  0.00    -0.744 OA
ENDBRANCH  87  90
ENDBRANCH  60  83
ENDBRANCH  34  35
ENDBRANCH  27  29
ENDBRANCH  26  27
ENDBRANCH  25  26
ENDBRANCH   1  25
TORSDOF 18
