REMARK SMILES O=C(OCCOC(=O)[C@@H](NC(=O)[C@H]1CC[C@@H]2CCCC[C@H]2[NH2+]1)C1CC1)c1ccc(-c2c3nc(c(-c4cccc(S(=O)(=O)[O-])c4F)c4ccc([nH]4)c(-c4cccc(S(=O)(=O)[O-])c4F)c4nc(c(-c5cccc(S(=O)(=O)[O-])c5F)c5ccc2[nH]5)C=C4)C=C3)cc1
REMARK SMILES IDX 4 1 3 2 2 3 1 4 26 5 27 6 88 7 28 8 87 9 29 10 30 11 31 12
REMARK SMILES IDX 81 13 32 14 86 15 80 16 82 17 33 18 85 19 79 20 78 21 34 23
REMARK SMILES IDX 66 24 46 25 65 26 47 27 50 28 64 29 83 30 48 31 49 32 63 34
REMARK SMILES IDX 84 35 51 36 35 37 36 38 44 39 37 40 39 41 45 42 38 43 40 44
REMARK SMILES IDX 41 45 42 46 43 47 67 48 68 49 76 50 69 51 71 52 77 53 70 54
REMARK SMILES IDX 72 55 73 56 74 57 75 58 52 59 53 60 61 61 54 62 56 63 62 64
REMARK SMILES IDX 55 65 57 66 58 67 59 68 60 69 5 70 6 71 7 72 8 73 9 74 10 75
REMARK SMILES IDX 11 76 12 78 13 79 14 80 22 81 15 82 21 83 16 86 20 87 17 88
REMARK SMILES IDX 19 89 18 90 23 91 24 92 25 93
REMARK H PARENT 82 22 50 33 10 77 22 84 22 85
REMARK Flexibility Score: inf
ROOT
ATOM      1  C   UNL     1       3.599   1.269  -1.302  1.00  0.00     0.275 C 
ENDROOT
BRANCH   1   2
ATOM      2  O   UNL     1       4.992   0.929  -1.270  1.00  0.00    -0.458 OA
BRANCH   2   3
ATOM      3  C   UNL     1       5.835   0.928  -0.213  1.00  0.00     0.338 C 
ATOM      4  O   UNL     1       6.811   0.177  -0.277  1.00  0.00    -0.246 OA
BRANCH   3   5
ATOM      5  C   UNL     1       5.706   1.784   1.024  1.00  0.00     0.060 A 
ATOM      6  C   UNL     1       4.561   2.410   1.529  1.00  0.00     0.016 A 
ATOM      7  C   UNL     1       6.863   1.857   1.818  1.00  0.00     0.016 A 
ATOM      8  C   UNL     1       4.562   3.036   2.800  1.00  0.00     0.010 A 
ATOM      9  C   UNL     1       6.846   2.425   3.101  1.00  0.00     0.010 A 
ATOM     10  C   UNL     1       5.685   3.002   3.636  1.00  0.00    -0.014 A 
BRANCH  10  11
ATOM     11  C   UNL     1       5.758   3.542   5.041  1.00  0.00     0.031 A 
ATOM     12  C   UNL     1       6.372   4.860   5.265  1.00  0.00     0.074 A 
ATOM     13  C   UNL     1       5.109   3.055   6.123  1.00  0.00     0.049 A 
ATOM     14  N   UNL     1       6.109   5.654   6.263  1.00  0.00    -0.248 NA
ATOM     15  C   UNL     1       7.204   5.430   4.205  1.00  0.00     0.031 C 
ATOM     16  C   UNL     1       3.797   2.522   5.923  1.00  0.00     0.029 A 
ATOM     17  N   UNL     1       5.179   3.162   7.513  1.00  0.00    -0.354 N 
ATOM     18  C   UNL     1       6.725   6.835   5.956  1.00  0.00     0.074 A 
ATOM     19  C   UNL     1       7.393   6.652   4.679  1.00  0.00     0.031 C 
ATOM     20  C   UNL     1       3.245   2.252   7.104  1.00  0.00     0.029 A 
ATOM     21  C   UNL     1       4.181   2.443   8.166  1.00  0.00     0.049 A 
ATOM     22  H   UNL     1       5.862   3.691   7.983  1.00  0.00     0.167 HD
ATOM     23  C   UNL     1       6.708   7.964   6.691  1.00  0.00     0.034 A 
ATOM     24  C   UNL     1       3.734   2.212   9.426  1.00  0.00     0.034 A 
ATOM     25  C   UNL     1       6.109   8.083   7.992  1.00  0.00     0.049 A 
ATOM     26  C   UNL     1       3.797   3.469  10.222  1.00  0.00     0.074 A 
ATOM     27  C   UNL     1       6.239   9.128   8.887  1.00  0.00     0.029 A 
ATOM     28  N   UNL     1       5.319   7.117   8.615  1.00  0.00    -0.354 N 
ATOM     29  N   UNL     1       4.239   4.626   9.811  1.00  0.00    -0.248 NA
ATOM     30  C   UNL     1       3.095   3.496  11.513  1.00  0.00     0.031 C 
ATOM     31  C   UNL     1       5.575   8.783  10.067  1.00  0.00     0.029 A 
ATOM     32  C   UNL     1       4.984   7.544   9.896  1.00  0.00     0.049 A 
ATOM     33  H   UNL     1       5.040   6.264   8.210  1.00  0.00     0.167 HD
ATOM     34  C   UNL     1       3.826   5.530  10.753  1.00  0.00     0.074 A 
ATOM     35  C   UNL     1       3.006   4.804  11.707  1.00  0.00     0.031 C 
ATOM     36  C   UNL     1       4.162   6.832  10.841  1.00  0.00     0.034 A 
BRANCH  23  37
ATOM     37  C   UNL     1       7.544   9.057   6.121  1.00  0.00     0.023 A 
ATOM     38  C   UNL     1       7.115   9.777   4.988  1.00  0.00     0.012 A 
ATOM     39  C   UNL     1       8.853   9.208   6.606  1.00  0.00     0.148 A 
ATOM     40  C   UNL     1       8.016  10.587   4.301  1.00  0.00     0.002 A 
ATOM     41  C   UNL     1       9.727  10.048   5.944  1.00  0.00     0.091 A 
ATOM     42  F   UNL     1       9.231   8.467   7.657  1.00  0.00    -0.205 F 
ATOM     43  C   UNL     1       9.321  10.719   4.778  1.00  0.00     0.022 A 
BRANCH  41  44
ATOM     44  S   UNL     1      11.411  10.290   6.501  1.00  0.00     0.127 S 
ATOM     45  O   UNL     1      12.176   9.849   5.333  1.00  0.00    -0.237 OA
ATOM     46  O   UNL     1      11.436  11.734   6.739  1.00  0.00    -0.237 OA
ATOM     47  O   UNL     1      11.574   9.467   7.687  1.00  0.00    -0.744 OA
ENDBRANCH  41  44
ENDBRANCH  23  37
BRANCH  24  48
ATOM     48  C   UNL     1       2.688   1.155   9.797  1.00  0.00     0.023 A 
ATOM     49  C   UNL     1       1.347   1.531  10.052  1.00  0.00     0.012 A 
ATOM     50  C   UNL     1       3.012  -0.213   9.962  1.00  0.00     0.148 A 
ATOM     51  C   UNL     1       0.390   0.620  10.520  1.00  0.00     0.002 A 
ATOM     52  C   UNL     1       2.033  -1.136  10.376  1.00  0.00     0.091 A 
ATOM     53  F   UNL     1       4.275  -0.603   9.741  1.00  0.00    -0.205 F 
ATOM     54  C   UNL     1       0.731  -0.715  10.677  1.00  0.00     0.022 A 
BRANCH  52  55
ATOM     55  S   UNL     1       2.307  -2.924  10.402  1.00  0.00     0.127 S 
ATOM     56  O   UNL     1       2.454  -3.190  11.833  1.00  0.00    -0.237 OA
ATOM     57  O   UNL     1       1.065  -3.438   9.815  1.00  0.00    -0.237 OA
ATOM     58  O   UNL     1       3.486  -3.149   9.584  1.00  0.00    -0.744 OA
ENDBRANCH  52  55
ENDBRANCH  24  48
BRANCH  36  59
ATOM     59  C   UNL     1       3.748   7.508  12.108  1.00  0.00     0.023 A 
ATOM     60  C   UNL     1       4.276   7.038  13.332  1.00  0.00     0.012 A 
ATOM     61  C   UNL     1       2.876   8.603  12.097  1.00  0.00     0.148 A 
ATOM     62  C   UNL     1       3.896   7.616  14.535  1.00  0.00     0.002 A 
ATOM     63  C   UNL     1       2.560   9.223  13.296  1.00  0.00     0.091 A 
ATOM     64  F   UNL     1       2.365   9.007  10.925  1.00  0.00    -0.205 F 
ATOM     65  C   UNL     1       3.050   8.719  14.515  1.00  0.00     0.022 A 
BRANCH  63  66
ATOM     66  S   UNL     1       1.579  10.720  13.371  1.00  0.00     0.127 S 
ATOM     67  O   UNL     1       0.391  10.262  14.088  1.00  0.00    -0.237 OA
ATOM     68  O   UNL     1       2.451  11.612  14.133  1.00  0.00    -0.237 OA
ATOM     69  O   UNL     1       1.351  11.124  11.989  1.00  0.00    -0.744 OA
ENDBRANCH  63  66
ENDBRANCH  36  59
ENDBRANCH  10  11
ENDBRANCH   3   5
ENDBRANCH   2   3
ENDBRANCH   1   2
BRANCH   1  70
ATOM     70  C   UNL     1       2.716   0.218  -0.629  1.00  0.00     0.274 C 
BRANCH  70  71
ATOM     71  O   UNL     1       3.266  -0.227   0.623  1.00  0.00    -0.461 OA
BRANCH  71  72
ATOM     72  C   UNL     1       3.684  -1.529   0.657  1.00  0.00     0.329 C 
ATOM     73  O   UNL     1       3.563  -2.312  -0.281  1.00  0.00    -0.250 OA
BRANCH  72  74
ATOM     74  C   UNL     1       4.148  -1.970   2.060  1.00  0.00     0.195 C 
BRANCH  74  75
ATOM     75  N   UNL     1       4.767  -0.903   2.869  1.00  0.00    -0.337 N 
ATOM     76  C   UNL     1       4.564  -0.440   4.141  1.00  0.00     0.278 C 
ATOM     77  H   UNL     1       5.480  -0.420   2.392  1.00  0.00     0.164 HD
ATOM     78  O   UNL     1       5.538   0.076   4.689  1.00  0.00    -0.268 OA
BRANCH  76  79
ATOM     79  C   UNL     1       3.179  -0.539   4.799  1.00  0.00     0.272 C 
ATOM     80  C   UNL     1       3.228  -0.979   6.252  1.00  0.00     0.076 C 
ATOM     81  N   UNL     1       2.332   0.624   4.476  1.00  0.00    -0.333 N 
ATOM     82  C   UNL     1       1.785  -1.249   6.700  1.00  0.00     0.016 C 
ATOM     83  C   UNL     1       1.006   0.613   5.101  1.00  0.00     0.186 C 
ATOM     84  H   UNL     1       2.206   0.653   3.464  1.00  0.00     0.347 HD
ATOM     85  H   UNL     1       2.816   1.442   4.846  1.00  0.00     0.347 HD
ATOM     86  C   UNL     1       0.965   0.026   6.531  1.00  0.00     0.048 C 
ATOM     87  C   UNL     1       0.421   2.050   5.078  1.00  0.00     0.065 C 
ATOM     88  C   UNL     1      -0.476   0.006   7.025  1.00  0.00     0.010 C 
ATOM     89  C   UNL     1      -0.911   2.198   5.815  1.00  0.00     0.006 C 
ATOM     90  C   UNL     1      -0.959   1.459   7.150  1.00  0.00     0.001 C 
ENDBRANCH  76  79
ENDBRANCH  74  75
BRANCH  74  91
ATOM     91  C   UNL     1       3.119  -2.775   2.813  1.00  0.00     0.023 C 
ATOM     92  C   UNL     1       1.635  -2.421   2.694  1.00  0.00     0.007 C 
ATOM     93  C   UNL     1       2.131  -3.749   2.223  1.00  0.00     0.007 C 
ENDBRANCH  74  91
ENDBRANCH  72  74
ENDBRANCH  71  72
ENDBRANCH  70  71
ENDBRANCH   1  70
TORSDOF 17
