REMARK SMILES C[NH2+][C@]1(C(=O)OCCOC(=O)c2ccc(-c3c4nc(c(-c5cccc(S(=O)(=O)[O-])c5F)c5ccc([nH]5)c(-c5cccc(S(=O)(=O)[O-])c5F)c5nc(c(-c6cccc(S(=O)(=O)[O-])c6F)c6ccc3[nH]6)C=C5)C=C4)cc2)CC[C@@H](OCCCc2ccccc2)C1
REMARK SMILES IDX 7 1 6 2 4 3 5 4 3 5 75 6 88 7 76 8 77 9 2 10 1 11 78 14
REMARK SMILES IDX 79 15 80 16 81 17 82 18 83 19 87 20 84 21 86 22 85 23 8 24
REMARK SMILES IDX 9 25 10 26 11 27 12 28 13 29 74 30 14 31 73 32 15 33 16 34
REMARK SMILES IDX 17 35 67 36 18 37 72 38 66 39 68 40 19 41 71 42 65 43 64 44
REMARK SMILES IDX 20 46 52 47 32 48 51 49 33 50 36 51 50 52 69 53 34 54 35 55
REMARK SMILES IDX 49 57 70 58 37 59 21 60 22 61 30 62 23 63 25 64 31 65 24 66
REMARK SMILES IDX 26 67 27 68 28 69 29 70 53 71 54 72 62 73 55 74 57 75 63 76
REMARK SMILES IDX 56 77 58 78 59 79 60 80 61 81 38 82 39 83 47 84 40 85 42 86
REMARK SMILES IDX 48 87 41 88 43 89 44 90 45 91 46 92
REMARK H PARENT 2 12 2 13 68 45 36 56
REMARK Flexibility Score: inf
ROOT
ATOM      1  C   UNL     1       2.821  -0.445  -1.811  1.00  0.00     0.274 C 
ENDROOT
BRANCH   1   2
ATOM      2  O   UNL     1       1.115  -0.806  -1.964  1.00  0.00    -0.457 OA
BRANCH   2   3
ATOM      3  C   UNL     1      -0.400  -1.781  -1.410  1.00  0.00     0.368 C 
ATOM      4  O   UNL     1      -0.416  -3.028  -1.129  1.00  0.00    -0.245 OA
BRANCH   3   5
ATOM      5  C   UNL     1      -1.988  -1.114  -0.979  1.00  0.00     0.196 C 
ATOM      6  C   UNL     1      -2.782   0.191  -1.311  1.00  0.00     0.084 C 
ATOM      7  C   UNL     1      -2.942  -2.218  -1.573  1.00  0.00     0.113 C 
ATOM      8  C   UNL     1      -4.212  -0.216  -1.659  1.00  0.00     0.039 C 
ATOM      9  C   UNL     1      -4.022  -1.530  -2.393  1.00  0.00     0.125 C 
BRANCH   5  10
ATOM     10  N   UNL     1      -2.189  -1.093   0.535  1.00  0.00    -0.334 N 
ATOM     11  C   UNL     1      -1.662  -2.176   1.328  1.00  0.00     0.331 C 
ATOM     12  H   UNL     1      -1.762  -0.234   0.881  1.00  0.00     0.347 HD
ATOM     13  H   UNL     1      -3.200  -1.177   0.648  1.00  0.00     0.347 HD
ENDBRANCH   5  10
BRANCH   9  14
ATOM     14  O   UNL     1      -3.762  -1.141  -3.737  1.00  0.00    -0.378 OA
BRANCH  14  15
ATOM     15  C   UNL     1      -2.764  -1.771  -4.510  1.00  0.00     0.161 C 
BRANCH  15  16
ATOM     16  C   UNL     1      -1.909  -0.678  -5.166  1.00  0.00     0.033 C 
BRANCH  16  17
ATOM     17  C   UNL     1      -1.146   0.312  -4.245  1.00  0.00     0.038 C 
BRANCH  17  18
ATOM     18  C   UNL     1      -0.312  -0.288  -3.128  1.00  0.00    -0.048 A 
ATOM     19  C   UNL     1       0.498  -1.845  -3.499  1.00  0.00     0.004 A 
ATOM     20  C   UNL     1      -0.126   0.477  -1.480  1.00  0.00     0.004 A 
ATOM     21  C   UNL     1       1.468  -2.701  -2.282  1.00  0.00     0.000 A 
ATOM     22  C   UNL     1       0.745  -0.445  -0.168  1.00  0.00     0.000 A 
ATOM     23  C   UNL     1       1.562  -2.045  -0.595  1.00  0.00     0.000 A 
ENDBRANCH  17  18
ENDBRANCH  16  17
ENDBRANCH  15  16
ENDBRANCH  14  15
ENDBRANCH   9  14
ENDBRANCH   3   5
ENDBRANCH   2   3
ENDBRANCH   1   2
BRANCH   1  24
ATOM     24  C   UNL     1       3.454   0.039  -0.386  1.00  0.00     0.275 C 
BRANCH  24  25
ATOM     25  O   UNL     1       3.373  -0.891   0.774  1.00  0.00    -0.458 OA
BRANCH  25  26
ATOM     26  C   UNL     1       3.108  -0.398   2.030  1.00  0.00     0.338 C 
ATOM     27  O   UNL     1       3.272   0.776   2.335  1.00  0.00    -0.246 OA
BRANCH  26  28
ATOM     28  C   UNL     1       2.441  -1.375   3.006  1.00  0.00     0.060 A 
ATOM     29  C   UNL     1       1.647  -2.444   2.608  1.00  0.00     0.016 A 
ATOM     30  C   UNL     1       2.421  -1.120   4.381  1.00  0.00     0.016 A 
ATOM     31  C   UNL     1       0.782  -3.140   3.467  1.00  0.00     0.010 A 
ATOM     32  C   UNL     1       1.647  -1.917   5.280  1.00  0.00     0.010 A 
ATOM     33  C   UNL     1       0.779  -2.934   4.836  1.00  0.00    -0.014 A 
BRANCH  33  34
ATOM     34  C   UNL     1      -0.127  -3.745   5.737  1.00  0.00     0.031 A 
ATOM     35  C   UNL     1      -0.889  -3.071   6.859  1.00  0.00     0.074 A 
ATOM     36  C   UNL     1      -0.312  -5.082   5.589  1.00  0.00     0.049 A 
ATOM     37  N   UNL     1      -1.417  -3.594   7.939  1.00  0.00    -0.248 NA
ATOM     38  C   UNL     1      -1.071  -1.615   6.756  1.00  0.00     0.031 C 
ATOM     39  C   UNL     1       0.230  -5.924   4.519  1.00  0.00     0.029 A 
ATOM     40  N   UNL     1      -1.003  -5.989   6.376  1.00  0.00    -0.354 N 
ATOM     41  C   UNL     1      -1.876  -2.523   8.701  1.00  0.00     0.074 A 
ATOM     42  C   UNL     1      -1.606  -1.324   7.935  1.00  0.00     0.031 C 
ATOM     43  C   UNL     1      -0.153  -7.194   4.700  1.00  0.00     0.029 A 
ATOM     44  C   UNL     1      -0.838  -7.301   5.978  1.00  0.00     0.049 A 
ATOM     45  H   UNL     1      -1.559  -5.723   7.144  1.00  0.00     0.167 HD
ATOM     46  C   UNL     1      -2.455  -2.536   9.928  1.00  0.00     0.034 A 
ATOM     47  C   UNL     1      -1.098  -8.474   6.592  1.00  0.00     0.034 A 
ATOM     48  C   UNL     1      -2.822  -3.732  10.644  1.00  0.00     0.049 A 
ATOM     49  C   UNL     1      -1.693  -8.474   7.971  1.00  0.00     0.074 A 
ATOM     50  C   UNL     1      -3.441  -3.839  11.880  1.00  0.00     0.029 A 
ATOM     51  N   UNL     1      -2.627  -5.026  10.189  1.00  0.00    -0.354 N 
ATOM     52  N   UNL     1      -2.066  -7.458   8.707  1.00  0.00    -0.248 NA
ATOM     53  C   UNL     1      -1.902  -9.785   8.606  1.00  0.00     0.031 C 
ATOM     54  C   UNL     1      -3.588  -5.195  12.185  1.00  0.00     0.029 A 
ATOM     55  C   UNL     1      -3.103  -5.935  11.121  1.00  0.00     0.049 A 
ATOM     56  H   UNL     1      -2.210  -5.265   9.330  1.00  0.00     0.167 HD
ATOM     57  C   UNL     1      -2.579  -8.004   9.877  1.00  0.00     0.074 A 
ATOM     58  C   UNL     1      -2.491  -9.443   9.743  1.00  0.00     0.031 C 
ATOM     59  C   UNL     1      -3.065  -7.367  10.970  1.00  0.00     0.034 A 
BRANCH  46  60
ATOM     60  C   UNL     1      -2.716  -1.212  10.607  1.00  0.00     0.023 A 
ATOM     61  C   UNL     1      -3.749  -0.366  10.160  1.00  0.00     0.012 A 
ATOM     62  C   UNL     1      -1.973  -0.847  11.751  1.00  0.00     0.148 A 
ATOM     63  C   UNL     1      -4.014   0.837  10.817  1.00  0.00     0.002 A 
ATOM     64  C   UNL     1      -2.276   0.328  12.429  1.00  0.00     0.091 A 
ATOM     65  F   UNL     1      -0.986  -1.658  12.157  1.00  0.00    -0.205 F 
ATOM     66  C   UNL     1      -3.287   1.178  11.955  1.00  0.00     0.022 A 
BRANCH  64  67
ATOM     67  S   UNL     1      -1.458   0.807  13.956  1.00  0.00     0.127 S 
ATOM     68  O   UNL     1      -0.669   1.959  13.519  1.00  0.00    -0.237 OA
ATOM     69  O   UNL     1      -2.591   1.139  14.821  1.00  0.00    -0.237 OA
ATOM     70  O   UNL     1      -0.687  -0.352  14.382  1.00  0.00    -0.744 OA
ENDBRANCH  64  67
ENDBRANCH  46  60
BRANCH  47  71
ATOM     71  C   UNL     1      -0.730  -9.764   5.928  1.00  0.00     0.023 A 
ATOM     72  C   UNL     1      -1.741 -10.656   5.522  1.00  0.00     0.012 A 
ATOM     73  C   UNL     1       0.617 -10.096   5.673  1.00  0.00     0.148 A 
ATOM     74  C   UNL     1      -1.417 -11.859   4.890  1.00  0.00     0.002 A 
ATOM     75  C   UNL     1       0.928 -11.258   4.977  1.00  0.00     0.091 A 
ATOM     76  F   UNL     1       1.570  -9.254   6.096  1.00  0.00    -0.205 F 
ATOM     77  C   UNL     1      -0.086 -12.151   4.602  1.00  0.00     0.022 A 
BRANCH  75  78
ATOM     78  S   UNL     1       2.597 -11.632   4.426  1.00  0.00     0.127 S 
ATOM     79  O   UNL     1       2.946 -12.767   5.275  1.00  0.00    -0.237 OA
ATOM     80  O   UNL     1       2.381 -11.960   3.016  1.00  0.00    -0.237 OA
ATOM     81  O   UNL     1       3.366 -10.415   4.646  1.00  0.00    -0.744 OA
ENDBRANCH  75  78
ENDBRANCH  47  71
BRANCH  59  82
ATOM     82  C   UNL     1      -3.602  -8.215  12.093  1.00  0.00     0.023 A 
ATOM     83  C   UNL     1      -2.722  -8.949  12.912  1.00  0.00     0.012 A 
ATOM     84  C   UNL     1      -4.985  -8.245  12.365  1.00  0.00     0.148 A 
ATOM     85  C   UNL     1      -3.212  -9.729  13.960  1.00  0.00     0.002 A 
ATOM     86  C   UNL     1      -5.461  -8.982  13.442  1.00  0.00     0.091 A 
ATOM     87  F   UNL     1      -5.809  -7.555  11.563  1.00  0.00    -0.205 F 
ATOM     88  C   UNL     1      -4.578  -9.737  14.232  1.00  0.00     0.022 A 
BRANCH  86  89
ATOM     89  S   UNL     1      -7.191  -8.979  13.924  1.00  0.00     0.127 S 
ATOM     90  O   UNL     1      -7.601 -10.337  13.570  1.00  0.00    -0.237 OA
ATOM     91  O   UNL     1      -7.111  -8.722  15.362  1.00  0.00    -0.237 OA
ATOM     92  O   UNL     1      -7.823  -7.917  13.153  1.00  0.00    -0.744 OA
ENDBRANCH  86  89
ENDBRANCH  59  82
ENDBRANCH  33  34
ENDBRANCH  26  28
ENDBRANCH  25  26
ENDBRANCH  24  25
ENDBRANCH   1  24
TORSDOF 20
