REMARK SMILES C=CCN1C(=O)/C(=C/c2ccccn2)S/C1=[NH+]\c1ccc(C(=O)OCCOC(=O)c2ccc(-c3c4nc(c(-c5cccc(S(=O)(=O)[O-])c5F)c5ccc([nH]5)c(-c5cccc(S(=O)(=O)[O-])c5F)c5nc(c(-c6cccc(S(=O)(=O)[O-])c6F)c6ccc3[nH]6)C=C5)C=C4)cc2)cc1
REMARK SMILES IDX 25 1 24 2 22 3 23 4 21 5 18 6 19 7 94 8 20 9 93 10 17 11
REMARK SMILES IDX 4 12 5 13 16 14 6 15 7 16 15 17 8 18 3 20 2 21 1 22 9 23
REMARK SMILES IDX 10 24 14 25 11 26 13 27 12 28 26 29 27 30 28 31 29 32 30 33
REMARK SMILES IDX 31 34 92 35 32 36 91 37 33 38 34 39 35 40 85 41 36 42 90 43
REMARK SMILES IDX 84 44 86 45 37 46 89 47 83 48 82 49 38 51 70 52 50 53 69 54
REMARK SMILES IDX 51 55 54 56 68 57 87 58 52 59 53 60 67 62 88 63 55 64 39 65
REMARK SMILES IDX 40 66 48 67 41 68 43 69 49 70 42 71 44 72 45 73 46 74 47 75
REMARK SMILES IDX 71 76 72 77 80 78 73 79 75 80 81 81 74 82 76 83 77 84 78 85
REMARK SMILES IDX 79 86 56 87 57 88 65 89 58 90 60 91 66 92 59 93 61 94 62 95
REMARK SMILES IDX 63 96 64 97
REMARK H PARENT 17 19 86 50 54 61
REMARK Flexibility Score: inf
ROOT
ATOM      1  C   UNL     1     -10.710   3.814   2.429  1.00  0.00     0.275 C 
ENDROOT
BRANCH   1   2
ATOM      2  O   UNL     1      -9.549   3.376   1.690  1.00  0.00    -0.458 OA
BRANCH   2   3
ATOM      3  C   UNL     1      -8.392   3.334   2.401  1.00  0.00     0.338 C 
ATOM      4  O   UNL     1      -8.249   3.659   3.564  1.00  0.00    -0.246 OA
BRANCH   3   5
ATOM      5  C   UNL     1      -7.282   2.763   1.598  1.00  0.00     0.060 A 
ATOM      6  C   UNL     1      -5.005   1.827   0.250  1.00  0.00     0.125 A 
ATOM      7  C   UNL     1      -5.218   1.480   1.578  1.00  0.00     0.052 A 
ATOM      8  C   UNL     1      -5.976   2.583  -0.427  1.00  0.00     0.052 A 
ATOM      9  C   UNL     1      -6.324   1.980   2.256  1.00  0.00     0.020 A 
ATOM     10  C   UNL     1      -7.115   3.053   0.243  1.00  0.00     0.020 A 
BRANCH   6  11
ATOM     11  N   UNL     1      -3.786   1.461  -0.340  1.00  0.00    -0.234 N 
ATOM     12  N   UNL     1      -1.631   2.096  -1.015  1.00  0.00    -0.182 N 
ATOM     13  C   UNL     1      -0.963   3.202  -1.501  1.00  0.00     0.349 C 
ATOM     14  C   UNL     1      -2.861   2.357  -0.468  1.00  0.00     0.324 C 
ATOM     15  O   UNL     1      -0.007   3.211  -2.267  1.00  0.00    -0.240 OA
ATOM     16  C   UNL     1      -1.630   4.451  -1.033  1.00  0.00     0.111 C 
ATOM     17  S   UNL     1      -2.975   4.054  -0.049  1.00  0.00     0.007 SA
ATOM     18  C   UNL     1      -1.249   5.671  -1.432  1.00  0.00     0.052 C 
ATOM     19  H   UNL     1      -3.637   0.539  -0.650  1.00  0.00     0.313 HD
BRANCH  12  20
ATOM     20  C   UNL     1      -1.202   0.731  -1.280  1.00  0.00     0.275 C 
BRANCH  20  21
ATOM     21  C   UNL     1       0.263   0.548  -0.993  1.00  0.00     0.011 C 
ATOM     22  C   UNL     1       0.784  -0.089   0.064  1.00  0.00     0.008 C 
ENDBRANCH  20  21
ENDBRANCH  12  20
BRANCH  18  23
ATOM     23  C   UNL     1      -1.919   6.924  -1.084  1.00  0.00     0.064 A 
ATOM     24  C   UNL     1      -2.086   7.340   0.234  1.00  0.00     0.028 A 
ATOM     25  N   UNL     1      -2.353   7.647  -2.142  1.00  0.00    -0.257 NA
ATOM     26  C   UNL     1      -2.771   8.526   0.480  1.00  0.00     0.004 A 
ATOM     27  C   UNL     1      -3.018   8.792  -1.871  1.00  0.00     0.111 A 
ATOM     28  C   UNL     1      -3.254   9.266  -0.592  1.00  0.00     0.020 A 
ENDBRANCH  18  23
ENDBRANCH   6  11
ENDBRANCH   3   5
ENDBRANCH   2   3
ENDBRANCH   1   2
BRANCH   1  29
ATOM     29  C   UNL     1     -11.608   2.639   2.821  1.00  0.00     0.275 C 
BRANCH  29  30
ATOM     30  O   UNL     1     -10.970   1.807   3.806  1.00  0.00    -0.458 OA
BRANCH  30  31
ATOM     31  C   UNL     1     -10.447   0.657   3.325  1.00  0.00     0.338 C 
ATOM     32  O   UNL     1     -10.486   0.251   2.174  1.00  0.00    -0.246 OA
BRANCH  31  33
ATOM     33  C   UNL     1      -9.702  -0.049   4.376  1.00  0.00     0.060 A 
ATOM     34  C   UNL     1      -8.412   0.385   4.650  1.00  0.00     0.016 A 
ATOM     35  C   UNL     1     -10.168  -1.238   4.925  1.00  0.00     0.016 A 
ATOM     36  C   UNL     1      -7.526  -0.436   5.336  1.00  0.00     0.010 A 
ATOM     37  C   UNL     1      -9.318  -1.992   5.746  1.00  0.00     0.010 A 
ATOM     38  C   UNL     1      -7.968  -1.630   5.920  1.00  0.00    -0.014 A 
BRANCH  38  39
ATOM     39  C   UNL     1      -7.022  -2.483   6.703  1.00  0.00     0.031 A 
ATOM     40  C   UNL     1      -6.864  -3.951   6.383  1.00  0.00     0.074 A 
ATOM     41  C   UNL     1      -6.309  -1.949   7.718  1.00  0.00     0.049 A 
ATOM     42  N   UNL     1      -6.237  -4.881   7.057  1.00  0.00    -0.248 NA
ATOM     43  C   UNL     1      -7.510  -4.443   5.154  1.00  0.00     0.031 C 
ATOM     44  C   UNL     1      -6.347  -0.544   8.135  1.00  0.00     0.029 A 
ATOM     45  N   UNL     1      -5.423  -2.524   8.598  1.00  0.00    -0.354 N 
ATOM     46  C   UNL     1      -6.481  -6.075   6.385  1.00  0.00     0.074 A 
ATOM     47  C   UNL     1      -7.308  -5.750   5.243  1.00  0.00     0.031 C 
ATOM     48  C   UNL     1      -5.510  -0.362   9.165  1.00  0.00     0.029 A 
ATOM     49  C   UNL     1      -4.957  -1.651   9.555  1.00  0.00     0.049 A 
ATOM     50  H   UNL     1      -5.149  -3.469   8.549  1.00  0.00     0.167 HD
ATOM     51  C   UNL     1      -6.054  -7.325   6.689  1.00  0.00     0.034 A 
ATOM     52  C   UNL     1      -4.219  -1.860  10.662  1.00  0.00     0.034 A 
ATOM     53  C   UNL     1      -5.179  -7.633   7.790  1.00  0.00     0.049 A 
ATOM     54  C   UNL     1      -3.768  -3.255  10.982  1.00  0.00     0.074 A 
ATOM     55  C   UNL     1      -4.646  -8.859   8.149  1.00  0.00     0.029 A 
ATOM     56  N   UNL     1      -4.706  -6.709   8.710  1.00  0.00    -0.354 N 
ATOM     57  N   UNL     1      -3.970  -4.360  10.308  1.00  0.00    -0.248 NA
ATOM     58  C   UNL     1      -2.978  -3.431  12.207  1.00  0.00     0.031 C 
ATOM     59  C   UNL     1      -3.880  -8.683   9.306  1.00  0.00     0.029 A 
ATOM     60  C   UNL     1      -3.900  -7.340   9.643  1.00  0.00     0.049 A 
ATOM     61  H   UNL     1      -4.913  -5.747   8.701  1.00  0.00     0.167 HD
ATOM     62  C   UNL     1      -3.308  -5.359  11.010  1.00  0.00     0.074 A 
ATOM     63  C   UNL     1      -2.678  -4.721  12.149  1.00  0.00     0.031 C 
ATOM     64  C   UNL     1      -3.240  -6.686  10.745  1.00  0.00     0.034 A 
BRANCH  51  65
ATOM     65  C   UNL     1      -6.522  -8.466   5.818  1.00  0.00     0.023 A 
ATOM     66  C   UNL     1      -6.026  -8.609   4.507  1.00  0.00     0.012 A 
ATOM     67  C   UNL     1      -7.410  -9.438   6.327  1.00  0.00     0.148 A 
ATOM     68  C   UNL     1      -6.433  -9.675   3.704  1.00  0.00     0.002 A 
ATOM     69  C   UNL     1      -7.773 -10.523   5.538  1.00  0.00     0.091 A 
ATOM     70  F   UNL     1      -7.884  -9.280   7.571  1.00  0.00    -0.205 F 
ATOM     71  C   UNL     1      -7.297 -10.636   4.222  1.00  0.00     0.022 A 
BRANCH  69  72
ATOM     72  S   UNL     1      -8.814 -11.858   6.143  1.00  0.00     0.127 S 
ATOM     73  O   UNL     1     -10.038 -11.651   5.370  1.00  0.00    -0.237 OA
ATOM     74  O   UNL     1      -8.046 -13.043   5.760  1.00  0.00    -0.237 OA
ATOM     75  O   UNL     1      -8.940 -11.653   7.579  1.00  0.00    -0.744 OA
ENDBRANCH  69  72
ENDBRANCH  51  65
BRANCH  52  76
ATOM     76  C   UNL     1      -3.875  -0.715  11.555  1.00  0.00     0.023 A 
ATOM     77  C   UNL     1      -2.537  -0.292  11.658  1.00  0.00     0.012 A 
ATOM     78  C   UNL     1      -4.871  -0.022  12.272  1.00  0.00     0.148 A 
ATOM     79  C   UNL     1      -2.193   0.783  12.478  1.00  0.00     0.002 A 
ATOM     80  C   UNL     1      -4.531   1.087  13.035  1.00  0.00     0.091 A 
ATOM     81  F   UNL     1      -6.138  -0.450  12.174  1.00  0.00    -0.205 F 
ATOM     82  C   UNL     1      -3.190   1.480  13.156  1.00  0.00     0.022 A 
BRANCH  80  83
ATOM     83  S   UNL     1      -5.764   2.129  13.823  1.00  0.00     0.127 S 
ATOM     84  O   UNL     1      -5.541   1.840  15.237  1.00  0.00    -0.237 OA
ATOM     85  O   UNL     1      -5.349   3.465  13.393  1.00  0.00    -0.237 OA
ATOM     86  O   UNL     1      -7.047   1.698  13.284  1.00  0.00    -0.744 OA
ENDBRANCH  80  83
ENDBRANCH  52  76
BRANCH  64  87
ATOM     87  C   UNL     1      -2.415  -7.537  11.673  1.00  0.00     0.023 A 
ATOM     88  C   UNL     1      -2.876  -7.814  12.975  1.00  0.00     0.012 A 
ATOM     89  C   UNL     1      -1.207  -8.111  11.229  1.00  0.00     0.148 A 
ATOM     90  C   UNL     1      -2.130  -8.621  13.834  1.00  0.00     0.002 A 
ATOM     91  C   UNL     1      -0.496  -8.957  12.071  1.00  0.00     0.091 A 
ATOM     92  F   UNL     1      -0.777  -7.819   9.993  1.00  0.00    -0.205 F 
ATOM     93  C   UNL     1      -0.948  -9.201  13.378  1.00  0.00     0.022 A 
BRANCH  91  94
ATOM     94  S   UNL     1       0.982  -9.826  11.539  1.00  0.00     0.127 S 
ATOM     95  O   UNL     1       2.021  -9.148  12.313  1.00  0.00    -0.237 OA
ATOM     96  O   UNL     1       0.703 -11.198  11.962  1.00  0.00    -0.237 OA
ATOM     97  O   UNL     1       1.062  -9.641  10.096  1.00  0.00    -0.744 OA
ENDBRANCH  91  94
ENDBRANCH  64  87
ENDBRANCH  38  39
ENDBRANCH  31  33
ENDBRANCH  30  31
ENDBRANCH  29  30
ENDBRANCH   1  29
TORSDOF 18
