REMARK SMILES Cc1cccc(OC2(C(=O)OCCOC(=O)c3ccc(-c4c5nc(c(-c6cccc(S(=O)(=O)[O-])c6F)c6ccc([nH]6)c(-c6cccc(S(=O)(=O)[O-])c6F)c6nc(c(-c7cccc(S(=O)(=O)[O-])c7F)c7ccc4[nH]7)C=C6)C=C5)cc3)CCN(C(=O)c3cnc[nH]c3=O)CC2)c1
REMARK SMILES IDX 13 1 12 2 11 3 9 4 10 5 8 6 80 7 93 8 81 9 92 10 82 11 83 12
REMARK SMILES IDX 84 13 7 14 6 15 1 16 2 17 3 18 94 19 4 20 5 21 85 22 86 23
REMARK SMILES IDX 90 24 87 25 89 26 91 27 88 28 14 30 15 31 16 32 17 33 18 34
REMARK SMILES IDX 79 35 19 36 78 37 20 38 21 39 22 40 72 41 23 42 77 43 71 44
REMARK SMILES IDX 73 45 24 46 76 47 70 48 69 49 25 51 57 52 37 53 56 54 38 55
REMARK SMILES IDX 41 56 55 57 74 58 39 59 40 60 54 62 75 63 42 64 26 65 27 66
REMARK SMILES IDX 35 67 28 68 30 69 36 70 29 71 31 72 32 73 33 74 34 75 58 76
REMARK SMILES IDX 59 77 67 78 60 79 62 80 68 81 61 82 63 83 64 84 65 85 66 86
REMARK SMILES IDX 43 87 44 88 52 89 45 90 47 91 53 92 46 93 48 94 49 95 50 96
REMARK SMILES IDX 51 97
REMARK H PARENT 89 29 73 50 41 61
REMARK Flexibility Score: inf
ROOT
ATOM      1  C   UNL     1       1.666   3.624  -4.064  1.00  0.00     0.275 C 
ENDROOT
BRANCH   1   2
ATOM      2  C   UNL     1       1.151   4.832  -3.220  1.00  0.00     0.274 C 
BRANCH   2   3
ATOM      3  O   UNL     1       0.571   4.710  -1.902  1.00  0.00    -0.459 OA
BRANCH   3   4
ATOM      4  C   UNL     1       0.764   3.565  -1.207  1.00  0.00     0.350 C 
ATOM      5  O   UNL     1       1.238   2.565  -1.727  1.00  0.00    -0.247 OA
BRANCH   4   6
ATOM      6  C   UNL     1       0.677   3.745   0.323  1.00  0.00     0.209 C 
ATOM      7  C   UNL     1       2.085   4.345   0.568  1.00  0.00     0.082 C 
ATOM      8  C   UNL     1      -0.347   4.749   0.906  1.00  0.00     0.082 C 
ATOM      9  C   UNL     1       2.363   4.518   2.029  1.00  0.00     0.124 C 
ATOM     10  C   UNL     1      -0.059   4.938   2.422  1.00  0.00     0.124 C 
ATOM     11  N   UNL     1       1.339   5.350   2.621  1.00  0.00    -0.338 N 
ATOM     12  C   UNL     1       1.752   6.421   3.383  1.00  0.00     0.261 C 
ATOM     13  O   UNL     1       2.729   7.114   3.111  1.00  0.00    -0.269 OA
BRANCH   6  14
ATOM     14  O   UNL     1       0.447   2.595   1.153  1.00  0.00    -0.475 OA
BRANCH  14  15
ATOM     15  C   UNL     1       0.607   1.337   0.683  1.00  0.00     0.121 A 
ATOM     16  C   UNL     1       3.419  -0.984  -0.312  1.00  0.00     0.044 C 
ATOM     17  C   UNL     1       2.048  -0.484   0.014  1.00  0.00    -0.047 A 
ATOM     18  C   UNL     1       0.938  -1.336  -0.007  1.00  0.00     0.003 A 
ATOM     19  C   UNL     1       1.874   0.848   0.391  1.00  0.00     0.050 A 
ATOM     20  C   UNL     1      -0.332  -0.849   0.312  1.00  0.00     0.004 A 
ATOM     21  C   UNL     1      -0.498   0.491   0.661  1.00  0.00     0.046 A 
ENDBRANCH  14  15
ENDBRANCH   6  14
BRANCH  12  22
ATOM     22  C   UNL     1       1.087   6.542   4.684  1.00  0.00     0.123 A 
ATOM     23  C   UNL     1       0.286   7.575   4.968  1.00  0.00     0.132 A 
ATOM     24  C   UNL     1       1.345   5.557   5.751  1.00  0.00     0.263 A 
ATOM     25  N   UNL     1      -0.349   7.759   6.175  1.00  0.00    -0.246 NA
ATOM     26  N   UNL     1       0.660   5.776   6.912  1.00  0.00    -0.312 N 
ATOM     27  O   UNL     1       2.128   4.619   5.641  1.00  0.00    -0.269 OA
ATOM     28  C   UNL     1      -0.147   6.861   7.077  1.00  0.00     0.199 A 
ATOM     29  H   UNL     1       0.751   5.130   7.650  1.00  0.00     0.171 HD
ENDBRANCH  12  22
ENDBRANCH   4   6
ENDBRANCH   3   4
ENDBRANCH   2   3
ENDBRANCH   1   2
BRANCH   1  30
ATOM     30  O   UNL     1       0.963   2.375  -4.408  1.00  0.00    -0.458 OA
BRANCH  30  31
ATOM     31  C   UNL     1      -0.196   1.814  -3.978  1.00  0.00     0.338 C 
ATOM     32  O   UNL     1      -0.447   0.617  -4.065  1.00  0.00    -0.246 OA
BRANCH  31  33
ATOM     33  C   UNL     1      -1.214   2.779  -3.590  1.00  0.00     0.060 A 
ATOM     34  C   UNL     1      -1.943   2.681  -2.392  1.00  0.00     0.016 A 
ATOM     35  C   UNL     1      -1.328   3.868  -4.442  1.00  0.00     0.016 A 
ATOM     36  C   UNL     1      -2.742   3.752  -2.001  1.00  0.00     0.010 A 
ATOM     37  C   UNL     1      -1.964   4.981  -3.976  1.00  0.00     0.010 A 
ATOM     38  C   UNL     1      -2.734   4.899  -2.801  1.00  0.00    -0.014 A 
BRANCH  38  39
ATOM     39  C   UNL     1      -3.823   5.859  -2.848  1.00  0.00     0.031 A 
ATOM     40  C   UNL     1      -3.893   7.067  -2.027  1.00  0.00     0.074 A 
ATOM     41  C   UNL     1      -4.590   5.625  -3.939  1.00  0.00     0.049 A 
ATOM     42  N   UNL     1      -5.006   7.661  -1.774  1.00  0.00    -0.248 NA
ATOM     43  C   UNL     1      -2.736   7.704  -1.403  1.00  0.00     0.031 C 
ATOM     44  C   UNL     1      -5.452   6.490  -4.712  1.00  0.00     0.029 A 
ATOM     45  N   UNL     1      -4.720   4.374  -4.567  1.00  0.00    -0.354 N 
ATOM     46  C   UNL     1      -4.693   8.891  -1.235  1.00  0.00     0.074 A 
ATOM     47  C   UNL     1      -3.288   8.819  -0.901  1.00  0.00     0.031 C 
ATOM     48  C   UNL     1      -6.213   5.712  -5.513  1.00  0.00     0.029 A 
ATOM     49  C   UNL     1      -5.987   4.321  -5.116  1.00  0.00     0.049 A 
ATOM     50  H   UNL     1      -4.035   3.668  -4.609  1.00  0.00     0.167 HD
ATOM     51  C   UNL     1      -5.595   9.908  -1.346  1.00  0.00     0.034 A 
ATOM     52  C   UNL     1      -6.907   3.436  -4.627  1.00  0.00     0.034 A 
ATOM     53  C   UNL     1      -6.733   9.473  -2.166  1.00  0.00     0.049 A 
ATOM     54  C   UNL     1      -8.087   4.188  -4.063  1.00  0.00     0.074 A 
ATOM     55  C   UNL     1      -6.941   9.574  -3.533  1.00  0.00     0.029 A 
ATOM     56  N   UNL     1      -7.654   8.549  -1.691  1.00  0.00    -0.354 N 
ATOM     57  N   UNL     1      -8.028   5.426  -3.665  1.00  0.00    -0.248 NA
ATOM     58  C   UNL     1      -9.404   3.595  -3.883  1.00  0.00     0.031 C 
ATOM     59  C   UNL     1      -7.950   8.651  -3.893  1.00  0.00     0.029 A 
ATOM     60  C   UNL     1      -8.371   8.000  -2.745  1.00  0.00     0.049 A 
ATOM     61  H   UNL     1      -7.780   8.316  -0.742  1.00  0.00     0.167 HD
ATOM     62  C   UNL     1      -9.225   5.788  -3.123  1.00  0.00     0.074 A 
ATOM     63  C   UNL     1     -10.069   4.621  -3.324  1.00  0.00     0.031 C 
ATOM     64  C   UNL     1      -9.400   6.995  -2.511  1.00  0.00     0.034 A 
BRANCH  51  65
ATOM     65  C   UNL     1      -5.290  11.377  -1.107  1.00  0.00     0.023 A 
ATOM     66  C   UNL     1      -6.001  12.313  -1.896  1.00  0.00     0.012 A 
ATOM     67  C   UNL     1      -4.357  11.914  -0.191  1.00  0.00     0.148 A 
ATOM     68  C   UNL     1      -5.745  13.685  -1.866  1.00  0.00     0.002 A 
ATOM     69  C   UNL     1      -4.077  13.290  -0.179  1.00  0.00     0.091 A 
ATOM     70  F   UNL     1      -3.772  11.103   0.701  1.00  0.00    -0.205 F 
ATOM     71  C   UNL     1      -4.763  14.172  -1.024  1.00  0.00     0.022 A 
BRANCH  69  72
ATOM     72  S   UNL     1      -2.794  14.031   0.846  1.00  0.00     0.127 S 
ATOM     73  O   UNL     1      -2.023  14.799  -0.136  1.00  0.00    -0.237 OA
ATOM     74  O   UNL     1      -3.567  14.847   1.779  1.00  0.00    -0.237 OA
ATOM     75  O   UNL     1      -2.062  12.919   1.438  1.00  0.00    -0.744 OA
ENDBRANCH  69  72
ENDBRANCH  51  65
BRANCH  52  76
ATOM     76  C   UNL     1      -6.342   2.192  -3.976  1.00  0.00     0.023 A 
ATOM     77  C   UNL     1      -5.447   1.382  -4.724  1.00  0.00     0.012 A 
ATOM     78  C   UNL     1      -6.416   1.981  -2.585  1.00  0.00     0.148 A 
ATOM     79  C   UNL     1      -4.592   0.468  -4.096  1.00  0.00     0.002 A 
ATOM     80  C   UNL     1      -5.555   1.071  -1.965  1.00  0.00     0.091 A 
ATOM     81  F   UNL     1      -7.290   2.699  -1.869  1.00  0.00    -0.205 F 
ATOM     82  C   UNL     1      -4.635   0.326  -2.715  1.00  0.00     0.022 A 
BRANCH  80  83
ATOM     83  S   UNL     1      -5.463   0.924  -0.173  1.00  0.00     0.127 S 
ATOM     84  O   UNL     1      -6.257  -0.278   0.065  1.00  0.00    -0.237 OA
ATOM     85  O   UNL     1      -4.024   0.770   0.054  1.00  0.00    -0.237 OA
ATOM     86  O   UNL     1      -6.011   2.170   0.340  1.00  0.00    -0.744 OA
ENDBRANCH  80  83
ENDBRANCH  52  76
BRANCH  64  87
ATOM     87  C   UNL     1     -10.584   7.343  -1.652  1.00  0.00     0.023 A 
ATOM     88  C   UNL     1     -11.328   6.354  -0.982  1.00  0.00     0.012 A 
ATOM     89  C   UNL     1     -10.886   8.693  -1.353  1.00  0.00     0.148 A 
ATOM     90  C   UNL     1     -12.373   6.682  -0.117  1.00  0.00     0.002 A 
ATOM     91  C   UNL     1     -11.842   9.012  -0.397  1.00  0.00     0.091 A 
ATOM     92  F   UNL     1     -10.256   9.684  -2.003  1.00  0.00    -0.205 F 
ATOM     93  C   UNL     1     -12.615   8.013   0.196  1.00  0.00     0.022 A 
BRANCH  91  94
ATOM     94  S   UNL     1     -11.976  10.694   0.218  1.00  0.00     0.127 S 
ATOM     95  O   UNL     1     -12.929  11.288  -0.716  1.00  0.00    -0.237 OA
ATOM     96  O   UNL     1     -12.493  10.498   1.574  1.00  0.00    -0.237 OA
ATOM     97  O   UNL     1     -10.614  11.212   0.172  1.00  0.00    -0.744 OA
ENDBRANCH  91  94
ENDBRANCH  64  87
ENDBRANCH  38  39
ENDBRANCH  31  33
ENDBRANCH  30  31
ENDBRANCH   1  30
TORSDOF 17
