REMARK SMILES CCC[C@H](CNC(=O)N1C[C@H]2CCC[N@H+]2C[C@@H]1C)C(=O)OCCOC(=O)c1ccc(-c2c3nc(c(-c4cccc(S(=O)(=O)[O-])c4F)c4ccc([nH]4)c(-c4cccc(S(=O)(=O)[O-])c4F)c4nc(c(-c5cccc(S(=O)(=O)[O-])c5F)c5ccc2[nH]5)C=C4)C=C3)cc1
REMARK SMILES IDX 22 1 21 2 19 3 20 4 4 5 3 6 2 7 1 8 5 9 6 10 7 11 8 13 9 14
REMARK SMILES IDX 10 15 17 16 11 17 16 18 18 19 12 20 15 21 13 22 14 23 23 25
REMARK SMILES IDX 24 26 25 27 26 28 27 29 28 30 89 31 29 32 88 33 30 34 31 35
REMARK SMILES IDX 32 36 82 37 33 38 87 39 81 40 83 41 34 42 86 43 80 44 79 45
REMARK SMILES IDX 35 47 67 48 47 49 66 50 48 51 51 52 65 53 84 54 49 55 50 56
REMARK SMILES IDX 64 58 85 59 52 60 36 61 37 62 45 63 38 64 40 65 46 66 39 67
REMARK SMILES IDX 41 68 42 69 43 70 44 71 68 72 69 73 77 74 70 75 72 76 78 77
REMARK SMILES IDX 71 78 73 79 74 80 75 81 76 82 53 83 54 84 62 85 55 86 57 87
REMARK SMILES IDX 63 88 56 89 58 90 59 91 60 92 61 93
REMARK H PARENT 6 12 15 24 83 46 51 57
REMARK Flexibility Score: inf
ROOT
ATOM      1  C   UNL     1       1.240  -5.329  -3.925  1.00  0.00     0.274 C 
ENDROOT
BRANCH   1   2
ATOM      2  O   UNL     1       0.651  -4.080  -3.511  1.00  0.00    -0.462 OA
BRANCH   2   3
ATOM      3  C   UNL     1       0.344  -3.976  -2.193  1.00  0.00     0.310 C 
ATOM      4  O   UNL     1       0.406  -4.908  -1.400  1.00  0.00    -0.252 OA
BRANCH   3   5
ATOM      5  C   UNL     1      -0.074  -2.572  -1.773  1.00  0.00     0.118 C 
BRANCH   5   6
ATOM      6  C   UNL     1      -1.588  -2.483  -1.518  1.00  0.00     0.017 C 
BRANCH   6   7
ATOM      7  C   UNL     1      -2.124  -3.390  -0.395  1.00  0.00    -0.002 C 
ATOM      8  C   UNL     1      -1.514  -3.115   0.974  1.00  0.00     0.004 C 
ENDBRANCH   6   7
ENDBRANCH   5   6
BRANCH   5   9
ATOM      9  C   UNL     1       0.546  -1.474  -2.669  1.00  0.00     0.133 C 
BRANCH   9  10
ATOM     10  N   UNL     1      -0.406  -0.655  -3.393  1.00  0.00    -0.337 N 
ATOM     11  C   UNL     1      -1.089   0.449  -3.020  1.00  0.00     0.318 C 
ATOM     12  H   UNL     1      -0.586  -0.955  -4.314  1.00  0.00     0.165 HD
ATOM     13  O   UNL     1      -2.157   0.658  -3.599  1.00  0.00    -0.249 OA
BRANCH  11  14
ATOM     14  N   UNL     1      -0.639   1.242  -2.001  1.00  0.00    -0.311 N 
ATOM     15  C   UNL     1      -1.646   1.976  -1.238  1.00  0.00     0.186 C 
ATOM     16  C   UNL     1       0.769   1.664  -1.754  1.00  0.00     0.139 C 
ATOM     17  C   UNL     1      -1.470   3.494  -1.391  1.00  0.00     0.204 C 
ATOM     18  C   UNL     1       0.846   2.920  -0.819  1.00  0.00     0.287 C 
ATOM     19  C   UNL     1       1.544   1.951  -3.045  1.00  0.00     0.037 C 
ATOM     20  C   UNL     1      -2.334   4.275  -0.406  1.00  0.00     0.073 C 
ATOM     21  N   UNL     1      -0.086   3.996  -1.200  1.00  0.00    -0.329 N 
ATOM     22  C   UNL     1      -1.561   5.564  -0.221  1.00  0.00     0.068 C 
ATOM     23  C   UNL     1      -0.120   5.084  -0.215  1.00  0.00     0.262 C 
ATOM     24  H   UNL     1       0.272   4.357  -2.084  1.00  0.00     0.348 HD
ENDBRANCH  11  14
ENDBRANCH   9  10
ENDBRANCH   5   9
ENDBRANCH   3   5
ENDBRANCH   2   3
ENDBRANCH   1   2
BRANCH   1  25
ATOM     25  C   UNL     1       2.774  -5.286  -3.880  1.00  0.00     0.275 C 
BRANCH  25  26
ATOM     26  O   UNL     1       3.290  -5.271  -2.534  1.00  0.00    -0.458 OA
BRANCH  26  27
ATOM     27  C   UNL     1       3.546  -4.043  -2.025  1.00  0.00     0.338 C 
ATOM     28  O   UNL     1       3.392  -2.971  -2.587  1.00  0.00    -0.246 OA
BRANCH  27  29
ATOM     29  C   UNL     1       3.907  -4.135  -0.600  1.00  0.00     0.060 A 
ATOM     30  C   UNL     1       3.060  -3.511   0.318  1.00  0.00     0.016 A 
ATOM     31  C   UNL     1       5.099  -4.717  -0.173  1.00  0.00     0.016 A 
ATOM     32  C   UNL     1       3.397  -3.447   1.663  1.00  0.00     0.010 A 
ATOM     33  C   UNL     1       5.436  -4.662   1.186  1.00  0.00     0.010 A 
ATOM     34  C   UNL     1       4.594  -4.013   2.108  1.00  0.00    -0.014 A 
BRANCH  34  35
ATOM     35  C   UNL     1       4.965  -3.883   3.537  1.00  0.00     0.031 A 
ATOM     36  C   UNL     1       6.076  -2.958   3.942  1.00  0.00     0.074 A 
ATOM     37  C   UNL     1       4.288  -4.581   4.468  1.00  0.00     0.049 A 
ATOM     38  N   UNL     1       6.586  -2.753   5.128  1.00  0.00    -0.248 NA
ATOM     39  C   UNL     1       6.695  -2.156   2.874  1.00  0.00     0.031 C 
ATOM     40  C   UNL     1       3.175  -5.491   4.194  1.00  0.00     0.029 A 
ATOM     41  N   UNL     1       4.447  -4.646   5.829  1.00  0.00    -0.354 N 
ATOM     42  C   UNL     1       7.617  -1.840   4.946  1.00  0.00     0.074 A 
ATOM     43  C   UNL     1       7.654  -1.521   3.534  1.00  0.00     0.031 C 
ATOM     44  C   UNL     1       2.764  -6.039   5.348  1.00  0.00     0.029 A 
ATOM     45  C   UNL     1       3.607  -5.551   6.435  1.00  0.00     0.049 A 
ATOM     46  H   UNL     1       5.098  -4.098   6.324  1.00  0.00     0.167 HD
ATOM     47  C   UNL     1       8.448  -1.309   5.873  1.00  0.00     0.034 A 
ATOM     48  C   UNL     1       3.546  -5.962   7.716  1.00  0.00     0.034 A 
ATOM     49  C   UNL     1       8.376  -1.594   7.281  1.00  0.00     0.049 A 
ATOM     50  C   UNL     1       4.485  -5.358   8.724  1.00  0.00     0.074 A 
ATOM     51  C   UNL     1       9.146  -1.070   8.304  1.00  0.00     0.029 A 
ATOM     52  N   UNL     1       7.484  -2.480   7.864  1.00  0.00    -0.354 N 
ATOM     53  N   UNL     1       5.392  -4.427   8.550  1.00  0.00    -0.248 NA
ATOM     54  C   UNL     1       4.378  -5.842  10.107  1.00  0.00     0.031 C 
ATOM     55  C   UNL     1       8.726  -1.649   9.507  1.00  0.00     0.029 A 
ATOM     56  C   UNL     1       7.688  -2.525   9.233  1.00  0.00     0.049 A 
ATOM     57  H   UNL     1       6.806  -3.001   7.377  1.00  0.00     0.167 HD
ATOM     58  C   UNL     1       5.947  -4.197   9.803  1.00  0.00     0.074 A 
ATOM     59  C   UNL     1       5.256  -5.068  10.732  1.00  0.00     0.031 C 
ATOM     60  C   UNL     1       6.953  -3.357  10.151  1.00  0.00     0.034 A 
BRANCH  47  61
ATOM     61  C   UNL     1       9.498  -0.342   5.397  1.00  0.00     0.023 A 
ATOM     62  C   UNL     1       9.130   0.978   5.067  1.00  0.00     0.012 A 
ATOM     63  C   UNL     1      10.852  -0.721   5.334  1.00  0.00     0.148 A 
ATOM     64  C   UNL     1      10.093   1.900   4.658  1.00  0.00     0.002 A 
ATOM     65  C   UNL     1      11.811   0.214   4.959  1.00  0.00     0.091 A 
ATOM     66  F   UNL     1      11.177  -1.988   5.626  1.00  0.00    -0.205 F 
ATOM     67  C   UNL     1      11.433   1.522   4.614  1.00  0.00     0.022 A 
BRANCH  65  68
ATOM     68  S   UNL     1      13.567  -0.164   4.938  1.00  0.00     0.127 S 
ATOM     69  O   UNL     1      13.825  -0.284   3.504  1.00  0.00    -0.237 OA
ATOM     70  O   UNL     1      14.149   1.024   5.564  1.00  0.00    -0.237 OA
ATOM     71  O   UNL     1      13.720  -1.389   5.710  1.00  0.00    -0.744 OA
ENDBRANCH  65  68
ENDBRANCH  47  61
BRANCH  48  72
ATOM     72  C   UNL     1       2.539  -6.985   8.117  1.00  0.00     0.023 A 
ATOM     73  C   UNL     1       1.455  -6.609   8.933  1.00  0.00     0.012 A 
ATOM     74  C   UNL     1       2.628  -8.315   7.662  1.00  0.00     0.148 A 
ATOM     75  C   UNL     1       0.489  -7.545   9.305  1.00  0.00     0.002 A 
ATOM     76  C   UNL     1       1.633  -9.228   7.990  1.00  0.00     0.091 A 
ATOM     77  F   UNL     1       3.682  -8.661   6.907  1.00  0.00    -0.205 F 
ATOM     78  C   UNL     1       0.570  -8.850   8.823  1.00  0.00     0.022 A 
BRANCH  76  79
ATOM     79  S   UNL     1       1.596 -10.885   7.297  1.00  0.00     0.127 S 
ATOM     80  O   UNL     1       2.079 -11.689   8.416  1.00  0.00    -0.237 OA
ATOM     81  O   UNL     1       0.177 -11.056   6.982  1.00  0.00    -0.237 OA
ATOM     82  O   UNL     1       2.463 -10.833   6.126  1.00  0.00    -0.744 OA
ENDBRANCH  76  79
ENDBRANCH  48  72
BRANCH  60  83
ATOM     83  C   UNL     1       7.358  -3.319  11.600  1.00  0.00     0.023 A 
ATOM     84  C   UNL     1       8.114  -4.379  12.136  1.00  0.00     0.012 A 
ATOM     85  C   UNL     1       7.059  -2.203  12.406  1.00  0.00     0.148 A 
ATOM     86  C   UNL     1       8.546  -4.341  13.461  1.00  0.00     0.002 A 
ATOM     87  C   UNL     1       7.529  -2.153  13.713  1.00  0.00     0.091 A 
ATOM     88  F   UNL     1       6.319  -1.214  11.883  1.00  0.00    -0.205 F 
ATOM     89  C   UNL     1       8.264  -3.224  14.245  1.00  0.00     0.022 A 
BRANCH  87  90
ATOM     90  S   UNL     1       7.287  -0.713  14.760  1.00  0.00     0.127 S 
ATOM     91  O   UNL     1       6.196  -1.153  15.627  1.00  0.00    -0.237 OA
ATOM     92  O   UNL     1       8.584  -0.587  15.427  1.00  0.00    -0.237 OA
ATOM     93  O   UNL     1       6.970   0.385  13.855  1.00  0.00    -0.744 OA
ENDBRANCH  87  90
ENDBRANCH  60  83
ENDBRANCH  34  35
ENDBRANCH  27  29
ENDBRANCH  26  27
ENDBRANCH  25  26
ENDBRANCH   1  25
TORSDOF 19
