REMARK SMILES C[C@H]1[C@H](C(=O)OCCOC(=O)c2ccc(-c3c4nc(c(-c5cccc(S(=O)(=O)[O-])c5F)c5ccc([nH]5)c(-c5cccc(S(=O)(=O)[O-])c5F)c5nc(c(-c6cccc(S(=O)(=O)[O-])c6F)c6ccc3[nH]6)C=C5)C=C4)cc2)CCN1C(=O)NCc1cnn(C)c1
REMARK SMILES IDX 7 1 6 2 4 3 5 4 3 5 1 6 2 7 77 8 75 9 76 10 78 11 79 12
REMARK SMILES IDX 80 13 81 15 82 16 83 17 87 18 84 19 85 20 86 21 8 22 9 23
REMARK SMILES IDX 10 24 11 25 12 26 13 27 74 28 14 29 73 30 15 31 16 32 17 33
REMARK SMILES IDX 67 34 18 35 72 36 66 37 68 38 19 39 71 40 65 41 64 42 20 44
REMARK SMILES IDX 52 45 32 46 51 47 33 48 36 49 50 50 69 51 34 52 35 53 49 55
REMARK SMILES IDX 70 56 37 57 21 58 22 59 30 60 23 61 25 62 31 63 24 64 26 65
REMARK SMILES IDX 27 66 28 67 29 68 53 69 54 70 62 71 55 72 57 73 63 74 56 75
REMARK SMILES IDX 58 76 59 77 60 78 61 79 38 80 39 81 47 82 40 83 42 84 48 85
REMARK SMILES IDX 41 86 43 87 44 88 45 89 46 90
REMARK H PARENT 80 14 68 43 36 54
REMARK Flexibility Score: inf
ROOT
ATOM      1  C   UNL     1      -0.435   2.817   3.348  1.00  0.00     0.274 C 
ENDROOT
BRANCH   1   2
ATOM      2  O   UNL     1      -0.396   1.772   2.355  1.00  0.00    -0.462 OA
BRANCH   2   3
ATOM      3  C   UNL     1      -0.810   2.111   1.108  1.00  0.00     0.311 C 
ATOM      4  O   UNL     1      -1.281   3.201   0.803  1.00  0.00    -0.252 OA
BRANCH   3   5
ATOM      5  C   UNL     1      -0.694   0.987   0.103  1.00  0.00     0.123 C 
ATOM      6  C   UNL     1       1.499   0.135  -0.827  1.00  0.00     0.032 C 
ATOM      7  C   UNL     1       0.481   0.005   0.317  1.00  0.00     0.098 C 
ATOM      8  N   UNL     1      -0.127  -1.327   0.295  1.00  0.00    -0.321 N 
ATOM      9  C   UNL     1      -1.954   0.127   0.123  1.00  0.00     0.039 C 
ATOM     10  C   UNL     1      -1.454  -1.242  -0.289  1.00  0.00     0.122 C 
BRANCH   8  11
ATOM     11  C   UNL     1       0.327  -2.525   0.739  1.00  0.00     0.317 C 
ATOM     12  O   UNL     1      -0.357  -3.550   0.627  1.00  0.00    -0.249 OA
ATOM     13  N   UNL     1       1.518  -2.700   1.328  1.00  0.00    -0.334 N 
ATOM     14  H   UNL     1       1.637  -3.632   1.622  1.00  0.00     0.165 HD
BRANCH  13  15
ATOM     15  C   UNL     1       2.680  -1.898   1.652  1.00  0.00     0.157 C 
BRANCH  15  16
ATOM     16  C   UNL     1       2.837  -1.839   3.126  1.00  0.00     0.009 A 
ATOM     17  C   UNL     1       2.834  -0.681   3.939  1.00  0.00     0.140 A 
ATOM     18  C   UNL     1       3.064  -2.869   4.018  1.00  0.00     0.113 A 
ATOM     19  N   UNL     1       3.033  -0.957   5.231  1.00  0.00    -0.181 NA
ATOM     20  N   UNL     1       3.176  -2.293   5.249  1.00  0.00    -0.275 N 
ATOM     21  C   UNL     1       3.445  -2.960   6.498  1.00  0.00     0.173 C 
ENDBRANCH  15  16
ENDBRANCH  13  15
ENDBRANCH   8  11
ENDBRANCH   3   5
ENDBRANCH   2   3
ENDBRANCH   1   2
BRANCH   1  22
ATOM     22  C   UNL     1       0.951   3.426   3.580  1.00  0.00     0.275 C 
BRANCH  22  23
ATOM     23  O   UNL     1       1.418   4.141   2.422  1.00  0.00    -0.458 OA
BRANCH  23  24
ATOM     24  C   UNL     1       2.154   3.411   1.554  1.00  0.00     0.338 C 
ATOM     25  O   UNL     1       2.477   2.240   1.657  1.00  0.00    -0.246 OA
BRANCH  24  26
ATOM     26  C   UNL     1       2.428   4.209   0.352  1.00  0.00     0.060 A 
ATOM     27  C   UNL     1       1.762   3.880  -0.831  1.00  0.00     0.016 A 
ATOM     28  C   UNL     1       3.404   5.203   0.368  1.00  0.00     0.016 A 
ATOM     29  C   UNL     1       2.096   4.513  -2.022  1.00  0.00     0.010 A 
ATOM     30  C   UNL     1       3.717   5.861  -0.823  1.00  0.00     0.010 A 
ATOM     31  C   UNL     1       3.079   5.507  -2.027  1.00  0.00    -0.014 A 
BRANCH  31  32
ATOM     32  C   UNL     1       3.473   6.170  -3.290  1.00  0.00     0.031 A 
ATOM     33  C   UNL     1       4.834   5.914  -3.866  1.00  0.00     0.074 A 
ATOM     34  C   UNL     1       2.630   7.040  -3.877  1.00  0.00     0.049 A 
ATOM     35  N   UNL     1       5.449   6.534  -4.837  1.00  0.00    -0.248 NA
ATOM     36  C   UNL     1       5.610   4.817  -3.262  1.00  0.00     0.031 C 
ATOM     37  C   UNL     1       1.273   7.341  -3.418  1.00  0.00     0.029 A 
ATOM     38  N   UNL     1       2.807   7.860  -4.962  1.00  0.00    -0.354 N 
ATOM     39  C   UNL     1       6.704   5.947  -4.924  1.00  0.00     0.074 A 
ATOM     40  C   UNL     1       6.759   4.908  -3.918  1.00  0.00     0.031 C 
ATOM     41  C   UNL     1       0.753   8.305  -4.194  1.00  0.00     0.029 A 
ATOM     42  C   UNL     1       1.758   8.725  -5.166  1.00  0.00     0.049 A 
ATOM     43  H   UNL     1       3.606   7.832  -5.538  1.00  0.00     0.167 HD
ATOM     44  C   UNL     1       7.716   6.249  -5.770  1.00  0.00     0.034 A 
ATOM     45  C   UNL     1       1.640   9.771  -6.007  1.00  0.00     0.034 A 
ATOM     46  C   UNL     1       7.631   7.257  -6.792  1.00  0.00     0.049 A 
ATOM     47  C   UNL     1       2.786  10.096  -6.926  1.00  0.00     0.074 A 
ATOM     48  C   UNL     1       8.586   7.617  -7.725  1.00  0.00     0.029 A 
ATOM     49  N   UNL     1       6.527   8.065  -7.013  1.00  0.00    -0.354 N 
ATOM     50  N   UNL     1       3.942   9.488  -7.048  1.00  0.00    -0.248 NA
ATOM     51  C   UNL     1       2.608  11.236  -7.837  1.00  0.00     0.031 C 
ATOM     52  C   UNL     1       8.062   8.653  -8.505  1.00  0.00     0.029 A 
ATOM     53  C   UNL     1       6.774   8.925  -8.067  1.00  0.00     0.049 A 
ATOM     54  H   UNL     1       5.689   8.031  -6.497  1.00  0.00     0.167 HD
ATOM     55  C   UNL     1       4.613  10.145  -8.072  1.00  0.00     0.074 A 
ATOM     56  C   UNL     1       3.731  11.194  -8.543  1.00  0.00     0.031 C 
ATOM     57  C   UNL     1       5.852   9.912  -8.567  1.00  0.00     0.034 A 
BRANCH  44  58
ATOM     58  C   UNL     1       8.996   5.468  -5.643  1.00  0.00     0.023 A 
ATOM     59  C   UNL     1       9.056   4.144  -6.120  1.00  0.00     0.012 A 
ATOM     60  C   UNL     1      10.154   6.065  -5.106  1.00  0.00     0.148 A 
ATOM     61  C   UNL     1      10.243   3.417  -6.043  1.00  0.00     0.002 A 
ATOM     62  C   UNL     1      11.343   5.346  -5.067  1.00  0.00     0.091 A 
ATOM     63  F   UNL     1      10.069   7.316  -4.633  1.00  0.00    -0.205 F 
ATOM     64  C   UNL     1      11.387   4.020  -5.527  1.00  0.00     0.022 A 
BRANCH  62  65
ATOM     65  S   UNL     1      12.883   6.063  -4.483  1.00  0.00     0.127 S 
ATOM     66  O   UNL     1      13.029   5.426  -3.176  1.00  0.00    -0.237 OA
ATOM     67  O   UNL     1      13.840   5.608  -5.493  1.00  0.00    -0.237 OA
ATOM     68  O   UNL     1      12.669   7.503  -4.460  1.00  0.00    -0.744 OA
ENDBRANCH  62  65
ENDBRANCH  44  58
BRANCH  45  69
ATOM     69  C   UNL     1       0.381  10.567  -6.027  1.00  0.00     0.023 A 
ATOM     70  C   UNL     1      -0.475  10.476  -7.140  1.00  0.00     0.012 A 
ATOM     71  C   UNL     1       0.005  11.374  -4.935  1.00  0.00     0.148 A 
ATOM     72  C   UNL     1      -1.674  11.189  -7.174  1.00  0.00     0.002 A 
ATOM     73  C   UNL     1      -1.216  12.039  -4.952  1.00  0.00     0.091 A 
ATOM     74  F   UNL     1       0.843  11.465  -3.892  1.00  0.00    -0.205 F 
ATOM     75  C   UNL     1      -2.050  11.960  -6.077  1.00  0.00     0.022 A 
BRANCH  73  76
ATOM     76  S   UNL     1      -1.835  12.944  -3.529  1.00  0.00     0.127 S 
ATOM     77  O   UNL     1      -1.646  14.329  -3.949  1.00  0.00    -0.237 OA
ATOM     78  O   UNL     1      -3.230  12.504  -3.470  1.00  0.00    -0.237 OA
ATOM     79  O   UNL     1      -1.022  12.503  -2.403  1.00  0.00    -0.744 OA
ENDBRANCH  73  76
ENDBRANCH  45  69
BRANCH  57  80
ATOM     80  C   UNL     1       6.323  10.763  -9.715  1.00  0.00     0.023 A 
ATOM     81  C   UNL     1       6.764  12.078  -9.474  1.00  0.00     0.012 A 
ATOM     82  C   UNL     1       6.438  10.216 -11.008  1.00  0.00     0.148 A 
ATOM     83  C   UNL     1       7.303  12.842 -10.508  1.00  0.00     0.002 A 
ATOM     84  C   UNL     1       7.015  10.967 -12.023  1.00  0.00     0.091 A 
ATOM     85  F   UNL     1       5.994   8.967 -11.214  1.00  0.00    -0.205 F 
ATOM     86  C   UNL     1       7.441  12.283 -11.777  1.00  0.00     0.022 A 
BRANCH  84  87
ATOM     87  S   UNL     1       7.321  10.298 -13.662  1.00  0.00     0.127 S 
ATOM     88  O   UNL     1       6.346  11.030 -14.469  1.00  0.00    -0.237 OA
ATOM     89  O   UNL     1       8.715  10.677 -13.896  1.00  0.00    -0.237 OA
ATOM     90  O   UNL     1       7.093   8.863 -13.561  1.00  0.00    -0.744 OA
ENDBRANCH  84  87
ENDBRANCH  57  80
ENDBRANCH  31  32
ENDBRANCH  24  26
ENDBRANCH  23  24
ENDBRANCH  22  23
ENDBRANCH   1  22
TORSDOF 17
