REMARK SMILES CCCn1ncc(C(=O)N2CCC[C@@H]2C(=O)OCCOC(=O)c2ccc(-c3c4nc(c(-c5cccc(S(=O)(=O)[O-])c5F)c5ccc([nH]5)c(-c5cccc(S(=O)(=O)[O-])c5F)c5nc(c(-c6cccc(S(=O)(=O)[O-])c6F)c6ccc3[nH]6)C=C5)C=C4)cc2)c1C
REMARK SMILES IDX 18 1 17 2 15 3 16 4 14 5 10 6 11 7 12 8 13 9 8 10 9 11 7 12
REMARK SMILES IDX 4 13 5 14 86 15 6 16 87 17 3 18 2 19 1 20 19 21 20 22 21 23
REMARK SMILES IDX 22 24 23 25 24 26 85 27 25 28 84 29 26 30 27 31 28 32 78 33
REMARK SMILES IDX 29 34 83 35 77 36 79 37 30 38 82 39 76 40 75 41 31 43 63 44
REMARK SMILES IDX 43 45 62 46 44 47 47 48 61 49 80 50 45 51 46 52 60 54 81 55
REMARK SMILES IDX 48 56 32 57 33 58 41 59 34 60 36 61 42 62 35 63 37 64 38 65
REMARK SMILES IDX 39 66 40 67 64 68 65 69 73 70 66 71 68 72 74 73 67 74 69 75
REMARK SMILES IDX 70 76 71 77 72 78 49 79 50 80 58 81 51 82 53 83 59 84 52 85
REMARK SMILES IDX 54 86 55 87 56 88 57 89
REMARK H PARENT 79 42 47 53
REMARK Flexibility Score: inf
ROOT
ATOM      1  C   UNL     1       2.534   5.414  -2.598  1.00  0.00     0.274 C 
ENDROOT
BRANCH   1   2
ATOM      2  O   UNL     1       1.428   6.020  -1.901  1.00  0.00    -0.461 OA
BRANCH   2   3
ATOM      3  C   UNL     1       1.776   6.750  -0.802  1.00  0.00     0.328 C 
ATOM      4  O   UNL     1       2.899   6.745  -0.304  1.00  0.00    -0.250 OA
BRANCH   3   5
ATOM      5  C   UNL     1       0.586   7.477  -0.162  1.00  0.00     0.195 C 
ATOM      6  N   UNL     1      -0.125   6.521   0.673  1.00  0.00    -0.325 N 
ATOM      7  C   UNL     1      -1.556   6.671   0.538  1.00  0.00     0.121 C 
ATOM      8  C   UNL     1      -1.709   7.117  -0.898  1.00  0.00     0.024 C 
ATOM      9  C   UNL     1      -0.497   8.024  -1.108  1.00  0.00     0.039 C 
BRANCH   6  10
ATOM     10  C   UNL     1       0.516   5.831   1.667  1.00  0.00     0.258 C 
ATOM     11  O   UNL     1       1.323   6.361   2.432  1.00  0.00    -0.269 OA
BRANCH  10  12
ATOM     12  C   UNL     1       0.326   4.388   1.595  1.00  0.00     0.080 A 
ATOM     13  N   UNL     1       0.560   2.207   1.846  1.00  0.00    -0.269 N 
ATOM     14  N   UNL     1      -0.365   2.327   0.878  1.00  0.00    -0.180 NA
ATOM     15  C   UNL     1       0.978   3.418   2.347  1.00  0.00     0.048 A 
ATOM     16  C   UNL     1      -0.433   3.638   0.669  1.00  0.00     0.149 A 
ATOM     17  C   UNL     1       1.994   3.580   3.420  1.00  0.00     0.067 C 
BRANCH  13  18
ATOM     18  C   UNL     1       1.020   0.887   2.242  1.00  0.00     0.144 C 
BRANCH  18  19
ATOM     19  C   UNL     1       0.551  -0.288   1.375  1.00  0.00     0.020 C 
ATOM     20  C   UNL     1       1.164  -0.300  -0.020  1.00  0.00     0.006 C 
ENDBRANCH  18  19
ENDBRANCH  13  18
ENDBRANCH  10  12
ENDBRANCH   6  10
ENDBRANCH   3   5
ENDBRANCH   2   3
ENDBRANCH   1   2
BRANCH   1  21
ATOM     21  C   UNL     1       3.116   6.356  -3.644  1.00  0.00     0.275 C 
BRANCH  21  22
ATOM     22  O   UNL     1       3.799   7.457  -3.045  1.00  0.00    -0.458 OA
BRANCH  22  23
ATOM     23  C   UNL     1       3.027   8.545  -2.837  1.00  0.00     0.338 C 
ATOM     24  O   UNL     1       1.809   8.586  -2.824  1.00  0.00    -0.246 OA
BRANCH  23  25
ATOM     25  C   UNL     1       3.820   9.765  -2.903  1.00  0.00     0.060 A 
ATOM     26  C   UNL     1       3.099  10.962  -2.814  1.00  0.00     0.016 A 
ATOM     27  C   UNL     1       5.113   9.697  -3.432  1.00  0.00     0.016 A 
ATOM     28  C   UNL     1       3.593  12.059  -3.470  1.00  0.00     0.010 A 
ATOM     29  C   UNL     1       5.597  10.792  -4.098  1.00  0.00     0.010 A 
ATOM     30  C   UNL     1       4.794  11.927  -4.174  1.00  0.00    -0.014 A 
BRANCH  30  31
ATOM     31  C   UNL     1       5.290  13.093  -4.865  1.00  0.00     0.031 A 
ATOM     32  C   UNL     1       5.747  14.125  -3.909  1.00  0.00     0.074 A 
ATOM     33  C   UNL     1       5.404  13.145  -6.204  1.00  0.00     0.049 A 
ATOM     34  N   UNL     1       5.201  15.271  -3.676  1.00  0.00    -0.248 NA
ATOM     35  C   UNL     1       6.781  13.740  -2.933  1.00  0.00     0.031 C 
ATOM     36  C   UNL     1       5.230  12.055  -7.168  1.00  0.00     0.029 A 
ATOM     37  N   UNL     1       5.858  14.166  -6.976  1.00  0.00    -0.354 N 
ATOM     38  C   UNL     1       6.005  15.856  -2.703  1.00  0.00     0.074 A 
ATOM     39  C   UNL     1       6.777  14.795  -2.119  1.00  0.00     0.031 C 
ATOM     40  C   UNL     1       5.833  12.397  -8.330  1.00  0.00     0.029 A 
ATOM     41  C   UNL     1       6.318  13.763  -8.225  1.00  0.00     0.049 A 
ATOM     42  H   UNL     1       5.861  15.105  -6.678  1.00  0.00     0.167 HD
ATOM     43  C   UNL     1       6.202  17.201  -2.691  1.00  0.00     0.034 A 
ATOM     44  C   UNL     1       7.131  14.476  -9.046  1.00  0.00     0.034 A 
ATOM     45  C   UNL     1       5.185  17.881  -3.454  1.00  0.00     0.049 A 
ATOM     46  C   UNL     1       7.056  15.893  -8.615  1.00  0.00     0.074 A 
ATOM     47  C   UNL     1       3.807  17.946  -3.400  1.00  0.00     0.029 A 
ATOM     48  N   UNL     1       5.540  18.309  -4.710  1.00  0.00    -0.354 N 
ATOM     49  N   UNL     1       5.979  16.619  -8.720  1.00  0.00    -0.248 NA
ATOM     50  C   UNL     1       8.035  16.358  -7.644  1.00  0.00     0.031 C 
ATOM     51  C   UNL     1       3.387  17.963  -4.762  1.00  0.00     0.029 A 
ATOM     52  C   UNL     1       4.526  17.982  -5.569  1.00  0.00     0.049 A 
ATOM     53  H   UNL     1       6.376  18.770  -4.950  1.00  0.00     0.167 HD
ATOM     54  C   UNL     1       5.927  17.326  -7.525  1.00  0.00     0.074 A 
ATOM     55  C   UNL     1       7.268  17.206  -6.952  1.00  0.00     0.031 C 
ATOM     56  C   UNL     1       4.730  17.677  -6.968  1.00  0.00     0.034 A 
BRANCH  43  57
ATOM     57  C   UNL     1       7.529  17.857  -2.375  1.00  0.00     0.023 A 
ATOM     58  C   UNL     1       7.542  19.268  -2.329  1.00  0.00     0.012 A 
ATOM     59  C   UNL     1       8.787  17.207  -2.415  1.00  0.00     0.148 A 
ATOM     60  C   UNL     1       8.735  19.992  -2.400  1.00  0.00     0.002 A 
ATOM     61  C   UNL     1       9.973  17.930  -2.406  1.00  0.00     0.091 A 
ATOM     62  F   UNL     1       8.865  15.889  -2.597  1.00  0.00    -0.205 F 
ATOM     63  C   UNL     1       9.952  19.324  -2.436  1.00  0.00     0.022 A 
BRANCH  61  64
ATOM     64  S   UNL     1      11.575  17.112  -2.414  1.00  0.00     0.127 S 
ATOM     65  O   UNL     1      12.041  17.401  -3.767  1.00  0.00    -0.237 OA
ATOM     66  O   UNL     1      12.276  17.828  -1.348  1.00  0.00    -0.237 OA
ATOM     67  O   UNL     1      11.307  15.711  -2.116  1.00  0.00    -0.744 OA
ENDBRANCH  61  64
ENDBRANCH  43  57
BRANCH  44  68
ATOM     68  C   UNL     1       8.200  13.998  -9.957  1.00  0.00     0.023 A 
ATOM     69  C   UNL     1       8.695  14.855 -10.962  1.00  0.00     0.012 A 
ATOM     70  C   UNL     1       8.932  12.824  -9.669  1.00  0.00     0.148 A 
ATOM     71  C   UNL     1       9.891  14.569 -11.633  1.00  0.00     0.002 A 
ATOM     72  C   UNL     1      10.114  12.539 -10.345  1.00  0.00     0.091 A 
ATOM     73  F   UNL     1       8.521  12.036  -8.667  1.00  0.00    -0.205 F 
ATOM     74  C   UNL     1      10.605  13.415 -11.320  1.00  0.00     0.022 A 
BRANCH  72  75
ATOM     75  S   UNL     1      11.100  11.081  -9.973  1.00  0.00     0.127 S 
ATOM     76  O   UNL     1      11.326  10.522 -11.307  1.00  0.00    -0.237 OA
ATOM     77  O   UNL     1      12.282  11.666  -9.346  1.00  0.00    -0.237 OA
ATOM     78  O   UNL     1      10.273  10.249  -9.109  1.00  0.00    -0.744 OA
ENDBRANCH  72  75
ENDBRANCH  44  68
BRANCH  56  79
ATOM     79  C   UNL     1       3.484  17.514  -7.801  1.00  0.00     0.023 A 
ATOM     80  C   UNL     1       3.019  16.259  -8.246  1.00  0.00     0.012 A 
ATOM     81  C   UNL     1       2.671  18.644  -7.985  1.00  0.00     0.148 A 
ATOM     82  C   UNL     1       1.777  16.139  -8.879  1.00  0.00     0.002 A 
ATOM     83  C   UNL     1       1.418  18.514  -8.569  1.00  0.00     0.091 A 
ATOM     84  F   UNL     1       3.127  19.829  -7.552  1.00  0.00    -0.205 F 
ATOM     85  C   UNL     1       0.971  17.265  -9.027  1.00  0.00     0.022 A 
BRANCH  83  86
ATOM     86  S   UNL     1       0.287  19.902  -8.669  1.00  0.00     0.127 S 
ATOM     87  O   UNL     1       0.342  20.238 -10.090  1.00  0.00    -0.237 OA
ATOM     88  O   UNL     1      -0.977  19.310  -8.228  1.00  0.00    -0.237 OA
ATOM     89  O   UNL     1       0.815  20.917  -7.764  1.00  0.00    -0.744 OA
ENDBRANCH  83  86
ENDBRANCH  56  79
ENDBRANCH  30  31
ENDBRANCH  23  25
ENDBRANCH  22  23
ENDBRANCH  21  22
ENDBRANCH   1  21
TORSDOF 18
