REMARK SMILES Cc1cc(C[NH+]2C[C@@H](C)[C@H](C)C2)oc1C(=O)OCCOC(=O)c1ccc(-c2c3nc(c(-c4cccc(S(=O)(=O)[O-])c4F)c4ccc([nH]4)c(-c4cccc(S(=O)(=O)[O-])c4F)c4nc(c(-c5cccc(S(=O)(=O)[O-])c5F)c5ccc2[nH]5)C=C4)C=C3)cc1
REMARK SMILES IDX 19 1 18 2 17 3 15 4 16 5 14 6 1 7 2 8 3 9 4 10 13 11 5 12
REMARK SMILES IDX 6 13 7 14 12 15 8 17 10 18 9 19 11 20 20 21 21 22 22 23
REMARK SMILES IDX 23 24 24 25 85 26 25 27 84 28 26 29 27 30 28 31 78 32 29 33
REMARK SMILES IDX 83 34 77 35 79 36 30 37 82 38 76 39 75 40 31 42 63 43 43 44
REMARK SMILES IDX 62 45 44 46 47 47 61 48 80 49 45 50 46 51 60 53 81 54 48 55
REMARK SMILES IDX 32 56 33 57 41 58 34 59 36 60 42 61 35 62 37 63 38 64 39 65
REMARK SMILES IDX 40 66 64 67 65 68 73 69 66 70 68 71 74 72 67 73 69 74 70 75
REMARK SMILES IDX 71 76 72 77 49 78 50 79 58 80 51 81 53 82 59 83 52 84 54 85
REMARK SMILES IDX 55 86 56 87 57 88
REMARK H PARENT 6 16 79 41 47 52
REMARK Flexibility Score: inf
ROOT
ATOM      1  C   UNL     1      -1.260  -4.793  -1.255  1.00  0.00     0.275 C 
ENDROOT
BRANCH   1   2
ATOM      2  C   UNL     1      -1.776  -4.264   0.088  1.00  0.00     0.275 C 
BRANCH   2   3
ATOM      3  O   UNL     1      -1.716  -2.826   0.148  1.00  0.00    -0.456 OA
BRANCH   3   4
ATOM      4  C   UNL     1      -0.622  -2.301   0.777  1.00  0.00     0.374 C 
ATOM      5  O   UNL     1       0.212  -2.972   1.368  1.00  0.00    -0.242 OA
BRANCH   4   6
ATOM      6  C   UNL     1      -0.549  -0.869   0.566  1.00  0.00     0.215 A 
ATOM      7  C   UNL     1      -2.935   0.043   0.097  1.00  0.00     0.049 C 
ATOM      8  C   UNL     1      -1.462   0.130   0.251  1.00  0.00     0.003 A 
ATOM      9  C   UNL     1      -0.695   1.325   0.089  1.00  0.00     0.056 A 
ATOM     10  C   UNL     1       0.626   0.992   0.288  1.00  0.00     0.159 A 
ATOM     11  O   UNL     1       0.703  -0.317   0.648  1.00  0.00    -0.448 OA
BRANCH  10  12
ATOM     12  C   UNL     1       1.934   1.714   0.188  1.00  0.00     0.338 C 
BRANCH  12  13
ATOM     13  N   UNL     1       2.175   2.427  -1.067  1.00  0.00    -0.328 N 
ATOM     14  C   UNL     1       2.137   1.612  -2.283  1.00  0.00     0.266 C 
ATOM     15  C   UNL     1       1.420   3.660  -1.268  1.00  0.00     0.266 C 
ATOM     16  H   UNL     1       3.146   2.700  -0.915  1.00  0.00     0.348 HD
ATOM     17  C   UNL     1       1.838   2.633  -3.383  1.00  0.00     0.049 C 
ATOM     18  C   UNL     1       0.844   3.558  -2.680  1.00  0.00     0.049 C 
ATOM     19  C   UNL     1       1.296   1.993  -4.652  1.00  0.00     0.014 C 
ATOM     20  C   UNL     1       0.667   4.915  -3.343  1.00  0.00     0.014 C 
ENDBRANCH  12  13
ENDBRANCH  10  12
ENDBRANCH   4   6
ENDBRANCH   3   4
ENDBRANCH   2   3
ENDBRANCH   1   2
BRANCH   1  21
ATOM     21  O   UNL     1       0.173  -4.705  -1.352  1.00  0.00    -0.458 OA
BRANCH  21  22
ATOM     22  C   UNL     1       0.652  -3.573  -1.923  1.00  0.00     0.338 C 
ATOM     23  O   UNL     1      -0.007  -2.658  -2.388  1.00  0.00    -0.246 OA
BRANCH  22  24
ATOM     24  C   UNL     1       2.120  -3.530  -1.786  1.00  0.00     0.060 A 
ATOM     25  C   UNL     1       2.688  -2.382  -1.226  1.00  0.00     0.016 A 
ATOM     26  C   UNL     1       2.936  -4.573  -2.229  1.00  0.00     0.016 A 
ATOM     27  C   UNL     1       4.069  -2.273  -1.093  1.00  0.00     0.010 A 
ATOM     28  C   UNL     1       4.326  -4.459  -2.106  1.00  0.00     0.010 A 
ATOM     29  C   UNL     1       4.900  -3.306  -1.542  1.00  0.00    -0.014 A 
BRANCH  29  30
ATOM     30  C   UNL     1       6.371  -3.151  -1.452  1.00  0.00     0.031 A 
ATOM     31  C   UNL     1       7.160  -2.778  -2.673  1.00  0.00     0.074 A 
ATOM     32  C   UNL     1       6.992  -3.335  -0.272  1.00  0.00     0.049 A 
ATOM     33  N   UNL     1       8.448  -2.598  -2.799  1.00  0.00    -0.248 NA
ATOM     34  C   UNL     1       6.399  -2.582  -3.918  1.00  0.00     0.031 C 
ATOM     35  C   UNL     1       6.330  -3.697   0.981  1.00  0.00     0.029 A 
ATOM     36  N   UNL     1       8.321  -3.255   0.061  1.00  0.00    -0.354 N 
ATOM     37  C   UNL     1       8.660  -2.295  -4.137  1.00  0.00     0.074 A 
ATOM     38  C   UNL     1       7.366  -2.320  -4.786  1.00  0.00     0.031 C 
ATOM     39  C   UNL     1       7.258  -3.821   1.945  1.00  0.00     0.029 A 
ATOM     40  C   UNL     1       8.578  -3.566   1.375  1.00  0.00     0.049 A 
ATOM     41  H   UNL     1       9.023  -2.999  -0.580  1.00  0.00     0.167 HD
ATOM     42  C   UNL     1       9.824  -2.003  -4.764  1.00  0.00     0.034 A 
ATOM     43  C   UNL     1       9.748  -3.644   2.040  1.00  0.00     0.034 A 
ATOM     44  C   UNL     1      11.103  -1.942  -4.110  1.00  0.00     0.049 A 
ATOM     45  C   UNL     1      11.027  -3.316   1.316  1.00  0.00     0.074 A 
ATOM     46  C   UNL     1      12.332  -1.610  -4.654  1.00  0.00     0.029 A 
ATOM     47  N   UNL     1      11.320  -2.221  -2.770  1.00  0.00    -0.354 N 
ATOM     48  N   UNL     1      11.196  -2.916   0.079  1.00  0.00    -0.248 NA
ATOM     49  C   UNL     1      12.275  -3.425   2.086  1.00  0.00     0.031 C 
ATOM     50  C   UNL     1      13.295  -1.696  -3.642  1.00  0.00     0.029 A 
ATOM     51  C   UNL     1      12.664  -2.077  -2.468  1.00  0.00     0.049 A 
ATOM     52  H   UNL     1      10.622  -2.483  -2.127  1.00  0.00     0.167 HD
ATOM     53  C   UNL     1      12.561  -2.700  -0.070  1.00  0.00     0.074 A 
ATOM     54  C   UNL     1      13.172  -2.991   1.210  1.00  0.00     0.031 C 
ATOM     55  C   UNL     1      13.249  -2.316  -1.174  1.00  0.00     0.034 A 
BRANCH  42  56
ATOM     56  C   UNL     1       9.761  -1.685  -6.232  1.00  0.00     0.023 A 
ATOM     57  C   UNL     1       9.306  -0.416  -6.644  1.00  0.00     0.012 A 
ATOM     58  C   UNL     1      10.200  -2.611  -7.197  1.00  0.00     0.148 A 
ATOM     59  C   UNL     1       9.269  -0.081  -7.997  1.00  0.00     0.002 A 
ATOM     60  C   UNL     1      10.190  -2.259  -8.543  1.00  0.00     0.091 A 
ATOM     61  F   UNL     1      10.602  -3.823  -6.787  1.00  0.00    -0.205 F 
ATOM     62  C   UNL     1       9.720  -0.998  -8.944  1.00  0.00     0.022 A 
BRANCH  60  63
ATOM     63  S   UNL     1      10.809  -3.353  -9.826  1.00  0.00     0.127 S 
ATOM     64  O   UNL     1       9.566  -3.861 -10.405  1.00  0.00    -0.237 OA
ATOM     65  O   UNL     1      11.551  -2.434 -10.690  1.00  0.00    -0.237 OA
ATOM     66  O   UNL     1      11.636  -4.338  -9.143  1.00  0.00    -0.744 OA
ENDBRANCH  60  63
ENDBRANCH  42  56
BRANCH  43  67
ATOM     67  C   UNL     1       9.756  -3.995   3.488  1.00  0.00     0.023 A 
ATOM     68  C   UNL     1      10.079  -3.006   4.436  1.00  0.00     0.012 A 
ATOM     69  C   UNL     1       9.416  -5.288   3.932  1.00  0.00     0.148 A 
ATOM     70  C   UNL     1      10.083  -3.303   5.800  1.00  0.00     0.002 A 
ATOM     71  C   UNL     1       9.373  -5.563   5.295  1.00  0.00     0.091 A 
ATOM     72  F   UNL     1       9.140  -6.226   3.015  1.00  0.00    -0.205 F 
ATOM     73  C   UNL     1       9.719  -4.576   6.230  1.00  0.00     0.022 A 
BRANCH  71  74
ATOM     74  S   UNL     1       8.793  -7.142   5.927  1.00  0.00     0.127 S 
ATOM     75  O   UNL     1      10.047  -7.821   6.238  1.00  0.00    -0.237 OA
ATOM     76  O   UNL     1       8.005  -6.739   7.093  1.00  0.00    -0.237 OA
ATOM     77  O   UNL     1       8.003  -7.720   4.847  1.00  0.00    -0.744 OA
ENDBRANCH  71  74
ENDBRANCH  43  67
BRANCH  55  78
ATOM     78  C   UNL     1      14.743  -2.175  -1.051  1.00  0.00     0.023 A 
ATOM     79  C   UNL     1      15.544  -3.334  -1.019  1.00  0.00     0.012 A 
ATOM     80  C   UNL     1      15.357  -0.908  -1.051  1.00  0.00     0.148 A 
ATOM     81  C   UNL     1      16.933  -3.233  -0.966  1.00  0.00     0.002 A 
ATOM     82  C   UNL     1      16.745  -0.816  -1.038  1.00  0.00     0.091 A 
ATOM     83  F   UNL     1      14.578   0.183  -1.059  1.00  0.00    -0.205 F 
ATOM     84  C   UNL     1      17.534  -1.976  -0.988  1.00  0.00     0.022 A 
BRANCH  82  85
ATOM     85  S   UNL     1      17.596   0.763  -1.152  1.00  0.00     0.127 S 
ATOM     86  O   UNL     1      17.958   1.010   0.242  1.00  0.00    -0.237 OA
ATOM     87  O   UNL     1      18.726   0.451  -2.029  1.00  0.00    -0.237 OA
ATOM     88  O   UNL     1      16.630   1.689  -1.728  1.00  0.00    -0.744 OA
ENDBRANCH  82  85
ENDBRANCH  55  78
ENDBRANCH  29  30
ENDBRANCH  22  24
ENDBRANCH  21  22
ENDBRANCH   1  21
TORSDOF 16
