REMARK SMILES COc1ccc([C@H]2CC(c3ccc(S(C)(=O)=O)cc3)=NN2c2ccc(C(=O)OCCOC(=O)c3ccc(-c4c5nc(c(-c6cccc(S(=O)(=O)[O-])c6F)c6ccc([nH]6)c(-c6cccc(S(=O)(=O)[O-])c6F)c6nc(c(-c7cccc(S(=O)(=O)[O-])c7F)c7ccc4[nH]7)C=C6)C=C5)cc3)cc2)cc1OC
REMARK SMILES IDX 29 1 28 2 26 3 27 4 25 5 22 6 23 7 98 8 24 9 97 10 21 11
REMARK SMILES IDX 7 12 8 13 9 14 20 15 6 16 3 17 4 18 100 19 5 20 99 21 2 22
REMARK SMILES IDX 1 23 101 24 102 25 10 26 11 27 19 28 12 29 18 30 13 31 14 32
REMARK SMILES IDX 15 33 16 34 17 35 30 36 31 37 32 38 33 39 34 40 35 41 96 42
REMARK SMILES IDX 36 43 95 44 37 45 38 46 39 47 89 48 40 49 94 50 88 51 90 52
REMARK SMILES IDX 41 53 93 54 87 55 86 56 42 58 74 59 54 60 73 61 55 62 58 63
REMARK SMILES IDX 72 64 91 65 56 66 57 67 71 69 92 70 59 71 43 72 44 73 52 74
REMARK SMILES IDX 45 75 47 76 53 77 46 78 48 79 49 80 50 81 51 82 75 83 76 84
REMARK SMILES IDX 84 85 77 86 79 87 85 88 78 89 80 90 81 91 82 92 83 93 60 94
REMARK SMILES IDX 61 95 69 96 62 97 64 98 70 99 63 100 65 101 66 102 67 103
REMARK SMILES IDX 68 104
REMARK H PARENT 90 57 58 68
REMARK Flexibility Score: inf
ROOT
ATOM      1  C   UNL     1       1.111  -0.007  -9.908  1.00  0.00     0.275 C 
ENDROOT
BRANCH   1   2
ATOM      2  O   UNL     1       1.413   1.165  -9.121  1.00  0.00    -0.458 OA
BRANCH   2   3
ATOM      3  C   UNL     1       1.773   0.923  -7.837  1.00  0.00     0.338 C 
ATOM      4  O   UNL     1       1.833  -0.173  -7.298  1.00  0.00    -0.246 OA
BRANCH   3   5
ATOM      5  C   UNL     1       2.141   2.173  -7.136  1.00  0.00     0.060 A 
ATOM      6  C   UNL     1       2.736   4.395  -5.518  1.00  0.00     0.060 A 
ATOM      7  C   UNL     1       3.598   3.300  -5.560  1.00  0.00     0.029 A 
ATOM      8  C   UNL     1       1.608   4.393  -6.351  1.00  0.00     0.029 A 
ATOM      9  C   UNL     1       3.274   2.182  -6.318  1.00  0.00     0.018 A 
ATOM     10  C   UNL     1       1.320   3.300  -7.180  1.00  0.00     0.018 A 
BRANCH   6  11
ATOM     11  N   UNL     1       2.944   5.405  -4.583  1.00  0.00    -0.257 N 
ATOM     12  C   UNL     1       2.148   5.479  -3.347  1.00  0.00     0.144 C 
ATOM     13  C   UNL     1       3.022   6.354  -2.437  1.00  0.00     0.091 C 
ATOM     14  C   UNL     1       4.235   6.532  -3.309  1.00  0.00     0.071 C 
ATOM     15  N   UNL     1       4.174   5.978  -4.478  1.00  0.00    -0.176 NA
BRANCH  12  16
ATOM     16  C   UNL     1       1.789   4.121  -2.748  1.00  0.00    -0.019 A 
ATOM     17  C   UNL     1       1.123   1.537  -1.801  1.00  0.00     0.160 A 
ATOM     18  C   UNL     1       0.145   2.365  -2.366  1.00  0.00     0.051 A 
ATOM     19  C   UNL     1       2.445   1.984  -1.712  1.00  0.00     0.161 A 
ATOM     20  C   UNL     1       0.472   3.644  -2.830  1.00  0.00     0.010 A 
ATOM     21  C   UNL     1       2.757   3.272  -2.183  1.00  0.00     0.056 A 
BRANCH  17  22
ATOM     22  O   UNL     1       0.759   0.253  -1.498  1.00  0.00    -0.493 OA
ATOM     23  C   UNL     1       0.122   0.151  -0.226  1.00  0.00     0.278 C 
ENDBRANCH  17  22
BRANCH  19  24
ATOM     24  O   UNL     1       3.547   1.322  -1.244  1.00  0.00    -0.493 OA
ATOM     25  C   UNL     1       3.389   0.053  -0.631  1.00  0.00     0.278 C 
ENDBRANCH  19  24
ENDBRANCH  12  16
BRANCH  14  26
ATOM     26  C   UNL     1       5.372   7.371  -2.886  1.00  0.00    -0.002 A 
ATOM     27  C   UNL     1       5.931   8.243  -3.831  1.00  0.00     0.011 A 
ATOM     28  C   UNL     1       5.859   7.347  -1.576  1.00  0.00     0.011 A 
ATOM     29  C   UNL     1       6.950   9.121  -3.460  1.00  0.00     0.021 A 
ATOM     30  C   UNL     1       6.899   8.208  -1.207  1.00  0.00     0.021 A 
ATOM     31  C   UNL     1       7.431   9.097  -2.149  1.00  0.00     0.067 A 
BRANCH  31  32
ATOM     32  S   UNL     1       8.680  10.269  -1.669  1.00  0.00     0.175 S 
ATOM     33  C   UNL     1      10.097   9.839  -2.645  1.00  0.00     0.163 C 
ATOM     34  O   UNL     1       8.208  11.573  -2.097  1.00  0.00    -0.224 OA
ATOM     35  O   UNL     1       9.004  10.024  -0.276  1.00  0.00    -0.224 OA
ENDBRANCH  31  32
ENDBRANCH  14  26
ENDBRANCH   6  11
ENDBRANCH   3   5
ENDBRANCH   2   3
ENDBRANCH   1   2
BRANCH   1  36
ATOM     36  C   UNL     1       2.277  -0.399 -10.818  1.00  0.00     0.275 C 
BRANCH  36  37
ATOM     37  O   UNL     1       3.383  -0.913 -10.054  1.00  0.00    -0.458 OA
BRANCH  37  38
ATOM     38  C   UNL     1       4.404  -0.044  -9.882  1.00  0.00     0.338 C 
ATOM     39  O   UNL     1       4.492   1.088 -10.326  1.00  0.00    -0.246 OA
BRANCH  38  40
ATOM     40  C   UNL     1       5.420  -0.608  -8.982  1.00  0.00     0.060 A 
ATOM     41  C   UNL     1       5.191  -0.519  -7.617  1.00  0.00     0.016 A 
ATOM     42  C   UNL     1       6.671  -0.993  -9.451  1.00  0.00     0.016 A 
ATOM     43  C   UNL     1       6.246  -0.624  -6.720  1.00  0.00     0.010 A 
ATOM     44  C   UNL     1       7.694  -1.268  -8.531  1.00  0.00     0.010 A 
ATOM     45  C   UNL     1       7.514  -1.029  -7.155  1.00  0.00    -0.014 A 
BRANCH  45  46
ATOM     46  C   UNL     1       8.627  -1.201  -6.171  1.00  0.00     0.031 A 
ATOM     47  C   UNL     1       9.961  -0.527  -6.387  1.00  0.00     0.074 A 
ATOM     48  C   UNL     1       8.449  -1.981  -5.081  1.00  0.00     0.049 A 
ATOM     49  N   UNL     1      11.085  -0.694  -5.736  1.00  0.00    -0.248 NA
ATOM     50  C   UNL     1      10.055   0.448  -7.487  1.00  0.00     0.031 C 
ATOM     51  C   UNL     1       7.215  -2.694  -4.738  1.00  0.00     0.029 A 
ATOM     52  N   UNL     1       9.313  -2.323  -4.066  1.00  0.00    -0.354 N 
ATOM     53  C   UNL     1      12.034   0.078  -6.399  1.00  0.00     0.074 A 
ATOM     54  C   UNL     1      11.351   0.732  -7.494  1.00  0.00     0.031 C 
ATOM     55  C   UNL     1       7.391  -3.368  -3.594  1.00  0.00     0.029 A 
ATOM     56  C   UNL     1       8.778  -3.227  -3.176  1.00  0.00     0.049 A 
ATOM     57  H   UNL     1      10.223  -1.958  -3.985  1.00  0.00     0.167 HD
ATOM     58  C   UNL     1      13.351   0.229  -6.120  1.00  0.00     0.034 A 
ATOM     59  C   UNL     1       9.344  -3.925  -2.172  1.00  0.00     0.034 A 
ATOM     60  C   UNL     1      14.010  -0.364  -4.986  1.00  0.00     0.049 A 
ATOM     61  C   UNL     1      10.802  -3.726  -1.881  1.00  0.00     0.074 A 
ATOM     62  C   UNL     1      15.324  -0.206  -4.578  1.00  0.00     0.029 A 
ATOM     63  N   UNL     1      13.414  -1.229  -4.082  1.00  0.00    -0.354 N 
ATOM     64  N   UNL     1      11.661  -2.935  -2.474  1.00  0.00    -0.248 NA
ATOM     65  C   UNL     1      11.367  -4.503  -0.769  1.00  0.00     0.031 C 
ATOM     66  C   UNL     1      15.533  -1.010  -3.453  1.00  0.00     0.029 A 
ATOM     67  C   UNL     1      14.337  -1.628  -3.130  1.00  0.00     0.049 A 
ATOM     68  H   UNL     1      12.473  -1.517  -4.113  1.00  0.00     0.167 HD
ATOM     69  C   UNL     1      12.859  -3.095  -1.791  1.00  0.00     0.074 A 
ATOM     70  C   UNL     1      12.607  -4.037  -0.721  1.00  0.00     0.031 C 
ATOM     71  C   UNL     1      14.063  -2.527  -2.039  1.00  0.00     0.034 A 
BRANCH  58  72
ATOM     72  C   UNL     1      14.191   1.068  -7.051  1.00  0.00     0.023 A 
ATOM     73  C   UNL     1      14.063   2.471  -7.058  1.00  0.00     0.012 A 
ATOM     74  C   UNL     1      15.183   0.461  -7.850  1.00  0.00     0.148 A 
ATOM     75  C   UNL     1      14.892   3.254  -7.864  1.00  0.00     0.002 A 
ATOM     76  C   UNL     1      16.036   1.250  -8.612  1.00  0.00     0.091 A 
ATOM     77  F   UNL     1      15.280  -0.876  -7.840  1.00  0.00    -0.205 F 
ATOM     78  C   UNL     1      15.884   2.646  -8.629  1.00  0.00     0.022 A 
BRANCH  76  79
ATOM     79  S   UNL     1      17.402   0.571  -9.560  1.00  0.00     0.127 S 
ATOM     80  O   UNL     1      16.979   0.853 -10.931  1.00  0.00    -0.237 OA
ATOM     81  O   UNL     1      18.530   1.377  -9.093  1.00  0.00    -0.237 OA
ATOM     82  O   UNL     1      17.475  -0.841  -9.212  1.00  0.00    -0.744 OA
ENDBRANCH  76  79
ENDBRANCH  58  72
BRANCH  59  83
ATOM     83  C   UNL     1       8.531  -4.900  -1.389  1.00  0.00     0.023 A 
ATOM     84  C   UNL     1       8.268  -4.660  -0.027  1.00  0.00     0.012 A 
ATOM     85  C   UNL     1       8.006  -6.060  -1.994  1.00  0.00     0.148 A 
ATOM     86  C   UNL     1       7.530  -5.575   0.726  1.00  0.00     0.002 A 
ATOM     87  C   UNL     1       7.215  -6.931  -1.256  1.00  0.00     0.091 A 
ATOM     88  F   UNL     1       8.280  -6.282  -3.288  1.00  0.00    -0.205 F 
ATOM     89  C   UNL     1       6.994  -6.702   0.110  1.00  0.00     0.022 A 
BRANCH  87  90
ATOM     90  S   UNL     1       6.367  -8.325  -2.006  1.00  0.00     0.127 S 
ATOM     91  O   UNL     1       7.131  -9.455  -1.484  1.00  0.00    -0.237 OA
ATOM     92  O   UNL     1       5.017  -8.188  -1.457  1.00  0.00    -0.237 OA
ATOM     93  O   UNL     1       6.453  -8.111  -3.444  1.00  0.00    -0.744 OA
ENDBRANCH  87  90
ENDBRANCH  59  83
BRANCH  71  94
ATOM     94  C   UNL     1      15.194  -2.861  -1.103  1.00  0.00     0.023 A 
ATOM     95  C   UNL     1      15.774  -4.145  -1.122  1.00  0.00     0.012 A 
ATOM     96  C   UNL     1      15.715  -1.878  -0.239  1.00  0.00     0.148 A 
ATOM     97  C   UNL     1      16.829  -4.457  -0.266  1.00  0.00     0.002 A 
ATOM     98  C   UNL     1      16.802  -2.180   0.571  1.00  0.00     0.091 A 
ATOM     99  F   UNL     1      15.136  -0.669  -0.222  1.00  0.00    -0.205 F 
ATOM    100  C   UNL     1      17.350  -3.473   0.571  1.00  0.00     0.022 A 
BRANCH  98 101
ATOM    101  S   UNL     1      17.602  -0.948   1.605  1.00  0.00     0.127 S 
ATOM    102  O   UNL     1      17.215  -1.388   2.944  1.00  0.00    -0.237 OA
ATOM    103  O   UNL     1      19.015  -1.145   1.282  1.00  0.00    -0.237 OA
ATOM    104  O   UNL     1      17.060   0.339   1.191  1.00  0.00    -0.744 OA
ENDBRANCH  98 101
ENDBRANCH  71  94
ENDBRANCH  45  46
ENDBRANCH  38  40
ENDBRANCH  37  38
ENDBRANCH  36  37
ENDBRANCH   1  36
TORSDOF 20
