REMARK SMILES C[C@H](Cc1ccco1)[NH2+]Cc1cc(C(=O)OCCOC(=O)c2ccc(-c3c4nc(c(-c5cccc(S(=O)(=O)[O-])c5F)c5ccc([nH]5)c(-c5cccc(S(=O)(=O)[O-])c5F)c5nc(c(-c6cccc(S(=O)(=O)[O-])c6F)c6ccc3[nH]6)C=C5)C=C4)cc2)cs1
REMARK SMILES IDX 17 1 16 2 14 3 15 4 13 5 11 6 12 7 86 8 85 9 10 10 9 11 2 14
REMARK SMILES IDX 1 15 3 16 4 17 5 18 8 19 6 20 7 21 18 22 19 23 20 24 21 25
REMARK SMILES IDX 22 26 23 27 84 28 24 29 83 30 25 31 26 32 27 33 77 34 28 35
REMARK SMILES IDX 82 36 76 37 78 38 29 39 81 40 75 41 74 42 30 44 62 45 42 46
REMARK SMILES IDX 61 47 43 48 46 49 60 50 79 51 44 52 45 53 59 55 80 56 47 57
REMARK SMILES IDX 31 58 32 59 40 60 33 61 35 62 41 63 34 64 36 65 37 66 38 67
REMARK SMILES IDX 39 68 63 69 64 70 72 71 65 72 67 73 73 74 66 75 68 76 69 77
REMARK SMILES IDX 70 78 71 79 48 80 49 81 57 82 50 83 52 84 58 85 51 86 53 87
REMARK SMILES IDX 54 88 55 89 56 90
REMARK H PARENT 9 12 9 13 78 43 46 54
REMARK Flexibility Score: inf
ROOT
ATOM      1  C   UNL     1       0.997   2.541  -8.502  1.00  0.00     0.275 C 
ENDROOT
BRANCH   1   2
ATOM      2  O   UNL     1       0.421   2.246  -7.215  1.00  0.00    -0.458 OA
BRANCH   2   3
ATOM      3  C   UNL     1      -0.575   1.308  -7.219  1.00  0.00     0.339 C 
ATOM      4  O   UNL     1      -0.990   0.749  -8.220  1.00  0.00    -0.246 OA
BRANCH   3   5
ATOM      5  C   UNL     1      -1.084   1.009  -5.879  1.00  0.00     0.071 A 
ATOM      6  C   UNL     1      -1.406   1.116  -3.550  1.00  0.00     0.060 A 
ATOM      7  C   UNL     1      -0.822   1.711  -4.654  1.00  0.00     0.037 A 
ATOM      8  S   UNL     1      -2.327  -0.257  -3.998  1.00  0.00    -0.142 S 
ATOM      9  C   UNL     1      -1.922  -0.067  -5.643  1.00  0.00     0.081 A 
BRANCH   6  10
ATOM     10  C   UNL     1      -1.337   1.534  -2.108  1.00  0.00     0.308 C 
BRANCH  10  11
ATOM     11  N   UNL     1      -0.667   0.557  -1.246  1.00  0.00    -0.339 N 
ATOM     12  H   UNL     1      -1.075   0.626  -0.314  1.00  0.00     0.346 HD
ATOM     13  H   UNL     1      -0.808  -0.353  -1.685  1.00  0.00     0.346 HD
BRANCH  11  14
ATOM     14  C   UNL     1       0.791   0.730  -1.120  1.00  0.00     0.187 C 
ATOM     15  C   UNL     1       1.562   0.404  -2.403  1.00  0.00     0.075 C 
BRANCH  14  16
ATOM     16  C   UNL     1       1.319  -0.075   0.095  1.00  0.00     0.140 C 
BRANCH  16  17
ATOM     17  C   UNL     1       1.493  -1.532  -0.148  1.00  0.00     0.109 A 
ATOM     18  C   UNL     1       0.708  -2.645   0.069  1.00  0.00     0.046 A 
ATOM     19  O   UNL     1       2.687  -1.907  -0.693  1.00  0.00    -0.469 OA
ATOM     20  C   UNL     1       1.455  -3.756  -0.393  1.00  0.00     0.042 A 
ATOM     21  C   UNL     1       2.648  -3.253  -0.853  1.00  0.00     0.195 A 
ENDBRANCH  16  17
ENDBRANCH  14  16
ENDBRANCH  11  14
ENDBRANCH  10  11
ENDBRANCH   6  10
ENDBRANCH   3   5
ENDBRANCH   2   3
ENDBRANCH   1   2
BRANCH   1  22
ATOM     22  C   UNL     1       2.310   1.788  -8.729  1.00  0.00     0.275 C 
BRANCH  22  23
ATOM     23  O   UNL     1       2.094   0.369  -8.816  1.00  0.00    -0.458 OA
BRANCH  23  24
ATOM     24  C   UNL     1       2.464  -0.344  -7.727  1.00  0.00     0.338 C 
ATOM     25  O   UNL     1       2.982   0.080  -6.708  1.00  0.00    -0.246 OA
BRANCH  24  26
ATOM     26  C   UNL     1       2.033  -1.741  -7.885  1.00  0.00     0.060 A 
ATOM     27  C   UNL     1       0.885  -2.147  -7.205  1.00  0.00     0.016 A 
ATOM     28  C   UNL     1       2.793  -2.664  -8.606  1.00  0.00     0.016 A 
ATOM     29  C   UNL     1       0.491  -3.482  -7.231  1.00  0.00     0.010 A 
ATOM     30  C   UNL     1       2.387  -4.005  -8.642  1.00  0.00     0.010 A 
ATOM     31  C   UNL     1       1.242  -4.428  -7.941  1.00  0.00    -0.014 A 
BRANCH  31  32
ATOM     32  C   UNL     1       0.846  -5.861  -7.900  1.00  0.00     0.031 A 
ATOM     33  C   UNL     1       1.703  -6.863  -7.175  1.00  0.00     0.074 A 
ATOM     34  C   UNL     1      -0.295  -6.263  -8.494  1.00  0.00     0.049 A 
ATOM     35  N   UNL     1       1.554  -8.159  -7.074  1.00  0.00    -0.248 NA
ATOM     36  C   UNL     1       2.886  -6.340  -6.474  1.00  0.00     0.031 C 
ATOM     37  C   UNL     1      -1.219  -5.391  -9.219  1.00  0.00     0.029 A 
ATOM     38  N   UNL     1      -0.867  -7.508  -8.589  1.00  0.00    -0.354 N 
ATOM     39  C   UNL     1       2.646  -8.614  -6.346  1.00  0.00     0.074 A 
ATOM     40  C   UNL     1       3.451  -7.453  -6.026  1.00  0.00     0.031 C 
ATOM     41  C   UNL     1      -2.244  -6.125  -9.681  1.00  0.00     0.029 A 
ATOM     42  C   UNL     1      -2.027  -7.526  -9.326  1.00  0.00     0.049 A 
ATOM     43  H   UNL     1      -0.482  -8.311  -8.169  1.00  0.00     0.167 HD
ATOM     44  C   UNL     1       2.946  -9.879  -5.965  1.00  0.00     0.034 A 
ATOM     45  C   UNL     1      -2.816  -8.554  -9.697  1.00  0.00     0.034 A 
ATOM     46  C   UNL     1       2.118 -11.025  -6.234  1.00  0.00     0.049 A 
ATOM     47  C   UNL     1      -2.461  -9.949  -9.259  1.00  0.00     0.074 A 
ATOM     48  C   UNL     1       2.317 -12.338  -5.845  1.00  0.00     0.029 A 
ATOM     49  N   UNL     1       0.935 -10.997  -6.955  1.00  0.00    -0.354 N 
ATOM     50  N   UNL     1      -1.469 -10.348  -8.499  1.00  0.00    -0.248 NA
ATOM     51  C   UNL     1      -3.342 -11.035  -9.713  1.00  0.00     0.031 C 
ATOM     52  C   UNL     1       1.259 -13.107  -6.344  1.00  0.00     0.029 A 
ATOM     53  C   UNL     1       0.395 -12.270  -7.030  1.00  0.00     0.049 A 
ATOM     54  H   UNL     1       0.537 -10.190  -7.355  1.00  0.00     0.167 HD
ATOM     55  C   UNL     1      -1.617 -11.724  -8.370  1.00  0.00     0.074 A 
ATOM     56  C   UNL     1      -2.812 -12.087  -9.104  1.00  0.00     0.031 C 
ATOM     57  C   UNL     1      -0.822 -12.611  -7.722  1.00  0.00     0.034 A 
BRANCH  44  58
ATOM     58  C   UNL     1       4.217 -10.091  -5.186  1.00  0.00     0.023 A 
ATOM     59  C   UNL     1       4.277  -9.709  -3.830  1.00  0.00     0.012 A 
ATOM     60  C   UNL     1       5.332 -10.717  -5.778  1.00  0.00     0.148 A 
ATOM     61  C   UNL     1       5.436  -9.921  -3.084  1.00  0.00     0.002 A 
ATOM     62  C   UNL     1       6.470 -10.960  -5.017  1.00  0.00     0.091 A 
ATOM     63  F   UNL     1       5.264 -11.051  -7.074  1.00  0.00    -0.205 F 
ATOM     64  C   UNL     1       6.527 -10.554  -3.674  1.00  0.00     0.022 A 
BRANCH  62  65
ATOM     65  S   UNL     1       7.897 -11.834  -5.669  1.00  0.00     0.127 S 
ATOM     66  O   UNL     1       8.851 -10.742  -5.858  1.00  0.00    -0.237 OA
ATOM     67  O   UNL     1       8.228 -12.749  -4.576  1.00  0.00    -0.237 OA
ATOM     68  O   UNL     1       7.441 -12.488  -6.888  1.00  0.00    -0.744 OA
ENDBRANCH  62  65
ENDBRANCH  44  58
BRANCH  45  69
ATOM     69  C   UNL     1      -4.039  -8.295 -10.510  1.00  0.00     0.023 A 
ATOM     70  C   UNL     1      -5.309  -8.477  -9.930  1.00  0.00     0.012 A 
ATOM     71  C   UNL     1      -3.950  -7.836 -11.839  1.00  0.00     0.148 A 
ATOM     72  C   UNL     1      -6.468  -8.225 -10.665  1.00  0.00     0.002 A 
ATOM     73  C   UNL     1      -5.107  -7.530 -12.546  1.00  0.00     0.091 A 
ATOM     74  F   UNL     1      -2.733  -7.696 -12.384  1.00  0.00    -0.205 F 
ATOM     75  C   UNL     1      -6.368  -7.739 -11.966  1.00  0.00     0.022 A 
BRANCH  73  76
ATOM     76  S   UNL     1      -5.061  -6.769 -14.172  1.00  0.00     0.127 S 
ATOM     77  O   UNL     1      -5.434  -7.886 -15.036  1.00  0.00    -0.237 OA
ATOM     78  O   UNL     1      -6.075  -5.721 -14.047  1.00  0.00    -0.237 OA
ATOM     79  O   UNL     1      -3.702  -6.269 -14.329  1.00  0.00    -0.744 OA
ENDBRANCH  73  76
ENDBRANCH  45  69
BRANCH  57  80
ATOM     80  C   UNL     1      -1.220 -14.063  -7.763  1.00  0.00     0.023 A 
ATOM     81  C   UNL     1      -1.033 -14.801  -8.949  1.00  0.00     0.012 A 
ATOM     82  C   UNL     1      -1.708 -14.714  -6.613  1.00  0.00     0.148 A 
ATOM     83  C   UNL     1      -1.352 -16.157  -8.999  1.00  0.00     0.002 A 
ATOM     84  C   UNL     1      -1.984 -16.077  -6.658  1.00  0.00     0.091 A 
ATOM     85  F   UNL     1      -1.898 -13.992  -5.500  1.00  0.00    -0.205 F 
ATOM     86  C   UNL     1      -1.816 -16.797  -7.852  1.00  0.00     0.022 A 
BRANCH  84  87
ATOM     87  S   UNL     1      -2.501 -17.000  -5.206  1.00  0.00     0.127 S 
ATOM     88  O   UNL     1      -3.925 -17.198  -5.470  1.00  0.00    -0.237 OA
ATOM     89  O   UNL     1      -1.688 -18.214  -5.301  1.00  0.00    -0.237 OA
ATOM     90  O   UNL     1      -2.186 -16.154  -4.063  1.00  0.00    -0.744 OA
ENDBRANCH  84  87
ENDBRANCH  57  80
ENDBRANCH  31  32
ENDBRANCH  24  26
ENDBRANCH  23  24
ENDBRANCH  22  23
ENDBRANCH   1  22
TORSDOF 19
