REMARK SMILES O=C(OCCOC(=O)c1cccc(S(=O)(=O)Nc2ccccc2N2CCOCC2)c1)c1ccc(-c2c3nc(c(-c4cccc(S(=O)(=O)[O-])c4F)c4ccc([nH]4)c(-c4cccc(S(=O)(=O)[O-])c4F)c4nc(c(-c5cccc(S(=O)(=O)[O-])c5F)c5ccc2[nH]5)C=C4)C=C3)cc1
REMARK SMILES IDX 5 1 4 2 3 3 2 4 1 5 31 6 32 7 93 8 33 9 92 10 34 11 35 12
REMARK SMILES IDX 36 13 86 14 37 15 91 16 85 17 87 18 38 19 90 20 84 21 83 22
REMARK SMILES IDX 39 24 71 25 51 26 70 27 52 28 55 29 69 30 88 31 53 32 54 33
REMARK SMILES IDX 68 35 89 36 56 37 40 38 41 39 49 40 42 41 44 42 50 43 43 44
REMARK SMILES IDX 45 45 46 46 47 47 48 48 72 49 73 50 81 51 74 52 76 53 82 54
REMARK SMILES IDX 75 55 77 56 78 57 79 58 80 59 57 60 58 61 66 62 59 63 61 64
REMARK SMILES IDX 67 65 60 66 62 67 63 68 64 69 65 70 6 71 7 72 8 73 9 74
REMARK SMILES IDX 10 75 30 76 11 77 13 78 12 79 14 80 15 81 16 82 17 83 18 85
REMARK SMILES IDX 19 86 23 87 20 88 22 89 21 90 24 91 25 92 29 93 26 94 28 95
REMARK SMILES IDX 27 96
REMARK H PARENT 87 23 55 34 17 84
REMARK Flexibility Score: inf
ROOT
ATOM      1  C   UNL     1       4.109  -0.488   1.623  1.00  0.00     0.275 C 
ENDROOT
BRANCH   1   2
ATOM      2  C   UNL     1       4.559   0.899   1.163  1.00  0.00     0.275 C 
BRANCH   2   3
ATOM      3  O   UNL     1       3.755   1.512   0.138  1.00  0.00    -0.458 OA
BRANCH   3   4
ATOM      4  C   UNL     1       3.741   1.323  -1.205  1.00  0.00     0.338 C 
ATOM      5  O   UNL     1       3.005   2.036  -1.885  1.00  0.00    -0.246 OA
BRANCH   4   6
ATOM      6  C   UNL     1       4.466   0.203  -1.896  1.00  0.00     0.060 A 
ATOM      7  C   UNL     1       5.659  -0.400  -1.481  1.00  0.00     0.016 A 
ATOM      8  C   UNL     1       3.853  -0.310  -3.048  1.00  0.00     0.016 A 
ATOM      9  C   UNL     1       6.178  -1.540  -2.128  1.00  0.00     0.010 A 
ATOM     10  C   UNL     1       4.350  -1.460  -3.677  1.00  0.00     0.010 A 
ATOM     11  C   UNL     1       5.530  -2.091  -3.230  1.00  0.00    -0.014 A 
BRANCH  11  12
ATOM     12  C   UNL     1       6.144  -3.143  -4.095  1.00  0.00     0.031 A 
ATOM     13  C   UNL     1       6.496  -2.728  -5.490  1.00  0.00     0.074 A 
ATOM     14  C   UNL     1       6.439  -4.417  -3.742  1.00  0.00     0.049 A 
ATOM     15  N   UNL     1       6.885  -3.474  -6.482  1.00  0.00    -0.248 NA
ATOM     16  C   UNL     1       6.490  -1.280  -5.785  1.00  0.00     0.031 C 
ATOM     17  C   UNL     1       6.436  -4.971  -2.396  1.00  0.00     0.029 A 
ATOM     18  N   UNL     1       6.667  -5.534  -4.540  1.00  0.00    -0.354 N 
ATOM     19  C   UNL     1       7.262  -2.593  -7.472  1.00  0.00     0.074 A 
ATOM     20  C   UNL     1       6.912  -1.262  -7.038  1.00  0.00     0.031 C 
ATOM     21  C   UNL     1       6.429  -6.319  -2.476  1.00  0.00     0.029 A 
ATOM     22  C   UNL     1       6.363  -6.714  -3.868  1.00  0.00     0.049 A 
ATOM     23  H   UNL     1       7.002  -5.495  -5.465  1.00  0.00     0.167 HD
ATOM     24  C   UNL     1       7.960  -2.873  -8.589  1.00  0.00     0.034 A 
ATOM     25  C   UNL     1       5.910  -7.901  -4.345  1.00  0.00     0.034 A 
ATOM     26  C   UNL     1       8.314  -4.199  -8.993  1.00  0.00     0.049 A 
ATOM     27  C   UNL     1       6.227  -8.189  -5.777  1.00  0.00     0.074 A 
ATOM     28  C   UNL     1       9.113  -4.596 -10.046  1.00  0.00     0.029 A 
ATOM     29  N   UNL     1       7.837  -5.349  -8.387  1.00  0.00    -0.354 N 
ATOM     30  N   UNL     1       6.722  -7.375  -6.671  1.00  0.00    -0.248 NA
ATOM     31  C   UNL     1       6.132  -9.590  -6.212  1.00  0.00     0.031 C 
ATOM     32  C   UNL     1       9.056  -5.991 -10.125  1.00  0.00     0.029 A 
ATOM     33  C   UNL     1       8.261  -6.459  -9.091  1.00  0.00     0.049 A 
ATOM     34  H   UNL     1       7.279  -5.372  -7.577  1.00  0.00     0.167 HD
ATOM     35  C   UNL     1       7.151  -8.181  -7.707  1.00  0.00     0.074 A 
ATOM     36  C   UNL     1       6.762  -9.537  -7.379  1.00  0.00     0.031 C 
ATOM     37  C   UNL     1       7.889  -7.815  -8.779  1.00  0.00     0.034 A 
BRANCH  24  38
ATOM     38  C   UNL     1       8.407  -1.707  -9.404  1.00  0.00     0.023 A 
ATOM     39  C   UNL     1       9.449  -0.878  -8.936  1.00  0.00     0.012 A 
ATOM     40  C   UNL     1       7.783  -1.433 -10.628  1.00  0.00     0.148 A 
ATOM     41  C   UNL     1       9.845   0.233  -9.674  1.00  0.00     0.002 A 
ATOM     42  C   UNL     1       8.212  -0.351 -11.377  1.00  0.00     0.091 A 
ATOM     43  F   UNL     1       6.773  -2.222 -11.019  1.00  0.00    -0.205 F 
ATOM     44  C   UNL     1       9.233   0.490 -10.898  1.00  0.00     0.022 A 
BRANCH  42  45
ATOM     45  S   UNL     1       7.525   0.029 -12.987  1.00  0.00     0.127 S 
ATOM     46  O   UNL     1       6.986   1.372 -12.768  1.00  0.00    -0.237 OA
ATOM     47  O   UNL     1       8.712  -0.023 -13.838  1.00  0.00    -0.237 OA
ATOM     48  O   UNL     1       6.526  -0.996 -13.256  1.00  0.00    -0.744 OA
ENDBRANCH  42  45
ENDBRANCH  24  38
BRANCH  25  49
ATOM     49  C   UNL     1       5.207  -8.951  -3.532  1.00  0.00     0.023 A 
ATOM     50  C   UNL     1       5.954  -9.906  -2.821  1.00  0.00     0.012 A 
ATOM     51  C   UNL     1       3.795  -9.099  -3.576  1.00  0.00     0.148 A 
ATOM     52  C   UNL     1       5.321 -10.974  -2.173  1.00  0.00     0.002 A 
ATOM     53  C   UNL     1       3.165 -10.124  -2.867  1.00  0.00     0.091 A 
ATOM     54  F   UNL     1       3.088  -8.275  -4.360  1.00  0.00    -0.205 F 
ATOM     55  C   UNL     1       3.932 -11.075  -2.182  1.00  0.00     0.022 A 
BRANCH  53  56
ATOM     56  S   UNL     1       1.375 -10.311  -2.729  1.00  0.00     0.127 S 
ATOM     57  O   UNL     1       1.177 -11.689  -3.179  1.00  0.00    -0.237 OA
ATOM     58  O   UNL     1       1.179 -10.104  -1.292  1.00  0.00    -0.237 OA
ATOM     59  O   UNL     1       0.783  -9.299  -3.588  1.00  0.00    -0.744 OA
ENDBRANCH  53  56
ENDBRANCH  25  49
BRANCH  37  60
ATOM     60  C   UNL     1       8.409  -8.903  -9.662  1.00  0.00     0.023 A 
ATOM     61  C   UNL     1       7.538  -9.601 -10.516  1.00  0.00     0.012 A 
ATOM     62  C   UNL     1       9.792  -9.171  -9.696  1.00  0.00     0.148 A 
ATOM     63  C   UNL     1       8.038 -10.566 -11.386  1.00  0.00     0.002 A 
ATOM     64  C   UNL     1      10.289 -10.085 -10.609  1.00  0.00     0.091 A 
ATOM     65  F   UNL     1      10.593  -8.511  -8.846  1.00  0.00    -0.205 F 
ATOM     66  C   UNL     1       9.412 -10.794 -11.446  1.00  0.00     0.022 A 
BRANCH  64  67
ATOM     67  S   UNL     1      12.048 -10.358 -10.837  1.00  0.00     0.127 S 
ATOM     68  O   UNL     1      12.187 -11.758 -10.439  1.00  0.00    -0.237 OA
ATOM     69  O   UNL     1      12.210 -10.111 -12.269  1.00  0.00    -0.237 OA
ATOM     70  O   UNL     1      12.726  -9.402  -9.973  1.00  0.00    -0.744 OA
ENDBRANCH  64  67
ENDBRANCH  37  60
ENDBRANCH  11  12
ENDBRANCH   4   6
ENDBRANCH   3   4
ENDBRANCH   2   3
ENDBRANCH   1   2
BRANCH   1  71
ATOM     71  O   UNL     1       3.727  -1.339   0.543  1.00  0.00    -0.458 OA
BRANCH  71  72
ATOM     72  C   UNL     1       2.418  -1.269   0.194  1.00  0.00     0.338 C 
ATOM     73  O   UNL     1       1.554  -0.619   0.758  1.00  0.00    -0.246 OA
BRANCH  72  74
ATOM     74  C   UNL     1       2.162  -2.076  -1.019  1.00  0.00     0.061 A 
ATOM     75  C   UNL     1       1.129  -1.692  -1.887  1.00  0.00     0.016 A 
ATOM     76  C   UNL     1       2.883  -3.244  -1.254  1.00  0.00     0.038 A 
ATOM     77  C   UNL     1       0.818  -2.483  -2.990  1.00  0.00     0.002 A 
ATOM     78  C   UNL     1       2.420  -4.123  -2.214  1.00  0.00     0.088 A 
ATOM     79  C   UNL     1       1.440  -3.717  -3.132  1.00  0.00     0.022 A 
BRANCH  78  80
ATOM     80  S   UNL     1       2.930  -5.800  -2.349  1.00  0.00     0.261 S 
ATOM     81  O   UNL     1       1.723  -6.579  -2.347  1.00  0.00    -0.201 OA
ATOM     82  O   UNL     1       3.746  -5.796  -3.541  1.00  0.00    -0.201 OA
BRANCH  80  83
ATOM     83  N   UNL     1       3.822  -6.408  -1.021  1.00  0.00    -0.278 N 
ATOM     84  H   UNL     1       4.298  -7.261  -1.141  1.00  0.00     0.180 HD
BRANCH  83  85
ATOM     85  C   UNL     1       3.923  -5.756   0.260  1.00  0.00     0.072 A 
ATOM     86  C   UNL     1       5.241  -5.588   0.735  1.00  0.00     0.029 A 
ATOM     87  C   UNL     1       2.833  -5.278   1.021  1.00  0.00     0.061 A 
ATOM     88  C   UNL     1       5.530  -4.789   1.836  1.00  0.00     0.002 A 
ATOM     89  C   UNL     1       3.164  -4.484   2.146  1.00  0.00     0.028 A 
ATOM     90  C   UNL     1       4.484  -4.212   2.530  1.00  0.00     0.002 A 
BRANCH  87  91
ATOM     91  N   UNL     1       1.507  -5.435   0.627  1.00  0.00    -0.365 N 
ATOM     92  C   UNL     1       0.921  -6.798   0.482  1.00  0.00     0.145 C 
ATOM     93  C   UNL     1       0.508  -4.420   0.998  1.00  0.00     0.145 C 
ATOM     94  C   UNL     1      -0.403  -6.772  -0.328  1.00  0.00     0.181 C 
ATOM     95  C   UNL     1      -0.664  -4.474   0.020  1.00  0.00     0.181 C 
ATOM     96  O   UNL     1      -1.312  -5.747   0.135  1.00  0.00    -0.378 OA
ENDBRANCH  87  91
ENDBRANCH  83  85
ENDBRANCH  80  83
ENDBRANCH  78  80
ENDBRANCH  72  74
ENDBRANCH  71  72
ENDBRANCH   1  71
TORSDOF 18
