REMARK SMILES O=C(CC1CC[NH+](C[C@@H]2Cc3ccccc32)CC1)OCCOC(=O)c1ccc(-c2c3nc(c(-c4cccc(S(=O)(=O)[O-])c4F)c4ccc([nH]4)c(-c4cccc(S(=O)(=O)[O-])c4F)c4nc(c(-c5cccc(S(=O)(=O)[O-])c5F)c5ccc2[nH]5)C=C4)C=C3)cc1
REMARK SMILES IDX 20 1 19 2 2 3 1 4 3 5 4 6 5 7 18 8 6 9 17 10 7 11 8 13 9 14
REMARK SMILES IDX 10 15 16 16 11 17 15 18 12 19 14 20 13 21 21 22 22 23 23 24
REMARK SMILES IDX 24 25 25 26 26 27 87 28 27 29 86 30 28 31 29 32 30 33 80 34
REMARK SMILES IDX 31 35 85 36 79 37 81 38 32 39 84 40 78 41 77 42 33 44 65 45
REMARK SMILES IDX 45 46 64 47 46 48 49 49 63 50 82 51 47 52 48 53 62 55 83 56
REMARK SMILES IDX 50 57 34 58 35 59 43 60 36 61 38 62 44 63 37 64 39 65 40 66
REMARK SMILES IDX 41 67 42 68 66 69 67 70 75 71 68 72 70 73 76 74 69 75 71 76
REMARK SMILES IDX 72 77 73 78 74 79 51 80 52 81 60 82 53 83 55 84 61 85 54 86
REMARK SMILES IDX 56 87 57 88 58 89 59 90
REMARK H PARENT 7 12 81 43 49 54
REMARK Flexibility Score: inf
ROOT
ATOM      1  C   UNL     1       2.978   1.350  -3.637  1.00  0.00     0.274 C 
ENDROOT
BRANCH   1   2
ATOM      2  O   UNL     1       2.480   2.656  -3.877  1.00  0.00    -0.462 OA
BRANCH   2   3
ATOM      3  C   UNL     1       2.983   3.191  -5.032  1.00  0.00     0.306 C 
ATOM      4  O   UNL     1       3.474   4.315  -5.065  1.00  0.00    -0.252 OA
BRANCH   3   5
ATOM      5  C   UNL     1       2.760   2.354  -6.290  1.00  0.00     0.126 C 
BRANCH   5   6
ATOM      6  C   UNL     1       3.891   1.420  -6.827  1.00  0.00     0.011 C 
ATOM      7  C   UNL     1       3.623  -0.095  -6.670  1.00  0.00     0.066 C 
ATOM      8  C   UNL     1       5.330   1.776  -6.449  1.00  0.00     0.066 C 
ATOM      9  C   UNL     1       4.517  -0.873  -5.672  1.00  0.00     0.262 C 
ATOM     10  C   UNL     1       5.983   0.999  -5.285  1.00  0.00     0.262 C 
ATOM     11  N   UNL     1       5.177  -0.053  -4.642  1.00  0.00    -0.334 N 
ATOM     12  H   UNL     1       4.456   0.397  -4.078  1.00  0.00     0.348 HD
BRANCH  11  13
ATOM     13  C   UNL     1       5.976  -0.877  -3.686  1.00  0.00     0.270 C 
BRANCH  13  14
ATOM     14  C   UNL     1       6.061  -0.488  -2.175  1.00  0.00     0.079 C 
ATOM     15  C   UNL     1       4.894  -0.889  -1.184  1.00  0.00     0.050 C 
ATOM     16  C   UNL     1       5.823   0.926  -1.701  1.00  0.00    -0.036 A 
ATOM     17  C   UNL     1       4.792   0.574  -0.860  1.00  0.00    -0.043 A 
ATOM     18  C   UNL     1       6.210   2.240  -1.833  1.00  0.00     0.004 A 
ATOM     19  C   UNL     1       4.039   1.511  -0.176  1.00  0.00     0.004 A 
ATOM     20  C   UNL     1       5.442   3.216  -1.186  1.00  0.00     0.000 A 
ATOM     21  C   UNL     1       4.349   2.856  -0.379  1.00  0.00     0.000 A 
ENDBRANCH  13  14
ENDBRANCH  11  13
ENDBRANCH   5   6
ENDBRANCH   3   5
ENDBRANCH   2   3
ENDBRANCH   1   2
BRANCH   1  22
ATOM     22  C   UNL     1       2.219   0.369  -2.762  1.00  0.00     0.275 C 
BRANCH  22  23
ATOM     23  O   UNL     1       0.865   0.336  -3.135  1.00  0.00    -0.458 OA
BRANCH  23  24
ATOM     24  C   UNL     1       0.230   1.392  -2.583  1.00  0.00     0.338 C 
ATOM     25  O   UNL     1       0.488   1.976  -1.549  1.00  0.00    -0.246 OA
BRANCH  24  26
ATOM     26  C   UNL     1      -0.630   1.889  -3.644  1.00  0.00     0.060 A 
ATOM     27  C   UNL     1      -0.631   3.268  -3.853  1.00  0.00     0.016 A 
ATOM     28  C   UNL     1      -1.378   0.996  -4.420  1.00  0.00     0.016 A 
ATOM     29  C   UNL     1      -1.528   3.784  -4.753  1.00  0.00     0.010 A 
ATOM     30  C   UNL     1      -2.262   1.512  -5.339  1.00  0.00     0.010 A 
ATOM     31  C   UNL     1      -2.390   2.902  -5.419  1.00  0.00    -0.014 A 
BRANCH  31  32
ATOM     32  C   UNL     1      -3.602   3.471  -5.994  1.00  0.00     0.031 A 
ATOM     33  C   UNL     1      -4.854   3.398  -5.177  1.00  0.00     0.074 A 
ATOM     34  C   UNL     1      -3.498   4.104  -7.167  1.00  0.00     0.049 A 
ATOM     35  N   UNL     1      -6.027   3.900  -5.433  1.00  0.00    -0.248 NA
ATOM     36  C   UNL     1      -4.782   2.662  -3.897  1.00  0.00     0.031 C 
ATOM     37  C   UNL     1      -2.277   4.188  -7.972  1.00  0.00     0.029 A 
ATOM     38  N   UNL     1      -4.429   4.794  -7.875  1.00  0.00    -0.354 N 
ATOM     39  C   UNL     1      -6.831   3.534  -4.361  1.00  0.00     0.074 A 
ATOM     40  C   UNL     1      -6.030   2.738  -3.464  1.00  0.00     0.031 C 
ATOM     41  C   UNL     1      -2.543   4.890  -9.083  1.00  0.00     0.029 A 
ATOM     42  C   UNL     1      -3.949   5.272  -9.066  1.00  0.00     0.049 A 
ATOM     43  H   UNL     1      -5.353   4.936  -7.566  1.00  0.00     0.167 HD
ATOM     44  C   UNL     1      -8.123   3.864  -4.147  1.00  0.00     0.034 A 
ATOM     45  C   UNL     1      -4.607   5.930 -10.034  1.00  0.00     0.034 A 
ATOM     46  C   UNL     1      -8.872   4.663  -5.076  1.00  0.00     0.049 A 
ATOM     47  C   UNL     1      -6.043   6.275  -9.771  1.00  0.00     0.074 A 
ATOM     48  C   UNL     1     -10.186   5.078  -4.999  1.00  0.00     0.029 A 
ATOM     49  N   UNL     1      -8.357   5.162  -6.267  1.00  0.00    -0.354 N 
ATOM     50  N   UNL     1      -6.783   5.990  -8.723  1.00  0.00    -0.248 NA
ATOM     51  C   UNL     1      -6.724   7.068 -10.797  1.00  0.00     0.031 C 
ATOM     52  C   UNL     1     -10.473   5.803  -6.161  1.00  0.00     0.029 A 
ATOM     53  C   UNL     1      -9.327   5.877  -6.941  1.00  0.00     0.049 A 
ATOM     54  H   UNL     1      -7.434   5.026  -6.583  1.00  0.00     0.167 HD
ATOM     55  C   UNL     1      -8.013   6.587  -8.949  1.00  0.00     0.074 A 
ATOM     56  C   UNL     1      -7.899   7.282 -10.221  1.00  0.00     0.031 C 
ATOM     57  C   UNL     1      -9.144   6.559  -8.198  1.00  0.00     0.034 A 
BRANCH  44  58
ATOM     58  C   UNL     1      -8.775   3.370  -2.884  1.00  0.00     0.023 A 
ATOM     59  C   UNL     1      -8.387   3.902  -1.635  1.00  0.00     0.012 A 
ATOM     60  C   UNL     1      -9.785   2.391  -2.929  1.00  0.00     0.148 A 
ATOM     61  C   UNL     1      -8.974   3.449  -0.453  1.00  0.00     0.002 A 
ATOM     62  C   UNL     1     -10.398   1.976  -1.752  1.00  0.00     0.091 A 
ATOM     63  F   UNL     1     -10.117   1.871  -4.119  1.00  0.00    -0.205 F 
ATOM     64  C   UNL     1      -9.986   2.495  -0.513  1.00  0.00     0.022 A 
BRANCH  62  65
ATOM     65  S   UNL     1     -11.757   0.802  -1.724  1.00  0.00     0.127 S 
ATOM     66  O   UNL     1     -11.161  -0.324  -1.007  1.00  0.00    -0.237 OA
ATOM     67  O   UNL     1     -12.776   1.534  -0.972  1.00  0.00    -0.237 OA
ATOM     68  O   UNL     1     -12.094   0.541  -3.116  1.00  0.00    -0.744 OA
ENDBRANCH  62  65
ENDBRANCH  44  58
BRANCH  45  69
ATOM     69  C   UNL     1      -3.897   6.298 -11.284  1.00  0.00     0.023 A 
ATOM     70  C   UNL     1      -3.632   7.646 -11.579  1.00  0.00     0.012 A 
ATOM     71  C   UNL     1      -3.427   5.296 -12.158  1.00  0.00     0.148 A 
ATOM     72  C   UNL     1      -2.942   7.994 -12.742  1.00  0.00     0.002 A 
ATOM     73  C   UNL     1      -2.690   5.644 -13.280  1.00  0.00     0.091 A 
ATOM     74  F   UNL     1      -3.694   4.016 -11.859  1.00  0.00    -0.205 F 
ATOM     75  C   UNL     1      -2.462   6.994 -13.586  1.00  0.00     0.022 A 
BRANCH  73  76
ATOM     76  S   UNL     1      -1.916   4.412 -14.333  1.00  0.00     0.127 S 
ATOM     77  O   UNL     1      -2.760   4.464 -15.523  1.00  0.00    -0.237 OA
ATOM     78  O   UNL     1      -0.571   4.961 -14.506  1.00  0.00    -0.237 OA
ATOM     79  O   UNL     1      -1.959   3.167 -13.577  1.00  0.00    -0.744 OA
ENDBRANCH  73  76
ENDBRANCH  45  69
BRANCH  57  80
ATOM     80  C   UNL     1     -10.322   7.315  -8.745  1.00  0.00     0.023 A 
ATOM     81  C   UNL     1     -10.994   6.835  -9.886  1.00  0.00     0.012 A 
ATOM     82  C   UNL     1     -10.775   8.484  -8.107  1.00  0.00     0.148 A 
ATOM     83  C   UNL     1     -12.066   7.544 -10.421  1.00  0.00     0.002 A 
ATOM     84  C   UNL     1     -11.883   9.150  -8.609  1.00  0.00     0.091 A 
ATOM     85  F   UNL     1     -10.109   8.929  -7.031  1.00  0.00    -0.205 F 
ATOM     86  C   UNL     1     -12.516   8.694  -9.777  1.00  0.00     0.022 A 
BRANCH  84  87
ATOM     87  S   UNL     1     -12.596  10.575  -7.784  1.00  0.00     0.127 S 
ATOM     88  O   UNL     1     -12.179  11.666  -8.663  1.00  0.00    -0.237 OA
ATOM     89  O   UNL     1     -14.027  10.270  -7.823  1.00  0.00    -0.237 OA
ATOM     90  O   UNL     1     -12.020  10.592  -6.446  1.00  0.00    -0.744 OA
ENDBRANCH  84  87
ENDBRANCH  57  80
ENDBRANCH  31  32
ENDBRANCH  24  26
ENDBRANCH  23  24
ENDBRANCH  22  23
ENDBRANCH   1  22
TORSDOF 17
