REMARK SMILES C[C@@H]1CC[C@H](C)[N@H+]1Cc1cc2c(cc1Cl)C=C(C(=O)OCCOC(=O)c1ccc(-c3c4nc(c(-c5cccc(S(=O)(=O)[O-])c5F)c5ccc([nH]5)c(-c5cccc(S(=O)(=O)[O-])c5F)c5nc(c(-c6cccc(S(=O)(=O)[O-])c6F)c6ccc3[nH]6)C=C5)C=C4)cc1)[C@@H](C(F)(F)F)O2
REMARK SMILES IDX 22 1 21 2 20 3 18 4 19 5 17 6 9 7 10 8 14 9 11 10 13 11
REMARK SMILES IDX 15 12 12 13 94 14 16 15 89 16 8 17 7 18 6 19 5 20 4 21 3 22
REMARK SMILES IDX 2 23 1 25 90 26 91 27 92 28 93 29 23 30 24 31 25 32 26 33
REMARK SMILES IDX 27 34 88 35 28 36 87 37 29 38 30 39 31 40 81 41 32 42 86 43
REMARK SMILES IDX 80 44 82 45 33 46 85 47 79 48 78 49 34 51 66 52 46 53 65 54
REMARK SMILES IDX 47 55 50 56 64 57 83 58 48 59 49 60 63 62 84 63 51 64 35 65
REMARK SMILES IDX 36 66 44 67 37 68 39 69 45 70 38 71 40 72 41 73 42 74 43 75
REMARK SMILES IDX 67 76 68 77 76 78 69 79 71 80 77 81 70 82 72 83 73 84 74 85
REMARK SMILES IDX 75 86 52 87 53 88 61 89 54 90 56 91 62 92 55 93 57 94 58 95
REMARK SMILES IDX 59 96 60 97
REMARK H PARENT 7 24 82 50 50 61
REMARK Flexibility Score: inf
ROOT
ATOM      1  C   UNL     1      -9.411  -2.422   4.561  1.00  0.00     0.275 C 
ENDROOT
BRANCH   1   2
ATOM      2  C   UNL     1      -9.046  -0.992   4.962  1.00  0.00     0.275 C 
BRANCH   2   3
ATOM      3  O   UNL     1      -7.763  -0.590   4.429  1.00  0.00    -0.459 OA
BRANCH   3   4
ATOM      4  C   UNL     1      -6.739  -0.689   5.306  1.00  0.00     0.338 C 
ATOM      5  O   UNL     1      -6.824  -1.047   6.472  1.00  0.00    -0.246 OA
BRANCH   4   6
ATOM      6  C   UNL     1      -5.449  -0.345   4.684  1.00  0.00     0.087 C 
ATOM      7  C   UNL     1      -0.487  -0.053   3.873  1.00  0.00     0.029 A 
ATOM      8  C   UNL     1      -1.610   0.634   3.340  1.00  0.00     0.058 A 
ATOM      9  C   UNL     1      -0.712  -0.987   4.896  1.00  0.00     0.050 A 
ATOM     10  C   UNL     1      -2.908   0.327   3.755  1.00  0.00     0.128 A 
ATOM     11  C   UNL     1      -2.006  -1.374   5.219  1.00  0.00     0.033 A 
ATOM     12  Cl  UNL     1       0.537  -1.620   5.906  1.00  0.00    -0.084 Cl
ATOM     13  C   UNL     1      -3.095  -0.729   4.635  1.00  0.00     0.019 A 
ATOM     14  O   UNL     1      -3.957   1.059   3.256  1.00  0.00    -0.475 OA
ATOM     15  C   UNL     1      -4.426  -1.143   4.998  1.00  0.00     0.027 C 
ATOM     16  C   UNL     1      -5.246   0.950   3.953  1.00  0.00     0.316 C 
BRANCH   7  17
ATOM     17  C   UNL     1       0.896   0.223   3.310  1.00  0.00     0.301 C 
BRANCH  17  18
ATOM     18  N   UNL     1       1.379  -0.672   2.244  1.00  0.00    -0.327 N 
ATOM     19  C   UNL     1       0.939   0.233  -0.007  1.00  0.00     0.075 C 
ATOM     20  C   UNL     1       0.533  -0.787   1.047  1.00  0.00     0.181 C 
ATOM     21  C   UNL     1       0.728  -2.219   0.551  1.00  0.00     0.071 C 
ATOM     22  C   UNL     1       0.964  -2.985   1.834  1.00  0.00     0.071 C 
ATOM     23  C   UNL     1       1.797  -2.019   2.666  1.00  0.00     0.181 C 
ATOM     24  H   UNL     1       2.215  -0.151   1.979  1.00  0.00     0.348 HD
ATOM     25  C   UNL     1       3.295  -2.184   2.409  1.00  0.00     0.075 C 
ENDBRANCH  17  18
ENDBRANCH   7  17
BRANCH  16  26
ATOM     26  C   UNL     1      -5.446   2.139   4.909  1.00  0.00     0.430 C 
ATOM     27  F   UNL     1      -5.266   3.323   4.277  1.00  0.00    -0.167 F 
ATOM     28  F   UNL     1      -6.709   2.159   5.405  1.00  0.00    -0.167 F 
ATOM     29  F   UNL     1      -4.601   2.108   5.963  1.00  0.00    -0.167 F 
ENDBRANCH  16  26
ENDBRANCH   4   6
ENDBRANCH   3   4
ENDBRANCH   2   3
ENDBRANCH   1   2
BRANCH   1  30
ATOM     30  O   UNL     1      -8.533  -3.378   5.185  1.00  0.00    -0.458 OA
BRANCH  30  31
ATOM     31  C   UNL     1      -7.646  -3.971   4.353  1.00  0.00     0.338 C 
ATOM     32  O   UNL     1      -7.520  -3.779   3.155  1.00  0.00    -0.246 OA
BRANCH  31  33
ATOM     33  C   UNL     1      -6.771  -4.886   5.104  1.00  0.00     0.060 A 
ATOM     34  C   UNL     1      -6.785  -6.253   4.853  1.00  0.00     0.016 A 
ATOM     35  C   UNL     1      -5.792  -4.345   5.928  1.00  0.00     0.016 A 
ATOM     36  C   UNL     1      -5.803  -7.065   5.435  1.00  0.00     0.010 A 
ATOM     37  C   UNL     1      -4.720  -5.126   6.358  1.00  0.00     0.010 A 
ATOM     38  C   UNL     1      -4.720  -6.509   6.151  1.00  0.00    -0.014 A 
BRANCH  38  39
ATOM     39  C   UNL     1      -3.611  -7.373   6.665  1.00  0.00     0.031 A 
ATOM     40  C   UNL     1      -3.175  -7.330   8.116  1.00  0.00     0.074 A 
ATOM     41  C   UNL     1      -2.957  -8.195   5.815  1.00  0.00     0.049 A 
ATOM     42  N   UNL     1      -2.279  -8.068   8.723  1.00  0.00    -0.248 NA
ATOM     43  C   UNL     1      -3.779  -6.310   8.991  1.00  0.00     0.031 C 
ATOM     44  C   UNL     1      -3.148  -8.240   4.362  1.00  0.00     0.029 A 
ATOM     45  N   UNL     1      -2.013  -9.168   6.047  1.00  0.00    -0.354 N 
ATOM     46  C   UNL     1      -2.183  -7.572  10.019  1.00  0.00     0.074 A 
ATOM     47  C   UNL     1      -3.069  -6.436  10.103  1.00  0.00     0.031 C 
ATOM     48  C   UNL     1      -2.415  -9.239   3.848  1.00  0.00     0.029 A 
ATOM     49  C   UNL     1      -1.682  -9.896   4.925  1.00  0.00     0.049 A 
ATOM     50  H   UNL     1      -1.611  -9.329   6.931  1.00  0.00     0.167 HD
ATOM     51  C   UNL     1      -1.474  -8.049  11.069  1.00  0.00     0.034 A 
ATOM     52  C   UNL     1      -0.909 -10.992   4.778  1.00  0.00     0.034 A 
ATOM     53  C   UNL     1      -0.688  -9.249  11.030  1.00  0.00     0.049 A 
ATOM     54  C   UNL     1      -0.266 -11.607   5.989  1.00  0.00     0.074 A 
ATOM     55  C   UNL     1      -0.031  -9.878  12.073  1.00  0.00     0.029 A 
ATOM     56  N   UNL     1      -0.480 -10.018   9.899  1.00  0.00    -0.354 N 
ATOM     57  N   UNL     1      -0.317 -11.206   7.235  1.00  0.00    -0.248 NA
ATOM     58  C   UNL     1       0.510 -12.840   5.785  1.00  0.00     0.031 C 
ATOM     59  C   UNL     1       0.560 -11.041  11.574  1.00  0.00     0.029 A 
ATOM     60  C   UNL     1       0.275 -11.130  10.221  1.00  0.00     0.049 A 
ATOM     61  H   UNL     1      -0.819  -9.805   8.999  1.00  0.00     0.167 HD
ATOM     62  C   UNL     1       0.403 -12.142   7.966  1.00  0.00     0.074 A 
ATOM     63  C   UNL     1       0.865 -13.144   7.029  1.00  0.00     0.031 C 
ATOM     64  C   UNL     1       0.672 -12.153   9.293  1.00  0.00     0.034 A 
BRANCH  51  65
ATOM     65  C   UNL     1      -1.616  -7.354  12.398  1.00  0.00     0.023 A 
ATOM     66  C   UNL     1      -2.792  -7.561  13.147  1.00  0.00     0.012 A 
ATOM     67  C   UNL     1      -0.565  -6.597  12.950  1.00  0.00     0.148 A 
ATOM     68  C   UNL     1      -2.931  -7.009  14.418  1.00  0.00     0.002 A 
ATOM     69  C   UNL     1      -0.698  -6.077  14.233  1.00  0.00     0.091 A 
ATOM     70  F   UNL     1       0.542  -6.412  12.219  1.00  0.00    -0.205 F 
ATOM     71  C   UNL     1      -1.882  -6.276  14.964  1.00  0.00     0.022 A 
BRANCH  69  72
ATOM     72  S   UNL     1       0.612  -5.170  15.064  1.00  0.00     0.127 S 
ATOM     73  O   UNL     1      -0.005  -3.856  15.243  1.00  0.00    -0.237 OA
ATOM     74  O   UNL     1       0.779  -5.938  16.298  1.00  0.00    -0.237 OA
ATOM     75  O   UNL     1       1.756  -5.196  14.164  1.00  0.00    -0.744 OA
ENDBRANCH  69  72
ENDBRANCH  51  65
BRANCH  52  76
ATOM     76  C   UNL     1      -0.825 -11.648   3.443  1.00  0.00     0.023 A 
ATOM     77  C   UNL     1      -1.574 -12.818   3.210  1.00  0.00     0.012 A 
ATOM     78  C   UNL     1      -0.088 -11.079   2.388  1.00  0.00     0.148 A 
ATOM     79  C   UNL     1      -1.584 -13.417   1.950  1.00  0.00     0.002 A 
ATOM     80  C   UNL     1      -0.136 -11.658   1.124  1.00  0.00     0.091 A 
ATOM     81  F   UNL     1       0.620  -9.970   2.636  1.00  0.00    -0.205 F 
ATOM     82  C   UNL     1      -0.875 -12.831   0.905  1.00  0.00     0.022 A 
BRANCH  80  83
ATOM     83  S   UNL     1       0.647 -10.913  -0.311  1.00  0.00     0.127 S 
ATOM     84  O   UNL     1       1.711 -11.871  -0.602  1.00  0.00    -0.237 OA
ATOM     85  O   UNL     1      -0.450 -10.898  -1.279  1.00  0.00    -0.237 OA
ATOM     86  O   UNL     1       1.088  -9.594   0.120  1.00  0.00    -0.744 OA
ENDBRANCH  80  83
ENDBRANCH  52  76
BRANCH  64  87
ATOM     87  C   UNL     1       1.494 -13.280   9.848  1.00  0.00     0.023 A 
ATOM     88  C   UNL     1       2.896 -13.220   9.742  1.00  0.00     0.012 A 
ATOM     89  C   UNL     1       0.893 -14.295  10.617  1.00  0.00     0.148 A 
ATOM     90  C   UNL     1       3.693 -14.155  10.398  1.00  0.00     0.002 A 
ATOM     91  C   UNL     1       1.695 -15.207  11.293  1.00  0.00     0.091 A 
ATOM     92  F   UNL     1      -0.445 -14.327  10.696  1.00  0.00    -0.205 F 
ATOM     93  C   UNL     1       3.094 -15.139  11.183  1.00  0.00     0.022 A 
BRANCH  91  94
ATOM     94  S   UNL     1       1.025 -16.461  12.390  1.00  0.00     0.127 S 
ATOM     95  O   UNL     1       1.398 -17.693  11.696  1.00  0.00    -0.237 OA
ATOM     96  O   UNL     1       1.760 -16.211  13.629  1.00  0.00    -0.237 OA
ATOM     97  O   UNL     1      -0.408 -16.209  12.469  1.00  0.00    -0.744 OA
ENDBRANCH  91  94
ENDBRANCH  64  87
ENDBRANCH  38  39
ENDBRANCH  31  33
ENDBRANCH  30  31
ENDBRANCH   1  30
TORSDOF 17
