REMARK SMILES C[NH+](C)CCNC(=O)NC1(CC(=O)OCCOC(=O)c2ccc(-c3c4nc(c(-c5cccc(S(=O)(=O)[O-])c5F)c5ccc([nH]5)c(-c5cccc(S(=O)(=O)[O-])c5F)c5nc(c(-c6cccc(S(=O)(=O)[O-])c6F)c6ccc3[nH]6)C=C5)C=C4)cc2)CCC1
REMARK SMILES IDX 15 1 14 2 12 3 13 4 11 5 10 6 83 7 85 8 84 9 9 10 6 11 7 12
REMARK SMILES IDX 8 14 5 16 4 17 2 18 1 19 3 20 16 22 17 23 18 24 19 25 20 26
REMARK SMILES IDX 21 27 82 28 22 29 81 30 23 31 24 32 25 33 75 34 26 35 80 36
REMARK SMILES IDX 74 37 76 38 27 39 79 40 73 41 72 42 28 44 60 45 40 46 59 47
REMARK SMILES IDX 41 48 44 49 58 50 77 51 42 52 43 53 57 55 78 56 45 57 29 58
REMARK SMILES IDX 30 59 38 60 31 61 33 62 39 63 32 64 34 65 35 66 36 67 37 68
REMARK SMILES IDX 61 69 62 70 70 71 63 72 65 73 71 74 64 75 66 76 67 77 68 78
REMARK SMILES IDX 69 79 46 80 47 81 55 82 48 83 50 84 56 85 49 86 51 87 52 88
REMARK SMILES IDX 53 89 54 90
REMARK H PARENT 6 13 9 15 2 21 76 43 44 54
REMARK Flexibility Score: inf
ROOT
ATOM      1  C   UNL     1      -0.963  -1.301   2.041  1.00  0.00     0.274 C 
ENDROOT
BRANCH   1   2
ATOM      2  O   UNL     1      -0.127  -0.642   3.027  1.00  0.00    -0.462 OA
BRANCH   2   3
ATOM      3  C   UNL     1      -0.807   0.052   3.964  1.00  0.00     0.308 C 
ATOM      4  O   UNL     1      -2.035   0.072   4.020  1.00  0.00    -0.252 OA
BRANCH   3   5
ATOM      5  C   UNL     1       0.013   0.731   5.027  1.00  0.00     0.151 C 
BRANCH   5   6
ATOM      6  C   UNL     1       1.472   1.209   4.893  1.00  0.00     0.052 C 
ATOM      7  C   UNL     1       2.012   1.476   6.370  1.00  0.00     0.029 C 
ATOM      8  C   UNL     1       1.842   2.732   4.673  1.00  0.00     0.029 C 
ATOM      9  C   UNL     1       1.680   2.962   6.181  1.00  0.00     0.005 C 
BRANCH   6  10
ATOM     10  N   UNL     1       2.385   0.254   4.235  1.00  0.00    -0.332 N 
ATOM     11  N   UNL     1       2.621   0.986   1.994  1.00  0.00    -0.332 N 
ATOM     12  C   UNL     1       3.055   0.310   3.067  1.00  0.00     0.315 C 
ATOM     13  H   UNL     1       3.308   1.097   1.298  1.00  0.00     0.165 HD
ATOM     14  O   UNL     1       4.136  -0.275   2.985  1.00  0.00    -0.249 OA
ATOM     15  H   UNL     1       2.530  -0.577   4.742  1.00  0.00     0.165 HD
BRANCH  11  16
ATOM     16  C   UNL     1       1.349   1.585   1.651  1.00  0.00     0.179 C 
BRANCH  16  17
ATOM     17  C   UNL     1       1.465   2.603   0.500  1.00  0.00     0.283 C 
BRANCH  17  18
ATOM     18  N   UNL     1       0.819   2.223  -0.771  1.00  0.00    -0.338 N 
ATOM     19  C   UNL     1       1.308   0.941  -1.280  1.00  0.00     0.332 C 
ATOM     20  C   UNL     1      -0.639   2.224  -0.663  1.00  0.00     0.332 C 
ATOM     21  H   UNL     1       1.079   2.937  -1.451  1.00  0.00     0.347 HD
ENDBRANCH  17  18
ENDBRANCH  16  17
ENDBRANCH  11  16
ENDBRANCH   6  10
ENDBRANCH   5   6
ENDBRANCH   3   5
ENDBRANCH   2   3
ENDBRANCH   1   2
BRANCH   1  22
ATOM     22  C   UNL     1      -0.159  -2.343   1.268  1.00  0.00     0.275 C 
BRANCH  22  23
ATOM     23  O   UNL     1       0.224  -3.358   2.200  1.00  0.00    -0.458 OA
BRANCH  23  24
ATOM     24  C   UNL     1       1.479  -3.219   2.683  1.00  0.00     0.338 C 
ATOM     25  O   UNL     1       2.390  -2.566   2.222  1.00  0.00    -0.246 OA
BRANCH  24  26
ATOM     26  C   UNL     1       1.518  -3.924   3.962  1.00  0.00     0.060 A 
ATOM     27  C   UNL     1       1.085  -3.265   5.120  1.00  0.00     0.016 A 
ATOM     28  C   UNL     1       1.953  -5.244   3.989  1.00  0.00     0.016 A 
ATOM     29  C   UNL     1       1.086  -3.944   6.333  1.00  0.00     0.010 A 
ATOM     30  C   UNL     1       1.923  -5.929   5.196  1.00  0.00     0.010 A 
ATOM     31  C   UNL     1       1.489  -5.285   6.369  1.00  0.00    -0.014 A 
BRANCH  31  32
ATOM     32  C   UNL     1       1.419  -6.074   7.615  1.00  0.00     0.031 A 
ATOM     33  C   UNL     1       2.688  -6.536   8.262  1.00  0.00     0.074 A 
ATOM     34  C   UNL     1       0.210  -6.474   8.051  1.00  0.00     0.049 A 
ATOM     35  N   UNL     1       2.854  -7.406   9.220  1.00  0.00    -0.248 NA
ATOM     36  C   UNL     1       3.940  -5.962   7.742  1.00  0.00     0.031 C 
ATOM     37  C   UNL     1      -1.070  -6.092   7.449  1.00  0.00     0.029 A 
ATOM     38  N   UNL     1      -0.139  -7.331   9.060  1.00  0.00    -0.354 N 
ATOM     39  C   UNL     1       4.229  -7.528   9.383  1.00  0.00     0.074 A 
ATOM     40  C   UNL     1       4.852  -6.637   8.428  1.00  0.00     0.031 C 
ATOM     41  C   UNL     1      -2.063  -6.737   8.079  1.00  0.00     0.029 A 
ATOM     42  C   UNL     1      -1.486  -7.610   9.093  1.00  0.00     0.049 A 
ATOM     43  H   UNL     1       0.508  -7.710   9.698  1.00  0.00     0.167 HD
ATOM     44  C   UNL     1       4.902  -8.315  10.255  1.00  0.00     0.034 A 
ATOM     45  C   UNL     1      -2.169  -8.502   9.834  1.00  0.00     0.034 A 
ATOM     46  C   UNL     1       4.247  -9.178  11.202  1.00  0.00     0.049 A 
ATOM     47  C   UNL     1      -1.400  -9.339  10.816  1.00  0.00     0.074 A 
ATOM     48  C   UNL     1       4.812  -9.982  12.175  1.00  0.00     0.029 A 
ATOM     49  N   UNL     1       2.871  -9.354  11.285  1.00  0.00    -0.354 N 
ATOM     50  N   UNL     1      -0.107  -9.364  11.040  1.00  0.00    -0.248 NA
ATOM     51  C   UNL     1      -2.178 -10.247  11.668  1.00  0.00     0.031 C 
ATOM     52  C   UNL     1       3.778 -10.658  12.833  1.00  0.00     0.029 A 
ATOM     53  C   UNL     1       2.567 -10.256  12.289  1.00  0.00     0.049 A 
ATOM     54  H   UNL     1       2.209  -8.903  10.713  1.00  0.00     0.167 HD
ATOM     55  C   UNL     1       0.084 -10.267  12.077  1.00  0.00     0.074 A 
ATOM     56  C   UNL     1      -1.233 -10.749  12.451  1.00  0.00     0.031 C 
ATOM     57  C   UNL     1       1.238 -10.676  12.659  1.00  0.00     0.034 A 
BRANCH  44  58
ATOM     58  C   UNL     1       6.408  -8.261  10.235  1.00  0.00     0.023 A 
ATOM     59  C   UNL     1       7.072  -7.111  10.711  1.00  0.00     0.012 A 
ATOM     60  C   UNL     1       7.170  -9.354   9.776  1.00  0.00     0.148 A 
ATOM     61  C   UNL     1       8.465  -7.035  10.696  1.00  0.00     0.002 A 
ATOM     62  C   UNL     1       8.559  -9.287   9.803  1.00  0.00     0.091 A 
ATOM     63  F   UNL     1       6.524 -10.431   9.307  1.00  0.00    -0.205 F 
ATOM     64  C   UNL     1       9.208  -8.125  10.250  1.00  0.00     0.022 A 
BRANCH  62  65
ATOM     65  S   UNL     1       9.609 -10.662   9.316  1.00  0.00     0.127 S 
ATOM     66  O   UNL     1      10.199 -10.159   8.076  1.00  0.00    -0.237 OA
ATOM     67  O   UNL     1      10.540 -10.751  10.442  1.00  0.00    -0.237 OA
ATOM     68  O   UNL     1       8.726 -11.810   9.166  1.00  0.00    -0.744 OA
ENDBRANCH  62  65
ENDBRANCH  44  58
BRANCH  45  69
ATOM     69  C   UNL     1      -3.651  -8.598   9.704  1.00  0.00     0.023 A 
ATOM     70  C   UNL     1      -4.464  -8.125  10.752  1.00  0.00     0.012 A 
ATOM     71  C   UNL     1      -4.261  -9.088   8.532  1.00  0.00     0.148 A 
ATOM     72  C   UNL     1      -5.855  -8.159  10.646  1.00  0.00     0.002 A 
ATOM     73  C   UNL     1      -5.646  -9.068   8.410  1.00  0.00     0.091 A 
ATOM     74  F   UNL     1      -3.473  -9.543   7.547  1.00  0.00    -0.205 F 
ATOM     75  C   UNL     1      -6.445  -8.618   9.472  1.00  0.00     0.022 A 
BRANCH  73  76
ATOM     76  S   UNL     1      -6.486  -9.510   6.883  1.00  0.00     0.127 S 
ATOM     77  O   UNL     1      -7.069 -10.804   7.226  1.00  0.00    -0.237 OA
ATOM     78  O   UNL     1      -7.451  -8.419   6.739  1.00  0.00    -0.237 OA
ATOM     79  O   UNL     1      -5.450  -9.530   5.860  1.00  0.00    -0.744 OA
ENDBRANCH  73  76
ENDBRANCH  45  69
BRANCH  57  80
ATOM     80  C   UNL     1       1.121 -11.670  13.782  1.00  0.00     0.023 A 
ATOM     81  C   UNL     1       0.811 -13.014  13.496  1.00  0.00     0.012 A 
ATOM     82  C   UNL     1       1.387 -11.283  15.109  1.00  0.00     0.148 A 
ATOM     83  C   UNL     1       0.736 -13.953  14.523  1.00  0.00     0.002 A 
ATOM     84  C   UNL     1       1.360 -12.235  16.119  1.00  0.00     0.091 A 
ATOM     85  F   UNL     1       1.658  -9.993  15.357  1.00  0.00    -0.205 F 
ATOM     86  C   UNL     1       1.022 -13.567  15.831  1.00  0.00     0.022 A 
BRANCH  84  87
ATOM     87  S   UNL     1       1.813 -11.845  17.812  1.00  0.00     0.127 S 
ATOM     88  O   UNL     1       0.511 -11.850  18.477  1.00  0.00    -0.237 OA
ATOM     89  O   UNL     1       2.683 -12.967  18.167  1.00  0.00    -0.237 OA
ATOM     90  O   UNL     1       2.485 -10.554  17.760  1.00  0.00    -0.744 OA
ENDBRANCH  84  87
ENDBRANCH  57  80
ENDBRANCH  31  32
ENDBRANCH  24  26
ENDBRANCH  23  24
ENDBRANCH  22  23
ENDBRANCH   1  22
TORSDOF 19
