REMARK SMILES O=C(OCCOC(=O)[C@@H]1CCCCC[C@H]1NC(=O)C1CC1)c1ccc(-c2c3nc(c(-c4cccc(S(=O)(=O)[O-])c4F)c4ccc([nH]4)c(-c4cccc(S(=O)(=O)[O-])c4F)c4nc(c(-c5cccc(S(=O)(=O)[O-])c5F)c5ccc2[nH]5)C=C4)C=C3)cc1
REMARK SMILES IDX 5 1 4 2 3 3 2 4 1 5 22 6 23 7 84 8 24 9 83 10 25 11 26 12
REMARK SMILES IDX 27 13 77 14 28 15 82 16 76 17 78 18 29 19 81 20 75 21 74 22
REMARK SMILES IDX 30 24 62 25 42 26 61 27 43 28 46 29 60 30 79 31 44 32 45 33
REMARK SMILES IDX 59 35 80 36 47 37 31 38 32 39 40 40 33 41 35 42 41 43 34 44
REMARK SMILES IDX 36 45 37 46 38 47 39 48 63 49 64 50 72 51 65 52 67 53 73 54
REMARK SMILES IDX 66 55 68 56 69 57 70 58 71 59 48 60 49 61 57 62 50 63 52 64
REMARK SMILES IDX 58 65 51 66 53 67 54 68 55 69 56 70 6 71 7 72 8 73 9 74
REMARK SMILES IDX 10 75 11 76 15 78 14 79 13 80 12 81 16 83 17 84 18 86 19 87
REMARK SMILES IDX 20 88 21 89
REMARK H PARENT 78 23 46 34 16 85
REMARK Flexibility Score: 90.00
ROOT
ATOM      1  C   UNL     1       3.623  -2.086   0.050  1.00  0.00     0.274 C 
ENDROOT
BRANCH   1   2
ATOM      2  C   UNL     1       4.101  -1.078   1.095  1.00  0.00     0.275 C 
BRANCH   2   3
ATOM      3  O   UNL     1       3.203   0.030   1.253  1.00  0.00    -0.458 OA
BRANCH   3   4
ATOM      4  C   UNL     1       3.367   1.298   0.804  1.00  0.00     0.338 C 
ATOM      5  O   UNL     1       2.802   2.212   1.404  1.00  0.00    -0.246 OA
BRANCH   4   6
ATOM      6  C   UNL     1       4.017   1.614  -0.509  1.00  0.00     0.060 A 
ATOM      7  C   UNL     1       5.092   0.937  -1.098  1.00  0.00     0.016 A 
ATOM      8  C   UNL     1       3.450   2.685  -1.224  1.00  0.00     0.016 A 
ATOM      9  C   UNL     1       5.520   1.237  -2.399  1.00  0.00     0.010 A 
ATOM     10  C   UNL     1       3.863   2.977  -2.529  1.00  0.00     0.010 A 
ATOM     11  C   UNL     1       4.889   2.237  -3.137  1.00  0.00    -0.014 A 
BRANCH  11  12
ATOM     12  C   UNL     1       5.374   2.611  -4.488  1.00  0.00     0.031 A 
ATOM     13  C   UNL     1       6.005   3.963  -4.641  1.00  0.00     0.074 A 
ATOM     14  C   UNL     1       5.200   1.811  -5.560  1.00  0.00     0.049 A 
ATOM     15  N   UNL     1       6.410   4.574  -5.720  1.00  0.00    -0.248 NA
ATOM     16  C   UNL     1       6.156   4.752  -3.406  1.00  0.00     0.031 C 
ATOM     17  C   UNL     1       4.554   0.498  -5.551  1.00  0.00     0.029 A 
ATOM     18  N   UNL     1       5.529   2.005  -6.881  1.00  0.00    -0.354 N 
ATOM     19  C   UNL     1       6.793   5.841  -5.302  1.00  0.00     0.074 A 
ATOM     20  C   UNL     1       6.526   5.926  -3.885  1.00  0.00     0.031 C 
ATOM     21  C   UNL     1       4.515   0.015  -6.807  1.00  0.00     0.029 A 
ATOM     22  C   UNL     1       5.126   0.982  -7.713  1.00  0.00     0.049 A 
ATOM     23  H   UNL     1       6.009   2.801  -7.204  1.00  0.00     0.167 HD
ATOM     24  C   UNL     1       7.359   6.836  -6.020  1.00  0.00     0.034 A 
ATOM     25  C   UNL     1       5.244   0.847  -9.050  1.00  0.00     0.034 A 
ATOM     26  C   UNL     1       7.692   6.716  -7.407  1.00  0.00     0.049 A 
ATOM     27  C   UNL     1       5.962   1.930  -9.823  1.00  0.00     0.074 A 
ATOM     28  C   UNL     1       8.346   7.620  -8.219  1.00  0.00     0.029 A 
ATOM     29  N   UNL     1       7.397   5.606  -8.186  1.00  0.00    -0.354 N 
ATOM     30  N   UNL     1       6.470   3.058  -9.383  1.00  0.00    -0.248 NA
ATOM     31  C   UNL     1       6.170   1.707 -11.262  1.00  0.00     0.031 C 
ATOM     32  C   UNL     1       8.443   7.057  -9.496  1.00  0.00     0.029 A 
ATOM     33  C   UNL     1       7.862   5.796  -9.471  1.00  0.00     0.049 A 
ATOM     34  H   UNL     1       6.925   4.803  -7.869  1.00  0.00     0.167 HD
ATOM     35  C   UNL     1       7.087   3.658 -10.476  1.00  0.00     0.074 A 
ATOM     36  C   UNL     1       6.902   2.761 -11.600  1.00  0.00     0.031 C 
ATOM     37  C   UNL     1       7.735   4.847 -10.550  1.00  0.00     0.034 A 
BRANCH  24  38
ATOM     38  C   UNL     1       7.674   8.101  -5.273  1.00  0.00     0.023 A 
ATOM     39  C   UNL     1       8.698   8.098  -4.301  1.00  0.00     0.012 A 
ATOM     40  C   UNL     1       6.902   9.261  -5.461  1.00  0.00     0.148 A 
ATOM     41  C   UNL     1       8.893   9.201  -3.472  1.00  0.00     0.002 A 
ATOM     42  C   UNL     1       7.136  10.375  -4.664  1.00  0.00     0.091 A 
ATOM     43  F   UNL     1       5.917   9.237  -6.370  1.00  0.00    -0.205 F 
ATOM     44  C   UNL     1       8.114  10.339  -3.656  1.00  0.00     0.022 A 
BRANCH  42  45
ATOM     45  S   UNL     1       6.229  11.910  -4.870  1.00  0.00     0.127 S 
ATOM     46  O   UNL     1       5.298  11.857  -3.744  1.00  0.00    -0.237 OA
ATOM     47  O   UNL     1       7.285  12.914  -4.740  1.00  0.00    -0.237 OA
ATOM     48  O   UNL     1       5.625  11.838  -6.193  1.00  0.00    -0.744 OA
ENDBRANCH  42  45
ENDBRANCH  24  38
BRANCH  25  49
ATOM     49  C   UNL     1       4.766  -0.393  -9.737  1.00  0.00     0.023 A 
ATOM     50  C   UNL     1       5.719  -1.317 -10.214  1.00  0.00     0.012 A 
ATOM     51  C   UNL     1       3.395  -0.665  -9.930  1.00  0.00     0.148 A 
ATOM     52  C   UNL     1       5.322  -2.468 -10.898  1.00  0.00     0.002 A 
ATOM     53  C   UNL     1       3.003  -1.832 -10.583  1.00  0.00     0.091 A 
ATOM     54  F   UNL     1       2.503   0.231  -9.483  1.00  0.00    -0.205 F 
ATOM     55  C   UNL     1       3.967  -2.727 -11.078  1.00  0.00     0.022 A 
BRANCH  53  56
ATOM     56  S   UNL     1       1.284  -2.284 -10.860  1.00  0.00     0.127 S 
ATOM     57  O   UNL     1       1.223  -2.328 -12.322  1.00  0.00    -0.237 OA
ATOM     58  O   UNL     1       1.201  -3.595 -10.214  1.00  0.00    -0.237 OA
ATOM     59  O   UNL     1       0.482  -1.235 -10.247  1.00  0.00    -0.744 OA
ENDBRANCH  53  56
ENDBRANCH  25  49
BRANCH  37  60
ATOM     60  C   UNL     1       8.346   5.252 -11.864  1.00  0.00     0.023 A 
ATOM     61  C   UNL     1       7.522   5.747 -12.892  1.00  0.00     0.012 A 
ATOM     62  C   UNL     1       9.747   5.309 -12.005  1.00  0.00     0.148 A 
ATOM     63  C   UNL     1       8.085   6.295 -14.044  1.00  0.00     0.002 A 
ATOM     64  C   UNL     1      10.301   5.901 -13.133  1.00  0.00     0.091 A 
ATOM     65  F   UNL     1      10.509   4.814 -11.018  1.00  0.00    -0.205 F 
ATOM     66  C   UNL     1       9.471   6.389 -14.156  1.00  0.00     0.022 A 
BRANCH  64  67
ATOM     67  S   UNL     1      12.068   6.176 -13.306  1.00  0.00     0.127 S 
ATOM     68  O   UNL     1      12.416   5.226 -14.361  1.00  0.00    -0.237 OA
ATOM     69  O   UNL     1      12.125   7.582 -13.707  1.00  0.00    -0.237 OA
ATOM     70  O   UNL     1      12.650   5.896 -12.000  1.00  0.00    -0.744 OA
ENDBRANCH  64  67
ENDBRANCH  37  60
ENDBRANCH  11  12
ENDBRANCH   4   6
ENDBRANCH   3   4
ENDBRANCH   2   3
ENDBRANCH   1   2
BRANCH   1  71
ATOM     71  O   UNL     1       3.182  -1.468  -1.171  1.00  0.00    -0.462 OA
BRANCH  71  72
ATOM     72  C   UNL     1       1.854  -1.602  -1.486  1.00  0.00     0.311 C 
ATOM     73  O   UNL     1       1.020  -2.145  -0.776  1.00  0.00    -0.252 OA
BRANCH  72  74
ATOM     74  C   UNL     1       1.574  -1.004  -2.862  1.00  0.00     0.121 C 
BRANCH  74  75
ATOM     75  C   UNL     1       1.593   0.513  -2.754  1.00  0.00     0.017 C 
BRANCH  75  76
ATOM     76  C   UNL     1       0.963   1.340  -3.867  1.00  0.00     0.001 CG0
ATOM     77  G   UNL     1      -0.526   1.562  -3.655  1.00  0.00     0.000 G0
ENDBRANCH  75  76
ENDBRANCH  74  75
BRANCH  74  78
ATOM     78  C   UNL     1       0.320  -1.613  -3.510  1.00  0.00     0.096 C 
BRANCH  78  79
ATOM     79  C   UNL     1      -0.999  -0.926  -3.100  1.00  0.00     0.026 C 
BRANCH  79  80
ATOM     80  C   UNL     1      -1.404   0.337  -3.863  1.00  0.00     0.002 C 
BRANCH  80  81
ATOM     81  C   UNL     1      -0.526   1.562  -3.655  1.00  0.00     0.000 CG0
ATOM     82  G   UNL     1       0.963   1.340  -3.867  1.00  0.00     0.000 G0
ENDBRANCH  80  81
ENDBRANCH  79  80
ENDBRANCH  78  79
BRANCH  78  83
ATOM     83  N   UNL     1       0.508  -1.654  -4.962  1.00  0.00    -0.352 N 
ATOM     84  C   UNL     1       1.348  -2.472  -5.663  1.00  0.00     0.223 C 
ATOM     85  H   UNL     1      -0.031  -1.022  -5.491  1.00  0.00     0.163 HD
ATOM     86  O   UNL     1       1.796  -2.117  -6.748  1.00  0.00    -0.275 OA
BRANCH  84  87
ATOM     87  C   UNL     1       1.710  -3.791  -5.089  1.00  0.00     0.078 C 
ATOM     88  C   UNL     1       1.083  -5.022  -5.703  1.00  0.00     0.014 C 
ATOM     89  C   UNL     1       2.550  -4.766  -5.883  1.00  0.00     0.014 C 
ENDBRANCH  84  87
ENDBRANCH  78  83
ENDBRANCH  74  78
ENDBRANCH  72  74
ENDBRANCH  71  72
ENDBRANCH   1  71
TORSDOF 16
