REMARK SMILES O=C(OCCOC(=O)c1ccc(COc2cccc(Cl)c2Cl)o1)c1ccc(-c2c3nc(c(-c4cccc(S(=O)(=O)[O-])c4F)c4ccc([nH]4)c(-c4cccc(S(=O)(=O)[O-])c4F)c4nc(c(-c5cccc(S(=O)(=O)[O-])c5F)c5ccc2[nH]5)C=C4)C=C3)cc1
REMARK SMILES IDX 4 1 3 2 2 3 1 4 24 5 25 6 86 7 26 8 85 9 27 10 28 11 29 12
REMARK SMILES IDX 79 13 30 14 84 15 78 16 80 17 31 18 83 19 77 20 76 21 32 23
REMARK SMILES IDX 64 24 44 25 63 26 45 27 48 28 62 29 81 30 46 31 47 32 61 34
REMARK SMILES IDX 82 35 49 36 33 37 34 38 42 39 35 40 37 41 43 42 36 43 38 44
REMARK SMILES IDX 39 45 40 46 41 47 65 48 66 49 74 50 67 51 69 52 75 53 68 54
REMARK SMILES IDX 70 55 71 56 72 57 73 58 50 59 51 60 59 61 52 62 54 63 60 64
REMARK SMILES IDX 53 65 55 66 56 67 57 68 58 69 5 70 6 71 7 72 8 73 9 74 10 75
REMARK SMILES IDX 23 76 11 77 12 78 13 79 14 80 15 81 16 82 21 83 17 84 19 85
REMARK SMILES IDX 22 86 18 87 20 88
REMARK H PARENT 80 22 48 33
REMARK Flexibility Score: inf
ROOT
ATOM      1  C   UNL     1       4.186  -1.238  -1.218  1.00  0.00     0.275 C 
ENDROOT
BRANCH   1   2
ATOM      2  O   UNL     1       3.058  -1.211  -0.326  1.00  0.00    -0.458 OA
BRANCH   2   3
ATOM      3  C   UNL     1       2.977  -0.655   0.908  1.00  0.00     0.338 C 
ATOM      4  O   UNL     1       2.200  -1.131   1.733  1.00  0.00    -0.246 OA
BRANCH   3   5
ATOM      5  C   UNL     1       3.660   0.629   1.252  1.00  0.00     0.060 A 
ATOM      6  C   UNL     1       4.987   0.945   0.952  1.00  0.00     0.016 A 
ATOM      7  C   UNL     1       2.915   1.552   2.010  1.00  0.00     0.016 A 
ATOM      8  C   UNL     1       5.550   2.156   1.368  1.00  0.00     0.010 A 
ATOM      9  C   UNL     1       3.475   2.765   2.430  1.00  0.00     0.010 A 
ATOM     10  C   UNL     1       4.807   3.064   2.126  1.00  0.00    -0.014 A 
BRANCH  10  11
ATOM     11  C   UNL     1       5.488   4.235   2.726  1.00  0.00     0.031 A 
ATOM     12  C   UNL     1       5.926   4.151   4.158  1.00  0.00     0.074 A 
ATOM     13  C   UNL     1       5.758   5.334   1.998  1.00  0.00     0.049 A 
ATOM     14  N   UNL     1       6.673   4.980   4.837  1.00  0.00    -0.248 NA
ATOM     15  C   UNL     1       5.491   2.967   4.918  1.00  0.00     0.031 C 
ATOM     16  C   UNL     1       5.412   5.515   0.593  1.00  0.00     0.029 A 
ATOM     17  N   UNL     1       6.376   6.511   2.337  1.00  0.00    -0.354 N 
ATOM     18  C   UNL     1       6.814   4.411   6.094  1.00  0.00     0.074 A 
ATOM     19  C   UNL     1       6.038   3.191   6.103  1.00  0.00     0.031 C 
ATOM     20  C   UNL     1       5.764   6.749   0.200  1.00  0.00     0.029 A 
ATOM     21  C   UNL     1       6.404   7.434   1.318  1.00  0.00     0.049 A 
ATOM     22  H   UNL     1       6.764   6.678   3.227  1.00  0.00     0.167 HD
ATOM     23  C   UNL     1       7.559   4.844   7.137  1.00  0.00     0.034 A 
ATOM     24  C   UNL     1       6.915   8.681   1.283  1.00  0.00     0.034 A 
ATOM     25  C   UNL     1       8.319   6.061   7.124  1.00  0.00     0.049 A 
ATOM     26  C   UNL     1       7.689   9.170   2.478  1.00  0.00     0.074 A 
ATOM     27  C   UNL     1       9.131   6.583   8.113  1.00  0.00     0.029 A 
ATOM     28  N   UNL     1       8.339   6.961   6.068  1.00  0.00    -0.354 N 
ATOM     29  N   UNL     1       7.955   8.541   3.598  1.00  0.00    -0.248 NA
ATOM     30  C   UNL     1       8.291  10.507   2.381  1.00  0.00     0.031 C 
ATOM     31  C   UNL     1       9.627   7.812   7.661  1.00  0.00     0.029 A 
ATOM     32  C   UNL     1       9.138   8.045   6.384  1.00  0.00     0.049 A 
ATOM     33  H   UNL     1       7.856   6.845   5.218  1.00  0.00     0.167 HD
ATOM     34  C   UNL     1       8.807   9.375   4.311  1.00  0.00     0.074 A 
ATOM     35  C   UNL     1       9.008  10.558   3.497  1.00  0.00     0.031 C 
ATOM     36  C   UNL     1       9.373   9.180   5.527  1.00  0.00     0.034 A 
BRANCH  23  37
ATOM     37  C   UNL     1       7.599   3.961   8.352  1.00  0.00     0.023 A 
ATOM     38  C   UNL     1       8.351   2.768   8.313  1.00  0.00     0.012 A 
ATOM     39  C   UNL     1       6.878   4.289   9.514  1.00  0.00     0.148 A 
ATOM     40  C   UNL     1       8.352   1.894   9.399  1.00  0.00     0.002 A 
ATOM     41  C   UNL     1       6.912   3.429  10.605  1.00  0.00     0.091 A 
ATOM     42  F   UNL     1       6.144   5.410   9.517  1.00  0.00    -0.205 F 
ATOM     43  C   UNL     1       7.638   2.227  10.546  1.00  0.00     0.022 A 
BRANCH  41  44
ATOM     44  S   UNL     1       6.060   3.798  12.142  1.00  0.00     0.127 S 
ATOM     45  O   UNL     1       4.897   2.915  12.054  1.00  0.00    -0.237 OA
ATOM     46  O   UNL     1       7.048   3.406  13.147  1.00  0.00    -0.237 OA
ATOM     47  O   UNL     1       5.774   5.225  12.103  1.00  0.00    -0.744 OA
ENDBRANCH  41  44
ENDBRANCH  23  37
BRANCH  24  48
ATOM     48  C   UNL     1       6.811   9.498   0.041  1.00  0.00     0.023 A 
ATOM     49  C   UNL     1       7.962   9.726  -0.738  1.00  0.00     0.012 A 
ATOM     50  C   UNL     1       5.577  10.023  -0.390  1.00  0.00     0.148 A 
ATOM     51  C   UNL     1       7.892  10.488  -1.906  1.00  0.00     0.002 A 
ATOM     52  C   UNL     1       5.506  10.745  -1.577  1.00  0.00     0.091 A 
ATOM     53  F   UNL     1       4.493   9.803   0.369  1.00  0.00    -0.205 F 
ATOM     54  C   UNL     1       6.665  10.990  -2.330  1.00  0.00     0.022 A 
BRANCH  52  55
ATOM     55  S   UNL     1       3.949  11.329  -2.258  1.00  0.00     0.127 S 
ATOM     56  O   UNL     1       4.036  12.766  -2.015  1.00  0.00    -0.237 OA
ATOM     57  O   UNL     1       4.063  10.932  -3.662  1.00  0.00    -0.237 OA
ATOM     58  O   UNL     1       2.912  10.619  -1.520  1.00  0.00    -0.744 OA
ENDBRANCH  52  55
ENDBRANCH  24  48
BRANCH  36  59
ATOM     59  C   UNL     1      10.306  10.242   6.040  1.00  0.00     0.023 A 
ATOM     60  C   UNL     1       9.785  11.455   6.529  1.00  0.00     0.012 A 
ATOM     61  C   UNL     1      11.690   9.996   6.122  1.00  0.00     0.148 A 
ATOM     62  C   UNL     1      10.634  12.418   7.074  1.00  0.00     0.002 A 
ATOM     63  C   UNL     1      12.523  10.940   6.708  1.00  0.00     0.091 A 
ATOM     64  F   UNL     1      12.169   8.846   5.624  1.00  0.00    -0.205 F 
ATOM     65  C   UNL     1      11.998  12.155   7.177  1.00  0.00     0.022 A 
BRANCH  63  66
ATOM     66  S   UNL     1      14.273  10.627   6.969  1.00  0.00     0.127 S 
ATOM     67  O   UNL     1      14.875  11.347   5.849  1.00  0.00    -0.237 OA
ATOM     68  O   UNL     1      14.510  11.230   8.281  1.00  0.00    -0.237 OA
ATOM     69  O   UNL     1      14.420   9.178   6.942  1.00  0.00    -0.744 OA
ENDBRANCH  63  66
ENDBRANCH  36  59
ENDBRANCH  10  11
ENDBRANCH   3   5
ENDBRANCH   2   3
ENDBRANCH   1   2
BRANCH   1  70
ATOM     70  C   UNL     1       4.077  -0.251  -2.381  1.00  0.00     0.275 C 
BRANCH  70  71
ATOM     71  O   UNL     1       3.738   1.074  -1.957  1.00  0.00    -0.456 OA
BRANCH  71  72
ATOM     72  C   UNL     1       2.394   1.321  -1.895  1.00  0.00     0.374 C 
ATOM     73  O   UNL     1       1.527   0.540  -2.271  1.00  0.00    -0.242 OA
BRANCH  72  74
ATOM     74  C   UNL     1       2.162   2.589  -1.261  1.00  0.00     0.211 A 
ATOM     75  C   UNL     1       2.809   3.808  -1.317  1.00  0.00     0.058 A 
ATOM     76  O   UNL     1       1.108   2.679  -0.397  1.00  0.00    -0.450 OA
ATOM     77  C   UNL     1       2.109   4.686  -0.447  1.00  0.00     0.050 A 
ATOM     78  C   UNL     1       1.074   3.952   0.090  1.00  0.00     0.142 A 
BRANCH  78  79
ATOM     79  C   UNL     1      -0.062   4.288   0.990  1.00  0.00     0.304 C 
BRANCH  79  80
ATOM     80  O   UNL     1      -1.277   3.724   0.455  1.00  0.00    -0.484 OA
BRANCH  80  81
ATOM     81  C   UNL     1      -1.837   4.514  -0.520  1.00  0.00     0.140 A 
ATOM     82  C   UNL     1      -1.302   4.482  -1.813  1.00  0.00     0.048 A 
ATOM     83  C   UNL     1      -2.987   5.265  -0.254  1.00  0.00     0.101 A 
ATOM     84  C   UNL     1      -1.843   5.269  -2.823  1.00  0.00     0.005 A 
ATOM     85  C   UNL     1      -3.550   6.030  -1.284  1.00  0.00     0.063 A 
ATOM     86  Cl  UNL     1      -3.688   5.221   1.331  1.00  0.00    -0.079 Cl
ATOM     87  C   UNL     1      -2.966   6.046  -2.557  1.00  0.00     0.022 A 
ATOM     88  Cl  UNL     1      -4.987   6.969  -1.064  1.00  0.00    -0.083 Cl
ENDBRANCH  80  81
ENDBRANCH  79  80
ENDBRANCH  78  79
ENDBRANCH  72  74
ENDBRANCH  71  72
ENDBRANCH  70  71
ENDBRANCH   1  70
TORSDOF 17
