REMARK SMILES O=C(OCCOC(=O)[C@H]1[C@H]2CC[C@H](CC2)[C@@H]1C(=O)Nc1sc2c(c1C(=O)N1CCCCC1)CCCC2)c1ccc(-c2c3nc(c(-c4cccc(S(=O)(=O)[O-])c4F)c4ccc([nH]4)c(-c4cccc(S(=O)(=O)[O-])c4F)c4nc(c(-c5cccc(S(=O)(=O)[O-])c5F)c5ccc2[nH]5)C=C4)C=C3)cc1
REMARK SMILES IDX 4 1 3 2 2 3 1 4 37 5 38 6 99 7 39 8 98 9 40 10 41 11 42 12
REMARK SMILES IDX 92 13 43 14 97 15 91 16 93 17 44 18 96 19 90 20 89 21 45 23
REMARK SMILES IDX 77 24 57 25 76 26 58 27 61 28 75 29 94 30 59 31 60 32 74 34
REMARK SMILES IDX 95 35 62 36 46 37 47 38 55 39 48 40 50 41 56 42 49 43 51 44
REMARK SMILES IDX 52 45 53 46 54 47 78 48 79 49 87 50 80 51 82 52 88 53 81 54
REMARK SMILES IDX 83 55 84 56 85 57 86 58 63 59 64 60 72 61 65 62 67 63 73 64
REMARK SMILES IDX 66 65 68 66 69 67 70 68 71 69 5 70 6 71 7 72 8 73 9 74 10 75
REMARK SMILES IDX 16 76 15 77 11 78 13 79 14 80 12 81 17 82 18 83 19 84 20 86
REMARK SMILES IDX 21 87 24 88 22 89 23 90 36 91 33 92 35 93 34 94 25 95 26 96
REMARK SMILES IDX 27 97 28 98 32 99 29 100 31 101 30 102
REMARK H PARENT 93 22 61 33 19 85
REMARK Flexibility Score: inf
ROOT
ATOM      1  C   UNL     1       4.430   1.629   0.091  1.00  0.00     0.275 C 
ENDROOT
BRANCH   1   2
ATOM      2  O   UNL     1       3.741   0.980  -0.985  1.00  0.00    -0.458 OA
BRANCH   2   3
ATOM      3  C   UNL     1       4.031  -0.208  -1.560  1.00  0.00     0.338 C 
ATOM      4  O   UNL     1       3.452  -0.528  -2.599  1.00  0.00    -0.246 OA
BRANCH   3   5
ATOM      5  C   UNL     1       4.902  -1.217  -0.897  1.00  0.00     0.060 A 
ATOM      6  C   UNL     1       6.128  -0.970  -0.267  1.00  0.00     0.016 A 
ATOM      7  C   UNL     1       4.435  -2.531  -0.944  1.00  0.00     0.016 A 
ATOM      8  C   UNL     1       6.804  -1.994   0.426  1.00  0.00     0.010 A 
ATOM      9  C   UNL     1       5.105  -3.541  -0.256  1.00  0.00     0.010 A 
ATOM     10  C   UNL     1       6.276  -3.287   0.483  1.00  0.00    -0.014 A 
BRANCH  10  11
ATOM     11  C   UNL     1       6.875  -4.394   1.297  1.00  0.00     0.031 A 
ATOM     12  C   UNL     1       7.174  -5.715   0.628  1.00  0.00     0.074 A 
ATOM     13  C   UNL     1       6.982  -4.319   2.646  1.00  0.00     0.049 A 
ATOM     14  N   UNL     1       7.561  -6.844   1.163  1.00  0.00    -0.248 NA
ATOM     15  C   UNL     1       6.971  -5.786  -0.831  1.00  0.00     0.031 C 
ATOM     16  C   UNL     1       6.651  -3.164   3.483  1.00  0.00     0.029 A 
ATOM     17  N   UNL     1       7.314  -5.288   3.570  1.00  0.00    -0.354 N 
ATOM     18  C   UNL     1       7.675  -7.732   0.103  1.00  0.00     0.074 A 
ATOM     19  C   UNL     1       7.125  -7.079  -1.061  1.00  0.00     0.031 C 
ATOM     20  C   UNL     1       6.665  -3.529   4.780  1.00  0.00     0.029 A 
ATOM     21  C   UNL     1       7.057  -4.928   4.877  1.00  0.00     0.049 A 
ATOM     22  H   UNL     1       7.700  -6.159   3.319  1.00  0.00     0.167 HD
ATOM     23  C   UNL     1       8.338  -8.912   0.048  1.00  0.00     0.034 A 
ATOM     24  C   UNL     1       7.132  -5.641   6.020  1.00  0.00     0.034 A 
ATOM     25  C   UNL     1       8.988  -9.510   1.175  1.00  0.00     0.049 A 
ATOM     26  C   UNL     1       7.796  -6.993   5.976  1.00  0.00     0.074 A 
ATOM     27  C   UNL     1       9.866 -10.576   1.209  1.00  0.00     0.029 A 
ATOM     28  N   UNL     1       8.829  -9.075   2.479  1.00  0.00    -0.354 N 
ATOM     29  N   UNL     1       8.196  -7.678   4.933  1.00  0.00    -0.248 NA
ATOM     30  C   UNL     1       8.148  -7.606   7.267  1.00  0.00     0.031 C 
ATOM     31  C   UNL     1      10.254 -10.774   2.540  1.00  0.00     0.029 A 
ATOM     32  C   UNL     1       9.604  -9.839   3.330  1.00  0.00     0.049 A 
ATOM     33  H   UNL     1       8.248  -8.331   2.760  1.00  0.00     0.167 HD
ATOM     34  C   UNL     1       8.955  -8.726   5.440  1.00  0.00     0.074 A 
ATOM     35  C   UNL     1       8.913  -8.619   6.883  1.00  0.00     0.031 C 
ATOM     36  C   UNL     1       9.653  -9.667   4.759  1.00  0.00     0.034 A 
BRANCH  23  37
ATOM     37  C   UNL     1       8.574  -9.465  -1.331  1.00  0.00     0.023 A 
ATOM     38  C   UNL     1       9.450  -8.749  -2.180  1.00  0.00     0.012 A 
ATOM     39  C   UNL     1       7.921 -10.610  -1.817  1.00  0.00     0.148 A 
ATOM     40  C   UNL     1       9.611  -9.112  -3.513  1.00  0.00     0.002 A 
ATOM     41  C   UNL     1       8.123 -10.993  -3.140  1.00  0.00     0.091 A 
ATOM     42  F   UNL     1       7.094 -11.273  -0.998  1.00  0.00    -0.205 F 
ATOM     43  C   UNL     1       8.947 -10.234  -3.991  1.00  0.00     0.022 A 
BRANCH  41  44
ATOM     44  S   UNL     1       7.364 -12.448  -3.865  1.00  0.00     0.127 S 
ATOM     45  O   UNL     1       6.489 -11.853  -4.875  1.00  0.00    -0.237 OA
ATOM     46  O   UNL     1       8.524 -13.158  -4.405  1.00  0.00    -0.237 OA
ATOM     47  O   UNL     1       6.679 -13.132  -2.777  1.00  0.00    -0.744 OA
ENDBRANCH  41  44
ENDBRANCH  23  37
BRANCH  24  48
ATOM     48  C   UNL     1       6.750  -5.061   7.342  1.00  0.00     0.023 A 
ATOM     49  C   UNL     1       7.758  -4.507   8.158  1.00  0.00     0.012 A 
ATOM     50  C   UNL     1       5.437  -5.164   7.845  1.00  0.00     0.148 A 
ATOM     51  C   UNL     1       7.477  -4.106   9.464  1.00  0.00     0.002 A 
ATOM     52  C   UNL     1       5.163  -4.751   9.148  1.00  0.00     0.091 A 
ATOM     53  F   UNL     1       4.497  -5.709   7.060  1.00  0.00    -0.205 F 
ATOM     54  C   UNL     1       6.183  -4.230   9.960  1.00  0.00     0.022 A 
BRANCH  52  55
ATOM     55  S   UNL     1       3.531  -4.874   9.895  1.00  0.00     0.127 S 
ATOM     56  O   UNL     1       3.727  -5.960  10.854  1.00  0.00    -0.237 OA
ATOM     57  O   UNL     1       3.372  -3.550  10.497  1.00  0.00    -0.237 OA
ATOM     58  O   UNL     1       2.619  -5.162   8.797  1.00  0.00    -0.744 OA
ENDBRANCH  52  55
ENDBRANCH  24  48
BRANCH  36  59
ATOM     59  C   UNL     1      10.544 -10.594   5.536  1.00  0.00     0.023 A 
ATOM     60  C   UNL     1       9.991 -11.650   6.282  1.00  0.00     0.012 A 
ATOM     61  C   UNL     1      11.945 -10.476   5.428  1.00  0.00     0.148 A 
ATOM     62  C   UNL     1      10.822 -12.570   6.921  1.00  0.00     0.002 A 
ATOM     63  C   UNL     1      12.764 -11.426   6.023  1.00  0.00     0.091 A 
ATOM     64  F   UNL     1      12.451  -9.442   4.740  1.00  0.00    -0.205 F 
ATOM     65  C   UNL     1      12.205 -12.469   6.777  1.00  0.00     0.022 A 
BRANCH  63  66
ATOM     66  S   UNL     1      14.544 -11.432   5.779  1.00  0.00     0.127 S 
ATOM     67  O   UNL     1      15.023 -10.860   7.035  1.00  0.00    -0.237 OA
ATOM     68  O   UNL     1      14.834 -12.857   5.608  1.00  0.00    -0.237 OA
ATOM     69  O   UNL     1      14.783 -10.628   4.587  1.00  0.00    -0.744 OA
ENDBRANCH  63  66
ENDBRANCH  36  59
ENDBRANCH  10  11
ENDBRANCH   3   5
ENDBRANCH   2   3
ENDBRANCH   1   2
BRANCH   1  70
ATOM     70  C   UNL     1       4.095   1.153   1.505  1.00  0.00     0.274 C 
BRANCH  70  71
ATOM     71  O   UNL     1       3.322  -0.057   1.568  1.00  0.00    -0.462 OA
BRANCH  71  72
ATOM     72  C   UNL     1       2.275  -0.017   2.435  1.00  0.00     0.310 C 
ATOM     73  O   UNL     1       1.897   1.018   2.974  1.00  0.00    -0.252 OA
BRANCH  72  74
ATOM     74  C   UNL     1       1.577  -1.353   2.682  1.00  0.00     0.115 C 
ATOM     75  C   UNL     1       2.015  -2.553   1.815  1.00  0.00     0.004 C 
ATOM     76  C   UNL     1       1.626  -1.725   4.184  1.00  0.00     0.096 C 
ATOM     77  C   UNL     1       3.376  -3.079   2.268  1.00  0.00     0.005 C 
ATOM     78  C   UNL     1       1.022  -3.712   2.033  1.00  0.00     0.005 C 
ATOM     79  C   UNL     1       1.978  -3.237   4.324  1.00  0.00     0.002 C 
ATOM     80  C   UNL     1       3.379  -3.425   3.749  1.00  0.00     0.005 C 
ATOM     81  C   UNL     1       1.011  -4.118   3.513  1.00  0.00     0.005 C 
BRANCH  76  82
ATOM     82  C   UNL     1       0.473  -1.427   5.166  1.00  0.00     0.229 C 
ATOM     83  O   UNL     1       0.733  -1.328   6.373  1.00  0.00    -0.274 OA
ATOM     84  N   UNL     1      -0.853  -1.476   4.830  1.00  0.00    -0.317 N 
ATOM     85  H   UNL     1      -1.469  -1.970   5.417  1.00  0.00     0.170 HD
BRANCH  84  86
ATOM     86  C   UNL     1      -1.362  -0.867   3.710  1.00  0.00     0.108 A 
ATOM     87  S   UNL     1      -2.205  -1.909   2.665  1.00  0.00    -0.122 S 
ATOM     88  C   UNL     1      -1.308   0.441   3.249  1.00  0.00     0.078 A 
ATOM     89  C   UNL     1      -1.857  -0.865   1.367  1.00  0.00     0.011 A 
ATOM     90  C   UNL     1      -1.527   0.411   1.805  1.00  0.00    -0.019 A 
ATOM     91  C   UNL     1      -1.841  -1.343  -0.053  1.00  0.00     0.047 C 
ATOM     92  C   UNL     1      -1.204   1.493   0.814  1.00  0.00     0.037 C 
ATOM     93  C   UNL     1      -1.123  -0.321  -0.949  1.00  0.00     0.006 C 
ATOM     94  C   UNL     1      -1.578   1.102  -0.624  1.00  0.00     0.005 C 
BRANCH  88  95
ATOM     95  C   UNL     1      -0.839   1.555   4.091  1.00  0.00     0.257 C 
ATOM     96  O   UNL     1      -0.165   1.365   5.101  1.00  0.00    -0.269 OA
ATOM     97  N   UNL     1      -1.181   2.859   3.724  1.00  0.00    -0.339 N 
ATOM     98  C   UNL     1      -0.325   3.916   4.246  1.00  0.00     0.120 C 
ATOM     99  C   UNL     1      -2.562   3.238   3.455  1.00  0.00     0.120 C 
ATOM    100  C   UNL     1      -0.318   5.106   3.300  1.00  0.00     0.022 C 
ATOM    101  C   UNL     1      -2.664   4.498   2.592  1.00  0.00     0.022 C 
ATOM    102  C   UNL     1      -1.738   5.616   3.068  1.00  0.00     0.004 C 
ENDBRANCH  88  95
ENDBRANCH  84  86
ENDBRANCH  76  82
ENDBRANCH  72  74
ENDBRANCH  71  72
ENDBRANCH  70  71
ENDBRANCH   1  70
TORSDOF 17
