REMARK SMILES O=C(OCCOC(=O)[C@@H]1CCCC[C@H]1C(=O)Nc1ccc(NC(=O)c2ccco2)cc1)c1ccc(-c2c3nc(c(-c4cccc(S(=O)(=O)[O-])c4F)c4ccc([nH]4)c(-c4cccc(S(=O)(=O)[O-])c4F)c4nc(c(-c5cccc(S(=O)(=O)[O-])c5F)c5ccc2[nH]5)C=C4)C=C3)cc1
REMARK SMILES IDX 5 1 4 2 3 3 2 4 1 5 32 6 33 7 94 8 34 9 93 10 35 11 36 12
REMARK SMILES IDX 37 13 87 14 38 15 92 16 86 17 88 18 39 19 91 20 85 21 84 22
REMARK SMILES IDX 40 24 72 25 52 26 71 27 53 28 56 29 70 30 89 31 54 32 55 33
REMARK SMILES IDX 69 35 90 36 57 37 41 38 42 39 50 40 43 41 45 42 51 43 44 44
REMARK SMILES IDX 46 45 47 46 48 47 49 48 73 49 74 50 82 51 75 52 77 53 83 54
REMARK SMILES IDX 76 55 78 56 79 57 80 58 81 59 58 60 59 61 67 62 60 63 62 64
REMARK SMILES IDX 68 65 61 66 63 67 64 68 65 69 66 70 6 71 7 72 8 73 9 74
REMARK SMILES IDX 10 75 14 76 11 77 13 78 12 79 15 80 16 81 17 82 18 84 19 85
REMARK SMILES IDX 31 86 20 87 30 88 21 89 22 90 23 91 24 93 25 94 26 95 29 96
REMARK SMILES IDX 27 97 28 98
REMARK H PARENT 88 23 56 34 17 83 22 92
REMARK Flexibility Score: inf
ROOT
ATOM      1  C   UNL     1       3.998  -1.224  -1.401  1.00  0.00     0.274 C 
ENDROOT
BRANCH   1   2
ATOM      2  C   UNL     1       4.337  -1.485   0.067  1.00  0.00     0.275 C 
BRANCH   2   3
ATOM      3  O   UNL     1       3.447  -0.847   0.993  1.00  0.00    -0.458 OA
BRANCH   3   4
ATOM      4  C   UNL     1       3.739   0.261   1.721  1.00  0.00     0.338 C 
ATOM      5  O   UNL     1       3.265   0.397   2.845  1.00  0.00    -0.246 OA
BRANCH   4   6
ATOM      6  C   UNL     1       4.385   1.438   1.067  1.00  0.00     0.060 A 
ATOM      7  C   UNL     1       5.527   1.409   0.258  1.00  0.00     0.016 A 
ATOM      8  C   UNL     1       3.769   2.675   1.301  1.00  0.00     0.016 A 
ATOM      9  C   UNL     1       5.983   2.565  -0.398  1.00  0.00     0.010 A 
ATOM     10  C   UNL     1       4.200   3.820   0.623  1.00  0.00     0.010 A 
ATOM     11  C   UNL     1       5.309   3.777  -0.242  1.00  0.00    -0.014 A 
BRANCH  11  12
ATOM     12  C   UNL     1       5.835   5.053  -0.798  1.00  0.00     0.031 A 
ATOM     13  C   UNL     1       6.311   6.073   0.205  1.00  0.00     0.074 A 
ATOM     14  C   UNL     1       5.802   5.355  -2.115  1.00  0.00     0.049 A 
ATOM     15  N   UNL     1       6.681   7.310   0.024  1.00  0.00    -0.248 NA
ATOM     16  C   UNL     1       6.322   5.644   1.618  1.00  0.00     0.031 C 
ATOM     17  C   UNL     1       5.340   4.482  -3.198  1.00  0.00     0.029 A 
ATOM     18  N   UNL     1       6.126   6.522  -2.767  1.00  0.00    -0.354 N 
ATOM     19  C   UNL     1       6.926   7.810   1.298  1.00  0.00     0.074 A 
ATOM     20  C   UNL     1       6.559   6.783   2.243  1.00  0.00     0.031 C 
ATOM     21  C   UNL     1       5.338   5.168  -4.359  1.00  0.00     0.029 A 
ATOM     22  C   UNL     1       5.840   6.515  -4.116  1.00  0.00     0.049 A 
ATOM     23  H   UNL     1       6.527   7.296  -2.309  1.00  0.00     0.167 HD
ATOM     24  C   UNL     1       7.492   8.984   1.659  1.00  0.00     0.034 A 
ATOM     25  C   UNL     1       5.993   7.484  -5.043  1.00  0.00     0.034 A 
ATOM     26  C   UNL     1       7.952   9.954   0.715  1.00  0.00     0.049 A 
ATOM     27  C   UNL     1       6.674   8.766  -4.631  1.00  0.00     0.074 A 
ATOM     28  C   UNL     1       8.652  11.122   0.943  1.00  0.00     0.029 A 
ATOM     29  N   UNL     1       7.768   9.849  -0.655  1.00  0.00    -0.354 N 
ATOM     30  N   UNL     1       7.059   9.151  -3.438  1.00  0.00    -0.248 NA
ATOM     31  C   UNL     1       7.031   9.700  -5.711  1.00  0.00     0.031 C 
ATOM     32  C   UNL     1       8.903  11.720  -0.298  1.00  0.00     0.029 A 
ATOM     33  C   UNL     1       8.360  10.920  -1.292  1.00  0.00     0.049 A 
ATOM     34  H   UNL     1       7.287   9.118  -1.107  1.00  0.00     0.167 HD
ATOM     35  C   UNL     1       7.758  10.337  -3.631  1.00  0.00     0.074 A 
ATOM     36  C   UNL     1       7.732  10.614  -5.053  1.00  0.00     0.031 C 
ATOM     37  C   UNL     1       8.377  11.124  -2.717  1.00  0.00     0.034 A 
BRANCH  24  38
ATOM     38  C   UNL     1       7.729   9.188   3.130  1.00  0.00     0.023 A 
ATOM     39  C   UNL     1       8.705   8.399   3.780  1.00  0.00     0.012 A 
ATOM     40  C   UNL     1       6.947  10.081   3.883  1.00  0.00     0.148 A 
ATOM     41  C   UNL     1       8.845   8.439   5.165  1.00  0.00     0.002 A 
ATOM     42  C   UNL     1       7.127  10.149   5.261  1.00  0.00     0.091 A 
ATOM     43  F   UNL     1       6.011  10.804   3.253  1.00  0.00    -0.205 F 
ATOM     44  C   UNL     1       8.058   9.315   5.904  1.00  0.00     0.022 A 
BRANCH  42  45
ATOM     45  S   UNL     1       6.204  11.285   6.300  1.00  0.00     0.127 S 
ATOM     46  O   UNL     1       5.271  10.381   6.971  1.00  0.00    -0.237 OA
ATOM     47  O   UNL     1       7.252  11.831   7.164  1.00  0.00    -0.237 OA
ATOM     48  O   UNL     1       5.602  12.254   5.395  1.00  0.00    -0.744 OA
ENDBRANCH  42  45
ENDBRANCH  24  38
BRANCH  25  49
ATOM     49  C   UNL     1       5.678   7.269  -6.487  1.00  0.00     0.023 A 
ATOM     50  C   UNL     1       6.676   6.718  -7.316  1.00  0.00     0.012 A 
ATOM     51  C   UNL     1       4.488   7.752  -7.070  1.00  0.00     0.148 A 
ATOM     52  C   UNL     1       6.503   6.664  -8.701  1.00  0.00     0.002 A 
ATOM     53  C   UNL     1       4.329   7.710  -8.456  1.00  0.00     0.091 A 
ATOM     54  F   UNL     1       3.569   8.310  -6.269  1.00  0.00    -0.205 F 
ATOM     55  C   UNL     1       5.332   7.160  -9.271  1.00  0.00     0.022 A 
BRANCH  53  56
ATOM     56  S   UNL     1       2.885   8.409  -9.279  1.00  0.00     0.127 S 
ATOM     57  O   UNL     1       3.387   9.727  -9.666  1.00  0.00    -0.237 OA
ATOM     58  O   UNL     1       2.669   7.499 -10.406  1.00  0.00    -0.237 OA
ATOM     59  O   UNL     1       1.823   8.416  -8.280  1.00  0.00    -0.744 OA
ENDBRANCH  53  56
ENDBRANCH  25  49
BRANCH  37  60
ATOM     60  C   UNL     1       9.132  12.323  -3.215  1.00  0.00     0.023 A 
ATOM     61  C   UNL     1       8.431  13.479  -3.603  1.00  0.00     0.012 A 
ATOM     62  C   UNL     1      10.539  12.343  -3.160  1.00  0.00     0.148 A 
ATOM     63  C   UNL     1       9.123  14.641  -3.935  1.00  0.00     0.002 A 
ATOM     64  C   UNL     1      11.219  13.518  -3.444  1.00  0.00     0.091 A 
ATOM     65  F   UNL     1      11.183  11.218  -2.815  1.00  0.00    -0.205 F 
ATOM     66  C   UNL     1      10.514  14.667  -3.838  1.00  0.00     0.022 A 
BRANCH  64  67
ATOM     67  S   UNL     1      12.996  13.668  -3.226  1.00  0.00     0.127 S 
ATOM     68  O   UNL     1      13.472  13.637  -4.607  1.00  0.00    -0.237 OA
ATOM     69  O   UNL     1      13.122  14.967  -2.564  1.00  0.00    -0.237 OA
ATOM     70  O   UNL     1      13.393  12.535  -2.400  1.00  0.00    -0.744 OA
ENDBRANCH  64  67
ENDBRANCH  37  60
ENDBRANCH  11  12
ENDBRANCH   4   6
ENDBRANCH   3   4
ENDBRANCH   2   3
ENDBRANCH   1   2
BRANCH   1  71
ATOM     71  O   UNL     1       3.420   0.066  -1.651  1.00  0.00    -0.462 OA
BRANCH  71  72
ATOM     72  C   UNL     1       2.054   0.100  -1.664  1.00  0.00     0.309 C 
ATOM     73  O   UNL     1       1.352  -0.878  -1.445  1.00  0.00    -0.252 OA
BRANCH  72  74
ATOM     74  C   UNL     1       1.515   1.451  -2.137  1.00  0.00     0.111 C 
ATOM     75  C   UNL     1       2.386   2.618  -1.718  1.00  0.00     0.016 C 
ATOM     76  C   UNL     1       0.058   1.657  -1.687  1.00  0.00     0.093 C 
ATOM     77  C   UNL     1       1.849   3.968  -2.161  1.00  0.00     0.001 C 
ATOM     78  C   UNL     1      -0.480   3.088  -1.899  1.00  0.00     0.014 C 
ATOM     79  C   UNL     1       0.496   4.194  -1.510  1.00  0.00     0.001 C 
BRANCH  76  80
ATOM     80  C   UNL     1      -0.950   0.623  -2.227  1.00  0.00     0.228 C 
ATOM     81  O   UNL     1      -1.804   0.149  -1.466  1.00  0.00    -0.274 OA
ATOM     82  N   UNL     1      -1.012   0.241  -3.546  1.00  0.00    -0.326 N 
ATOM     83  H   UNL     1      -1.473  -0.607  -3.740  1.00  0.00     0.169 HD
BRANCH  82  84
ATOM     84  C   UNL     1      -0.488   0.936  -4.636  1.00  0.00     0.041 A 
ATOM     85  C   UNL     1      -1.198   2.007  -5.160  1.00  0.00     0.028 A 
ATOM     86  C   UNL     1       0.773   0.623  -5.132  1.00  0.00     0.028 A 
ATOM     87  C   UNL     1      -0.561   2.897  -6.025  1.00  0.00     0.028 A 
ATOM     88  C   UNL     1       1.422   1.540  -5.959  1.00  0.00     0.028 A 
ATOM     89  C   UNL     1       0.776   2.712  -6.371  1.00  0.00     0.041 A 
BRANCH  89  90
ATOM     90  N   UNL     1       1.574   3.637  -7.047  1.00  0.00    -0.319 N 
ATOM     91  C   UNL     1       1.361   4.869  -7.625  1.00  0.00     0.291 C 
ATOM     92  H   UNL     1       2.509   3.339  -7.129  1.00  0.00     0.170 HD
ATOM     93  O   UNL     1       2.383   5.414  -8.024  1.00  0.00    -0.265 OA
BRANCH  91  94
ATOM     94  C   UNL     1       0.027   5.398  -7.751  1.00  0.00     0.191 A 
ATOM     95  C   UNL     1      -0.687   6.305  -6.989  1.00  0.00     0.056 A 
ATOM     96  O   UNL     1      -0.764   4.937  -8.772  1.00  0.00    -0.459 OA
ATOM     97  C   UNL     1      -1.979   6.392  -7.567  1.00  0.00     0.043 A 
ATOM     98  C   UNL     1      -1.956   5.578  -8.674  1.00  0.00     0.196 A 
ENDBRANCH  91  94
ENDBRANCH  89  90
ENDBRANCH  82  84
ENDBRANCH  76  80
ENDBRANCH  72  74
ENDBRANCH  71  72
ENDBRANCH   1  71
TORSDOF 18
