REMARK SMILES Cc1ccc(C(N)=O)c(NCc2ccc(C(=O)OCCOC(=O)c3ccc(-c4c5nc(c(-c6cccc(S(=O)(=O)[O-])c6F)c6ccc([nH]6)c(-c6cccc(S(=O)(=O)[O-])c6F)c6nc(c(-c7cccc(S(=O)(=O)[O-])c7F)c7ccc4[nH]7)C=C6)C=C5)cc3)o2)n1
REMARK SMILES IDX 19 1 18 2 16 3 17 4 15 5 12 6 13 7 87 8 14 9 11 10 10 11
REMARK SMILES IDX 9 13 1 14 2 15 3 16 88 17 4 18 5 19 6 20 7 21 8 22 20 25
REMARK SMILES IDX 21 26 22 27 23 28 24 29 25 30 86 31 26 32 85 33 27 34 28 35
REMARK SMILES IDX 29 36 79 37 30 38 84 39 78 40 80 41 31 42 83 43 77 44 76 45
REMARK SMILES IDX 32 47 64 48 44 49 63 50 45 51 48 52 62 53 81 54 46 55 47 56
REMARK SMILES IDX 61 58 82 59 49 60 33 61 34 62 42 63 35 64 37 65 43 66 36 67
REMARK SMILES IDX 38 68 39 69 40 70 41 71 65 72 66 73 74 74 67 75 69 76 75 77
REMARK SMILES IDX 68 78 70 79 71 80 72 81 73 82 50 83 51 84 59 85 52 86 54 87
REMARK SMILES IDX 60 88 53 89 55 90 56 91 57 92 58 93
REMARK H PARENT 10 12 7 23 7 24 80 46 48 57
REMARK Flexibility Score: inf
ROOT
ATOM      1  C   UNL     1      -0.971   9.131  -4.769  1.00  0.00     0.275 C 
ENDROOT
BRANCH   1   2
ATOM      2  O   UNL     1      -1.079   7.723  -4.487  1.00  0.00    -0.456 OA
BRANCH   2   3
ATOM      3  C   UNL     1      -0.276   7.263  -3.479  1.00  0.00     0.374 C 
ATOM      4  O   UNL     1       0.582   7.933  -2.925  1.00  0.00    -0.242 OA
BRANCH   3   5
ATOM      5  C   UNL     1      -0.658   5.918  -3.111  1.00  0.00     0.211 A 
ATOM      6  C   UNL     1      -0.844   4.263  -1.655  1.00  0.00     0.124 A 
ATOM      7  C   UNL     1      -1.548   3.877  -2.776  1.00  0.00     0.048 A 
ATOM      8  O   UNL     1      -0.245   5.465  -1.886  1.00  0.00    -0.452 OA
ATOM      9  C   UNL     1      -1.443   4.947  -3.705  1.00  0.00     0.058 A 
BRANCH   6  10
ATOM     10  C   UNL     1      -0.661   3.707  -0.280  1.00  0.00     0.190 C 
BRANCH  10  11
ATOM     11  N   UNL     1      -1.524   2.577   0.045  1.00  0.00    -0.362 N 
ATOM     12  H   UNL     1      -2.458   2.727   0.319  1.00  0.00     0.162 HD
BRANCH  11  13
ATOM     13  C   UNL     1      -1.015   1.284  -0.036  1.00  0.00     0.139 A 
ATOM     14  C   UNL     1       2.392  -0.115  -0.101  1.00  0.00     0.067 C 
ATOM     15  C   UNL     1       0.895  -0.073  -0.095  1.00  0.00     0.040 A 
ATOM     16  C   UNL     1       0.141  -1.231  -0.022  1.00  0.00     0.024 A 
ATOM     17  N   UNL     1       0.330   1.156  -0.122  1.00  0.00    -0.236 NA
ATOM     18  C   UNL     1      -1.244  -1.113   0.019  1.00  0.00     0.019 A 
ATOM     19  C   UNL     1      -1.844   0.155   0.008  1.00  0.00     0.081 A 
BRANCH  19  20
ATOM     20  C   UNL     1      -3.333   0.191   0.030  1.00  0.00     0.252 C 
ATOM     21  N   UNL     1      -3.958   1.357  -0.310  1.00  0.00    -0.365 N 
ATOM     22  O   UNL     1      -3.995  -0.804   0.307  1.00  0.00    -0.269 OA
ATOM     23  H   UNL     1      -3.425   2.154  -0.532  1.00  0.00     0.159 HD
ATOM     24  H   UNL     1      -4.941   1.400  -0.333  1.00  0.00     0.159 HD
ENDBRANCH  19  20
ENDBRANCH  11  13
ENDBRANCH  10  11
ENDBRANCH   6  10
ENDBRANCH   3   5
ENDBRANCH   2   3
ENDBRANCH   1   2
BRANCH   1  25
ATOM     25  C   UNL     1      -2.076   9.936  -4.074  1.00  0.00     0.275 C 
BRANCH  25  26
ATOM     26  O   UNL     1      -1.889  10.002  -2.647  1.00  0.00    -0.458 OA
BRANCH  26  27
ATOM     27  C   UNL     1      -2.527   9.043  -1.933  1.00  0.00     0.338 C 
ATOM     28  O   UNL     1      -3.241   8.158  -2.377  1.00  0.00    -0.246 OA
BRANCH  27  29
ATOM     29  C   UNL     1      -2.132   9.121  -0.515  1.00  0.00     0.060 A 
ATOM     30  C   UNL     1      -1.564   7.982   0.059  1.00  0.00     0.016 A 
ATOM     31  C   UNL     1      -2.372  10.255   0.261  1.00  0.00     0.016 A 
ATOM     32  C   UNL     1      -1.230   7.965   1.410  1.00  0.00     0.010 A 
ATOM     33  C   UNL     1      -2.039  10.238   1.623  1.00  0.00     0.010 A 
ATOM     34  C   UNL     1      -1.476   9.089   2.207  1.00  0.00    -0.014 A 
BRANCH  34  35
ATOM     35  C   UNL     1      -1.172   9.033   3.658  1.00  0.00     0.031 A 
ATOM     36  C   UNL     1      -2.287   8.903   4.657  1.00  0.00     0.074 A 
ATOM     37  C   UNL     1       0.107   9.079   4.075  1.00  0.00     0.049 A 
ATOM     38  N   UNL     1      -2.223   8.846   5.961  1.00  0.00    -0.248 NA
ATOM     39  C   UNL     1      -3.654   8.825   4.118  1.00  0.00     0.031 C 
ATOM     40  C   UNL     1       1.274   9.199   3.200  1.00  0.00     0.029 A 
ATOM     41  N   UNL     1       0.638   9.045   5.340  1.00  0.00    -0.354 N 
ATOM     42  C   UNL     1      -3.537   8.760   6.404  1.00  0.00     0.074 A 
ATOM     43  C   UNL     1      -4.380   8.775   5.227  1.00  0.00     0.031 C 
ATOM     44  C   UNL     1       2.383   9.244   3.956  1.00  0.00     0.029 A 
ATOM     45  C   UNL     1       2.006   9.185   5.365  1.00  0.00     0.049 A 
ATOM     46  H   UNL     1       0.092   8.932   6.152  1.00  0.00     0.167 HD
ATOM     47  C   UNL     1      -3.998   8.661   7.673  1.00  0.00     0.034 A 
ATOM     48  C   UNL     1       2.857   9.272   6.407  1.00  0.00     0.034 A 
ATOM     49  C   UNL     1      -3.157   8.614   8.840  1.00  0.00     0.049 A 
ATOM     50  C   UNL     1       2.315   9.167   7.807  1.00  0.00     0.074 A 
ATOM     51  C   UNL     1      -3.532   8.469  10.164  1.00  0.00     0.029 A 
ATOM     52  N   UNL     1      -1.775   8.716   8.824  1.00  0.00    -0.354 N 
ATOM     53  N   UNL     1       1.080   8.972   8.202  1.00  0.00    -0.248 NA
ATOM     54  C   UNL     1       3.287   9.265   8.906  1.00  0.00     0.031 C 
ATOM     55  C   UNL     1      -2.375   8.499  10.952  1.00  0.00     0.029 A 
ATOM     56  C   UNL     1      -1.280   8.647  10.116  1.00  0.00     0.049 A 
ATOM     57  H   UNL     1      -1.226   8.822   8.014  1.00  0.00     0.167 HD
ATOM     58  C   UNL     1       1.129   8.896   9.589  1.00  0.00     0.074 A 
ATOM     59  C   UNL     1       2.520   9.042   9.966  1.00  0.00     0.031 C 
ATOM     60  C   UNL     1       0.113   8.739  10.473  1.00  0.00     0.034 A 
BRANCH  47  61
ATOM     61  C   UNL     1      -5.488   8.564   7.869  1.00  0.00     0.023 A 
ATOM     62  C   UNL     1      -6.149   7.354   7.576  1.00  0.00     0.012 A 
ATOM     63  C   UNL     1      -6.223   9.645   8.394  1.00  0.00     0.148 A 
ATOM     64  C   UNL     1      -7.523   7.229   7.778  1.00  0.00     0.002 A 
ATOM     65  C   UNL     1      -7.586   9.501   8.627  1.00  0.00     0.091 A 
ATOM     66  F   UNL     1      -5.580  10.795   8.642  1.00  0.00    -0.205 F 
ATOM     67  C   UNL     1      -8.238   8.298   8.312  1.00  0.00     0.022 A 
BRANCH  65  68
ATOM     68  S   UNL     1      -8.578  10.798   9.376  1.00  0.00     0.127 S 
ATOM     69  O   UNL     1      -9.332  11.293   8.225  1.00  0.00    -0.237 OA
ATOM     70  O   UNL     1      -9.375  10.055  10.353  1.00  0.00    -0.237 OA
ATOM     71  O   UNL     1      -7.631  11.739   9.959  1.00  0.00    -0.744 OA
ENDBRANCH  65  68
ENDBRANCH  47  61
BRANCH  48  72
ATOM     72  C   UNL     1       4.318   9.429   6.160  1.00  0.00     0.023 A 
ATOM     73  C   UNL     1       5.189   8.363   6.454  1.00  0.00     0.012 A 
ATOM     74  C   UNL     1       4.843  10.613   5.607  1.00  0.00     0.148 A 
ATOM     75  C   UNL     1       6.560   8.482   6.223  1.00  0.00     0.002 A 
ATOM     76  C   UNL     1       6.202  10.705   5.330  1.00  0.00     0.091 A 
ATOM     77  F   UNL     1       4.001  11.626   5.357  1.00  0.00    -0.205 F 
ATOM     78  C   UNL     1       7.065   9.646   5.650  1.00  0.00     0.022 A 
BRANCH  76  79
ATOM     79  S   UNL     1       6.911  12.118   4.476  1.00  0.00     0.127 S 
ATOM     80  O   UNL     1       7.595  12.812   5.564  1.00  0.00    -0.237 OA
ATOM     81  O   UNL     1       7.795  11.476   3.503  1.00  0.00    -0.237 OA
ATOM     82  O   UNL     1       5.782  12.822   3.883  1.00  0.00    -0.744 OA
ENDBRANCH  76  79
ENDBRANCH  48  72
BRANCH  60  83
ATOM     83  C   UNL     1       0.461   8.693  11.938  1.00  0.00     0.023 A 
ATOM     84  C   UNL     1       0.820   9.881  12.604  1.00  0.00     0.012 A 
ATOM     85  C   UNL     1       0.359   7.493  12.668  1.00  0.00     0.148 A 
ATOM     86  C   UNL     1       1.098   9.871  13.971  1.00  0.00     0.002 A 
ATOM     87  C   UNL     1       0.595   7.499  14.039  1.00  0.00     0.091 A 
ATOM     88  F   UNL     1       0.036   6.369  12.012  1.00  0.00    -0.205 F 
ATOM     89  C   UNL     1       0.974   8.684  14.689  1.00  0.00     0.022 A 
BRANCH  87  90
ATOM     90  S   UNL     1       0.369   6.035  15.056  1.00  0.00     0.127 S 
ATOM     91  O   UNL     1       1.750   5.621  15.295  1.00  0.00    -0.237 OA
ATOM     92  O   UNL     1      -0.318   6.573  16.232  1.00  0.00    -0.237 OA
ATOM     93  O   UNL     1      -0.434   5.117  14.260  1.00  0.00    -0.744 OA
ENDBRANCH  87  90
ENDBRANCH  60  83
ENDBRANCH  34  35
ENDBRANCH  27  29
ENDBRANCH  26  27
ENDBRANCH  25  26
ENDBRANCH   1  25
TORSDOF 18
