REMARK SMILES N#C/C(=C/c1ccc(-c2cccc(C(=O)OCCOC(=O)c3ccc(-c4c5nc(c(-c6cccc(S(=O)(=O)[O-])c6F)c6ccc([nH]6)c(-c6cccc(S(=O)(=O)[O-])c6F)c6nc(c(-c7cccc(S(=O)(=O)[O-])c7F)c7ccc4[nH]7)C=C6)C=C5)cc3)c2)o1)c1ccc(F)cc1
REMARK SMILES IDX 17 1 16 2 14 3 15 4 13 5 9 6 10 7 85 8 11 9 12 10 8 11 5 12
REMARK SMILES IDX 6 13 86 14 7 15 4 16 3 17 2 18 1 19 87 20 88 21 93 22 89 23
REMARK SMILES IDX 92 24 90 25 91 26 18 27 19 28 20 29 21 30 22 31 23 32 84 33
REMARK SMILES IDX 24 34 83 35 25 36 26 37 27 38 77 39 28 40 82 41 76 42 78 43
REMARK SMILES IDX 29 44 81 45 75 46 74 47 30 49 62 50 42 51 61 52 43 53 46 54
REMARK SMILES IDX 60 55 79 56 44 57 45 58 59 60 80 61 47 62 31 63 32 64 40 65
REMARK SMILES IDX 33 66 35 67 41 68 34 69 36 70 37 71 38 72 39 73 63 74 64 75
REMARK SMILES IDX 72 76 65 77 67 78 73 79 66 80 68 81 69 82 70 83 71 84 48 85
REMARK SMILES IDX 49 86 57 87 50 88 52 89 58 90 51 91 53 92 54 93 55 94 56 95
REMARK H PARENT 78 48 46 59
REMARK Flexibility Score: inf
ROOT
ATOM      1  C   UNL     1      12.805  -0.266   5.388  1.00  0.00     0.275 C 
ENDROOT
BRANCH   1   2
ATOM      2  O   UNL     1      11.836  -0.718   4.424  1.00  0.00    -0.458 OA
BRANCH   2   3
ATOM      3  C   UNL     1      12.316  -1.347   3.318  1.00  0.00     0.338 C 
ATOM      4  O   UNL     1      13.478  -1.538   3.028  1.00  0.00    -0.246 OA
BRANCH   3   5
ATOM      5  C   UNL     1      11.174  -1.863   2.525  1.00  0.00     0.060 A 
ATOM      6  C   UNL     1       8.921  -1.587   1.709  1.00  0.00     0.018 A 
ATOM      7  C   UNL     1       8.974  -2.846   1.105  1.00  0.00     0.012 A 
ATOM      8  C   UNL     1      10.003  -1.123   2.459  1.00  0.00     0.027 A 
ATOM      9  C   UNL     1      10.153  -3.587   1.156  1.00  0.00     0.002 A 
ATOM     10  C   UNL     1      11.268  -3.067   1.817  1.00  0.00     0.016 A 
BRANCH   6  11
ATOM     11  C   UNL     1       7.832  -0.672   1.483  1.00  0.00     0.134 A 
ATOM     12  C   UNL     1       5.716  -0.134   1.283  1.00  0.00     0.128 A 
ATOM     13  C   UNL     1       6.464   1.022   1.082  1.00  0.00     0.051 A 
ATOM     14  O   UNL     1       6.573  -1.164   1.564  1.00  0.00    -0.457 OA
ATOM     15  C   UNL     1       7.817   0.668   1.177  1.00  0.00     0.051 A 
BRANCH  12  16
ATOM     16  C   UNL     1       4.320  -0.311   1.162  1.00  0.00     0.067 C 
ATOM     17  C   UNL     1       3.684   0.011   0.022  1.00  0.00     0.063 C 
BRANCH  17  18
ATOM     18  C   UNL     1       2.164   0.011   0.022  1.00  0.00     0.100 C 
ATOM     19  N   UNL     1       0.903   0.011   0.022  1.00  0.00    -0.192 NA
ENDBRANCH  17  18
BRANCH  17  20
ATOM     20  C   UNL     1       4.338   0.503  -1.219  1.00  0.00    -0.007 A 
ATOM     21  C   UNL     1       5.338  -0.250  -1.860  1.00  0.00     0.012 A 
ATOM     22  C   UNL     1       3.985   1.754  -1.755  1.00  0.00     0.012 A 
ATOM     23  C   UNL     1       6.005   0.259  -2.978  1.00  0.00     0.040 A 
ATOM     24  C   UNL     1       4.645   2.255  -2.880  1.00  0.00     0.040 A 
ATOM     25  C   UNL     1       5.655   1.508  -3.474  1.00  0.00     0.123 A 
ATOM     26  F   UNL     1       6.303   2.004  -4.536  1.00  0.00    -0.207 F 
ENDBRANCH  17  20
ENDBRANCH  12  16
ENDBRANCH   6  11
ENDBRANCH   3   5
ENDBRANCH   2   3
ENDBRANCH   1   2
BRANCH   1  27
ATOM     27  C   UNL     1      12.761  -1.141   6.641  1.00  0.00     0.275 C 
BRANCH  27  28
ATOM     28  O   UNL     1      13.204  -2.472   6.326  1.00  0.00    -0.458 OA
BRANCH  28  29
ATOM     29  C   UNL     1      12.246  -3.427   6.329  1.00  0.00     0.338 C 
ATOM     30  O   UNL     1      11.075  -3.307   6.647  1.00  0.00    -0.246 OA
BRANCH  29  31
ATOM     31  C   UNL     1      12.797  -4.664   5.758  1.00  0.00     0.060 A 
ATOM     32  C   UNL     1      12.938  -4.724   4.378  1.00  0.00     0.016 A 
ATOM     33  C   UNL     1      13.055  -5.788   6.532  1.00  0.00     0.016 A 
ATOM     34  C   UNL     1      13.242  -5.920   3.743  1.00  0.00     0.010 A 
ATOM     35  C   UNL     1      13.481  -6.967   5.901  1.00  0.00     0.010 A 
ATOM     36  C   UNL     1      13.556  -7.054   4.497  1.00  0.00    -0.014 A 
BRANCH  36  37
ATOM     37  C   UNL     1      13.977  -8.308   3.808  1.00  0.00     0.031 A 
ATOM     38  C   UNL     1      13.243  -9.599   4.053  1.00  0.00     0.074 A 
ATOM     39  C   UNL     1      15.035  -8.292   2.970  1.00  0.00     0.049 A 
ATOM     40  N   UNL     1      13.562 -10.812   3.682  1.00  0.00    -0.248 NA
ATOM     41  C   UNL     1      11.993  -9.519   4.826  1.00  0.00     0.031 C 
ATOM     42  C   UNL     1      15.828  -7.109   2.628  1.00  0.00     0.029 A 
ATOM     43  N   UNL     1      15.641  -9.306   2.267  1.00  0.00    -0.354 N 
ATOM     44  C   UNL     1      12.604 -11.648   4.244  1.00  0.00     0.074 A 
ATOM     45  C   UNL     1      11.679 -10.800   4.966  1.00  0.00     0.031 C 
ATOM     46  C   UNL     1      16.803  -7.457   1.777  1.00  0.00     0.029 A 
ATOM     47  C   UNL     1      16.770  -8.901   1.591  1.00  0.00     0.049 A 
ATOM     48  H   UNL     1      15.301 -10.230   2.248  1.00  0.00     0.167 HD
ATOM     49  C   UNL     1      12.506 -12.997   4.165  1.00  0.00     0.034 A 
ATOM     50  C   UNL     1      17.718  -9.610   0.947  1.00  0.00     0.034 A 
ATOM     51  C   UNL     1      13.396 -13.827   3.395  1.00  0.00     0.049 A 
ATOM     52  C   UNL     1      17.593 -11.104   0.885  1.00  0.00     0.074 A 
ATOM     53  C   UNL     1      13.337 -15.196   3.198  1.00  0.00     0.029 A 
ATOM     54  N   UNL     1      14.509 -13.373   2.704  1.00  0.00    -0.354 N 
ATOM     55  N   UNL     1      16.644 -11.871   1.363  1.00  0.00    -0.248 NA
ATOM     56  C   UNL     1      18.664 -11.831   0.190  1.00  0.00     0.031 C 
ATOM     57  C   UNL     1      14.435 -15.574   2.418  1.00  0.00     0.029 A 
ATOM     58  C   UNL     1      15.159 -14.436   2.100  1.00  0.00     0.049 A 
ATOM     59  H   UNL     1      14.795 -12.433   2.652  1.00  0.00     0.167 HD
ATOM     60  C   UNL     1      16.995 -13.170   1.017  1.00  0.00     0.074 A 
ATOM     61  C   UNL     1      18.226 -13.081   0.258  1.00  0.00     0.031 C 
ATOM     62  C   UNL     1      16.366 -14.332   1.320  1.00  0.00     0.034 A 
BRANCH  49  63
ATOM     63  C   UNL     1      11.398 -13.669   4.935  1.00  0.00     0.023 A 
ATOM     64  C   UNL     1      10.062 -13.555   4.503  1.00  0.00     0.012 A 
ATOM     65  C   UNL     1      11.694 -14.463   6.062  1.00  0.00     0.148 A 
ATOM     66  C   UNL     1       9.034 -14.190   5.201  1.00  0.00     0.002 A 
ATOM     67  C   UNL     1      10.670 -15.131   6.724  1.00  0.00     0.091 A 
ATOM     68  F   UNL     1      12.968 -14.543   6.471  1.00  0.00    -0.205 F 
ATOM     69  C   UNL     1       9.339 -14.985   6.303  1.00  0.00     0.022 A 
BRANCH  67  70
ATOM     70  S   UNL     1      10.972 -16.241   8.104  1.00  0.00     0.127 S 
ATOM     71  O   UNL     1      10.438 -15.471   9.225  1.00  0.00    -0.237 OA
ATOM     72  O   UNL     1      10.177 -17.413   7.736  1.00  0.00    -0.237 OA
ATOM     73  O   UNL     1      12.410 -16.468   8.129  1.00  0.00    -0.744 OA
ENDBRANCH  67  70
ENDBRANCH  49  63
BRANCH  50  74
ATOM     74  C   UNL     1      18.879  -8.903   0.334  1.00  0.00     0.023 A 
ATOM     75  C   UNL     1      19.007  -8.857  -1.066  1.00  0.00     0.012 A 
ATOM     76  C   UNL     1      19.823  -8.228   1.134  1.00  0.00     0.148 A 
ATOM     77  C   UNL     1      20.065  -8.164  -1.659  1.00  0.00     0.002 A 
ATOM     78  C   UNL     1      20.835  -7.487   0.537  1.00  0.00     0.091 A 
ATOM     79  F   UNL     1      19.695  -8.302   2.467  1.00  0.00    -0.205 F 
ATOM     80  C   UNL     1      20.968  -7.468  -0.859  1.00  0.00     0.022 A 
BRANCH  78  81
ATOM     81  S   UNL     1      21.947  -6.440   1.483  1.00  0.00     0.127 S 
ATOM     82  O   UNL     1      23.216  -7.148   1.343  1.00  0.00    -0.237 OA
ATOM     83  O   UNL     1      21.863  -5.175   0.751  1.00  0.00    -0.237 OA
ATOM     84  O   UNL     1      21.394  -6.392   2.829  1.00  0.00    -0.744 OA
ENDBRANCH  78  81
ENDBRANCH  50  74
BRANCH  62  85
ATOM     85  C   UNL     1      16.991 -15.607   0.816  1.00  0.00     0.023 A 
ATOM     86  C   UNL     1      18.179 -16.084   1.405  1.00  0.00     0.012 A 
ATOM     87  C   UNL     1      16.373 -16.359  -0.202  1.00  0.00     0.148 A 
ATOM     88  C   UNL     1      18.760 -17.273   0.967  1.00  0.00     0.002 A 
ATOM     89  C   UNL     1      16.930 -17.569  -0.599  1.00  0.00     0.091 A 
ATOM     90  F   UNL     1      15.253 -15.879  -0.762  1.00  0.00    -0.205 F 
ATOM     91  C   UNL     1      18.130 -18.020  -0.026  1.00  0.00     0.022 A 
BRANCH  89  92
ATOM     92  S   UNL     1      16.143 -18.644  -1.803  1.00  0.00     0.127 S 
ATOM     93  O   UNL     1      17.046 -18.523  -2.946  1.00  0.00    -0.237 OA
ATOM     94  O   UNL     1      16.182 -19.943  -1.130  1.00  0.00    -0.237 OA
ATOM     95  O   UNL     1      14.804 -18.108  -2.007  1.00  0.00    -0.744 OA
ENDBRANCH  89  92
ENDBRANCH  62  85
ENDBRANCH  36  37
ENDBRANCH  29  31
ENDBRANCH  28  29
ENDBRANCH  27  28
ENDBRANCH   1  27
TORSDOF 18
