REMARK SMILES O=C(OCCOC(=O)[C@H]1CS[C@H](c2nc3ccccc3s2)[NH2+]1)c1ccc(-c2c3nc(c(-c4cccc(S(=O)(=O)[O-])c4F)c4ccc([nH]4)c(-c4cccc(S(=O)(=O)[O-])c4F)c4nc(c(-c5cccc(S(=O)(=O)[O-])c5F)c5ccc2[nH]5)C=C4)C=C3)cc1
REMARK SMILES IDX 4 1 3 2 2 3 1 4 23 5 24 6 85 7 25 8 84 9 26 10 27 11 28 12
REMARK SMILES IDX 78 13 29 14 83 15 77 16 79 17 30 18 82 19 76 20 75 21 31 23
REMARK SMILES IDX 63 24 43 25 62 26 44 27 47 28 61 29 80 30 45 31 46 32 60 34
REMARK SMILES IDX 81 35 48 36 32 37 33 38 41 39 34 40 36 41 42 42 35 43 37 44
REMARK SMILES IDX 38 45 39 46 40 47 64 48 65 49 73 50 66 51 68 52 74 53 67 54
REMARK SMILES IDX 69 55 70 56 71 57 72 58 49 59 50 60 58 61 51 62 53 63 59 64
REMARK SMILES IDX 52 65 54 66 55 67 56 68 57 69 5 70 6 71 7 72 8 73 9 74 10 75
REMARK SMILES IDX 22 76 11 77 12 78 13 81 14 82 21 83 15 84 20 85 16 86 19 87
REMARK SMILES IDX 17 88 18 89
REMARK H PARENT 79 22 47 33 22 79 22 80
REMARK Flexibility Score: inf
ROOT
ATOM      1  C   UNL     1       4.148  -1.252  -1.090  1.00  0.00     0.275 C 
ENDROOT
BRANCH   1   2
ATOM      2  O   UNL     1       3.089  -1.240  -0.121  1.00  0.00    -0.458 OA
BRANCH   2   3
ATOM      3  C   UNL     1       2.970  -0.545   1.035  1.00  0.00     0.338 C 
ATOM      4  O   UNL     1       1.999  -0.789   1.752  1.00  0.00    -0.246 OA
BRANCH   3   5
ATOM      5  C   UNL     1       3.850   0.608   1.423  1.00  0.00     0.060 A 
ATOM      6  C   UNL     1       5.128   0.896   0.928  1.00  0.00     0.016 A 
ATOM      7  C   UNL     1       3.267   1.545   2.297  1.00  0.00     0.016 A 
ATOM      8  C   UNL     1       5.747   2.129   1.176  1.00  0.00     0.010 A 
ATOM      9  C   UNL     1       3.861   2.791   2.513  1.00  0.00     0.010 A 
ATOM     10  C   UNL     1       5.102   3.101   1.936  1.00  0.00    -0.014 A 
BRANCH  10  11
ATOM     11  C   UNL     1       5.775   4.378   2.269  1.00  0.00     0.031 A 
ATOM     12  C   UNL     1       6.205   4.564   3.693  1.00  0.00     0.074 A 
ATOM     13  C   UNL     1       5.968   5.352   1.354  1.00  0.00     0.049 A 
ATOM     14  N   UNL     1       6.818   5.573   4.247  1.00  0.00    -0.248 NA
ATOM     15  C   UNL     1       5.907   3.457   4.620  1.00  0.00     0.031 C 
ATOM     16  C   UNL     1       5.613   5.283  -0.064  1.00  0.00     0.029 A 
ATOM     17  N   UNL     1       6.475   6.621   1.496  1.00  0.00    -0.354 N 
ATOM     18  C   UNL     1       6.979   5.216   5.577  1.00  0.00     0.074 A 
ATOM     19  C   UNL     1       6.312   3.953   5.774  1.00  0.00     0.031 C 
ATOM     20  C   UNL     1       5.820   6.483  -0.638  1.00  0.00     0.029 A 
ATOM     21  C   UNL     1       6.368   7.394   0.359  1.00  0.00     0.049 A 
ATOM     22  H   UNL     1       6.878   6.949   2.332  1.00  0.00     0.167 HD
ATOM     23  C   UNL     1       7.687   5.847   6.539  1.00  0.00     0.034 A 
ATOM     24  C   UNL     1       6.693   8.687   0.153  1.00  0.00     0.034 A 
ATOM     25  C   UNL     1       8.342   7.102   6.330  1.00  0.00     0.049 A 
ATOM     26  C   UNL     1       7.397   9.421   1.267  1.00  0.00     0.074 A 
ATOM     27  C   UNL     1       9.130   7.824   7.203  1.00  0.00     0.029 A 
ATOM     28  N   UNL     1       8.253   7.836   5.155  1.00  0.00    -0.354 N 
ATOM     29  N   UNL     1       7.708   8.994   2.469  1.00  0.00    -0.248 NA
ATOM     30  C   UNL     1       7.876  10.779   0.972  1.00  0.00     0.031 C 
ATOM     31  C   UNL     1       9.486   9.018   6.566  1.00  0.00     0.029 A 
ATOM     32  C   UNL     1       8.958   9.015   5.282  1.00  0.00     0.049 A 
ATOM     33  H   UNL     1       7.759   7.556   4.351  1.00  0.00     0.167 HD
ATOM     34  C   UNL     1       8.490   9.991   3.040  1.00  0.00     0.074 A 
ATOM     35  C   UNL     1       8.587  11.053   2.058  1.00  0.00     0.031 C 
ATOM     36  C   UNL     1       9.089  10.020   4.256  1.00  0.00     0.034 A 
BRANCH  23  37
ATOM     37  C   UNL     1       7.780   5.143   7.864  1.00  0.00     0.023 A 
ATOM     38  C   UNL     1       8.495   3.927   7.958  1.00  0.00     0.012 A 
ATOM     39  C   UNL     1       7.086   5.625   8.985  1.00  0.00     0.148 A 
ATOM     40  C   UNL     1       8.450   3.165   9.123  1.00  0.00     0.002 A 
ATOM     41  C   UNL     1       7.089   4.885  10.160  1.00  0.00     0.091 A 
ATOM     42  F   UNL     1       6.393   6.767   8.867  1.00  0.00    -0.205 F 
ATOM     43  C   UNL     1       7.749   3.645  10.224  1.00  0.00     0.022 A 
BRANCH  41  44
ATOM     44  S   UNL     1       6.267   5.441  11.655  1.00  0.00     0.127 S 
ATOM     45  O   UNL     1       5.163   4.488  11.757  1.00  0.00    -0.237 OA
ATOM     46  O   UNL     1       7.316   5.272  12.659  1.00  0.00    -0.237 OA
ATOM     47  O   UNL     1       5.877   6.824  11.408  1.00  0.00    -0.744 OA
ENDBRANCH  41  44
ENDBRANCH  23  37
BRANCH  24  48
ATOM     48  C   UNL     1       6.495   9.332  -1.181  1.00  0.00     0.023 A 
ATOM     49  C   UNL     1       7.618   9.580  -1.996  1.00  0.00     0.012 A 
ATOM     50  C   UNL     1       5.220   9.725  -1.639  1.00  0.00     0.148 A 
ATOM     51  C   UNL     1       7.487  10.243  -3.217  1.00  0.00     0.002 A 
ATOM     52  C   UNL     1       5.092  10.358  -2.874  1.00  0.00     0.091 A 
ATOM     53  F   UNL     1       4.161   9.475  -0.858  1.00  0.00    -0.205 F 
ATOM     54  C   UNL     1       6.225  10.631  -3.656  1.00  0.00     0.022 A 
BRANCH  52  55
ATOM     55  S   UNL     1       3.509  10.848  -3.573  1.00  0.00     0.127 S 
ATOM     56  O   UNL     1       3.678  12.294  -3.715  1.00  0.00    -0.237 OA
ATOM     57  O   UNL     1       3.503  10.105  -4.834  1.00  0.00    -0.237 OA
ATOM     58  O   UNL     1       2.504  10.431  -2.610  1.00  0.00    -0.744 OA
ENDBRANCH  52  55
ENDBRANCH  24  48
BRANCH  36  59
ATOM     59  C   UNL     1       9.980  11.189   4.573  1.00  0.00     0.023 A 
ATOM     60  C   UNL     1       9.427  12.453   4.849  1.00  0.00     0.012 A 
ATOM     61  C   UNL     1      11.368  10.988   4.717  1.00  0.00     0.148 A 
ATOM     62  C   UNL     1      10.248  13.508   5.242  1.00  0.00     0.002 A 
ATOM     63  C   UNL     1      12.169  12.026   5.169  1.00  0.00     0.091 A 
ATOM     64  F   UNL     1      11.874   9.780   4.425  1.00  0.00    -0.205 F 
ATOM     65  C   UNL     1      11.614  13.291   5.419  1.00  0.00     0.022 A 
BRANCH  63  66
ATOM     66  S   UNL     1      13.909  11.793   5.548  1.00  0.00     0.127 S 
ATOM     67  O   UNL     1      14.552  12.496   4.439  1.00  0.00    -0.237 OA
ATOM     68  O   UNL     1      14.034  12.456   6.846  1.00  0.00    -0.237 OA
ATOM     69  O   UNL     1      14.123  10.353   5.585  1.00  0.00    -0.744 OA
ENDBRANCH  63  66
ENDBRANCH  36  59
ENDBRANCH  10  11
ENDBRANCH   3   5
ENDBRANCH   2   3
ENDBRANCH   1   2
BRANCH   1  70
ATOM     70  C   UNL     1       4.032  -0.178  -2.178  1.00  0.00     0.274 C 
BRANCH  70  71
ATOM     71  O   UNL     1       3.436   1.049  -1.720  1.00  0.00    -0.458 OA
BRANCH  71  72
ATOM     72  C   UNL     1       2.200   1.371  -2.212  1.00  0.00     0.365 C 
ATOM     73  O   UNL     1       1.608   0.696  -3.049  1.00  0.00    -0.245 OA
BRANCH  72  74
ATOM     74  C   UNL     1       1.625   2.679  -1.616  1.00  0.00     0.304 C 
ATOM     75  C   UNL     1       2.211   2.991  -0.259  1.00  0.00     0.153 C 
ATOM     76  N   UNL     1       1.816   3.852  -2.514  1.00  0.00    -0.317 N 
ATOM     77  S   UNL     1       2.276   4.761  -0.061  1.00  0.00    -0.085 SA
ATOM     78  C   UNL     1       1.599   5.093  -1.718  1.00  0.00     0.303 C 
ATOM     79  H   UNL     1       1.143   3.812  -3.280  1.00  0.00     0.348 HD
ATOM     80  H   UNL     1       2.758   3.846  -2.904  1.00  0.00     0.348 HD
BRANCH  78  81
ATOM     81  C   UNL     1       0.194   5.606  -1.472  1.00  0.00     0.163 A 
ATOM     82  N   UNL     1      -0.010   6.775  -0.893  1.00  0.00    -0.234 NA
ATOM     83  S   UNL     1      -1.225   4.646  -1.626  1.00  0.00    -0.112 S 
ATOM     84  C   UNL     1      -1.225   6.787  -0.254  1.00  0.00     0.082 A 
ATOM     85  C   UNL     1      -2.037   5.684  -0.515  1.00  0.00     0.055 A 
ATOM     86  C   UNL     1      -1.669   7.771   0.649  1.00  0.00     0.030 A 
ATOM     87  C   UNL     1      -3.288   5.529   0.101  1.00  0.00     0.021 A 
ATOM     88  C   UNL     1      -2.903   7.616   1.284  1.00  0.00     0.002 A 
ATOM     89  C   UNL     1      -3.700   6.508   1.012  1.00  0.00     0.002 A 
ENDBRANCH  78  81
ENDBRANCH  72  74
ENDBRANCH  71  72
ENDBRANCH  70  71
ENDBRANCH   1  70
TORSDOF 15
