REMARK SMILES O=C(OCCOC(=O)c1ccc(F)cc1-c1ccc(F)c(Cl)c1)c1ccc(-c2c3nc(c(-c4cccc(S(=O)(=O)[O-])c4F)c4ccc([nH]4)c(-c4cccc(S(=O)(=O)[O-])c4F)c4nc(c(-c5cccc(S(=O)(=O)[O-])c5F)c5ccc2[nH]5)C=C4)C=C3)cc1
REMARK SMILES IDX 4 1 3 2 2 3 1 4 24 5 25 6 86 7 26 8 85 9 27 10 28 11 29 12
REMARK SMILES IDX 79 13 30 14 84 15 78 16 80 17 31 18 83 19 77 20 76 21 32 23
REMARK SMILES IDX 64 24 44 25 63 26 45 27 48 28 62 29 81 30 46 31 47 32 61 34
REMARK SMILES IDX 82 35 49 36 33 37 34 38 42 39 35 40 37 41 43 42 36 43 38 44
REMARK SMILES IDX 39 45 40 46 41 47 65 48 66 49 74 50 67 51 69 52 75 53 68 54
REMARK SMILES IDX 70 55 71 56 72 57 73 58 50 59 51 60 59 61 52 62 54 63 60 64
REMARK SMILES IDX 53 65 55 66 56 67 57 68 58 69 5 70 6 71 7 72 8 73 9 74 10 75
REMARK SMILES IDX 15 76 11 77 14 78 12 79 13 80 16 81 17 82 23 83 18 84 21 85
REMARK SMILES IDX 19 86 22 87 20 88
REMARK H PARENT 80 22 48 33
REMARK Flexibility Score: inf
ROOT
ATOM      1  C   UNL     1       4.823  -1.751   0.702  1.00  0.00     0.275 C 
ENDROOT
BRANCH   1   2
ATOM      2  O   UNL     1       5.399  -0.453   0.588  1.00  0.00    -0.458 OA
BRANCH   2   3
ATOM      3  C   UNL     1       4.523   0.577   0.631  1.00  0.00     0.338 C 
ATOM      4  O   UNL     1       3.565   0.679   1.376  1.00  0.00    -0.246 OA
BRANCH   3   5
ATOM      5  C   UNL     1       4.807   1.427  -0.555  1.00  0.00     0.060 A 
ATOM      6  C   UNL     1       5.795   1.034  -1.474  1.00  0.00     0.016 A 
ATOM      7  C   UNL     1       3.988   2.520  -0.841  1.00  0.00     0.016 A 
ATOM      8  C   UNL     1       5.980   1.732  -2.650  1.00  0.00     0.010 A 
ATOM      9  C   UNL     1       4.110   3.169  -2.062  1.00  0.00     0.010 A 
ATOM     10  C   UNL     1       5.144   2.807  -2.939  1.00  0.00    -0.014 A 
BRANCH  10  11
ATOM     11  C   UNL     1       5.500   3.718  -4.035  1.00  0.00     0.031 A 
ATOM     12  C   UNL     1       5.998   5.078  -3.643  1.00  0.00     0.074 A 
ATOM     13  C   UNL     1       5.374   3.326  -5.314  1.00  0.00     0.049 A 
ATOM     14  N   UNL     1       6.264   6.106  -4.395  1.00  0.00    -0.248 NA
ATOM     15  C   UNL     1       6.205   5.321  -2.199  1.00  0.00     0.031 C 
ATOM     16  C   UNL     1       4.931   2.005  -5.762  1.00  0.00     0.029 A 
ATOM     17  N   UNL     1       5.572   4.020  -6.474  1.00  0.00    -0.354 N 
ATOM     18  C   UNL     1       6.645   7.114  -3.519  1.00  0.00     0.074 A 
ATOM     19  C   UNL     1       6.501   6.609  -2.177  1.00  0.00     0.031 C 
ATOM     20  C   UNL     1       4.811   2.009  -7.100  1.00  0.00     0.029 A 
ATOM     21  C   UNL     1       5.184   3.327  -7.596  1.00  0.00     0.049 A 
ATOM     22  H   UNL     1       5.955   4.926  -6.503  1.00  0.00     0.167 HD
ATOM     23  C   UNL     1       7.143   8.332  -3.819  1.00  0.00     0.034 A 
ATOM     24  C   UNL     1       5.138   3.735  -8.877  1.00  0.00     0.034 A 
ATOM     25  C   UNL     1       7.349   8.768  -5.168  1.00  0.00     0.049 A 
ATOM     26  C   UNL     1       5.678   5.106  -9.183  1.00  0.00     0.074 A 
ATOM     27  C   UNL     1       7.908   9.946  -5.617  1.00  0.00     0.029 A 
ATOM     28  N   UNL     1       7.017   8.017  -6.287  1.00  0.00    -0.354 N 
ATOM     29  N   UNL     1       6.133   6.016  -8.353  1.00  0.00    -0.248 NA
ATOM     30  C   UNL     1       5.773   5.481 -10.598  1.00  0.00     0.031 C 
ATOM     31  C   UNL     1       7.912   9.909  -7.015  1.00  0.00     0.029 A 
ATOM     32  C   UNL     1       7.374   8.698  -7.432  1.00  0.00     0.049 A 
ATOM     33  H   UNL     1       6.591   7.130  -6.267  1.00  0.00     0.167 HD
ATOM     34  C   UNL     1       6.627   7.043  -9.144  1.00  0.00     0.074 A 
ATOM     35  C   UNL     1       6.419   6.637 -10.521  1.00  0.00     0.031 C 
ATOM     36  C   UNL     1       7.200   8.217  -8.778  1.00  0.00     0.034 A 
BRANCH  23  37
ATOM     37  C   UNL     1       7.580   9.211  -2.680  1.00  0.00     0.023 A 
ATOM     38  C   UNL     1       8.728   8.860  -1.938  1.00  0.00     0.012 A 
ATOM     39  C   UNL     1       6.893  10.398  -2.370  1.00  0.00     0.148 A 
ATOM     40  C   UNL     1       9.170   9.662  -0.888  1.00  0.00     0.002 A 
ATOM     41  C   UNL     1       7.367  11.218  -1.353  1.00  0.00     0.091 A 
ATOM     42  F   UNL     1       5.793  10.702  -3.073  1.00  0.00    -0.205 F 
ATOM     43  C   UNL     1       8.497  10.846  -0.603  1.00  0.00     0.022 A 
BRANCH  41  44
ATOM     44  S   UNL     1       6.621  12.800  -0.946  1.00  0.00     0.127 S 
ATOM     45  O   UNL     1       6.284  12.616   0.466  1.00  0.00    -0.237 OA
ATOM     46  O   UNL     1       7.725  13.725  -1.195  1.00  0.00    -0.237 OA
ATOM     47  O   UNL     1       5.476  12.947  -1.833  1.00  0.00    -0.744 OA
ENDBRANCH  41  44
ENDBRANCH  23  37
BRANCH  24  48
ATOM     48  C   UNL     1       4.670   2.813  -9.950  1.00  0.00     0.023 A 
ATOM     49  C   UNL     1       5.605   2.284 -10.861  1.00  0.00     0.012 A 
ATOM     50  C   UNL     1       3.317   2.437 -10.064  1.00  0.00     0.148 A 
ATOM     51  C   UNL     1       5.197   1.437 -11.893  1.00  0.00     0.002 A 
ATOM     52  C   UNL     1       2.923   1.558 -11.069  1.00  0.00     0.091 A 
ATOM     53  F   UNL     1       2.440   2.943  -9.185  1.00  0.00    -0.205 F 
ATOM     54  C   UNL     1       3.859   1.071 -11.994  1.00  0.00     0.022 A 
BRANCH  52  55
ATOM     55  S   UNL     1       1.242   0.938 -11.211  1.00  0.00     0.127 S 
ATOM     56  O   UNL     1       0.761   1.646 -12.395  1.00  0.00    -0.237 OA
ATOM     57  O   UNL     1       1.463  -0.497 -11.399  1.00  0.00    -0.237 OA
ATOM     58  O   UNL     1       0.591   1.283  -9.954  1.00  0.00    -0.744 OA
ENDBRANCH  52  55
ENDBRANCH  24  48
BRANCH  36  59
ATOM     59  C   UNL     1       7.689   9.114  -9.879  1.00  0.00     0.023 A 
ATOM     60  C   UNL     1       6.763   9.821 -10.667  1.00  0.00     0.012 A 
ATOM     61  C   UNL     1       9.069   9.325 -10.061  1.00  0.00     0.148 A 
ATOM     62  C   UNL     1       7.206  10.704 -11.648  1.00  0.00     0.002 A 
ATOM     63  C   UNL     1       9.501  10.251 -10.998  1.00  0.00     0.091 A 
ATOM     64  F   UNL     1       9.931   8.624  -9.309  1.00  0.00    -0.205 F 
ATOM     65  C   UNL     1       8.572  10.931 -11.803  1.00  0.00     0.022 A 
BRANCH  63  66
ATOM     66  S   UNL     1      11.232  10.692 -11.174  1.00  0.00     0.127 S 
ATOM     67  O   UNL     1      11.596   9.988 -12.402  1.00  0.00    -0.237 OA
ATOM     68  O   UNL     1      11.172  12.149 -11.300  1.00  0.00    -0.237 OA
ATOM     69  O   UNL     1      11.888  10.220  -9.962  1.00  0.00    -0.744 OA
ENDBRANCH  63  66
ENDBRANCH  36  59
ENDBRANCH  10  11
ENDBRANCH   3   5
ENDBRANCH   2   3
ENDBRANCH   1   2
BRANCH   1  70
ATOM     70  C   UNL     1       3.889  -2.161  -0.461  1.00  0.00     0.275 C 
BRANCH  70  71
ATOM     71  O   UNL     1       3.326  -1.071  -1.217  1.00  0.00    -0.458 OA
BRANCH  71  72
ATOM     72  C   UNL     1       1.970  -0.995  -1.319  1.00  0.00     0.338 C 
ATOM     73  O   UNL     1       1.162  -1.723  -0.786  1.00  0.00    -0.246 OA
BRANCH  72  74
ATOM     74  C   UNL     1       1.624   0.122  -2.244  1.00  0.00     0.068 A 
ATOM     75  C   UNL     1       2.151   0.078  -3.551  1.00  0.00     0.019 A 
ATOM     76  C   UNL     1       0.751   1.167  -1.865  1.00  0.00    -0.001 A 
ATOM     77  C   UNL     1       1.845   1.085  -4.471  1.00  0.00     0.040 A 
ATOM     78  C   UNL     1       0.519   2.202  -2.797  1.00  0.00     0.048 A 
ATOM     79  C   UNL     1       1.063   2.155  -4.074  1.00  0.00     0.123 A 
ATOM     80  F   UNL     1       0.810   3.152  -4.930  1.00  0.00    -0.207 F 
BRANCH  76  81
ATOM     81  C   UNL     1       0.032   1.243  -0.584  1.00  0.00    -0.016 A 
ATOM     82  C   UNL     1       0.637   1.736   0.578  1.00  0.00     0.012 A 
ATOM     83  C   UNL     1      -1.335   0.927  -0.525  1.00  0.00     0.032 A 
ATOM     84  C   UNL     1      -0.078   1.923   1.761  1.00  0.00     0.041 A 
ATOM     85  C   UNL     1      -2.058   1.109   0.657  1.00  0.00     0.077 A 
ATOM     86  C   UNL     1      -1.427   1.609   1.793  1.00  0.00     0.141 A 
ATOM     87  Cl  UNL     1      -3.739   0.737   0.688  1.00  0.00    -0.081 Cl
ATOM     88  F   UNL     1      -2.106   1.806   2.933  1.00  0.00    -0.205 F 
ENDBRANCH  76  81
ENDBRANCH  72  74
ENDBRANCH  71  72
ENDBRANCH  70  71
ENDBRANCH   1  70
TORSDOF 15
