REMARK SMILES C[C@H]1[C@H](C(=O)OCCOC(=O)c2ccc(-c3c4nc(c(-c5cccc(S(=O)(=O)[O-])c5F)c5ccc([nH]5)c(-c5cccc(S(=O)(=O)[O-])c5F)c5nc(c(-c6cccc(S(=O)(=O)[O-])c6F)c6ccc3[nH]6)C=C5)C=C4)cc2)CCN1C(=O)Nc1ccc(F)c(Cl)c1
REMARK SMILES IDX 8 1 7 2 6 3 4 4 5 5 3 6 1 7 2 8 77 9 75 10 76 11 78 12 79 13
REMARK SMILES IDX 80 14 81 16 82 17 88 18 83 19 86 20 84 21 87 22 85 23 9 24
REMARK SMILES IDX 10 25 11 26 12 27 13 28 74 29 14 30 73 31 15 32 16 33 17 34
REMARK SMILES IDX 67 35 18 36 72 37 66 38 68 39 19 40 71 41 65 42 64 43 20 45
REMARK SMILES IDX 52 46 32 47 51 48 33 49 36 50 50 51 69 52 34 53 35 54 49 56
REMARK SMILES IDX 70 57 37 58 21 59 22 60 30 61 23 62 25 63 31 64 24 65 26 66
REMARK SMILES IDX 27 67 28 68 29 69 53 70 54 71 62 72 55 73 57 74 63 75 56 76
REMARK SMILES IDX 58 77 59 78 60 79 61 80 38 81 39 82 47 83 40 84 42 85 48 86
REMARK SMILES IDX 41 87 43 88 44 89 45 90 46 91
REMARK H PARENT 80 15 68 44 36 55
REMARK Flexibility Score: inf
ROOT
ATOM      1  C   UNL     1       0.681   3.672   3.486  1.00  0.00     0.275 C 
ENDROOT
BRANCH   1   2
ATOM      2  C   UNL     1      -0.660   2.974   3.245  1.00  0.00     0.274 C 
BRANCH   2   3
ATOM      3  O   UNL     1      -0.546   1.883   2.310  1.00  0.00    -0.462 OA
BRANCH   3   4
ATOM      4  C   UNL     1      -0.891   2.162   1.027  1.00  0.00     0.311 C 
ATOM      5  O   UNL     1      -1.345   3.235   0.645  1.00  0.00    -0.252 OA
BRANCH   4   6
ATOM      6  C   UNL     1      -0.750   0.982   0.091  1.00  0.00     0.123 C 
ATOM      7  C   UNL     1       1.456   0.103  -0.771  1.00  0.00     0.032 C 
ATOM      8  C   UNL     1       0.435   0.030   0.372  1.00  0.00     0.098 C 
ATOM      9  N   UNL     1      -0.168  -1.308   0.477  1.00  0.00    -0.321 N 
ATOM     10  C   UNL     1      -2.008   0.124   0.166  1.00  0.00     0.039 C 
ATOM     11  C   UNL     1      -1.510  -1.281  -0.074  1.00  0.00     0.122 C 
BRANCH   9  12
ATOM     12  C   UNL     1       0.383  -2.524   0.771  1.00  0.00     0.322 C 
ATOM     13  O   UNL     1      -0.260  -3.568   0.609  1.00  0.00    -0.248 OA
ATOM     14  N   UNL     1       1.694  -2.673   1.074  1.00  0.00    -0.308 N 
ATOM     15  H   UNL     1       2.052  -3.542   0.780  1.00  0.00     0.171 HD
BRANCH  14  16
ATOM     16  C   UNL     1       2.657  -1.882   1.705  1.00  0.00     0.044 A 
ATOM     17  C   UNL     1       3.982  -2.041   1.274  1.00  0.00     0.029 A 
ATOM     18  C   UNL     1       2.375  -1.029   2.772  1.00  0.00     0.049 A 
ATOM     19  C   UNL     1       5.004  -1.274   1.833  1.00  0.00     0.043 A 
ATOM     20  C   UNL     1       3.409  -0.292   3.359  1.00  0.00     0.078 A 
ATOM     21  C   UNL     1       4.711  -0.398   2.870  1.00  0.00     0.141 A 
ATOM     22  Cl  UNL     1       3.075   0.706   4.723  1.00  0.00    -0.081 Cl
ATOM     23  F   UNL     1       5.710   0.317   3.408  1.00  0.00    -0.205 F 
ENDBRANCH  14  16
ENDBRANCH   9  12
ENDBRANCH   4   6
ENDBRANCH   3   4
ENDBRANCH   2   3
ENDBRANCH   1   2
BRANCH   1  24
ATOM     24  O   UNL     1       1.179   4.323   2.307  1.00  0.00    -0.458 OA
BRANCH  24  25
ATOM     25  C   UNL     1       1.971   3.559   1.521  1.00  0.00     0.338 C 
ATOM     26  O   UNL     1       2.298   2.398   1.694  1.00  0.00    -0.246 OA
BRANCH  25  27
ATOM     27  C   UNL     1       2.311   4.300   0.304  1.00  0.00     0.060 A 
ATOM     28  C   UNL     1       1.690   3.933  -0.892  1.00  0.00     0.016 A 
ATOM     29  C   UNL     1       3.300   5.280   0.331  1.00  0.00     0.016 A 
ATOM     30  C   UNL     1       2.074   4.531  -2.086  1.00  0.00     0.010 A 
ATOM     31  C   UNL     1       3.663   5.902  -0.864  1.00  0.00     0.010 A 
ATOM     32  C   UNL     1       3.061   5.522  -2.077  1.00  0.00    -0.014 A 
BRANCH  32  33
ATOM     33  C   UNL     1       3.470   6.182  -3.334  1.00  0.00     0.031 A 
ATOM     34  C   UNL     1       4.835   5.926  -3.896  1.00  0.00     0.074 A 
ATOM     35  C   UNL     1       2.632   7.059  -3.916  1.00  0.00     0.049 A 
ATOM     36  N   UNL     1       5.455   6.543  -4.865  1.00  0.00    -0.248 NA
ATOM     37  C   UNL     1       5.611   4.837  -3.279  1.00  0.00     0.031 C 
ATOM     38  C   UNL     1       1.277   7.364  -3.454  1.00  0.00     0.029 A 
ATOM     39  N   UNL     1       2.813   7.886  -4.995  1.00  0.00    -0.354 N 
ATOM     40  C   UNL     1       6.712   5.958  -4.942  1.00  0.00     0.074 A 
ATOM     41  C   UNL     1       6.763   4.925  -3.930  1.00  0.00     0.031 C 
ATOM     42  C   UNL     1       0.760   8.335  -4.223  1.00  0.00     0.029 A 
ATOM     43  C   UNL     1       1.765   8.754  -5.194  1.00  0.00     0.049 A 
ATOM     44  H   UNL     1       3.612   7.860  -5.570  1.00  0.00     0.167 HD
ATOM     45  C   UNL     1       7.727   6.259  -5.785  1.00  0.00     0.034 A 
ATOM     46  C   UNL     1       1.649   9.801  -6.033  1.00  0.00     0.034 A 
ATOM     47  C   UNL     1       7.643   7.266  -6.808  1.00  0.00     0.049 A 
ATOM     48  C   UNL     1       2.795  10.119  -6.953  1.00  0.00     0.074 A 
ATOM     49  C   UNL     1       8.598   7.627  -7.740  1.00  0.00     0.029 A 
ATOM     50  N   UNL     1       6.538   8.074  -7.031  1.00  0.00    -0.354 N 
ATOM     51  N   UNL     1       3.950   9.507  -7.070  1.00  0.00    -0.248 NA
ATOM     52  C   UNL     1       2.620  11.253  -7.870  1.00  0.00     0.031 C 
ATOM     53  C   UNL     1       8.073   8.661  -8.522  1.00  0.00     0.029 A 
ATOM     54  C   UNL     1       6.786   8.933  -8.085  1.00  0.00     0.049 A 
ATOM     55  H   UNL     1       5.700   8.040  -6.515  1.00  0.00     0.167 HD
ATOM     56  C   UNL     1       4.624  10.158  -8.096  1.00  0.00     0.074 A 
ATOM     57  C   UNL     1       3.744  11.205  -8.574  1.00  0.00     0.031 C 
ATOM     58  C   UNL     1       5.864   9.920  -8.588  1.00  0.00     0.034 A 
BRANCH  45  59
ATOM     59  C   UNL     1       9.004   5.476  -5.655  1.00  0.00     0.023 A 
ATOM     60  C   UNL     1       9.063   4.155  -6.139  1.00  0.00     0.012 A 
ATOM     61  C   UNL     1      10.161   6.066  -5.108  1.00  0.00     0.148 A 
ATOM     62  C   UNL     1      10.247   3.423  -6.061  1.00  0.00     0.002 A 
ATOM     63  C   UNL     1      11.348   5.342  -5.066  1.00  0.00     0.091 A 
ATOM     64  F   UNL     1      10.078   7.314  -4.628  1.00  0.00    -0.205 F 
ATOM     65  C   UNL     1      11.390   4.019  -5.535  1.00  0.00     0.022 A 
BRANCH  63  66
ATOM     66  S   UNL     1      12.887   6.049  -4.468  1.00  0.00     0.127 S 
ATOM     67  O   UNL     1      13.014   5.414  -3.157  1.00  0.00    -0.237 OA
ATOM     68  O   UNL     1      13.852   5.585  -5.465  1.00  0.00    -0.237 OA
ATOM     69  O   UNL     1      12.682   7.491  -4.451  1.00  0.00    -0.744 OA
ENDBRANCH  63  66
ENDBRANCH  45  59
BRANCH  46  70
ATOM     70  C   UNL     1       0.390  10.596  -6.052  1.00  0.00     0.023 A 
ATOM     71  C   UNL     1      -0.472  10.493  -7.159  1.00  0.00     0.012 A 
ATOM     72  C   UNL     1       0.014  11.403  -4.960  1.00  0.00     0.148 A 
ATOM     73  C   UNL     1      -1.679  11.193  -7.187  1.00  0.00     0.002 A 
ATOM     74  C   UNL     1      -1.214  12.056  -4.971  1.00  0.00     0.091 A 
ATOM     75  F   UNL     1       0.857  11.505  -3.922  1.00  0.00    -0.205 F 
ATOM     76  C   UNL     1      -2.056  11.963  -6.089  1.00  0.00     0.022 A 
BRANCH  74  77
ATOM     77  S   UNL     1      -1.833  12.954  -3.543  1.00  0.00     0.127 S 
ATOM     78  O   UNL     1      -1.626  14.341  -3.949  1.00  0.00    -0.237 OA
ATOM     79  O   UNL     1      -3.232  12.528  -3.494  1.00  0.00    -0.237 OA
ATOM     80  O   UNL     1      -1.031  12.492  -2.417  1.00  0.00    -0.744 OA
ENDBRANCH  74  77
ENDBRANCH  46  70
BRANCH  58  81
ATOM     81  C   UNL     1       6.337  10.771  -9.733  1.00  0.00     0.023 A 
ATOM     82  C   UNL     1       6.788  12.082  -9.488  1.00  0.00     0.012 A 
ATOM     83  C   UNL     1       6.441  10.228 -11.029  1.00  0.00     0.148 A 
ATOM     84  C   UNL     1       7.325  12.847 -10.522  1.00  0.00     0.002 A 
ATOM     85  C   UNL     1       7.016  10.982 -12.044  1.00  0.00     0.091 A 
ATOM     86  F   UNL     1       5.987   8.984 -11.239  1.00  0.00    -0.205 F 
ATOM     87  C   UNL     1       7.452  12.293 -11.794  1.00  0.00     0.022 A 
BRANCH  85  88
ATOM     88  S   UNL     1       7.304  10.319 -13.689  1.00  0.00     0.127 S 
ATOM     89  O   UNL     1       6.314  11.047 -14.481  1.00  0.00    -0.237 OA
ATOM     90  O   UNL     1       8.693  10.707 -13.940  1.00  0.00    -0.237 OA
ATOM     91  O   UNL     1       7.088   8.882 -13.587  1.00  0.00    -0.744 OA
ENDBRANCH  85  88
ENDBRANCH  58  81
ENDBRANCH  32  33
ENDBRANCH  25  27
ENDBRANCH  24  25
ENDBRANCH   1  24
TORSDOF 16
