REMARK SMILES O=C(CCC(=O)N1CCC[C@@]2(CCC(=O)N(Cc3ccncc3)C2)C1)OCCOC(=O)c1ccc(-c2c3nc(c(-c4cccc(S(=O)(=O)[O-])c4F)c4ccc([nH]4)c(-c4cccc(S(=O)(=O)[O-])c4F)c4nc(c(-c5cccc(S(=O)(=O)[O-])c5F)c5ccc2[nH]5)C=C4)C=C3)cc1
REMARK SMILES IDX 27 1 26 2 2 3 1 4 3 5 4 6 5 7 6 8 7 9 8 10 25 11 9 12 11 13
REMARK SMILES IDX 10 14 12 15 24 16 13 17 16 18 14 19 15 20 17 21 18 22 19 23
REMARK SMILES IDX 23 24 20 25 22 26 21 27 28 28 29 29 30 30 31 31 32 32 33 33
REMARK SMILES IDX 94 34 34 35 93 36 35 37 36 38 37 39 87 40 38 41 92 42 86 43
REMARK SMILES IDX 88 44 39 45 91 46 85 47 84 48 40 50 72 51 52 52 71 53 53 54
REMARK SMILES IDX 56 55 70 56 89 57 54 58 55 59 69 61 90 62 57 63 41 64 42 65
REMARK SMILES IDX 50 66 43 67 45 68 51 69 44 70 46 71 47 72 48 73 49 74 73 75
REMARK SMILES IDX 74 76 82 77 75 78 77 79 83 80 76 81 78 82 79 83 80 84 81 85
REMARK SMILES IDX 58 86 59 87 67 88 60 89 62 90 68 91 61 92 63 93 64 94 65 95
REMARK SMILES IDX 66 96
REMARK H PARENT 88 49 56 60
REMARK Flexibility Score: inf
ROOT
ATOM      1  C   UNL     1       4.298  -0.812  -1.144  1.00  0.00     0.274 C 
ENDROOT
BRANCH   1   2
ATOM      2  O   UNL     1       2.975  -0.410  -0.708  1.00  0.00    -0.462 OA
BRANCH   2   3
ATOM      3  C   UNL     1       2.617   0.806  -0.236  1.00  0.00     0.306 C 
ATOM      4  O   UNL     1       1.460   0.993   0.141  1.00  0.00    -0.252 OA
BRANCH   3   5
ATOM      5  C   UNL     1       3.650   1.894  -0.100  1.00  0.00     0.132 C 
BRANCH   5   6
ATOM      6  C   UNL     1       4.267   1.942   1.294  1.00  0.00     0.112 C 
BRANCH   6   7
ATOM      7  C   UNL     1       5.029   0.667   1.602  1.00  0.00     0.223 C 
ATOM      8  O   UNL     1       6.224   0.595   1.308  1.00  0.00    -0.275 OA
BRANCH   7   9
ATOM      9  N   UNL     1       4.325  -0.434   2.094  1.00  0.00    -0.342 N 
ATOM     10  C   UNL     1       5.087  -1.667   2.275  1.00  0.00     0.119 C 
ATOM     11  C   UNL     1       3.027  -0.316   2.767  1.00  0.00     0.128 C 
ATOM     12  C   UNL     1       4.265  -2.951   2.226  1.00  0.00     0.022 C 
ATOM     13  C   UNL     1       2.189  -1.619   2.867  1.00  0.00     0.006 C 
ATOM     14  C   UNL     1       2.786  -2.722   1.968  1.00  0.00     0.012 C 
ATOM     15  C   UNL     1       2.144  -2.000   4.357  1.00  0.00     0.020 C 
ATOM     16  C   UNL     1       0.726  -1.369   2.423  1.00  0.00     0.128 C 
ATOM     17  C   UNL     1       1.252  -3.183   4.641  1.00  0.00     0.101 C 
ATOM     18  N   UNL     1      -0.196  -2.457   2.777  1.00  0.00    -0.338 N 
ATOM     19  C   UNL     1      -0.100  -3.157   3.969  1.00  0.00     0.222 C 
ATOM     20  O   UNL     1      -0.988  -3.880   4.420  1.00  0.00    -0.275 OA
BRANCH  18  21
ATOM     21  C   UNL     1      -1.245  -2.814   1.818  1.00  0.00     0.155 C 
BRANCH  21  22
ATOM     22  C   UNL     1      -2.664  -2.692   2.313  1.00  0.00    -0.026 A 
ATOM     23  C   UNL     1      -3.301  -1.456   2.416  1.00  0.00     0.025 A 
ATOM     24  C   UNL     1      -3.380  -3.837   2.687  1.00  0.00     0.025 A 
ATOM     25  C   UNL     1      -4.607  -1.422   2.886  1.00  0.00     0.111 A 
ATOM     26  C   UNL     1      -4.674  -3.699   3.159  1.00  0.00     0.111 A 
ATOM     27  N   UNL     1      -5.311  -2.515   3.258  1.00  0.00    -0.265 NA
ENDBRANCH  21  22
ENDBRANCH  18  21
ENDBRANCH   7   9
ENDBRANCH   6   7
ENDBRANCH   5   6
ENDBRANCH   3   5
ENDBRANCH   2   3
ENDBRANCH   1   2
BRANCH   1  28
ATOM     28  C   UNL     1       4.332  -1.077  -2.644  1.00  0.00     0.275 C 
BRANCH  28  29
ATOM     29  O   UNL     1       3.914   0.108  -3.324  1.00  0.00    -0.458 OA
BRANCH  29  30
ATOM     30  C   UNL     1       2.572   0.172  -3.543  1.00  0.00     0.338 C 
ATOM     31  O   UNL     1       1.784  -0.746  -3.526  1.00  0.00    -0.246 OA
BRANCH  30  32
ATOM     32  C   UNL     1       2.197   1.602  -3.539  1.00  0.00     0.060 A 
ATOM     33  C   UNL     1       0.994   1.956  -2.916  1.00  0.00     0.016 A 
ATOM     34  C   UNL     1       3.042   2.580  -4.071  1.00  0.00     0.016 A 
ATOM     35  C   UNL     1       0.613   3.293  -2.853  1.00  0.00     0.010 A 
ATOM     36  C   UNL     1       2.657   3.915  -4.018  1.00  0.00     0.010 A 
ATOM     37  C   UNL     1       1.426   4.267  -3.441  1.00  0.00    -0.014 A 
BRANCH  37  38
ATOM     38  C   UNL     1       0.900   5.625  -3.671  1.00  0.00     0.031 A 
ATOM     39  C   UNL     1       0.276   5.905  -5.008  1.00  0.00     0.074 A 
ATOM     40  C   UNL     1       1.034   6.586  -2.742  1.00  0.00     0.049 A 
ATOM     41  N   UNL     1      -0.166   7.031  -5.494  1.00  0.00    -0.248 NA
ATOM     42  C   UNL     1       0.145   4.758  -5.926  1.00  0.00     0.031 C 
ATOM     43  C   UNL     1       1.631   6.408  -1.419  1.00  0.00     0.029 A 
ATOM     44  N   UNL     1       0.714   7.918  -2.793  1.00  0.00    -0.354 N 
ATOM     45  C   UNL     1      -0.598   6.737  -6.781  1.00  0.00     0.074 A 
ATOM     46  C   UNL     1      -0.363   5.330  -7.006  1.00  0.00     0.031 C 
ATOM     47  C   UNL     1       1.677   7.601  -0.799  1.00  0.00     0.029 A 
ATOM     48  C   UNL     1       1.139   8.624  -1.693  1.00  0.00     0.049 A 
ATOM     49  H   UNL     1       0.228   8.328  -3.545  1.00  0.00     0.167 HD
ATOM     50  C   UNL     1      -1.148   7.571  -7.692  1.00  0.00     0.034 A 
ATOM     51  C   UNL     1       1.121   9.952  -1.462  1.00  0.00     0.034 A 
ATOM     52  C   UNL     1      -1.377   8.966  -7.452  1.00  0.00     0.049 A 
ATOM     53  C   UNL     1       0.524  10.860  -2.508  1.00  0.00     0.074 A 
ATOM     54  C   UNL     1      -1.978   9.893  -8.283  1.00  0.00     0.029 A 
ATOM     55  N   UNL     1      -0.994   9.640  -6.303  1.00  0.00    -0.354 N 
ATOM     56  N   UNL     1      -0.012  10.550  -3.665  1.00  0.00    -0.248 NA
ATOM     57  C   UNL     1       0.504  12.299  -2.206  1.00  0.00     0.031 C 
ATOM     58  C   UNL     1      -1.924  11.138  -7.649  1.00  0.00     0.029 A 
ATOM     59  C   UNL     1      -1.323  10.978  -6.410  1.00  0.00     0.049 A 
ATOM     60  H   UNL     1      -0.552   9.227  -5.527  1.00  0.00     0.167 HD
ATOM     61  C   UNL     1      -0.460  11.747  -4.213  1.00  0.00     0.074 A 
ATOM     62  C   UNL     1      -0.157  12.784  -3.248  1.00  0.00     0.031 C 
ATOM     63  C   UNL     1      -1.052  11.978  -5.411  1.00  0.00     0.034 A 
BRANCH  50  64
ATOM     64  C   UNL     1      -1.545   6.994  -9.022  1.00  0.00     0.023 A 
ATOM     65  C   UNL     1      -2.682   6.167  -9.115  1.00  0.00     0.012 A 
ATOM     66  C   UNL     1      -0.827   7.322 -10.187  1.00  0.00     0.148 A 
ATOM     67  C   UNL     1      -3.088   5.660 -10.349  1.00  0.00     0.002 A 
ATOM     68  C   UNL     1      -1.263   6.849 -11.418  1.00  0.00     0.091 A 
ATOM     69  F   UNL     1       0.268   8.087 -10.068  1.00  0.00    -0.205 F 
ATOM     70  C   UNL     1      -2.387   6.010 -11.500  1.00  0.00     0.022 A 
BRANCH  68  71
ATOM     71  S   UNL     1      -0.473   7.299 -12.966  1.00  0.00     0.127 S 
ATOM     72  O   UNL     1       0.045   6.009 -13.419  1.00  0.00    -0.237 OA
ATOM     73  O   UNL     1      -1.601   7.811 -13.745  1.00  0.00    -0.237 OA
ATOM     74  O   UNL     1       0.540   8.289 -12.631  1.00  0.00    -0.744 OA
ENDBRANCH  68  71
ENDBRANCH  50  64
BRANCH  51  75
ATOM     75  C   UNL     1       1.675  10.507  -0.194  1.00  0.00     0.023 A 
ATOM     76  C   UNL     1       0.812  11.119   0.736  1.00  0.00     0.012 A 
ATOM     77  C   UNL     1       3.053  10.444   0.091  1.00  0.00     0.148 A 
ATOM     78  C   UNL     1       1.316  11.696   1.903  1.00  0.00     0.002 A 
ATOM     79  C   UNL     1       3.541  10.968   1.283  1.00  0.00     0.091 A 
ATOM     80  F   UNL     1       3.864   9.874  -0.812  1.00  0.00    -0.205 F 
ATOM     81  C   UNL     1       2.677  11.613   2.181  1.00  0.00     0.022 A 
BRANCH  79  82
ATOM     82  S   UNL     1       5.258  10.788   1.779  1.00  0.00     0.127 S 
ATOM     83  O   UNL     1       5.769  12.143   1.589  1.00  0.00    -0.237 OA
ATOM     84  O   UNL     1       5.128  10.367   3.174  1.00  0.00    -0.237 OA
ATOM     85  O   UNL     1       5.813   9.769   0.897  1.00  0.00    -0.744 OA
ENDBRANCH  79  82
ENDBRANCH  51  75
BRANCH  63  86
ATOM     86  C   UNL     1      -1.440  13.396  -5.736  1.00  0.00     0.023 A 
ATOM     87  C   UNL     1      -0.442  14.340  -6.048  1.00  0.00     0.012 A 
ATOM     88  C   UNL     1      -2.796  13.768  -5.816  1.00  0.00     0.148 A 
ATOM     89  C   UNL     1      -0.787  15.643  -6.402  1.00  0.00     0.002 A 
ATOM     90  C   UNL     1      -3.134  15.052  -6.222  1.00  0.00     0.091 A 
ATOM     91  F   UNL     1      -3.728  12.856  -5.503  1.00  0.00    -0.205 F 
ATOM     92  C   UNL     1      -2.132  15.995  -6.502  1.00  0.00     0.022 A 
BRANCH  90  93
ATOM     93  S   UNL     1      -4.837  15.563  -6.479  1.00  0.00     0.127 S 
ATOM     94  O   UNL     1      -5.043  16.482  -5.360  1.00  0.00    -0.237 OA
ATOM     95  O   UNL     1      -4.772  16.206  -7.792  1.00  0.00    -0.237 OA
ATOM     96  O   UNL     1      -5.634  14.345  -6.440  1.00  0.00    -0.744 OA
ENDBRANCH  90  93
ENDBRANCH  63  86
ENDBRANCH  37  38
ENDBRANCH  30  32
ENDBRANCH  29  30
ENDBRANCH  28  29
ENDBRANCH   1  28
TORSDOF 19
