REMARK SMILES C[NH2+]C[C@H](C)C(=O)Nc1snc(C)c1C(=O)OCCOC(=O)c1ccc(-c2c3nc(c(-c4cccc(S(=O)(=O)[O-])c4F)c4ccc([nH]4)c(-c4cccc(S(=O)(=O)[O-])c4F)c4nc(c(-c5cccc(S(=O)(=O)[O-])c5F)c5ccc2[nH]5)C=C4)C=C3)cc1
REMARK SMILES IDX 18 1 17 2 15 3 16 4 14 5 9 6 10 7 11 8 12 9 13 10 8 11 6 12
REMARK SMILES IDX 7 13 4 15 5 16 3 17 2 18 1 19 19 22 20 23 21 24 22 25 23 26
REMARK SMILES IDX 24 27 85 28 25 29 84 30 26 31 27 32 28 33 78 34 29 35 83 36
REMARK SMILES IDX 77 37 79 38 30 39 82 40 76 41 75 42 31 44 63 45 43 46 62 47
REMARK SMILES IDX 44 48 47 49 61 50 80 51 45 52 46 53 60 55 81 56 48 57 32 58
REMARK SMILES IDX 33 59 41 60 34 61 36 62 42 63 35 64 37 65 38 66 39 67 40 68
REMARK SMILES IDX 64 69 65 70 73 71 66 72 68 73 74 74 67 75 69 76 70 77 71 78
REMARK SMILES IDX 72 79 49 80 50 81 58 82 51 83 53 84 59 85 52 86 54 87 55 88
REMARK SMILES IDX 56 89 57 90
REMARK H PARENT 8 14 2 20 2 21 79 43 47 54
REMARK Flexibility Score: inf
ROOT
ATOM      1  C   UNL     1      -1.688  -0.969   1.648  1.00  0.00     0.275 C 
ENDROOT
BRANCH   1   2
ATOM      2  O   UNL     1      -2.159  -1.722   0.499  1.00  0.00    -0.458 OA
BRANCH   2   3
ATOM      3  C   UNL     1      -1.321  -2.540  -0.220  1.00  0.00     0.343 C 
ATOM      4  O   UNL     1      -0.164  -2.808   0.101  1.00  0.00    -0.246 OA
BRANCH   3   5
ATOM      5  C   UNL     1      -1.923  -3.001  -1.461  1.00  0.00     0.117 A 
ATOM      6  C   UNL     1      -2.928  -2.313  -2.109  1.00  0.00     0.130 A 
ATOM      7  S   UNL     1      -3.658  -3.316  -3.267  1.00  0.00    -0.017 S 
ATOM      8  N   UNL     1      -2.484  -4.478  -3.222  1.00  0.00    -0.195 NA
ATOM      9  C   UNL     1      -1.637  -4.205  -2.221  1.00  0.00     0.068 A 
ATOM     10  C   UNL     1      -0.534  -5.189  -2.017  1.00  0.00     0.069 C 
BRANCH   6  11
ATOM     11  N   UNL     1      -3.485  -1.073  -1.955  1.00  0.00    -0.315 N 
ATOM     12  C   UNL     1      -2.857   0.083  -1.591  1.00  0.00     0.233 C 
ATOM     13  O   UNL     1      -3.544   0.942  -1.021  1.00  0.00    -0.274 OA
ATOM     14  H   UNL     1      -4.452  -1.006  -2.127  1.00  0.00     0.170 HD
BRANCH  12  15
ATOM     15  C   UNL     1      -1.425   0.455  -2.046  1.00  0.00     0.130 C 
ATOM     16  C   UNL     1      -0.182   0.022  -1.284  1.00  0.00     0.024 C 
BRANCH  15  17
ATOM     17  C   UNL     1      -1.200   0.251  -3.553  1.00  0.00     0.273 C 
BRANCH  17  18
ATOM     18  N   UNL     1      -1.647   1.374  -4.383  1.00  0.00    -0.348 N 
ATOM     19  C   UNL     1      -0.922   2.604  -4.075  1.00  0.00     0.330 C 
ATOM     20  H   UNL     1      -1.496   1.139  -5.364  1.00  0.00     0.346 HD
ATOM     21  H   UNL     1      -2.635   1.535  -4.190  1.00  0.00     0.346 HD
ENDBRANCH  17  18
ENDBRANCH  15  17
ENDBRANCH  12  15
ENDBRANCH   6  11
ENDBRANCH   3   5
ENDBRANCH   2   3
ENDBRANCH   1   2
BRANCH   1  22
ATOM     22  C   UNL     1      -1.968  -1.631   2.982  1.00  0.00     0.275 C 
BRANCH  22  23
ATOM     23  O   UNL     1      -1.089  -2.735   3.079  1.00  0.00    -0.458 OA
BRANCH  23  24
ATOM     24  C   UNL     1      -1.538  -3.810   2.400  1.00  0.00     0.338 C 
ATOM     25  O   UNL     1      -2.624  -3.942   1.855  1.00  0.00    -0.246 OA
BRANCH  24  26
ATOM     26  C   UNL     1      -0.500  -4.850   2.429  1.00  0.00     0.060 A 
ATOM     27  C   UNL     1      -0.898  -5.956   1.671  1.00  0.00     0.016 A 
ATOM     28  C   UNL     1       0.056  -4.961   3.703  1.00  0.00     0.016 A 
ATOM     29  C   UNL     1      -1.221  -7.086   2.365  1.00  0.00     0.010 A 
ATOM     30  C   UNL     1      -0.332  -6.051   4.418  1.00  0.00     0.010 A 
ATOM     31  C   UNL     1      -1.024  -7.065   3.746  1.00  0.00    -0.014 A 
BRANCH  31  32
ATOM     32  C   UNL     1      -1.262  -8.282   4.473  1.00  0.00     0.031 A 
ATOM     33  C   UNL     1      -0.193  -9.258   4.115  1.00  0.00     0.074 A 
ATOM     34  C   UNL     1      -2.200  -8.293   5.437  1.00  0.00     0.049 A 
ATOM     35  N   UNL     1      -0.316 -10.417   3.556  1.00  0.00    -0.248 NA
ATOM     36  C   UNL     1       1.204  -8.754   4.098  1.00  0.00     0.031 C 
ATOM     37  C   UNL     1      -3.023  -7.158   5.887  1.00  0.00     0.029 A 
ATOM     38  N   UNL     1      -2.472  -9.244   6.364  1.00  0.00    -0.354 N 
ATOM     39  C   UNL     1       0.998 -10.877   3.429  1.00  0.00     0.074 A 
ATOM     40  C   UNL     1       1.837  -9.723   3.443  1.00  0.00     0.031 C 
ATOM     41  C   UNL     1      -3.449  -7.395   7.147  1.00  0.00     0.029 A 
ATOM     42  C   UNL     1      -3.018  -8.724   7.538  1.00  0.00     0.049 A 
ATOM     43  H   UNL     1      -2.302 -10.203   6.223  1.00  0.00     0.167 HD
ATOM     44  C   UNL     1       1.305 -12.152   3.788  1.00  0.00     0.034 A 
ATOM     45  C   UNL     1      -2.984  -9.307   8.763  1.00  0.00     0.034 A 
ATOM     46  C   UNL     1       0.110 -12.959   3.785  1.00  0.00     0.049 A 
ATOM     47  C   UNL     1      -2.594 -10.722   8.556  1.00  0.00     0.074 A 
ATOM     48  C   UNL     1      -0.806 -13.353   2.835  1.00  0.00     0.029 A 
ATOM     49  N   UNL     1      -0.491 -13.082   5.013  1.00  0.00    -0.354 N 
ATOM     50  N   UNL     1      -3.331 -11.588   7.921  1.00  0.00    -0.248 NA
ATOM     51  C   UNL     1      -1.186 -11.073   8.679  1.00  0.00     0.031 C 
ATOM     52  C   UNL     1      -2.054 -13.418   3.519  1.00  0.00     0.029 A 
ATOM     53  C   UNL     1      -1.848 -13.135   4.871  1.00  0.00     0.049 A 
ATOM     54  H   UNL     1      -0.013 -13.126   5.872  1.00  0.00     0.167 HD
ATOM     55  C   UNL     1      -2.423 -12.330   7.178  1.00  0.00     0.074 A 
ATOM     56  C   UNL     1      -1.129 -12.085   7.809  1.00  0.00     0.031 C 
ATOM     57  C   UNL     1      -2.765 -12.795   5.940  1.00  0.00     0.034 A 
BRANCH  44  58
ATOM     58  C   UNL     1       2.506 -12.534   4.652  1.00  0.00     0.023 A 
ATOM     59  C   UNL     1       2.627 -13.909   4.956  1.00  0.00     0.012 A 
ATOM     60  C   UNL     1       3.311 -11.650   5.417  1.00  0.00     0.148 A 
ATOM     61  C   UNL     1       3.418 -14.365   6.016  1.00  0.00     0.002 A 
ATOM     62  C   UNL     1       4.135 -12.112   6.438  1.00  0.00     0.091 A 
ATOM     63  F   UNL     1       3.235 -10.332   5.250  1.00  0.00    -0.205 F 
ATOM     64  C   UNL     1       4.166 -13.466   6.764  1.00  0.00     0.022 A 
BRANCH  62  65
ATOM     65  S   UNL     1       5.138 -10.992   7.431  1.00  0.00     0.127 S 
ATOM     66  O   UNL     1       4.483 -11.091   8.731  1.00  0.00    -0.237 OA
ATOM     67  O   UNL     1       6.454 -11.625   7.347  1.00  0.00    -0.237 OA
ATOM     68  O   UNL     1       5.058  -9.690   6.779  1.00  0.00    -0.744 OA
ENDBRANCH  62  65
ENDBRANCH  44  58
BRANCH  45  69
ATOM     69  C   UNL     1      -2.955  -8.690  10.112  1.00  0.00     0.023 A 
ATOM     70  C   UNL     1      -3.365  -9.443  11.230  1.00  0.00     0.012 A 
ATOM     71  C   UNL     1      -2.284  -7.468  10.344  1.00  0.00     0.148 A 
ATOM     72  C   UNL     1      -3.093  -9.009  12.534  1.00  0.00     0.002 A 
ATOM     73  C   UNL     1      -2.024  -7.035  11.642  1.00  0.00     0.091 A 
ATOM     74  F   UNL     1      -1.823  -6.777   9.293  1.00  0.00    -0.205 F 
ATOM     75  C   UNL     1      -2.416  -7.810  12.740  1.00  0.00     0.022 A 
BRANCH  73  76
ATOM     76  S   UNL     1      -1.133  -5.511  11.990  1.00  0.00     0.127 S 
ATOM     77  O   UNL     1      -2.042  -4.838  12.919  1.00  0.00    -0.237 OA
ATOM     78  O   UNL     1       0.098  -6.012  12.595  1.00  0.00    -0.237 OA
ATOM     79  O   UNL     1      -0.977  -4.837  10.708  1.00  0.00    -0.744 OA
ENDBRANCH  73  76
ENDBRANCH  45  69
BRANCH  57  80
ATOM     80  C   UNL     1      -4.228 -12.800   5.585  1.00  0.00     0.023 A 
ATOM     81  C   UNL     1      -4.980 -11.627   5.365  1.00  0.00     0.012 A 
ATOM     82  C   UNL     1      -4.814 -14.046   5.318  1.00  0.00     0.148 A 
ATOM     83  C   UNL     1      -6.298 -11.702   4.904  1.00  0.00     0.002 A 
ATOM     84  C   UNL     1      -6.103 -14.114   4.811  1.00  0.00     0.091 A 
ATOM     85  F   UNL     1      -4.080 -15.148   5.535  1.00  0.00    -0.205 F 
ATOM     86  C   UNL     1      -6.854 -12.946   4.613  1.00  0.00     0.022 A 
BRANCH  84  87
ATOM     87  S   UNL     1      -6.810 -15.678   4.297  1.00  0.00     0.127 S 
ATOM     88  O   UNL     1      -7.742 -15.963   5.385  1.00  0.00    -0.237 OA
ATOM     89  O   UNL     1      -7.441 -15.333   3.022  1.00  0.00    -0.237 OA
ATOM     90  O   UNL     1      -5.688 -16.602   4.171  1.00  0.00    -0.744 OA
ENDBRANCH  84  87
ENDBRANCH  57  80
ENDBRANCH  31  32
ENDBRANCH  24  26
ENDBRANCH  23  24
ENDBRANCH  22  23
ENDBRANCH   1  22
TORSDOF 18
