REMARK SMILES CCc1cccc2c3c([nH]c12)[C@](CC)(CC(=O)OCCOC(=O)c1ccc(-c2c4nc(c(-c5cccc(S(=O)(=O)[O-])c5F)c5ccc([nH]5)c(-c5cccc(S(=O)(=O)[O-])c5F)c5nc(c(-c6cccc(S(=O)(=O)[O-])c6F)c6ccc2[nH]6)C=C5)C=C4)cc1)OCC3
REMARK SMILES IDX 20 1 19 2 18 3 16 4 17 5 15 6 12 7 3 8 4 9 11 10 5 11 7 12
REMARK SMILES IDX 10 13 6 14 8 15 9 16 89 18 88 19 87 20 2 21 1 22 13 23 14 24
REMARK SMILES IDX 21 25 22 26 23 27 24 28 25 29 86 30 26 31 85 32 27 33 28 34
REMARK SMILES IDX 29 35 79 36 30 37 84 38 78 39 80 40 31 41 83 42 77 43 76 44
REMARK SMILES IDX 32 46 64 47 44 48 63 49 45 50 48 51 62 52 81 53 46 54 47 55
REMARK SMILES IDX 61 57 82 58 49 59 33 60 34 61 42 62 35 63 37 64 43 65 36 66
REMARK SMILES IDX 38 67 39 68 40 69 41 70 65 71 66 72 74 73 67 74 69 75 75 76
REMARK SMILES IDX 68 77 70 78 71 79 72 80 73 81 50 82 51 83 59 84 52 85 54 86
REMARK SMILES IDX 60 87 53 88 55 89 56 90 57 91 58 92
REMARK H PARENT 10 17 80 45 48 56
REMARK Flexibility Score: inf
ROOT
ATOM      1  C   UNL     1       4.614   5.772   5.602  1.00  0.00     0.275 C 
ENDROOT
BRANCH   1   2
ATOM      2  C   UNL     1       6.037   5.285   5.324  1.00  0.00     0.274 C 
BRANCH   2   3
ATOM      3  O   UNL     1       6.051   4.293   4.267  1.00  0.00    -0.462 OA
BRANCH   3   4
ATOM      4  C   UNL     1       6.538   3.079   4.602  1.00  0.00     0.309 C 
ATOM      5  O   UNL     1       6.861   2.794   5.754  1.00  0.00    -0.252 OA
BRANCH   4   6
ATOM      6  C   UNL     1       6.814   2.103   3.475  1.00  0.00     0.164 C 
BRANCH   6   7
ATOM      7  C   UNL     1       6.258   2.111   2.033  1.00  0.00     0.118 C 
ATOM      8  C   UNL     1       1.232   2.100   1.328  1.00  0.00    -0.024 A 
ATOM      9  C   UNL     1       0.301   3.143   1.143  1.00  0.00     0.006 A 
ATOM     10  C   UNL     1       2.583   2.489   1.465  1.00  0.00     0.049 A 
ATOM     11  C   UNL     1       0.693   4.477   1.077  1.00  0.00     0.001 A 
ATOM     12  C   UNL     1       3.004   3.819   1.388  1.00  0.00     0.003 A 
ATOM     13  N   UNL     1       3.722   1.729   1.677  1.00  0.00    -0.356 N 
ATOM     14  C   UNL     1       2.042   4.825   1.178  1.00  0.00     0.010 A 
ATOM     15  C   UNL     1       4.420   3.818   1.520  1.00  0.00    -0.014 A 
ATOM     16  C   UNL     1       4.827   2.537   1.824  1.00  0.00     0.052 A 
ATOM     17  H   UNL     1       3.738   0.745   1.718  1.00  0.00     0.166 HD
ATOM     18  C   UNL     1       5.405   4.907   1.306  1.00  0.00     0.066 C 
ATOM     19  C   UNL     1       6.860   4.399   1.409  1.00  0.00     0.166 C 
ATOM     20  O   UNL     1       7.036   2.993   1.180  1.00  0.00    -0.368 OA
BRANCH   8  21
ATOM     21  C   UNL     1       0.744   0.672   1.361  1.00  0.00     0.034 C 
ATOM     22  C   UNL     1       0.990  -0.042   0.039  1.00  0.00     0.009 C 
ENDBRANCH   8  21
BRANCH   7  23
ATOM     23  C   UNL     1       6.451   0.676   1.429  1.00  0.00     0.039 C 
ATOM     24  C   UNL     1       7.842   0.069   1.604  1.00  0.00     0.007 C 
ENDBRANCH   7  23
ENDBRANCH   6   7
ENDBRANCH   4   6
ENDBRANCH   3   4
ENDBRANCH   2   3
ENDBRANCH   1   2
BRANCH   1  25
ATOM     25  O   UNL     1       3.923   4.771   6.358  1.00  0.00    -0.458 OA
BRANCH  25  26
ATOM     26  C   UNL     1       3.094   3.968   5.649  1.00  0.00     0.338 C 
ATOM     27  O   UNL     1       2.454   4.271   4.659  1.00  0.00    -0.246 OA
BRANCH  26  28
ATOM     28  C   UNL     1       3.396   2.598   6.103  1.00  0.00     0.060 A 
ATOM     29  C   UNL     1       3.683   2.335   7.441  1.00  0.00     0.016 A 
ATOM     30  C   UNL     1       3.661   1.649   5.114  1.00  0.00     0.016 A 
ATOM     31  C   UNL     1       4.381   1.182   7.760  1.00  0.00     0.010 A 
ATOM     32  C   UNL     1       4.387   0.510   5.425  1.00  0.00     0.010 A 
ATOM     33  C   UNL     1       4.795   0.313   6.741  1.00  0.00    -0.014 A 
BRANCH  33  34
ATOM     34  C   UNL     1       5.468  -0.911   7.135  1.00  0.00     0.031 A 
ATOM     35  C   UNL     1       4.526  -1.997   7.475  1.00  0.00     0.074 A 
ATOM     36  C   UNL     1       6.793  -1.133   7.194  1.00  0.00     0.049 A 
ATOM     37  N   UNL     1       4.159  -2.357   8.659  1.00  0.00    -0.248 NA
ATOM     38  C   UNL     1       3.801  -2.650   6.378  1.00  0.00     0.031 C 
ATOM     39  C   UNL     1       7.891  -0.354   6.633  1.00  0.00     0.029 A 
ATOM     40  N   UNL     1       7.422  -2.219   7.729  1.00  0.00    -0.354 N 
ATOM     41  C   UNL     1       3.295  -3.423   8.461  1.00  0.00     0.074 A 
ATOM     42  C   UNL     1       2.970  -3.440   7.057  1.00  0.00     0.031 C 
ATOM     43  C   UNL     1       9.023  -1.096   6.668  1.00  0.00     0.029 A 
ATOM     44  C   UNL     1       8.757  -2.338   7.373  1.00  0.00     0.049 A 
ATOM     45  H   UNL     1       6.967  -2.864   8.317  1.00  0.00     0.167 HD
ATOM     46  C   UNL     1       3.078  -4.361   9.419  1.00  0.00     0.034 A 
ATOM     47  C   UNL     1       9.539  -3.423   7.592  1.00  0.00     0.034 A 
ATOM     48  C   UNL     1       3.590  -3.977  10.703  1.00  0.00     0.049 A 
ATOM     49  C   UNL     1       8.941  -4.165   8.732  1.00  0.00     0.074 A 
ATOM     50  C   UNL     1       3.377  -2.916  11.561  1.00  0.00     0.029 A 
ATOM     51  N   UNL     1       4.767  -4.562  11.106  1.00  0.00    -0.354 N 
ATOM     52  N   UNL     1       8.892  -3.710   9.955  1.00  0.00    -0.248 NA
ATOM     53  C   UNL     1       8.048  -5.277   8.445  1.00  0.00     0.031 C 
ATOM     54  C   UNL     1       4.655  -2.638  12.126  1.00  0.00     0.029 A 
ATOM     55  C   UNL     1       5.562  -3.560  11.596  1.00  0.00     0.049 A 
ATOM     56  H   UNL     1       4.995  -5.518  11.052  1.00  0.00     0.167 HD
ATOM     57  C   UNL     1       7.687  -4.182  10.459  1.00  0.00     0.074 A 
ATOM     58  C   UNL     1       7.271  -5.228   9.530  1.00  0.00     0.031 C 
ATOM     59  C   UNL     1       6.998  -3.495  11.417  1.00  0.00     0.034 A 
BRANCH  46  60
ATOM     60  C   UNL     1       2.679  -5.771   9.112  1.00  0.00     0.023 A 
ATOM     61  C   UNL     1       2.083  -6.535  10.133  1.00  0.00     0.012 A 
ATOM     62  C   UNL     1       3.066  -6.441   7.931  1.00  0.00     0.148 A 
ATOM     63  C   UNL     1       1.872  -7.907   9.977  1.00  0.00     0.002 A 
ATOM     64  C   UNL     1       2.767  -7.782   7.744  1.00  0.00     0.091 A 
ATOM     65  F   UNL     1       3.842  -5.818   7.036  1.00  0.00    -0.205 F 
ATOM     66  C   UNL     1       2.190  -8.528   8.773  1.00  0.00     0.022 A 
BRANCH  64  67
ATOM     67  S   UNL     1       3.089  -8.583   6.171  1.00  0.00     0.127 S 
ATOM     68  O   UNL     1       4.347  -9.271   6.442  1.00  0.00    -0.237 OA
ATOM     69  O   UNL     1       1.922  -9.454   6.027  1.00  0.00    -0.237 OA
ATOM     70  O   UNL     1       3.139  -7.495   5.201  1.00  0.00    -0.744 OA
ENDBRANCH  64  67
ENDBRANCH  46  60
BRANCH  47  71
ATOM     71  C   UNL     1      10.617  -3.996   6.745  1.00  0.00     0.023 A 
ATOM     72  C   UNL     1      11.439  -5.018   7.264  1.00  0.00     0.012 A 
ATOM     73  C   UNL     1      10.680  -3.749   5.354  1.00  0.00     0.148 A 
ATOM     74  C   UNL     1      12.258  -5.790   6.428  1.00  0.00     0.002 A 
ATOM     75  C   UNL     1      11.513  -4.502   4.530  1.00  0.00     0.091 A 
ATOM     76  F   UNL     1       9.851  -2.849   4.811  1.00  0.00    -0.205 F 
ATOM     77  C   UNL     1      12.292  -5.535   5.061  1.00  0.00     0.022 A 
BRANCH  75  78
ATOM     78  S   UNL     1      11.601  -4.202   2.759  1.00  0.00     0.127 S 
ATOM     79  O   UNL     1      13.027  -4.382   2.483  1.00  0.00    -0.237 OA
ATOM     80  O   UNL     1      10.736  -5.252   2.228  1.00  0.00    -0.237 OA
ATOM     81  O   UNL     1      11.130  -2.834   2.574  1.00  0.00    -0.744 OA
ENDBRANCH  75  78
ENDBRANCH  47  71
BRANCH  59  82
ATOM     82  C   UNL     1       7.682  -2.354  12.125  1.00  0.00     0.023 A 
ATOM     83  C   UNL     1       8.019  -1.166  11.445  1.00  0.00     0.012 A 
ATOM     84  C   UNL     1       7.740  -2.380  13.530  1.00  0.00     0.148 A 
ATOM     85  C   UNL     1       8.400  -0.024  12.153  1.00  0.00     0.002 A 
ATOM     86  C   UNL     1       8.077  -1.230  14.232  1.00  0.00     0.091 A 
ATOM     87  F   UNL     1       7.395  -3.516  14.156  1.00  0.00    -0.205 F 
ATOM     88  C   UNL     1       8.413  -0.050  13.546  1.00  0.00     0.022 A 
BRANCH  86  89
ATOM     89  S   UNL     1       7.986  -1.141  16.023  1.00  0.00     0.127 S 
ATOM     90  O   UNL     1       9.372  -0.851  16.387  1.00  0.00    -0.237 OA
ATOM     91  O   UNL     1       7.056  -0.030  16.229  1.00  0.00    -0.237 OA
ATOM     92  O   UNL     1       7.490  -2.435  16.473  1.00  0.00    -0.744 OA
ENDBRANCH  86  89
ENDBRANCH  59  82
ENDBRANCH  33  34
ENDBRANCH  26  28
ENDBRANCH  25  26
ENDBRANCH   1  25
TORSDOF 17
