REMARK SMILES CC(C)(C)SCC(=O)N1CC(n2cc(C(=O)OCCOC(=O)c3ccc(-c4c5nc(c(-c6cccc(S(=O)(=O)[O-])c6F)c6ccc([nH]6)c(-c6cccc(S(=O)(=O)[O-])c6F)c6nc(c(-c7cccc(S(=O)(=O)[O-])c7F)c7ccc4[nH]7)C=C6)C=C5)cc3)nn2)C1
REMARK SMILES IDX 18 1 17 2 15 3 16 4 14 5 12 6 13 7 87 8 86 9 11 10 7 11 8 12
REMARK SMILES IDX 9 13 10 14 88 15 6 16 5 17 2 18 1 19 3 20 4 21 19 22 20 23
REMARK SMILES IDX 21 24 22 25 23 26 24 27 85 28 25 29 84 30 26 31 27 32 28 33
REMARK SMILES IDX 78 34 29 35 83 36 77 37 79 38 30 39 82 40 76 41 75 42 31 44
REMARK SMILES IDX 63 45 43 46 62 47 44 48 47 49 61 50 80 51 45 52 46 53 60 55
REMARK SMILES IDX 81 56 48 57 32 58 33 59 41 60 34 61 36 62 42 63 35 64 37 65
REMARK SMILES IDX 38 66 39 67 40 68 64 69 65 70 73 71 66 72 68 73 74 74 67 75
REMARK SMILES IDX 69 76 70 77 71 78 72 79 49 80 50 81 58 82 51 83 53 84 59 85
REMARK SMILES IDX 52 86 54 87 55 88 56 89 57 90
REMARK H PARENT 79 43 47 54
REMARK Flexibility Score: inf
ROOT
ATOM      1  C   UNL     1      10.304   1.022  -1.929  1.00  0.00     0.275 C 
ENDROOT
BRANCH   1   2
ATOM      2  O   UNL     1       9.028   1.685  -1.961  1.00  0.00    -0.457 OA
BRANCH   2   3
ATOM      3  C   UNL     1       9.065   3.055  -1.932  1.00  0.00     0.360 C 
ATOM      4  O   UNL     1      10.063   3.711  -1.641  1.00  0.00    -0.244 OA
BRANCH   3   5
ATOM      5  C   UNL     1       7.795   3.652  -2.310  1.00  0.00     0.190 A 
ATOM      6  N   UNL     1       5.732   4.018  -2.849  1.00  0.00    -0.245 N 
ATOM      7  C   UNL     1       6.621   3.006  -2.642  1.00  0.00     0.147 A 
ATOM      8  N   UNL     1       6.309   5.218  -2.700  1.00  0.00    -0.066 NA
ATOM      9  N   UNL     1       7.584   5.010  -2.394  1.00  0.00    -0.123 NA
BRANCH   6  10
ATOM     10  C   UNL     1       4.329   3.787  -2.933  1.00  0.00     0.148 C 
ATOM     11  C   UNL     1       1.272   4.529  -1.851  1.00  0.00     0.232 C 
ATOM     12  O   UNL     1       0.516   5.022  -2.695  1.00  0.00    -0.274 OA
ATOM     13  N   UNL     1       2.609   4.447  -2.087  1.00  0.00    -0.338 N 
ATOM     14  C   UNL     1       3.409   4.987  -3.187  1.00  0.00     0.148 C 
ATOM     15  C   UNL     1       3.738   3.765  -1.500  1.00  0.00     0.148 C 
BRANCH  11  16
ATOM     16  C   UNL     1       0.715   4.157  -0.487  1.00  0.00     0.170 C 
BRANCH  16  17
ATOM     17  S   UNL     1       1.298   2.640   0.316  1.00  0.00    -0.146 SA
BRANCH  17  18
ATOM     18  C   UNL     1       0.491   1.275  -0.634  1.00  0.00     0.008 C 
ATOM     19  C   UNL     1       0.960  -0.021   0.054  1.00  0.00     0.022 C 
ATOM     20  C   UNL     1       0.936   1.244  -2.098  1.00  0.00     0.022 C 
ATOM     21  C   UNL     1      -1.035   1.365  -0.537  1.00  0.00     0.022 C 
ENDBRANCH  17  18
ENDBRANCH  16  17
ENDBRANCH  11  16
ENDBRANCH   6  10
ENDBRANCH   3   5
ENDBRANCH   2   3
ENDBRANCH   1   2
BRANCH   1  22
ATOM     22  C   UNL     1      10.856   0.842  -3.334  1.00  0.00     0.275 C 
BRANCH  22  23
ATOM     23  O   UNL     1      11.180   2.106  -3.906  1.00  0.00    -0.458 OA
BRANCH  23  24
ATOM     24  C   UNL     1      10.229   2.639  -4.705  1.00  0.00     0.338 C 
ATOM     25  O   UNL     1       9.042   2.354  -4.727  1.00  0.00    -0.246 OA
BRANCH  24  26
ATOM     26  C   UNL     1      10.885   3.445  -5.734  1.00  0.00     0.060 A 
ATOM     27  C   UNL     1      10.067   4.149  -6.623  1.00  0.00     0.016 A 
ATOM     28  C   UNL     1      12.238   3.192  -5.998  1.00  0.00     0.016 A 
ATOM     29  C   UNL     1      10.561   4.430  -7.878  1.00  0.00     0.010 A 
ATOM     30  C   UNL     1      12.713   3.434  -7.256  1.00  0.00     0.010 A 
ATOM     31  C   UNL     1      11.844   3.979  -8.197  1.00  0.00    -0.014 A 
BRANCH  31  32
ATOM     32  C   UNL     1      12.342   4.162  -9.540  1.00  0.00     0.031 A 
ATOM     33  C   UNL     1      12.845   5.536  -9.768  1.00  0.00     0.074 A 
ATOM     34  C   UNL     1      12.482   3.111 -10.371  1.00  0.00     0.049 A 
ATOM     35  N   UNL     1      12.359   6.437 -10.555  1.00  0.00    -0.248 NA
ATOM     36  C   UNL     1      13.889   6.038  -8.856  1.00  0.00     0.031 C 
ATOM     37  C   UNL     1      12.306   1.687 -10.062  1.00  0.00     0.029 A 
ATOM     38  N   UNL     1      12.977   3.086 -11.634  1.00  0.00    -0.354 N 
ATOM     39  C   UNL     1      13.200   7.537 -10.401  1.00  0.00     0.074 A 
ATOM     40  C   UNL     1      13.927   7.328  -9.181  1.00  0.00     0.031 C 
ATOM     41  C   UNL     1      12.936   0.949 -11.005  1.00  0.00     0.029 A 
ATOM     42  C   UNL     1      13.447   1.839 -12.033  1.00  0.00     0.049 A 
ATOM     43  H   UNL     1      13.000   3.880 -12.216  1.00  0.00     0.167 HD
ATOM     44  C   UNL     1      13.461   8.377 -11.438  1.00  0.00     0.034 A 
ATOM     45  C   UNL     1      14.288   1.598 -13.072  1.00  0.00     0.034 A 
ATOM     46  C   UNL     1      12.497   8.210 -12.495  1.00  0.00     0.049 A 
ATOM     47  C   UNL     1      14.269   2.802 -13.939  1.00  0.00     0.074 A 
ATOM     48  C   UNL     1      11.127   8.345 -12.591  1.00  0.00     0.029 A 
ATOM     49  N   UNL     1      12.884   7.437 -13.564  1.00  0.00    -0.354 N 
ATOM     50  N   UNL     1      13.219   3.193 -14.604  1.00  0.00    -0.248 NA
ATOM     51  C   UNL     1      15.270   3.829 -13.687  1.00  0.00     0.031 C 
ATOM     52  C   UNL     1      10.712   7.274 -13.434  1.00  0.00     0.029 A 
ATOM     53  C   UNL     1      11.851   6.590 -13.865  1.00  0.00     0.049 A 
ATOM     54  H   UNL     1      13.749   7.485 -14.030  1.00  0.00     0.167 HD
ATOM     55  C   UNL     1      13.206   4.574 -14.448  1.00  0.00     0.074 A 
ATOM     56  C   UNL     1      14.543   4.915 -13.963  1.00  0.00     0.031 C 
ATOM     57  C   UNL     1      12.030   5.269 -14.429  1.00  0.00     0.034 A 
BRANCH  44  58
ATOM     58  C   UNL     1      14.788   9.063 -11.671  1.00  0.00     0.023 A 
ATOM     59  C   UNL     1      14.841  10.012 -12.714  1.00  0.00     0.012 A 
ATOM     60  C   UNL     1      16.026   8.654 -11.118  1.00  0.00     0.148 A 
ATOM     61  C   UNL     1      16.058  10.486 -13.215  1.00  0.00     0.002 A 
ATOM     62  C   UNL     1      17.229   9.190 -11.562  1.00  0.00     0.091 A 
ATOM     63  F   UNL     1      16.078   7.640 -10.252  1.00  0.00    -0.205 F 
ATOM     64  C   UNL     1      17.253  10.082 -12.633  1.00  0.00     0.022 A 
BRANCH  62  65
ATOM     65  S   UNL     1      18.798   8.733 -10.811  1.00  0.00     0.127 S 
ATOM     66  O   UNL     1      19.384   7.890 -11.848  1.00  0.00    -0.237 OA
ATOM     67  O   UNL     1      19.436  10.038 -10.637  1.00  0.00    -0.237 OA
ATOM     68  O   UNL     1      18.457   8.066  -9.560  1.00  0.00    -0.744 OA
ENDBRANCH  62  65
ENDBRANCH  44  58
BRANCH  45  69
ATOM     69  C   UNL     1      15.345   0.564 -13.206  1.00  0.00     0.023 A 
ATOM     70  C   UNL     1      15.837   0.225 -14.482  1.00  0.00     0.012 A 
ATOM     71  C   UNL     1      16.065   0.115 -12.076  1.00  0.00     0.148 A 
ATOM     72  C   UNL     1      17.020  -0.513 -14.629  1.00  0.00     0.002 A 
ATOM     73  C   UNL     1      17.235  -0.625 -12.226  1.00  0.00     0.091 A 
ATOM     74  F   UNL     1      15.658   0.494 -10.859  1.00  0.00    -0.205 F 
ATOM     75  C   UNL     1      17.722  -0.932 -13.502  1.00  0.00     0.022 A 
BRANCH  73  76
ATOM     76  S   UNL     1      18.209  -1.174 -10.817  1.00  0.00     0.127 S 
ATOM     77  O   UNL     1      18.405  -2.592 -11.119  1.00  0.00    -0.237 OA
ATOM     78  O   UNL     1      19.408  -0.350 -10.940  1.00  0.00    -0.237 OA
ATOM     79  O   UNL     1      17.386  -0.921  -9.641  1.00  0.00    -0.744 OA
ENDBRANCH  73  76
ENDBRANCH  45  69
BRANCH  57  80
ATOM     80  C   UNL     1      10.767   4.532 -14.804  1.00  0.00     0.023 A 
ATOM     81  C   UNL     1      10.247   3.470 -14.032  1.00  0.00     0.012 A 
ATOM     82  C   UNL     1       9.991   5.051 -15.851  1.00  0.00     0.148 A 
ATOM     83  C   UNL     1       8.989   2.928 -14.313  1.00  0.00     0.002 A 
ATOM     84  C   UNL     1       8.721   4.544 -16.095  1.00  0.00     0.091 A 
ATOM     85  F   UNL     1      10.497   6.062 -16.572  1.00  0.00    -0.205 F 
ATOM     86  C   UNL     1       8.219   3.476 -15.335  1.00  0.00     0.022 A 
BRANCH  84  87
ATOM     87  S   UNL     1       7.634   5.297 -17.307  1.00  0.00     0.127 S 
ATOM     88  O   UNL     1       7.677   4.328 -18.399  1.00  0.00    -0.237 OA
ATOM     89  O   UNL     1       6.359   5.357 -16.590  1.00  0.00    -0.237 OA
ATOM     90  O   UNL     1       8.209   6.604 -17.604  1.00  0.00    -0.744 OA
ENDBRANCH  84  87
ENDBRANCH  57  80
ENDBRANCH  31  32
ENDBRANCH  24  26
ENDBRANCH  23  24
ENDBRANCH  22  23
ENDBRANCH   1  22
TORSDOF 18
