REMARK SMILES O=C(OCCOC(=O)[C@@H]1CN(C(=O)C[NH+]2CCOCC2)C[C@H]1c1ccc2c(c1)OCO2)c1ccc(-c2c3nc(c(-c4cccc(S(=O)(=O)[O-])c4F)c4ccc([nH]4)c(-c4cccc(S(=O)(=O)[O-])c4F)c4nc(c(-c5cccc(S(=O)(=O)[O-])c5F)c5ccc2[nH]5)C=C4)C=C3)cc1
REMARK SMILES IDX 4 1 3 2 2 3 1 4 32 5 33 6 94 7 34 8 93 9 35 10 36 11 37 12
REMARK SMILES IDX 87 13 38 14 92 15 86 16 88 17 39 18 91 19 85 20 84 21 40 23
REMARK SMILES IDX 72 24 52 25 71 26 53 27 56 28 70 29 89 30 54 31 55 32 69 34
REMARK SMILES IDX 90 35 57 36 41 37 42 38 50 39 43 40 45 41 51 42 44 43 46 44
REMARK SMILES IDX 47 45 48 46 49 47 73 48 74 49 82 50 75 51 77 52 83 53 76 54
REMARK SMILES IDX 78 55 79 56 80 57 81 58 58 59 59 60 67 61 60 62 62 63 68 64
REMARK SMILES IDX 61 65 63 66 64 67 65 68 66 69 5 70 6 71 7 72 8 73 9 74 10 75
REMARK SMILES IDX 22 76 11 77 21 78 23 79 24 80 28 81 25 82 27 83 26 84 29 85
REMARK SMILES IDX 31 86 30 87 12 88 13 89 14 90 15 91 16 92 20 93 17 95 19 96
REMARK SMILES IDX 18 97
REMARK H PARENT 88 22 56 33 15 94
REMARK Flexibility Score: inf
ROOT
ATOM      1  C   UNL     1       4.395  -1.107  -0.968  1.00  0.00     0.275 C 
ENDROOT
BRANCH   1   2
ATOM      2  O   UNL     1       3.216  -1.351  -0.166  1.00  0.00    -0.458 OA
BRANCH   2   3
ATOM      3  C   UNL     1       2.760  -0.826   0.994  1.00  0.00     0.338 C 
ATOM      4  O   UNL     1       1.614  -1.129   1.333  1.00  0.00    -0.246 OA
BRANCH   3   5
ATOM      5  C   UNL     1       3.493   0.143   1.886  1.00  0.00     0.060 A 
ATOM      6  C   UNL     1       4.841   0.497   1.809  1.00  0.00     0.016 A 
ATOM      7  C   UNL     1       2.721   0.780   2.885  1.00  0.00     0.016 A 
ATOM      8  C   UNL     1       5.366   1.527   2.612  1.00  0.00     0.010 A 
ATOM      9  C   UNL     1       3.241   1.805   3.696  1.00  0.00     0.010 A 
ATOM     10  C   UNL     1       4.570   2.201   3.551  1.00  0.00    -0.014 A 
BRANCH  10  11
ATOM     11  C   UNL     1       5.239   3.097   4.531  1.00  0.00     0.031 A 
ATOM     12  C   UNL     1       5.951   2.416   5.653  1.00  0.00     0.074 A 
ATOM     13  C   UNL     1       5.247   4.444   4.452  1.00  0.00     0.049 A 
ATOM     14  N   UNL     1       6.873   2.872   6.449  1.00  0.00    -0.248 NA
ATOM     15  C   UNL     1       5.537   1.027   5.919  1.00  0.00     0.031 C 
ATOM     16  C   UNL     1       4.440   5.222   3.527  1.00  0.00     0.029 A 
ATOM     17  N   UNL     1       5.982   5.400   5.124  1.00  0.00    -0.354 N 
ATOM     18  C   UNL     1       7.093   1.854   7.365  1.00  0.00     0.074 A 
ATOM     19  C   UNL     1       6.262   0.735   6.984  1.00  0.00     0.031 C 
ATOM     20  C   UNL     1       4.816   6.513   3.586  1.00  0.00     0.029 A 
ATOM     21  C   UNL     1       5.911   6.656   4.535  1.00  0.00     0.049 A 
ATOM     22  H   UNL     1       6.503   5.211   5.938  1.00  0.00     0.167 HD
ATOM     23  C   UNL     1       7.871   1.878   8.468  1.00  0.00     0.034 A 
ATOM     24  C   UNL     1       6.718   7.736   4.684  1.00  0.00     0.034 A 
ATOM     25  C   UNL     1       8.627   3.025   8.872  1.00  0.00     0.049 A 
ATOM     26  C   UNL     1       7.778   7.652   5.761  1.00  0.00     0.074 A 
ATOM     27  C   UNL     1       9.404   3.196  10.001  1.00  0.00     0.029 A 
ATOM     28  N   UNL     1       8.666   4.219   8.167  1.00  0.00    -0.354 N 
ATOM     29  N   UNL     1       8.136   6.623   6.494  1.00  0.00    -0.248 NA
ATOM     30  C   UNL     1       8.554   8.874   6.030  1.00  0.00     0.031 C 
ATOM     31  C   UNL     1       9.888   4.509   9.994  1.00  0.00     0.029 A 
ATOM     32  C   UNL     1       9.453   5.135   8.835  1.00  0.00     0.049 A 
ATOM     33  H   UNL     1       8.200   4.389   7.317  1.00  0.00     0.167 HD
ATOM     34  C   UNL     1       9.154   7.081   7.321  1.00  0.00     0.074 A 
ATOM     35  C   UNL     1       9.437   8.443   6.919  1.00  0.00     0.031 C 
ATOM     36  C   UNL     1       9.755   6.463   8.368  1.00  0.00     0.034 A 
BRANCH  23  37
ATOM     37  C   UNL     1       7.820   0.661   9.343  1.00  0.00     0.023 A 
ATOM     38  C   UNL     1       8.411  -0.547   8.923  1.00  0.00     0.012 A 
ATOM     39  C   UNL     1       7.103   0.703  10.554  1.00  0.00     0.148 A 
ATOM     40  C   UNL     1       8.244  -1.710   9.673  1.00  0.00     0.002 A 
ATOM     41  C   UNL     1       6.985  -0.447  11.320  1.00  0.00     0.091 A 
ATOM     42  F   UNL     1       6.514   1.854  10.908  1.00  0.00    -0.205 F 
ATOM     43  C   UNL     1       7.538  -1.658  10.873  1.00  0.00     0.022 A 
BRANCH  41  44
ATOM     44  S   UNL     1       6.147  -0.466  12.905  1.00  0.00     0.127 S 
ATOM     45  O   UNL     1       4.999  -1.327  12.621  1.00  0.00    -0.237 OA
ATOM     46  O   UNL     1       7.160  -1.065  13.773  1.00  0.00    -0.237 OA
ATOM     47  O   UNL     1       5.824   0.920  13.210  1.00  0.00    -0.744 OA
ENDBRANCH  41  44
ENDBRANCH  23  37
BRANCH  24  48
ATOM     48  C   UNL     1       6.748   8.892   3.706  1.00  0.00     0.023 A 
ATOM     49  C   UNL     1       7.975   9.180   3.053  1.00  0.00     0.012 A 
ATOM     50  C   UNL     1       5.644   9.700   3.385  1.00  0.00     0.148 A 
ATOM     51  C   UNL     1       8.109  10.219   2.129  1.00  0.00     0.002 A 
ATOM     52  C   UNL     1       5.767  10.708   2.421  1.00  0.00     0.091 A 
ATOM     53  F   UNL     1       4.491   9.497   4.037  1.00  0.00    -0.205 F 
ATOM     54  C   UNL     1       6.998  10.977   1.803  1.00  0.00     0.022 A 
BRANCH  52  55
ATOM     55  S   UNL     1       4.354  11.659   1.845  1.00  0.00     0.127 S 
ATOM     56  O   UNL     1       4.513  12.909   2.581  1.00  0.00    -0.237 OA
ATOM     57  O   UNL     1       4.609  11.756   0.406  1.00  0.00    -0.237 OA
ATOM     58  O   UNL     1       3.193  10.851   2.189  1.00  0.00    -0.744 OA
ENDBRANCH  52  55
ENDBRANCH  24  48
BRANCH  36  59
ATOM     59  C   UNL     1      10.764   7.252   9.157  1.00  0.00     0.023 A 
ATOM     60  C   UNL     1      10.338   8.337   9.950  1.00  0.00     0.012 A 
ATOM     61  C   UNL     1      12.113   6.854   9.193  1.00  0.00     0.148 A 
ATOM     62  C   UNL     1      11.249   9.040  10.736  1.00  0.00     0.002 A 
ATOM     63  C   UNL     1      13.003   7.522  10.023  1.00  0.00     0.091 A 
ATOM     64  F   UNL     1      12.499   5.830   8.417  1.00  0.00    -0.205 F 
ATOM     65  C   UNL     1      12.577   8.623  10.784  1.00  0.00     0.022 A 
BRANCH  63  66
ATOM     66  S   UNL     1      14.702   6.983  10.233  1.00  0.00     0.127 S 
ATOM     67  O   UNL     1      15.434   8.017   9.504  1.00  0.00    -0.237 OA
ATOM     68  O   UNL     1      14.864   7.029  11.687  1.00  0.00    -0.237 OA
ATOM     69  O   UNL     1      14.771   5.645   9.661  1.00  0.00    -0.744 OA
ENDBRANCH  63  66
ENDBRANCH  36  59
ENDBRANCH  10  11
ENDBRANCH   3   5
ENDBRANCH   2   3
ENDBRANCH   1   2
BRANCH   1  70
ATOM     70  C   UNL     1       4.292   0.177  -1.782  1.00  0.00     0.274 C 
BRANCH  70  71
ATOM     71  O   UNL     1       4.158   1.269  -0.872  1.00  0.00    -0.462 OA
BRANCH  71  72
ATOM     72  C   UNL     1       3.217   2.215  -1.122  1.00  0.00     0.311 C 
ATOM     73  O   UNL     1       2.495   2.251  -2.107  1.00  0.00    -0.252 OA
BRANCH  72  74
ATOM     74  C   UNL     1       3.212   3.209   0.012  1.00  0.00     0.128 C 
ATOM     75  C   UNL     1       1.839   3.249   0.616  1.00  0.00     0.135 C 
ATOM     76  C   UNL     1       3.602   4.633  -0.428  1.00  0.00     0.055 C 
ATOM     77  N   UNL     1       1.535   4.621   0.876  1.00  0.00    -0.336 N 
ATOM     78  C   UNL     1       2.573   5.515   0.346  1.00  0.00     0.129 C 
BRANCH  76  79
ATOM     79  C   UNL     1       5.116   4.795  -0.186  1.00  0.00    -0.038 A 
ATOM     80  C   UNL     1       6.000   3.756  -0.602  1.00  0.00     0.008 A 
ATOM     81  C   UNL     1       5.680   5.856   0.525  1.00  0.00     0.054 A 
ATOM     82  C   UNL     1       7.302   3.623  -0.112  1.00  0.00     0.051 A 
ATOM     83  C   UNL     1       6.980   5.708   0.992  1.00  0.00     0.166 A 
ATOM     84  C   UNL     1       7.746   4.599   0.731  1.00  0.00     0.165 A 
ATOM     85  O   UNL     1       7.642   6.573   1.802  1.00  0.00    -0.454 OA
ATOM     86  O   UNL     1       8.938   4.606   1.383  1.00  0.00    -0.454 OA
ATOM     87  C   UNL     1       8.756   5.762   2.223  1.00  0.00     0.468 C 
ENDBRANCH  76  79
BRANCH  77  88
ATOM     88  C   UNL     1       0.406   5.071   1.551  1.00  0.00     0.277 C 
ATOM     89  O   UNL     1       0.176   6.273   1.681  1.00  0.00    -0.268 OA
BRANCH  88  90
ATOM     90  C   UNL     1      -0.563   4.010   2.138  1.00  0.00     0.363 C 
BRANCH  90  91
ATOM     91  N   UNL     1      -1.846   3.801   1.422  1.00  0.00    -0.323 N 
ATOM     92  C   UNL     1      -2.230   2.378   1.346  1.00  0.00     0.291 C 
ATOM     93  C   UNL     1      -1.989   4.398   0.087  1.00  0.00     0.291 C 
ATOM     94  H   UNL     1      -2.483   4.326   2.021  1.00  0.00     0.348 HD
ATOM     95  C   UNL     1      -1.473   1.610   0.254  1.00  0.00     0.221 C 
ATOM     96  C   UNL     1      -1.331   3.611  -1.055  1.00  0.00     0.221 C 
ATOM     97  O   UNL     1      -1.646   2.212  -1.034  1.00  0.00    -0.370 OA
ENDBRANCH  90  91
ENDBRANCH  88  90
ENDBRANCH  77  88
ENDBRANCH  72  74
ENDBRANCH  71  72
ENDBRANCH  70  71
ENDBRANCH   1  70
TORSDOF 18
