REMARK SMILES COC(=O)c1c(NC(=O)[C@@H]2[C@H]3CC[C@H](CC3)[C@H]2C(=O)OCCOC(=O)c2ccc(-c3c4nc(c(-c5cccc(S(=O)(=O)[O-])c5F)c5ccc([nH]5)c(-c5cccc(S(=O)(=O)[O-])c5F)c5nc(c(-c6cccc(S(=O)(=O)[O-])c6F)c6ccc3[nH]6)C=C5)C=C4)cc2)sc(C)c1-c1ccc(C)cc1
REMARK SMILES IDX 21 1 20 2 18 3 19 4 17 5 10 6 11 7 12 8 16 9 14 10 13 11
REMARK SMILES IDX 15 12 8 13 7 14 9 16 6 17 5 18 92 19 89 20 90 21 91 22 3 23
REMARK SMILES IDX 4 24 2 25 1 26 93 27 94 28 99 29 95 30 98 31 96 32 97 33
REMARK SMILES IDX 22 34 23 35 24 36 25 37 26 38 27 39 88 40 28 41 87 42 29 43
REMARK SMILES IDX 30 44 31 45 81 46 32 47 86 48 80 49 82 50 33 51 85 52 79 53
REMARK SMILES IDX 78 54 34 56 66 57 46 58 65 59 47 60 50 61 64 62 83 63 48 64
REMARK SMILES IDX 49 65 63 67 84 68 51 69 35 70 36 71 44 72 37 73 39 74 45 75
REMARK SMILES IDX 38 76 40 77 41 78 42 79 43 80 67 81 68 82 76 83 69 84 71 85
REMARK SMILES IDX 77 86 70 87 72 88 73 89 74 90 75 91 52 92 53 93 61 94 54 95
REMARK SMILES IDX 56 96 62 97 55 98 57 99 58 100 59 101 60 102
REMARK H PARENT 7 15 82 55 50 66
REMARK Flexibility Score: inf
ROOT
ATOM      1  C   UNL     1       3.357  -3.486  -0.588  1.00  0.00     0.274 C 
ENDROOT
BRANCH   1   2
ATOM      2  O   UNL     1       3.296  -4.642  -1.449  1.00  0.00    -0.462 OA
BRANCH   2   3
ATOM      3  C   UNL     1       2.158  -5.361  -1.347  1.00  0.00     0.310 C 
ATOM      4  O   UNL     1       1.263  -5.125  -0.537  1.00  0.00    -0.252 OA
BRANCH   3   5
ATOM      5  C   UNL     1       2.020  -6.519  -2.324  1.00  0.00     0.115 C 
ATOM      6  C   UNL     1       2.925  -6.669  -3.538  1.00  0.00     0.096 C 
ATOM      7  C   UNL     1       3.760  -7.979  -3.379  1.00  0.00     0.002 C 
ATOM      8  C   UNL     1       4.407  -8.016  -1.971  1.00  0.00     0.005 C 
ATOM      9  C   UNL     1       2.833  -9.198  -3.493  1.00  0.00     0.005 C 
ATOM     10  C   UNL     1       1.950  -7.856  -1.533  1.00  0.00     0.004 C 
ATOM     11  C   UNL     1       3.326  -8.064  -0.878  1.00  0.00     0.005 C 
ATOM     12  C   UNL     1       1.735  -9.097  -2.434  1.00  0.00     0.005 C 
BRANCH   6  13
ATOM     13  C   UNL     1       2.333  -6.601  -4.981  1.00  0.00     0.229 C 
ATOM     14  N   UNL     1       1.128  -6.949  -5.512  1.00  0.00    -0.317 N 
ATOM     15  H   UNL     1       1.202  -6.969  -6.494  1.00  0.00     0.170 HD
ATOM     16  O   UNL     1       3.167  -6.299  -5.862  1.00  0.00    -0.274 OA
BRANCH  14  17
ATOM     17  C   UNL     1      -0.175  -7.288  -5.146  1.00  0.00     0.111 A 
ATOM     18  C   UNL     1      -1.222  -7.678  -5.992  1.00  0.00     0.102 A 
ATOM     19  C   UNL     1      -2.441  -7.962  -5.231  1.00  0.00     0.012 A 
ATOM     20  S   UNL     1      -0.762  -7.109  -3.586  1.00  0.00    -0.122 S 
ATOM     21  C   UNL     1      -2.253  -7.799  -3.873  1.00  0.00     0.012 A 
ATOM     22  C   UNL     1      -3.135  -8.047  -2.694  1.00  0.00     0.057 C 
BRANCH  18  23
ATOM     23  C   UNL     1      -1.065  -7.761  -7.448  1.00  0.00     0.341 C 
ATOM     24  O   UNL     1       0.028  -7.815  -7.992  1.00  0.00    -0.246 OA
BRANCH  23  25
ATOM     25  O   UNL     1      -2.255  -7.744  -8.107  1.00  0.00    -0.465 OA
ATOM     26  C   UNL     1      -2.194  -7.757  -9.533  1.00  0.00     0.282 C 
ENDBRANCH  23  25
ENDBRANCH  18  23
BRANCH  19  27
ATOM     27  C   UNL     1      -3.756  -8.363  -5.701  1.00  0.00    -0.016 A 
ATOM     28  C   UNL     1      -3.968  -9.623  -6.261  1.00  0.00     0.009 A 
ATOM     29  C   UNL     1      -4.835  -7.492  -5.505  1.00  0.00     0.009 A 
ATOM     30  C   UNL     1      -5.263 -10.013  -6.611  1.00  0.00     0.004 A 
ATOM     31  C   UNL     1      -6.126  -7.889  -5.838  1.00  0.00     0.004 A 
ATOM     32  C   UNL     1      -6.350  -9.156  -6.385  1.00  0.00    -0.051 A 
ATOM     33  C   UNL     1      -7.737  -9.577  -6.766  1.00  0.00     0.044 C 
ENDBRANCH  19  27
ENDBRANCH  14  17
ENDBRANCH   6  13
ENDBRANCH   3   5
ENDBRANCH   2   3
ENDBRANCH   1   2
BRANCH   1  34
ATOM     34  C   UNL     1       3.231  -2.184  -1.381  1.00  0.00     0.275 C 
BRANCH  34  35
ATOM     35  O   UNL     1       1.970  -2.082  -2.071  1.00  0.00    -0.458 OA
BRANCH  35  36
ATOM     36  C   UNL     1       2.009  -2.471  -3.366  1.00  0.00     0.338 C 
ATOM     37  O   UNL     1       2.966  -2.933  -3.966  1.00  0.00    -0.246 OA
BRANCH  36  38
ATOM     38  C   UNL     1       0.686  -2.336  -3.993  1.00  0.00     0.060 A 
ATOM     39  C   UNL     1      -0.136  -3.459  -4.034  1.00  0.00     0.016 A 
ATOM     40  C   UNL     1       0.333  -1.181  -4.690  1.00  0.00     0.016 A 
ATOM     41  C   UNL     1      -1.280  -3.461  -4.832  1.00  0.00     0.010 A 
ATOM     42  C   UNL     1      -0.853  -1.165  -5.439  1.00  0.00     0.010 A 
ATOM     43  C   UNL     1      -1.656  -2.316  -5.549  1.00  0.00    -0.014 A 
BRANCH  43  44
ATOM     44  C   UNL     1      -2.862  -2.334  -6.430  1.00  0.00     0.031 A 
ATOM     45  C   UNL     1      -2.735  -2.056  -7.908  1.00  0.00     0.074 A 
ATOM     46  C   UNL     1      -4.083  -2.585  -5.912  1.00  0.00     0.049 A 
ATOM     47  N   UNL     1      -3.676  -1.868  -8.799  1.00  0.00    -0.248 NA
ATOM     48  C   UNL     1      -1.371  -1.970  -8.454  1.00  0.00     0.031 C 
ATOM     49  C   UNL     1      -4.362  -2.887  -4.508  1.00  0.00     0.029 A 
ATOM     50  N   UNL     1      -5.324  -2.603  -6.506  1.00  0.00    -0.354 N 
ATOM     51  C   UNL     1      -3.022  -1.572  -9.991  1.00  0.00     0.074 A 
ATOM     52  C   UNL     1      -1.603  -1.619  -9.712  1.00  0.00     0.031 C 
ATOM     53  C   UNL     1      -5.683  -3.057  -4.347  1.00  0.00     0.029 A 
ATOM     54  C   UNL     1      -6.355  -2.806  -5.618  1.00  0.00     0.049 A 
ATOM     55  H   UNL     1      -5.461  -2.482  -7.474  1.00  0.00     0.167 HD
ATOM     56  C   UNL     1      -3.552  -1.295 -11.208  1.00  0.00     0.034 A 
ATOM     57  C   UNL     1      -7.691  -2.751  -5.787  1.00  0.00     0.034 A 
ATOM     58  C   UNL     1      -4.960  -1.319 -11.508  1.00  0.00     0.049 A 
ATOM     59  C   UNL     1      -8.253  -2.438  -7.147  1.00  0.00     0.074 A 
ATOM     60  C   UNL     1      -5.583  -1.104 -12.726  1.00  0.00     0.029 A 
ATOM     61  N   UNL     1      -5.964  -1.579 -10.588  1.00  0.00    -0.354 N 
ATOM     62  N   UNL     1      -7.619  -2.226  -8.273  1.00  0.00    -0.248 NA
ATOM     63  C   UNL     1      -9.718  -2.371  -7.262  1.00  0.00     0.031 C 
ATOM     64  C   UNL     1      -6.965  -1.220 -12.539  1.00  0.00     0.029 A 
ATOM     65  C   UNL     1      -7.201  -1.526 -11.209  1.00  0.00     0.049 A 
ATOM     66  H   UNL     1      -5.819  -1.772  -9.634  1.00  0.00     0.167 HD
ATOM     67  C   UNL     1      -8.604  -2.028  -9.234  1.00  0.00     0.074 A 
ATOM     68  C   UNL     1      -9.879  -2.171  -8.563  1.00  0.00     0.031 C 
ATOM     69  C   UNL     1      -8.464  -1.731 -10.549  1.00  0.00     0.034 A 
BRANCH  56  70
ATOM     70  C   UNL     1      -2.605  -0.964 -12.333  1.00  0.00     0.023 A 
ATOM     71  C   UNL     1      -1.856  -1.990 -12.944  1.00  0.00     0.012 A 
ATOM     72  C   UNL     1      -2.518   0.349 -12.838  1.00  0.00     0.148 A 
ATOM     73  C   UNL     1      -1.016  -1.710 -14.021  1.00  0.00     0.002 A 
ATOM     74  C   UNL     1      -1.709   0.613 -13.938  1.00  0.00     0.091 A 
ATOM     75  F   UNL     1      -3.224   1.315 -12.233  1.00  0.00    -0.205 F 
ATOM     76  C   UNL     1      -0.950  -0.412 -14.524  1.00  0.00     0.022 A 
BRANCH  74  77
ATOM     77  S   UNL     1      -1.621   2.235 -14.708  1.00  0.00     0.127 S 
ATOM     78  O   UNL     1      -0.292   2.685 -14.298  1.00  0.00    -0.237 OA
ATOM     79  O   UNL     1      -1.743   1.910 -16.129  1.00  0.00    -0.237 OA
ATOM     80  O   UNL     1      -2.736   2.998 -14.164  1.00  0.00    -0.744 OA
ENDBRANCH  74  77
ENDBRANCH  56  70
BRANCH  57  81
ATOM     81  C   UNL     1      -8.597  -3.002  -4.630  1.00  0.00     0.023 A 
ATOM     82  C   UNL     1      -9.390  -4.165  -4.609  1.00  0.00     0.012 A 
ATOM     83  C   UNL     1      -8.657  -2.110  -3.541  1.00  0.00     0.148 A 
ATOM     84  C   UNL     1     -10.243  -4.424  -3.536  1.00  0.00     0.002 A 
ATOM     85  C   UNL     1      -9.462  -2.405  -2.447  1.00  0.00     0.091 A 
ATOM     86  F   UNL     1      -7.917  -0.994  -3.591  1.00  0.00    -0.205 F 
ATOM     87  C   UNL     1     -10.269  -3.553  -2.450  1.00  0.00     0.022 A 
BRANCH  85  88
ATOM     88  S   UNL     1      -9.442  -1.412  -0.951  1.00  0.00     0.127 S 
ATOM     89  O   UNL     1     -10.705  -0.687  -1.056  1.00  0.00    -0.237 OA
ATOM     90  O   UNL     1      -9.403  -2.436   0.094  1.00  0.00    -0.237 OA
ATOM     91  O   UNL     1      -8.232  -0.604  -1.039  1.00  0.00    -0.744 OA
ENDBRANCH  85  88
ENDBRANCH  57  81
BRANCH  69  92
ATOM     92  C   UNL     1      -9.718  -1.579 -11.369  1.00  0.00     0.023 A 
ATOM     93  C   UNL     1     -10.511  -0.424 -11.225  1.00  0.00     0.012 A 
ATOM     94  C   UNL     1     -10.072  -2.546 -12.331  1.00  0.00     0.148 A 
ATOM     95  C   UNL     1     -11.653  -0.247 -12.006  1.00  0.00     0.002 A 
ATOM     96  C   UNL     1     -11.187  -2.342 -13.136  1.00  0.00     0.091 A 
ATOM     97  F   UNL     1      -9.316  -3.649 -12.438  1.00  0.00    -0.205 F 
ATOM     98  C   UNL     1     -11.984  -1.199 -12.968  1.00  0.00     0.022 A 
BRANCH  96  99
ATOM     99  S   UNL     1     -11.636  -3.472 -14.458  1.00  0.00     0.127 S 
ATOM    100  O   UNL     1     -12.793  -4.157 -13.884  1.00  0.00    -0.237 OA
ATOM    101  O   UNL     1     -11.952  -2.559 -15.557  1.00  0.00    -0.237 OA
ATOM    102  O   UNL     1     -10.464  -4.306 -14.686  1.00  0.00    -0.744 OA
ENDBRANCH  96  99
ENDBRANCH  69  92
ENDBRANCH  43  44
ENDBRANCH  36  38
ENDBRANCH  35  36
ENDBRANCH  34  35
ENDBRANCH   1  34
TORSDOF 19
