REMARK SMILES C[C@@H]1C[C@](Nc2ccccc2F)(C(=O)OCCOC(=O)c2ccc(-c3c4nc(c(-c5cccc(S(=O)(=O)[O-])c5F)c5ccc([nH]5)c(-c5cccc(S(=O)(=O)[O-])c5F)c5nc(c(-c6cccc(S(=O)(=O)[O-])c6F)c6ccc3[nH]6)C=C5)C=C4)cc2)CS1
REMARK SMILES IDX 17 1 16 2 15 3 13 4 14 5 4 6 1 7 2 8 3 9 85 10 84 11 5 12
REMARK SMILES IDX 6 14 7 15 11 16 8 17 10 18 12 19 9 20 18 21 19 22 20 23
REMARK SMILES IDX 21 24 22 25 83 26 23 27 82 28 24 29 25 30 26 31 76 32 27 33
REMARK SMILES IDX 81 34 75 35 77 36 28 37 80 38 74 39 73 40 29 42 61 43 41 44
REMARK SMILES IDX 60 45 42 46 45 47 59 48 78 49 43 50 44 51 58 53 79 54 46 55
REMARK SMILES IDX 30 56 31 57 39 58 32 59 34 60 40 61 33 62 35 63 36 64 37 65
REMARK SMILES IDX 38 66 62 67 63 68 71 69 64 70 66 71 72 72 65 73 67 74 68 75
REMARK SMILES IDX 69 76 70 77 47 78 48 79 56 80 49 81 51 82 57 83 50 84 52 85
REMARK SMILES IDX 53 86 54 87 55 88
REMARK H PARENT 5 13 77 41 45 52
REMARK Flexibility Score: inf
ROOT
ATOM      1  C   UNL     1       5.694  -2.416   2.676  1.00  0.00     0.275 C 
ENDROOT
BRANCH   1   2
ATOM      2  C   UNL     1       4.752  -3.200   3.580  1.00  0.00     0.274 C 
BRANCH   2   3
ATOM      3  O   UNL     1       3.386  -3.037   3.148  1.00  0.00    -0.460 OA
BRANCH   3   4
ATOM      4  C   UNL     1       2.596  -2.272   3.946  1.00  0.00     0.332 C 
ATOM      5  O   UNL     1       2.991  -1.683   4.952  1.00  0.00    -0.249 OA
BRANCH   4   6
ATOM      6  C   UNL     1       1.119  -2.155   3.456  1.00  0.00     0.146 C 
ATOM      7  C   UNL     1       0.385  -0.459   0.080  1.00  0.00     0.019 C 
ATOM      8  C   UNL     1       0.107  -1.301   1.318  1.00  0.00     0.046 C 
ATOM      9  C   UNL     1       1.086  -0.995   2.441  1.00  0.00     0.055 C 
ATOM     10  S   UNL     1       0.384  -3.062   1.011  1.00  0.00    -0.156 SA
ATOM     11  C   UNL     1       0.670  -3.454   2.766  1.00  0.00     0.110 C 
BRANCH   6  12
ATOM     12  N   UNL     1       0.337  -1.850   4.695  1.00  0.00    -0.367 N 
ATOM     13  H   UNL     1       0.774  -2.048   5.554  1.00  0.00     0.161 HD
BRANCH  12  14
ATOM     14  C   UNL     1      -0.941  -1.318   4.753  1.00  0.00     0.071 A 
ATOM     15  C   UNL     1      -1.097   0.037   5.083  1.00  0.00     0.029 A 
ATOM     16  C   UNL     1      -2.106  -2.062   4.527  1.00  0.00     0.146 A 
ATOM     17  C   UNL     1      -2.364   0.620   5.189  1.00  0.00     0.002 A 
ATOM     18  C   UNL     1      -3.374  -1.491   4.634  1.00  0.00     0.041 A 
ATOM     19  F   UNL     1      -2.040  -3.378   4.279  1.00  0.00    -0.205 F 
ATOM     20  C   UNL     1      -3.505  -0.146   4.966  1.00  0.00     0.003 A 
ENDBRANCH  12  14
ENDBRANCH   6  12
ENDBRANCH   4   6
ENDBRANCH   3   4
ENDBRANCH   2   3
ENDBRANCH   1   2
BRANCH   1  21
ATOM     21  O   UNL     1       5.353  -1.021   2.720  1.00  0.00    -0.458 OA
BRANCH  21  22
ATOM     22  C   UNL     1       5.000  -0.479   1.533  1.00  0.00     0.338 C 
ATOM     23  O   UNL     1       4.963  -1.035   0.449  1.00  0.00    -0.246 OA
BRANCH  22  24
ATOM     24  C   UNL     1       4.649   0.940   1.708  1.00  0.00     0.060 A 
ATOM     25  C   UNL     1       3.667   1.328   2.621  1.00  0.00     0.016 A 
ATOM     26  C   UNL     1       5.224   1.874   0.848  1.00  0.00     0.016 A 
ATOM     27  C   UNL     1       3.177   2.634   2.593  1.00  0.00     0.010 A 
ATOM     28  C   UNL     1       4.807   3.203   0.899  1.00  0.00     0.010 A 
ATOM     29  C   UNL     1       3.748   3.590   1.739  1.00  0.00    -0.014 A 
BRANCH  29  30
ATOM     30  C   UNL     1       3.260   4.995   1.698  1.00  0.00     0.031 A 
ATOM     31  C   UNL     1       2.796   5.595   0.396  1.00  0.00     0.074 A 
ATOM     32  C   UNL     1       3.304   5.762   2.805  1.00  0.00     0.049 A 
ATOM     33  N   UNL     1       2.582   6.849   0.096  1.00  0.00    -0.248 NA
ATOM     34  C   UNL     1       2.568   4.664  -0.721  1.00  0.00     0.031 C 
ATOM     35  C   UNL     1       3.732   5.310   4.129  1.00  0.00     0.029 A 
ATOM     36  N   UNL     1       3.017   7.093   2.984  1.00  0.00    -0.354 N 
ATOM     37  C   UNL     1       2.281   6.869  -1.261  1.00  0.00     0.074 A 
ATOM     38  C   UNL     1       2.316   5.497  -1.722  1.00  0.00     0.031 C 
ATOM     39  C   UNL     1       3.680   6.340   4.984  1.00  0.00     0.029 A 
ATOM     40  C   UNL     1       3.295   7.544   4.254  1.00  0.00     0.049 A 
ATOM     41  H   UNL     1       2.650   7.668   2.274  1.00  0.00     0.167 HD
ATOM     42  C   UNL     1       1.995   7.932  -2.049  1.00  0.00     0.034 A 
ATOM     43  C   UNL     1       3.295   8.790   4.768  1.00  0.00     0.034 A 
ATOM     44  C   UNL     1       1.865   9.281  -1.568  1.00  0.00     0.049 A 
ATOM     45  C   UNL     1       2.940   9.950   3.886  1.00  0.00     0.074 A 
ATOM     46  C   UNL     1       1.490  10.412  -2.272  1.00  0.00     0.029 A 
ATOM     47  N   UNL     1       2.094   9.681  -0.261  1.00  0.00    -0.354 N 
ATOM     48  N   UNL     1       2.598   9.945   2.621  1.00  0.00    -0.248 NA
ATOM     49  C   UNL     1       2.968  11.287   4.497  1.00  0.00     0.031 C 
ATOM     50  C   UNL     1       1.493  11.497  -1.390  1.00  0.00     0.029 A 
ATOM     51  C   UNL     1       1.873  11.042  -0.137  1.00  0.00     0.049 A 
ATOM     52  H   UNL     1       2.373   9.086   0.472  1.00  0.00     0.167 HD
ATOM     53  C   UNL     1       2.372  11.273   2.281  1.00  0.00     0.074 A 
ATOM     54  C   UNL     1       2.580  12.053   3.485  1.00  0.00     0.031 C 
ATOM     55  C   UNL     1       2.049  11.800   1.075  1.00  0.00     0.034 A 
BRANCH  42  56
ATOM     56  C   UNL     1       1.761   7.681  -3.513  1.00  0.00     0.023 A 
ATOM     57  C   UNL     1       0.527   7.154  -3.941  1.00  0.00     0.012 A 
ATOM     58  C   UNL     1       2.733   8.031  -4.470  1.00  0.00     0.148 A 
ATOM     59  C   UNL     1       0.271   6.961  -5.298  1.00  0.00     0.002 A 
ATOM     60  C   UNL     1       2.459   7.867  -5.824  1.00  0.00     0.091 A 
ATOM     61  F   UNL     1       3.914   8.502  -4.043  1.00  0.00    -0.205 F 
ATOM     62  C   UNL     1       1.231   7.327  -6.239  1.00  0.00     0.022 A 
BRANCH  60  63
ATOM     63  S   UNL     1       3.617   8.380  -7.098  1.00  0.00     0.127 S 
ATOM     64  O   UNL     1       4.273   7.117  -7.430  1.00  0.00    -0.237 OA
ATOM     65  O   UNL     1       2.731   8.899  -8.142  1.00  0.00    -0.237 OA
ATOM     66  O   UNL     1       4.461   9.390  -6.474  1.00  0.00    -0.744 OA
ENDBRANCH  60  63
ENDBRANCH  42  56
BRANCH  43  67
ATOM     67  C   UNL     1       3.637   8.972   6.207  1.00  0.00     0.023 A 
ATOM     68  C   UNL     1       2.614   9.275   7.123  1.00  0.00     0.012 A 
ATOM     69  C   UNL     1       4.940   8.722   6.684  1.00  0.00     0.148 A 
ATOM     70  C   UNL     1       2.879   9.318   8.492  1.00  0.00     0.002 A 
ATOM     71  C   UNL     1       5.183   8.704   8.052  1.00  0.00     0.091 A 
ATOM     72  F   UNL     1       5.903   8.456   5.791  1.00  0.00    -0.205 F 
ATOM     73  C   UNL     1       4.156   9.014   8.957  1.00  0.00     0.022 A 
BRANCH  71  74
ATOM     74  S   UNL     1       6.748   8.154   8.743  1.00  0.00     0.127 S 
ATOM     75  O   UNL     1       7.301   9.402   9.262  1.00  0.00    -0.237 OA
ATOM     76  O   UNL     1       6.309   7.202   9.764  1.00  0.00    -0.237 OA
ATOM     77  O   UNL     1       7.475   7.549   7.636  1.00  0.00    -0.744 OA
ENDBRANCH  71  74
ENDBRANCH  43  67
BRANCH  55  78
ATOM     78  C   UNL     1       1.919  13.295   0.979  1.00  0.00     0.023 A 
ATOM     79  C   UNL     1       3.088  14.079   0.908  1.00  0.00     0.012 A 
ATOM     80  C   UNL     1       0.661  13.914   0.862  1.00  0.00     0.148 A 
ATOM     81  C   UNL     1       3.005  15.460   0.735  1.00  0.00     0.002 A 
ATOM     82  C   UNL     1       0.586  15.287   0.653  1.00  0.00     0.091 A 
ATOM     83  F   UNL     1      -0.440  13.154   0.957  1.00  0.00    -0.205 F 
ATOM     84  C   UNL     1       1.756  16.062   0.594  1.00  0.00     0.022 A 
BRANCH  82  85
ATOM     85  S   UNL     1      -0.983  16.119   0.380  1.00  0.00     0.127 S 
ATOM     86  O   UNL     1      -1.276  16.650   1.709  1.00  0.00    -0.237 OA
ATOM     87  O   UNL     1      -0.637  17.133  -0.618  1.00  0.00    -0.237 OA
ATOM     88  O   UNL     1      -1.891  15.089  -0.107  1.00  0.00    -0.744 OA
ENDBRANCH  82  85
ENDBRANCH  55  78
ENDBRANCH  29  30
ENDBRANCH  22  24
ENDBRANCH  21  22
ENDBRANCH   1  21
TORSDOF 16
