REMARK SMILES C[C@H]1[C@@H](C(=O)OCCOC(=O)c2ccc(-c3c4nc(c(-c5cccc(S(=O)(=O)[O-])c5F)c5ccc([nH]5)c(-c5cccc(S(=O)(=O)[O-])c5F)c5nc(c(-c6cccc(S(=O)(=O)[O-])c6F)c6ccc3[nH]6)C=C5)C=C4)cc2)CCN1C(=O)c1cc([N+](=O)[O-])ccc1Br
REMARK SMILES IDX 7 1 6 2 4 3 5 4 3 5 1 6 2 7 77 8 75 9 76 10 78 11 79 12
REMARK SMILES IDX 80 13 81 14 88 15 82 16 87 17 89 18 86 19 83 20 84 21 85 22
REMARK SMILES IDX 8 23 9 24 10 25 11 26 12 27 13 28 74 29 14 30 73 31 15 32
REMARK SMILES IDX 16 33 17 34 67 35 18 36 72 37 66 38 68 39 19 40 71 41 65 42
REMARK SMILES IDX 64 43 20 45 52 46 32 47 51 48 33 49 36 50 50 51 69 52 34 53
REMARK SMILES IDX 35 54 49 56 70 57 37 58 21 59 22 60 30 61 23 62 25 63 31 64
REMARK SMILES IDX 24 65 26 66 27 67 28 68 29 69 53 70 54 71 62 72 55 73 57 74
REMARK SMILES IDX 63 75 56 76 58 77 59 78 60 79 61 80 38 81 39 82 47 83 40 84
REMARK SMILES IDX 42 85 48 86 41 87 43 88 44 89 45 90 46 91
REMARK H PARENT 68 44 36 55
REMARK Flexibility Score: inf
ROOT
ATOM      1  C   UNL     1       1.922   2.633  -2.637  1.00  0.00     0.274 C 
ENDROOT
BRANCH   1   2
ATOM      2  O   UNL     1       1.556   1.638  -1.656  1.00  0.00    -0.462 OA
BRANCH   2   3
ATOM      3  C   UNL     1       0.880   2.054  -0.565  1.00  0.00     0.311 C 
ATOM      4  O   UNL     1       0.498   3.208  -0.394  1.00  0.00    -0.252 OA
BRANCH   3   5
ATOM      5  C   UNL     1       0.595   0.974   0.464  1.00  0.00     0.123 C 
ATOM      6  C   UNL     1       2.482  -0.608  -0.483  1.00  0.00     0.032 C 
ATOM      7  C   UNL     1       1.410  -0.334   0.564  1.00  0.00     0.096 C 
ATOM      8  N   UNL     1       0.393  -1.398   0.572  1.00  0.00    -0.335 N 
ATOM      9  C   UNL     1      -0.875   0.527   0.431  1.00  0.00     0.039 C 
ATOM     10  C   UNL     1      -0.837  -0.918  -0.015  1.00  0.00     0.121 C 
BRANCH   8  11
ATOM     11  C   UNL     1       0.458  -2.671   1.101  1.00  0.00     0.255 C 
ATOM     12  O   UNL     1      -0.428  -3.514   1.009  1.00  0.00    -0.269 OA
BRANCH  11  13
ATOM     13  C   UNL     1       1.685  -3.068   1.804  1.00  0.00     0.061 A 
ATOM     14  C   UNL     1       2.531  -3.962   1.135  1.00  0.00     0.100 A 
ATOM     15  C   UNL     1       1.989  -2.619   3.096  1.00  0.00     0.031 A 
ATOM     16  C   UNL     1       3.723  -4.355   1.748  1.00  0.00     0.270 A 
ATOM     17  C   UNL     1       3.192  -3.007   3.692  1.00  0.00     0.023 A 
ATOM     18  Br  UNL     1       0.817  -1.521   4.108  1.00  0.00    -0.050 Br
ATOM     19  C   UNL     1       4.066  -3.868   3.018  1.00  0.00     0.087 A 
BRANCH  16  20
ATOM     20  N   UNL     1       4.628  -5.280   1.056  1.00  0.00     0.062 N 
ATOM     21  O   UNL     1       4.318  -5.646  -0.086  1.00  0.00    -0.258 OA
ATOM     22  O   UNL     1       5.655  -5.632   1.653  1.00  0.00    -0.258 OA
ENDBRANCH  16  20
ENDBRANCH  11  13
ENDBRANCH   8  11
ENDBRANCH   3   5
ENDBRANCH   2   3
ENDBRANCH   1   2
BRANCH   1  23
ATOM     23  C   UNL     1       1.236   2.351  -3.970  1.00  0.00     0.275 C 
BRANCH  23  24
ATOM     24  O   UNL     1      -0.167   2.630  -3.864  1.00  0.00    -0.458 OA
BRANCH  24  25
ATOM     25  C   UNL     1      -0.941   1.560  -3.582  1.00  0.00     0.338 C 
ATOM     26  O   UNL     1      -0.597   0.398  -3.465  1.00  0.00    -0.246 OA
BRANCH  25  27
ATOM     27  C   UNL     1      -2.312   2.019  -3.345  1.00  0.00     0.060 A 
ATOM     28  C   UNL     1      -2.627   2.586  -2.110  1.00  0.00     0.016 A 
ATOM     29  C   UNL     1      -3.301   1.778  -4.294  1.00  0.00     0.016 A 
ATOM     30  C   UNL     1      -3.956   2.818  -1.776  1.00  0.00     0.010 A 
ATOM     31  C   UNL     1      -4.621   2.117  -3.996  1.00  0.00     0.010 A 
ATOM     32  C   UNL     1      -4.967   2.610  -2.724  1.00  0.00    -0.014 A 
BRANCH  32  33
ATOM     33  C   UNL     1      -6.388   2.918  -2.416  1.00  0.00     0.031 A 
ATOM     34  C   UNL     1      -7.433   1.846  -2.556  1.00  0.00     0.074 A 
ATOM     35  C   UNL     1      -6.747   4.175  -2.087  1.00  0.00     0.049 A 
ATOM     36  N   UNL     1      -8.732   1.964  -2.622  1.00  0.00    -0.248 NA
ATOM     37  C   UNL     1      -6.950   0.458  -2.658  1.00  0.00     0.031 C 
ATOM     38  C   UNL     1      -5.827   5.298  -1.897  1.00  0.00     0.029 A 
ATOM     39  N   UNL     1      -7.989   4.728  -1.891  1.00  0.00    -0.354 N 
ATOM     40  C   UNL     1      -9.218   0.684  -2.859  1.00  0.00     0.074 A 
ATOM     41  C   UNL     1      -8.075  -0.203  -2.898  1.00  0.00     0.031 C 
ATOM     42  C   UNL     1      -6.531   6.404  -1.617  1.00  0.00     0.029 A 
ATOM     43  C   UNL     1      -7.952   6.090  -1.695  1.00  0.00     0.049 A 
ATOM     44  H   UNL     1      -8.822   4.203  -1.891  1.00  0.00     0.167 HD
ATOM     45  C   UNL     1     -10.502   0.289  -3.028  1.00  0.00     0.034 A 
ATOM     46  C   UNL     1      -8.945   6.998  -1.643  1.00  0.00     0.034 A 
ATOM     47  C   UNL     1     -11.632   1.170  -2.907  1.00  0.00     0.049 A 
ATOM     48  C   UNL     1     -10.362   6.532  -1.811  1.00  0.00     0.074 A 
ATOM     49  C   UNL     1     -12.977   0.865  -3.022  1.00  0.00     0.029 A 
ATOM     50  N   UNL     1     -11.550   2.525  -2.625  1.00  0.00    -0.354 N 
ATOM     51  N   UNL     1     -10.809   5.315  -2.007  1.00  0.00    -0.248 NA
ATOM     52  C   UNL     1     -11.413   7.556  -1.743  1.00  0.00     0.031 C 
ATOM     53  C   UNL     1     -13.709   2.037  -2.806  1.00  0.00     0.029 A 
ATOM     54  C   UNL     1     -12.820   3.070  -2.553  1.00  0.00     0.049 A 
ATOM     55  H   UNL     1     -10.713   3.025  -2.496  1.00  0.00     0.167 HD
ATOM     56  C   UNL     1     -12.192   5.422  -2.063  1.00  0.00     0.074 A 
ATOM     57  C   UNL     1     -12.512   6.821  -1.862  1.00  0.00     0.031 C 
ATOM     58  C   UNL     1     -13.114   4.454  -2.283  1.00  0.00     0.034 A 
BRANCH  45  59
ATOM     59  C   UNL     1     -10.762  -1.161  -3.334  1.00  0.00     0.023 A 
ATOM     60  C   UNL     1     -10.688  -2.117  -2.302  1.00  0.00     0.012 A 
ATOM     61  C   UNL     1     -11.147  -1.567  -4.627  1.00  0.00     0.148 A 
ATOM     62  C   UNL     1     -10.974  -3.458  -2.557  1.00  0.00     0.002 A 
ATOM     63  C   UNL     1     -11.464  -2.900  -4.865  1.00  0.00     0.091 A 
ATOM     64  F   UNL     1     -11.184  -0.649  -5.603  1.00  0.00    -0.205 F 
ATOM     65  C   UNL     1     -11.372  -3.848  -3.833  1.00  0.00     0.022 A 
BRANCH  63  66
ATOM     66  S   UNL     1     -12.056  -3.474  -6.463  1.00  0.00     0.127 S 
ATOM     67  O   UNL     1     -10.856  -4.101  -7.015  1.00  0.00    -0.237 OA
ATOM     68  O   UNL     1     -13.115  -4.412  -6.088  1.00  0.00    -0.237 OA
ATOM     69  O   UNL     1     -12.525  -2.285  -7.160  1.00  0.00    -0.744 OA
ENDBRANCH  63  66
ENDBRANCH  45  59
BRANCH  46  70
ATOM     70  C   UNL     1      -8.614   8.432  -1.408  1.00  0.00     0.023 A 
ATOM     71  C   UNL     1      -8.934   9.017  -0.169  1.00  0.00     0.012 A 
ATOM     72  C   UNL     1      -7.912   9.192  -2.364  1.00  0.00     0.148 A 
ATOM     73  C   UNL     1      -8.568  10.334   0.111  1.00  0.00     0.002 A 
ATOM     74  C   UNL     1      -7.495  10.483  -2.055  1.00  0.00     0.091 A 
ATOM     75  F   UNL     1      -7.636   8.630  -3.550  1.00  0.00    -0.205 F 
ATOM     76  C   UNL     1      -7.834  11.061  -0.824  1.00  0.00     0.022 A 
BRANCH  74  77
ATOM     77  S   UNL     1      -6.410  11.411  -3.146  1.00  0.00     0.127 S 
ATOM     78  O   UNL     1      -7.351  12.290  -3.833  1.00  0.00    -0.237 OA
ATOM     79  O   UNL     1      -5.518  12.084  -2.200  1.00  0.00    -0.237 OA
ATOM     80  O   UNL     1      -5.748  10.407  -3.970  1.00  0.00    -0.744 OA
ENDBRANCH  74  77
ENDBRANCH  46  70
BRANCH  58  81
ATOM     81  C   UNL     1     -14.561   4.858  -2.283  1.00  0.00     0.023 A 
ATOM     82  C   UNL     1     -15.106   5.477  -3.424  1.00  0.00     0.012 A 
ATOM     83  C   UNL     1     -15.396   4.532  -1.198  1.00  0.00     0.148 A 
ATOM     84  C   UNL     1     -16.465   5.779  -3.479  1.00  0.00     0.002 A 
ATOM     85  C   UNL     1     -16.757   4.803  -1.275  1.00  0.00     0.091 A 
ATOM     86  F   UNL     1     -14.847   3.960  -0.117  1.00  0.00    -0.205 F 
ATOM     87  C   UNL     1     -17.292   5.431  -2.412  1.00  0.00     0.022 A 
BRANCH  85  88
ATOM     88  S   UNL     1     -17.908   4.317   0.015  1.00  0.00     0.127 S 
ATOM     89  O   UNL     1     -18.218   5.603   0.637  1.00  0.00    -0.237 OA
ATOM     90  O   UNL     1     -19.006   3.729  -0.752  1.00  0.00    -0.237 OA
ATOM     91  O   UNL     1     -17.188   3.371   0.858  1.00  0.00    -0.744 OA
ENDBRANCH  85  88
ENDBRANCH  58  81
ENDBRANCH  32  33
ENDBRANCH  25  27
ENDBRANCH  24  25
ENDBRANCH  23  24
ENDBRANCH   1  23
TORSDOF 17
