REMARK SMILES Cc1oc2cc3c(cc2c1C)[C@H](C)[C@@H](CC(=O)N[C@H](CC1=c2ccccc2=NC1)C(=O)OCCOC(=O)c1ccc(-c2c4nc(c(-c5cccc(S(=O)(=O)[O-])c5F)c5ccc([nH]5)c(-c5cccc(S(=O)(=O)[O-])c5F)c5nc(c(-c6cccc(S(=O)(=O)[O-])c6F)c6ccc2[nH]6)C=C5)C=C4)cc1)C(=O)O3
REMARK SMILES IDX 33 1 32 2 30 3 31 4 19 5 18 6 16 7 17 8 15 10 14 11 1 12
REMARK SMILES IDX 2 13 3 14 10 15 4 16 9 17 11 18 5 19 8 20 6 21 7 22 103 23
REMARK SMILES IDX 12 24 101 25 13 26 102 27 20 28 21 29 22 30 29 31 23 32
REMARK SMILES IDX 27 33 28 34 24 35 26 36 25 37 34 38 35 39 36 40 37 41 38 42
REMARK SMILES IDX 39 43 100 44 40 45 99 46 41 47 42 48 43 49 93 50 44 51 98 52
REMARK SMILES IDX 92 53 94 54 45 55 97 56 91 57 90 58 46 60 78 61 58 62 77 63
REMARK SMILES IDX 59 64 62 65 76 66 95 67 60 68 61 69 75 71 96 72 63 73 47 74
REMARK SMILES IDX 48 75 56 76 49 77 51 78 57 79 50 80 52 81 53 82 54 83 55 84
REMARK SMILES IDX 79 85 80 86 88 87 81 88 83 89 89 90 82 91 84 92 85 93 86 94
REMARK SMILES IDX 87 95 64 96 65 97 73 98 66 99 68 100 74 101 67 102 69 103
REMARK SMILES IDX 70 104 71 105 72 106
REMARK H PARENT 18 9 94 59 62 70
REMARK Flexibility Score: inf
ROOT
ATOM      1  C   UNL     1       2.689  11.226   6.193  1.00  0.00     0.274 C 
ENDROOT
BRANCH   1   2
ATOM      2  O   UNL     1       1.640  10.452   5.568  1.00  0.00    -0.461 OA
BRANCH   2   3
ATOM      3  C   UNL     1       2.011   9.447   4.747  1.00  0.00     0.329 C 
ATOM      4  O   UNL     1       3.176   9.082   4.633  1.00  0.00    -0.250 OA
BRANCH   3   5
ATOM      5  C   UNL     1       0.905   8.933   3.808  1.00  0.00     0.196 C 
BRANCH   5   6
ATOM      6  N   UNL     1       1.043   9.565   2.461  1.00  0.00    -0.342 N 
ATOM      7  C   UNL     1       0.784  10.834   2.041  1.00  0.00     0.221 C 
ATOM      8  O   UNL     1       0.424  11.008   0.873  1.00  0.00    -0.275 OA
ATOM      9  H   UNL     1       1.379   8.961   1.759  1.00  0.00     0.164 HD
BRANCH   7  10
ATOM     10  C   UNL     1       0.976  12.041   2.944  1.00  0.00     0.116 C 
BRANCH  10  11
ATOM     11  C   UNL     1      -0.325  12.704   3.395  1.00  0.00     0.116 C 
ATOM     12  C   UNL     1      -5.506  16.539   8.925  1.00  0.00     0.088 C 
ATOM     13  C   UNL     1      -4.488  16.067   7.966  1.00  0.00     0.105 A 
ATOM     14  O   UNL     1      -4.780  14.882   7.368  1.00  0.00    -0.461 OA
ATOM     15  C   UNL     1      -3.276  16.557   7.508  1.00  0.00    -0.002 A 
ATOM     16  C   UNL     1      -3.760  14.597   6.522  1.00  0.00     0.138 A 
ATOM     17  C   UNL     1      -2.789  15.588   6.574  1.00  0.00     0.024 A 
ATOM     18  C   UNL     1      -2.599  17.819   7.885  1.00  0.00     0.049 C 
ATOM     19  C   UNL     1      -3.690  13.468   5.726  1.00  0.00     0.095 A 
ATOM     20  C   UNL     1      -1.624  15.447   5.785  1.00  0.00     0.020 A 
ATOM     21  C   UNL     1      -2.533  13.357   4.958  1.00  0.00     0.138 A 
ATOM     22  C   UNL     1      -1.490  14.320   4.957  1.00  0.00    -0.001 A 
ATOM     23  O   UNL     1      -2.440  12.173   4.231  1.00  0.00    -0.426 OA
ATOM     24  C   UNL     1      -0.168  14.006   4.223  1.00  0.00     0.035 C 
ATOM     25  C   UNL     1      -1.116  11.874   4.360  1.00  0.00     0.315 C 
ATOM     26  C   UNL     1       0.352  15.155   3.364  1.00  0.00     0.014 C 
ATOM     27  O   UNL     1      -0.671  11.251   5.308  1.00  0.00    -0.251 OA
ENDBRANCH  10  11
ENDBRANCH   7  10
ENDBRANCH   5   6
BRANCH   5  28
ATOM     28  C   UNL     1      -0.608   8.735   4.091  1.00  0.00     0.070 C 
BRANCH  28  29
ATOM     29  C   UNL     1      -1.340   8.466   5.420  1.00  0.00    -0.037 C 
ATOM     30  C   UNL     1      -1.220   7.282   6.046  1.00  0.00     0.001 A 
ATOM     31  C   UNL     1      -2.844   8.639   5.178  1.00  0.00     0.174 C 
ATOM     32  C   UNL     1      -1.144   7.015   7.472  1.00  0.00     0.010 A 
ATOM     33  C   UNL     1      -2.404   6.559   5.488  1.00  0.00     0.065 A 
ATOM     34  N   UNL     1      -3.353   7.263   4.952  1.00  0.00    -0.280 NA
ATOM     35  C   UNL     1      -1.407   5.762   7.889  1.00  0.00     0.001 A 
ATOM     36  C   UNL     1      -2.367   5.104   5.742  1.00  0.00     0.028 A 
ATOM     37  C   UNL     1      -1.819   4.750   6.921  1.00  0.00     0.002 A 
ENDBRANCH  28  29
ENDBRANCH   5  28
ENDBRANCH   3   5
ENDBRANCH   2   3
ENDBRANCH   1   2
BRANCH   1  38
ATOM     38  C   UNL     1       2.384  11.351   7.677  1.00  0.00     0.275 C 
BRANCH  38  39
ATOM     39  O   UNL     1       2.634  10.075   8.261  1.00  0.00    -0.458 OA
BRANCH  39  40
ATOM     40  C   UNL     1       1.533   9.328   8.522  1.00  0.00     0.338 C 
ATOM     41  O   UNL     1       0.395   9.696   8.687  1.00  0.00    -0.246 OA
BRANCH  40  42
ATOM     42  C   UNL     1       2.013   7.943   8.514  1.00  0.00     0.060 A 
ATOM     43  C   UNL     1       2.533   7.402   9.681  1.00  0.00     0.016 A 
ATOM     44  C   UNL     1       2.056   7.243   7.307  1.00  0.00     0.016 A 
ATOM     45  C   UNL     1       3.155   6.162   9.617  1.00  0.00     0.010 A 
ATOM     46  C   UNL     1       2.671   6.003   7.238  1.00  0.00     0.010 A 
ATOM     47  C   UNL     1       3.241   5.471   8.394  1.00  0.00    -0.014 A 
BRANCH  47  48
ATOM     48  C   UNL     1       4.024   4.224   8.370  1.00  0.00     0.031 A 
ATOM     49  C   UNL     1       3.411   3.098   7.578  1.00  0.00     0.074 A 
ATOM     50  C   UNL     1       5.353   4.426   8.269  1.00  0.00     0.049 A 
ATOM     51  N   UNL     1       3.539   2.835   6.312  1.00  0.00    -0.248 NA
ATOM     52  C   UNL     1       2.419   2.252   8.255  1.00  0.00     0.031 C 
ATOM     53  C   UNL     1       6.045   5.201   7.240  1.00  0.00     0.029 A 
ATOM     54  N   UNL     1       6.356   3.886   9.048  1.00  0.00    -0.354 N 
ATOM     55  C   UNL     1       2.671   1.783   6.022  1.00  0.00     0.074 A 
ATOM     56  C   UNL     1       1.986   1.474   7.256  1.00  0.00     0.031 C 
ATOM     57  C   UNL     1       7.365   4.957   7.338  1.00  0.00     0.029 A 
ATOM     58  C   UNL     1       7.608   4.034   8.449  1.00  0.00     0.049 A 
ATOM     59  H   UNL     1       6.206   3.451   9.919  1.00  0.00     0.167 HD
ATOM     60  C   UNL     1       2.584   1.167   4.811  1.00  0.00     0.034 A 
ATOM     61  C   UNL     1       8.553   3.050   8.480  1.00  0.00     0.034 A 
ATOM     62  C   UNL     1       3.490   1.647   3.812  1.00  0.00     0.049 A 
ATOM     63  C   UNL     1       8.146   2.240   7.267  1.00  0.00     0.074 A 
ATOM     64  C   UNL     1       3.453   2.493   2.728  1.00  0.00     0.029 A 
ATOM     65  N   UNL     1       4.797   1.230   3.883  1.00  0.00    -0.354 N 
ATOM     66  N   UNL     1       8.375   2.550   6.016  1.00  0.00    -0.248 NA
ATOM     67  C   UNL     1       7.064   1.270   7.459  1.00  0.00     0.031 C 
ATOM     68  C   UNL     1       4.812   2.876   2.495  1.00  0.00     0.029 A 
ATOM     69  C   UNL     1       5.593   2.269   3.478  1.00  0.00     0.049 A 
ATOM     70  H   UNL     1       5.107   0.341   4.173  1.00  0.00     0.167 HD
ATOM     71  C   UNL     1       7.259   2.084   5.309  1.00  0.00     0.074 A 
ATOM     72  C   UNL     1       6.514   1.272   6.253  1.00  0.00     0.031 C 
ATOM     73  C   UNL     1       6.893   2.528   4.066  1.00  0.00     0.034 A 
BRANCH  60  74
ATOM     74  C   UNL     1       1.827  -0.091   4.560  1.00  0.00     0.023 A 
ATOM     75  C   UNL     1       2.580  -1.285   4.564  1.00  0.00     0.012 A 
ATOM     76  C   UNL     1       0.485  -0.129   4.146  1.00  0.00     0.148 A 
ATOM     77  C   UNL     1       2.038  -2.482   4.106  1.00  0.00     0.002 A 
ATOM     78  C   UNL     1      -0.058  -1.337   3.701  1.00  0.00     0.091 A 
ATOM     79  F   UNL     1      -0.222   1.010   4.147  1.00  0.00    -0.205 F 
ATOM     80  C   UNL     1       0.722  -2.506   3.665  1.00  0.00     0.022 A 
BRANCH  78  81
ATOM     81  S   UNL     1      -1.755  -1.503   3.131  1.00  0.00     0.127 S 
ATOM     82  O   UNL     1      -1.578  -1.671   1.690  1.00  0.00    -0.237 OA
ATOM     83  O   UNL     1      -2.198  -2.708   3.835  1.00  0.00    -0.237 OA
ATOM     84  O   UNL     1      -2.432  -0.282   3.547  1.00  0.00    -0.744 OA
ENDBRANCH  78  81
ENDBRANCH  60  74
BRANCH  61  85
ATOM     85  C   UNL     1       8.822   2.490   9.850  1.00  0.00     0.023 A 
ATOM     86  C   UNL     1       9.081   3.432  10.879  1.00  0.00     0.012 A 
ATOM     87  C   UNL     1       8.768   1.134  10.213  1.00  0.00     0.148 A 
ATOM     88  C   UNL     1       9.153   3.060  12.222  1.00  0.00     0.002 A 
ATOM     89  C   UNL     1       8.781   0.771  11.560  1.00  0.00     0.091 A 
ATOM     90  F   UNL     1       8.686   0.205   9.255  1.00  0.00    -0.205 F 
ATOM     91  C   UNL     1       8.967   1.730  12.566  1.00  0.00     0.022 A 
BRANCH  89  92
ATOM     92  S   UNL     1       8.447  -0.908  12.109  1.00  0.00     0.127 S 
ATOM     93  O   UNL     1       9.550  -1.152  13.037  1.00  0.00    -0.237 OA
ATOM     94  O   UNL     1       7.136  -0.748  12.735  1.00  0.00    -0.237 OA
ATOM     95  O   UNL     1       8.463  -1.727  10.905  1.00  0.00    -0.744 OA
ENDBRANCH  89  92
ENDBRANCH  61  85
BRANCH  73  96
ATOM     96  C   UNL     1       7.840   3.470   3.378  1.00  0.00     0.023 A 
ATOM     97  C   UNL     1       9.124   3.006   3.039  1.00  0.00     0.012 A 
ATOM     98  C   UNL     1       7.459   4.771   2.985  1.00  0.00     0.148 A 
ATOM     99  C   UNL     1      10.004   3.804   2.309  1.00  0.00     0.002 A 
ATOM    100  C   UNL     1       8.318   5.540   2.207  1.00  0.00     0.091 A 
ATOM    101  F   UNL     1       6.265   5.243   3.373  1.00  0.00    -0.205 F 
ATOM    102  C   UNL     1       9.594   5.060   1.875  1.00  0.00     0.022 A 
BRANCH 100 103
ATOM    103  S   UNL     1       7.847   7.126   1.502  1.00  0.00     0.127 S 
ATOM    104  O   UNL     1       8.797   8.038   2.139  1.00  0.00    -0.237 OA
ATOM    105  O   UNL     1       8.084   6.903   0.074  1.00  0.00    -0.237 OA
ATOM    106  O   UNL     1       6.450   7.334   1.855  1.00  0.00    -0.744 OA
ENDBRANCH 100 103
ENDBRANCH  73  96
ENDBRANCH  47  48
ENDBRANCH  40  42
ENDBRANCH  39  40
ENDBRANCH  38  39
ENDBRANCH   1  38
TORSDOF 19
