REMARK SMILES CC[C@@](C)([NH2+][C@H]1CC[C@H](C)[C@H](C)C1)C(=O)OCCOC(=O)c1ccc(-c2c3nc(c(-c4cccc(S(=O)(=O)[O-])c4F)c4ccc([nH]4)c(-c4cccc(S(=O)(=O)[O-])c4F)c4nc(c(-c5cccc(S(=O)(=O)[O-])c5F)c5ccc2[nH]5)C=C4)C=C3)cc1
REMARK SMILES IDX 18 1 17 2 16 3 14 4 15 5 3 6 4 7 2 8 1 9 5 10 6 13 7 14
REMARK SMILES IDX 13 15 8 16 11 17 9 18 12 19 10 20 19 21 20 22 21 23 22 24
REMARK SMILES IDX 23 25 84 26 24 27 83 28 25 29 26 30 27 31 77 32 28 33 82 34
REMARK SMILES IDX 76 35 78 36 29 37 81 38 75 39 74 40 30 42 62 43 42 44 61 45
REMARK SMILES IDX 43 46 46 47 60 48 79 49 44 50 45 51 59 53 80 54 47 55 31 56
REMARK SMILES IDX 32 57 40 58 33 59 35 60 41 61 34 62 36 63 37 64 38 65 39 66
REMARK SMILES IDX 63 67 64 68 72 69 65 70 67 71 73 72 66 73 68 74 69 75 70 76
REMARK SMILES IDX 71 77 48 78 49 79 57 80 50 81 52 82 58 83 51 84 53 85 54 86
REMARK SMILES IDX 55 87 56 88
REMARK H PARENT 5 11 5 12 78 41 46 52
REMARK Flexibility Score: inf
ROOT
ATOM      1  C   UNL     1       1.412   4.104   0.377  1.00  0.00     0.275 C 
ENDROOT
BRANCH   1   2
ATOM      2  C   UNL     1       1.251   5.088  -0.776  1.00  0.00     0.274 C 
BRANCH   2   3
ATOM      3  O   UNL     1       1.824   4.522  -1.974  1.00  0.00    -0.457 OA
BRANCH   3   4
ATOM      4  C   UNL     1       2.400   5.394  -2.846  1.00  0.00     0.367 C 
ATOM      5  O   UNL     1       2.600   6.576  -2.579  1.00  0.00    -0.245 OA
BRANCH   4   6
ATOM      6  C   UNL     1       2.736   4.778  -4.237  1.00  0.00     0.191 C 
ATOM      7  C   UNL     1       2.437   5.842  -5.314  1.00  0.00     0.092 C 
BRANCH   6   8
ATOM      8  C   UNL     1       4.245   4.397  -4.339  1.00  0.00     0.077 C 
ATOM      9  C   UNL     1       5.258   5.514  -4.103  1.00  0.00     0.011 C 
ENDBRANCH   6   8
BRANCH   6  10
ATOM     10  N   UNL     1       2.043   3.489  -4.541  1.00  0.00    -0.330 N 
ATOM     11  H   UNL     1       2.529   2.773  -4.000  1.00  0.00     0.347 HD
ATOM     12  H   UNL     1       2.082   3.470  -5.560  1.00  0.00     0.347 HD
BRANCH  10  13
ATOM     13  C   UNL     1       0.612   3.276  -4.297  1.00  0.00     0.183 C 
ATOM     14  C   UNL     1      -0.299   4.390  -4.819  1.00  0.00     0.065 C 
ATOM     15  C   UNL     1       0.243   1.911  -4.926  1.00  0.00     0.068 C 
ATOM     16  C   UNL     1      -1.783   4.050  -4.754  1.00  0.00     0.010 C 
ATOM     17  C   UNL     1      -1.258   1.570  -4.849  1.00  0.00    -0.006 C 
ATOM     18  C   UNL     1      -2.079   2.726  -5.461  1.00  0.00    -0.011 C 
ATOM     19  C   UNL     1      -1.669   1.196  -3.419  1.00  0.00     0.008 C 
ATOM     20  C   UNL     1      -3.582   2.458  -5.488  1.00  0.00     0.008 C 
ENDBRANCH  10  13
ENDBRANCH   6  10
ENDBRANCH   4   6
ENDBRANCH   3   4
ENDBRANCH   2   3
ENDBRANCH   1   2
BRANCH   1  21
ATOM     21  O   UNL     1       2.816   4.000   0.649  1.00  0.00    -0.458 OA
BRANCH  21  22
ATOM     22  C   UNL     1       3.367   2.782   0.477  1.00  0.00     0.338 C 
ATOM     23  O   UNL     1       2.797   1.704   0.370  1.00  0.00    -0.246 OA
BRANCH  22  24
ATOM     24  C   UNL     1       4.811   2.975   0.313  1.00  0.00     0.060 A 
ATOM     25  C   UNL     1       5.260   3.566  -0.868  1.00  0.00     0.016 A 
ATOM     26  C   UNL     1       5.714   2.530   1.270  1.00  0.00     0.016 A 
ATOM     27  C   UNL     1       6.622   3.659  -1.132  1.00  0.00     0.010 A 
ATOM     28  C   UNL     1       7.084   2.688   1.035  1.00  0.00     0.010 A 
ATOM     29  C   UNL     1       7.552   3.223  -0.182  1.00  0.00    -0.014 A 
BRANCH  29  30
ATOM     30  C   UNL     1       9.009   3.258  -0.482  1.00  0.00     0.031 A 
ATOM     31  C   UNL     1       9.784   1.969  -0.531  1.00  0.00     0.074 A 
ATOM     32  C   UNL     1       9.644   4.426  -0.701  1.00  0.00     0.049 A 
ATOM     33  N   UNL     1      11.077   1.782  -0.586  1.00  0.00    -0.248 NA
ATOM     34  C   UNL     1       8.998   0.724  -0.505  1.00  0.00     0.031 C 
ATOM     35  C   UNL     1       9.011   5.745  -0.725  1.00  0.00     0.029 A 
ATOM     36  N   UNL     1      10.973   4.692  -0.928  1.00  0.00    -0.354 N 
ATOM     37  C   UNL     1      11.263   0.407  -0.520  1.00  0.00     0.074 A 
ATOM     38  C   UNL     1       9.950  -0.196  -0.441  1.00  0.00     0.031 C 
ATOM     39  C   UNL     1       9.949   6.679  -0.948  1.00  0.00     0.029 A 
ATOM     40  C   UNL     1      11.257   6.035  -1.017  1.00  0.00     0.049 A 
ATOM     41  H   UNL     1      11.656   3.989  -1.017  1.00  0.00     0.167 HD
ATOM     42  C   UNL     1      12.422  -0.292  -0.532  1.00  0.00     0.034 A 
ATOM     43  C   UNL     1      12.438   6.680  -1.101  1.00  0.00     0.034 A 
ATOM     44  C   UNL     1      13.722   0.301  -0.687  1.00  0.00     0.049 A 
ATOM     45  C   UNL     1      13.713   5.879  -1.119  1.00  0.00     0.074 A 
ATOM     46  C   UNL     1      14.953  -0.329  -0.743  1.00  0.00     0.029 A 
ATOM     47  N   UNL     1      13.960   1.659  -0.827  1.00  0.00    -0.354 N 
ATOM     48  N   UNL     1      13.870   4.578  -1.097  1.00  0.00    -0.248 NA
ATOM     49  C   UNL     1      14.973   6.635  -1.183  1.00  0.00     0.031 C 
ATOM     50  C   UNL     1      15.937   0.651  -0.912  1.00  0.00     0.029 A 
ATOM     51  C   UNL     1      15.317   1.889  -0.971  1.00  0.00     0.049 A 
ATOM     52  H   UNL     1      13.266   2.357  -0.824  1.00  0.00     0.167 HD
ATOM     53  C   UNL     1      15.242   4.359  -1.164  1.00  0.00     0.074 A 
ATOM     54  C   UNL     1      15.870   5.661  -1.257  1.00  0.00     0.031 C 
ATOM     55  C   UNL     1      15.922   3.187  -1.124  1.00  0.00     0.034 A 
BRANCH  42  56
ATOM     56  C   UNL     1      12.336  -1.787  -0.391  1.00  0.00     0.023 A 
ATOM     57  C   UNL     1      11.933  -2.571  -1.490  1.00  0.00     0.012 A 
ATOM     58  C   UNL     1      12.701  -2.417   0.815  1.00  0.00     0.148 A 
ATOM     59  C   UNL     1      11.871  -3.960  -1.383  1.00  0.00     0.002 A 
ATOM     60  C   UNL     1      12.672  -3.804   0.902  1.00  0.00     0.091 A 
ATOM     61  F   UNL     1      13.054  -1.650   1.856  1.00  0.00    -0.205 F 
ATOM     62  C   UNL     1      12.250  -4.576  -0.192  1.00  0.00     0.022 A 
BRANCH  60  63
ATOM     63  S   UNL     1      13.209  -4.686   2.372  1.00  0.00     0.127 S 
ATOM     64  O   UNL     1      11.932  -5.108   2.946  1.00  0.00    -0.237 OA
ATOM     65  O   UNL     1      14.011  -5.772   1.807  1.00  0.00    -0.237 OA
ATOM     66  O   UNL     1      13.966  -3.724   3.160  1.00  0.00    -0.744 OA
ENDBRANCH  60  63
ENDBRANCH  42  56
BRANCH  43  67
ATOM     67  C   UNL     1      12.468   8.168  -1.185  1.00  0.00     0.023 A 
ATOM     68  C   UNL     1      12.876   8.786  -2.383  1.00  0.00     0.012 A 
ATOM     69  C   UNL     1      12.066   8.973  -0.101  1.00  0.00     0.148 A 
ATOM     70  C   UNL     1      12.900  10.177  -2.494  1.00  0.00     0.002 A 
ATOM     71  C   UNL     1      12.036  10.357  -0.238  1.00  0.00     0.091 A 
ATOM     72  F   UNL     1      11.710   8.371   1.042  1.00  0.00    -0.205 F 
ATOM     73  C   UNL     1      12.467  10.961  -1.428  1.00  0.00     0.022 A 
BRANCH  71  74
ATOM     74  S   UNL     1      11.359  11.426   1.037  1.00  0.00     0.127 S 
ATOM     75  O   UNL     1      12.568  11.979   1.639  1.00  0.00    -0.237 OA
ATOM     76  O   UNL     1      10.570  12.378   0.253  1.00  0.00    -0.237 OA
ATOM     77  O   UNL     1      10.562  10.553   1.890  1.00  0.00    -0.744 OA
ENDBRANCH  71  74
ENDBRANCH  43  67
BRANCH  55  78
ATOM     78  C   UNL     1      17.424   3.248  -1.204  1.00  0.00     0.023 A 
ATOM     79  C   UNL     1      18.161   3.656  -0.075  1.00  0.00     0.012 A 
ATOM     80  C   UNL     1      18.105   2.825  -2.361  1.00  0.00     0.148 A 
ATOM     81  C   UNL     1      19.555   3.664  -0.105  1.00  0.00     0.002 A 
ATOM     82  C   UNL     1      19.495   2.796  -2.370  1.00  0.00     0.091 A 
ATOM     83  F   UNL     1      17.385   2.461  -3.433  1.00  0.00    -0.205 F 
ATOM     84  C   UNL     1      20.222   3.224  -1.247  1.00  0.00     0.022 A 
BRANCH  82  85
ATOM     85  S   UNL     1      20.428   2.159  -3.767  1.00  0.00     0.127 S 
ATOM     86  O   UNL     1      20.873   3.391  -4.416  1.00  0.00    -0.237 OA
ATOM     87  O   UNL     1      21.493   1.396  -3.114  1.00  0.00    -0.237 OA
ATOM     88  O   UNL     1      19.491   1.347  -4.531  1.00  0.00    -0.744 OA
ENDBRANCH  82  85
ENDBRANCH  55  78
ENDBRANCH  29  30
ENDBRANCH  22  24
ENDBRANCH  21  22
ENDBRANCH   1  21
TORSDOF 17
