REMARK SMILES O=C(OCCOC(=O)[C@H]1CCCN1C(=O)CN1C(=O)[C@@H]2[C@H](C1=O)[C@H]1C=C[C@@H]2C1)c1ccc(-c2c3nc(c(-c4cccc(S(=O)(=O)[O-])c4F)c4ccc([nH]4)c(-c4cccc(S(=O)(=O)[O-])c4F)c4nc(c(-c5cccc(S(=O)(=O)[O-])c5F)c5ccc2[nH]5)C=C4)C=C3)cc1
REMARK SMILES IDX 4 1 3 2 2 3 1 4 29 5 30 6 91 7 31 8 90 9 32 10 33 11 34 12
REMARK SMILES IDX 84 13 35 14 89 15 83 16 85 17 36 18 88 19 82 20 81 21 37 23
REMARK SMILES IDX 69 24 49 25 68 26 50 27 53 28 67 29 86 30 51 31 52 32 66 34
REMARK SMILES IDX 87 35 54 36 38 37 39 38 47 39 40 40 42 41 48 42 41 43 43 44
REMARK SMILES IDX 44 45 45 46 46 47 70 48 71 49 79 50 72 51 74 52 80 53 73 54
REMARK SMILES IDX 75 55 76 56 77 57 78 58 55 59 56 60 64 61 57 62 59 63 65 64
REMARK SMILES IDX 58 65 60 66 61 67 62 68 63 69 5 70 6 71 7 72 8 73 9 74 10 75
REMARK SMILES IDX 13 76 11 77 12 78 14 79 15 80 16 81 17 82 22 83 18 84 23 85
REMARK SMILES IDX 21 86 20 87 19 88 24 89 27 90 25 91 28 92 26 93
REMARK H PARENT 85 22 53 33
REMARK Flexibility Score: inf
ROOT
ATOM      1  C   UNL     1       2.255  -0.256  -4.874  1.00  0.00     0.275 C 
ENDROOT
BRANCH   1   2
ATOM      2  O   UNL     1       2.538   0.396  -3.623  1.00  0.00    -0.458 OA
BRANCH   2   3
ATOM      3  C   UNL     1       1.870   0.404  -2.442  1.00  0.00     0.338 C 
ATOM      4  O   UNL     1       2.333   1.130  -1.562  1.00  0.00    -0.246 OA
BRANCH   3   5
ATOM      5  C   UNL     1       0.721  -0.508  -2.053  1.00  0.00     0.060 A 
ATOM      6  C   UNL     1       0.070  -1.442  -2.871  1.00  0.00     0.016 A 
ATOM      7  C   UNL     1       0.456  -0.591  -0.663  1.00  0.00     0.016 A 
ATOM      8  C   UNL     1      -0.590  -2.557  -2.295  1.00  0.00     0.010 A 
ATOM      9  C   UNL     1      -0.215  -1.692  -0.088  1.00  0.00     0.010 A 
ATOM     10  C   UNL     1      -0.644  -2.749  -0.893  1.00  0.00    -0.014 A 
BRANCH  10  11
ATOM     11  C   UNL     1      -1.335  -3.970  -0.371  1.00  0.00     0.031 A 
ATOM     12  C   UNL     1      -2.812  -3.862  -0.387  1.00  0.00     0.074 A 
ATOM     13  C   UNL     1      -0.769  -5.140   0.028  1.00  0.00     0.049 A 
ATOM     14  N   UNL     1      -3.684  -4.769  -0.079  1.00  0.00    -0.248 NA
ATOM     15  C   UNL     1      -3.371  -2.536  -0.712  1.00  0.00     0.031 C 
ATOM     16  C   UNL     1       0.629  -5.349   0.336  1.00  0.00     0.029 A 
ATOM     17  N   UNL     1      -1.278  -6.418   0.203  1.00  0.00    -0.354 N 
ATOM     18  C   UNL     1      -4.886  -4.100  -0.065  1.00  0.00     0.074 A 
ATOM     19  C   UNL     1      -4.650  -2.731  -0.456  1.00  0.00     0.031 C 
ATOM     20  C   UNL     1       0.934  -6.653   0.337  1.00  0.00     0.029 A 
ATOM     21  C   UNL     1      -0.303  -7.394   0.396  1.00  0.00     0.049 A 
ATOM     22  H   UNL     1      -2.242  -6.617   0.192  1.00  0.00     0.167 HD
ATOM     23  C   UNL     1      -6.077  -4.585   0.318  1.00  0.00     0.034 A 
ATOM     24  C   UNL     1      -0.355  -8.704   0.736  1.00  0.00     0.034 A 
ATOM     25  C   UNL     1      -6.279  -5.920   0.785  1.00  0.00     0.049 A 
ATOM     26  C   UNL     1      -1.709  -9.210   1.123  1.00  0.00     0.074 A 
ATOM     27  C   UNL     1      -7.466  -6.499   1.181  1.00  0.00     0.029 A 
ATOM     28  N   UNL     1      -5.276  -6.856   0.984  1.00  0.00    -0.354 N 
ATOM     29  N   UNL     1      -2.856  -8.585   1.036  1.00  0.00    -0.248 NA
ATOM     30  C   UNL     1      -1.789 -10.548   1.725  1.00  0.00     0.031 C 
ATOM     31  C   UNL     1      -7.175  -7.766   1.679  1.00  0.00     0.029 A 
ATOM     32  C   UNL     1      -5.821  -8.010   1.509  1.00  0.00     0.049 A 
ATOM     33  H   UNL     1      -4.322  -6.718   0.783  1.00  0.00     0.167 HD
ATOM     34  C   UNL     1      -3.789  -9.438   1.589  1.00  0.00     0.074 A 
ATOM     35  C   UNL     1      -3.090 -10.657   1.946  1.00  0.00     0.031 C 
ATOM     36  C   UNL     1      -5.101  -9.216   1.816  1.00  0.00     0.034 A 
BRANCH  23  37
ATOM     37  C   UNL     1      -7.202  -3.614   0.352  1.00  0.00     0.023 A 
ATOM     38  C   UNL     1      -7.747  -3.101  -0.840  1.00  0.00     0.012 A 
ATOM     39  C   UNL     1      -7.707  -3.209   1.597  1.00  0.00     0.148 A 
ATOM     40  C   UNL     1      -8.789  -2.182  -0.788  1.00  0.00     0.002 A 
ATOM     41  C   UNL     1      -8.788  -2.351   1.639  1.00  0.00     0.091 A 
ATOM     42  F   UNL     1      -7.110  -3.664   2.708  1.00  0.00    -0.205 F 
ATOM     43  C   UNL     1      -9.324  -1.826   0.450  1.00  0.00     0.022 A 
BRANCH  41  44
ATOM     44  S   UNL     1      -9.586  -1.906   3.178  1.00  0.00     0.127 S 
ATOM     45  O   UNL     1      -9.454  -0.450   3.167  1.00  0.00    -0.237 OA
ATOM     46  O   UNL     1     -10.944  -2.402   2.960  1.00  0.00    -0.237 OA
ATOM     47  O   UNL     1      -8.843  -2.581   4.233  1.00  0.00    -0.744 OA
ENDBRANCH  41  44
ENDBRANCH  23  37
BRANCH  24  48
ATOM     48  C   UNL     1       0.863  -9.573   0.946  1.00  0.00     0.023 A 
ATOM     49  C   UNL     1       0.971 -10.820   0.289  1.00  0.00     0.012 A 
ATOM     50  C   UNL     1       1.877  -9.226   1.866  1.00  0.00     0.148 A 
ATOM     51  C   UNL     1       2.025 -11.700   0.572  1.00  0.00     0.002 A 
ATOM     52  C   UNL     1       2.970 -10.062   2.072  1.00  0.00     0.091 A 
ATOM     53  F   UNL     1       1.744  -8.088   2.561  1.00  0.00    -0.205 F 
ATOM     54  C   UNL     1       3.034 -11.314   1.448  1.00  0.00     0.022 A 
BRANCH  52  55
ATOM     55  S   UNL     1       4.360  -9.595   3.113  1.00  0.00     0.127 S 
ATOM     56  O   UNL     1       4.224 -10.534   4.225  1.00  0.00    -0.237 OA
ATOM     57  O   UNL     1       5.497  -9.854   2.229  1.00  0.00    -0.237 OA
ATOM     58  O   UNL     1       4.150  -8.194   3.448  1.00  0.00    -0.744 OA
ENDBRANCH  52  55
ENDBRANCH  24  48
BRANCH  36  59
ATOM     59  C   UNL     1      -5.884 -10.350   2.394  1.00  0.00     0.023 A 
ATOM     60  C   UNL     1      -5.713 -10.732   3.736  1.00  0.00     0.012 A 
ATOM     61  C   UNL     1      -6.847 -10.986   1.592  1.00  0.00     0.148 A 
ATOM     62  C   UNL     1      -6.477 -11.767   4.265  1.00  0.00     0.002 A 
ATOM     63  C   UNL     1      -7.649 -11.967   2.144  1.00  0.00     0.091 A 
ATOM     64  F   UNL     1      -6.970 -10.600   0.314  1.00  0.00    -0.205 F 
ATOM     65  C   UNL     1      -7.455 -12.372   3.475  1.00  0.00     0.022 A 
BRANCH  63  66
ATOM     66  S   UNL     1      -8.988 -12.725   1.228  1.00  0.00     0.127 S 
ATOM     67  O   UNL     1      -8.556 -14.120   1.173  1.00  0.00    -0.237 OA
ATOM     68  O   UNL     1     -10.135 -12.470   2.099  1.00  0.00    -0.237 OA
ATOM     69  O   UNL     1      -9.038 -12.047  -0.061  1.00  0.00    -0.744 OA
ENDBRANCH  63  66
ENDBRANCH  36  59
ENDBRANCH  10  11
ENDBRANCH   3   5
ENDBRANCH   2   3
ENDBRANCH   1   2
BRANCH   1  70
ATOM     70  C   UNL     1       2.913  -1.631  -4.994  1.00  0.00     0.274 C 
BRANCH  70  71
ATOM     71  O   UNL     1       2.854  -2.320  -3.749  1.00  0.00    -0.461 OA
BRANCH  71  72
ATOM     72  C   UNL     1       3.985  -2.407  -2.990  1.00  0.00     0.328 C 
ATOM     73  O   UNL     1       5.089  -2.028  -3.353  1.00  0.00    -0.250 OA
BRANCH  72  74
ATOM     74  C   UNL     1       3.666  -2.972  -1.591  1.00  0.00     0.195 C 
ATOM     75  C   UNL     1       2.264  -3.431  -1.482  1.00  0.00     0.039 C 
ATOM     76  N   UNL     1       4.299  -4.196  -1.143  1.00  0.00    -0.327 N 
ATOM     77  C   UNL     1       2.264  -4.763  -2.188  1.00  0.00     0.024 C 
ATOM     78  C   UNL     1       3.578  -5.352  -1.697  1.00  0.00     0.120 C 
BRANCH  76  79
ATOM     79  C   UNL     1       4.879  -4.313   0.118  1.00  0.00     0.243 C 
ATOM     80  O   UNL     1       4.875  -5.381   0.728  1.00  0.00    -0.273 OA
BRANCH  79  81
ATOM     81  C   UNL     1       5.373  -3.040   0.825  1.00  0.00     0.228 C 
BRANCH  81  82
ATOM     82  N   UNL     1       5.885  -2.053  -0.111  1.00  0.00    -0.273 N 
ATOM     83  C   UNL     1       6.886  -2.420  -0.984  1.00  0.00     0.234 C 
ATOM     84  C   UNL     1       5.487  -0.731  -0.172  1.00  0.00     0.234 C 
ATOM     85  O   UNL     1       7.344  -3.524  -1.157  1.00  0.00    -0.274 OA
ATOM     86  C   UNL     1       7.421  -1.188  -1.620  1.00  0.00     0.099 C 
ATOM     87  C   UNL     1       6.232  -0.042  -1.322  1.00  0.00     0.099 C 
ATOM     88  O   UNL     1       4.708  -0.176   0.591  1.00  0.00    -0.274 OA
ATOM     89  C   UNL     1       8.688  -0.690  -0.623  1.00  0.00     0.025 C 
ATOM     90  C   UNL     1       7.185   1.424  -0.672  1.00  0.00     0.025 C 
ATOM     91  C   UNL     1       9.676   0.499  -1.068  1.00  0.00    -0.027 C 
ATOM     92  C   UNL     1       7.806   0.307   0.145  1.00  0.00     0.017 C 
ATOM     93  C   UNL     1       8.978   1.696  -1.068  1.00  0.00    -0.027 C 
ENDBRANCH  81  82
ENDBRANCH  79  81
ENDBRANCH  76  79
ENDBRANCH  72  74
ENDBRANCH  71  72
ENDBRANCH  70  71
ENDBRANCH   1  70
TORSDOF 17
