REMARK SMILES O=C1C[C@@H](C(=O)Nc2cccc(C(=O)OCCOC(=O)c3ccc(-c4c5nc(c(-c6cccc(S(=O)(=O)[O-])c6F)c6ccc([nH]6)c(-c6cccc(S(=O)(=O)[O-])c6F)c6nc(c(-c7cccc(S(=O)(=O)[O-])c7F)c7ccc4[nH]7)C=C6)C=C5)cc3)c2)[C@H](c2ccccc2)O1
REMARK SMILES IDX 16 1 15 2 13 3 14 4 12 5 8 6 9 7 84 8 10 9 11 10 7 11 5 12
REMARK SMILES IDX 6 13 4 15 1 16 2 17 3 18 92 19 85 20 86 21 87 22 91 23 88 24
REMARK SMILES IDX 90 25 89 26 17 27 18 28 19 29 20 30 21 31 22 32 83 33 23 34
REMARK SMILES IDX 82 35 24 36 25 37 26 38 76 39 27 40 81 41 75 42 77 43 28 44
REMARK SMILES IDX 80 45 74 46 73 47 29 49 61 50 41 51 60 52 42 53 45 54 59 55
REMARK SMILES IDX 78 56 43 57 44 58 58 60 79 61 46 62 30 63 31 64 39 65 32 66
REMARK SMILES IDX 34 67 40 68 33 69 35 70 36 71 37 72 38 73 62 74 63 75 71 76
REMARK SMILES IDX 64 77 66 78 72 79 65 80 67 81 68 82 69 83 70 84 47 85 48 86
REMARK SMILES IDX 56 87 49 88 51 89 57 90 50 91 52 92 53 93 54 94 55 95
REMARK H PARENT 7 14 77 48 45 59
REMARK Flexibility Score: inf
ROOT
ATOM      1  C   UNL     1       4.650   3.403  -3.431  1.00  0.00     0.275 C 
ENDROOT
BRANCH   1   2
ATOM      2  O   UNL     1       4.696   2.798  -2.123  1.00  0.00    -0.458 OA
BRANCH   2   3
ATOM      3  C   UNL     1       5.113   1.509  -2.093  1.00  0.00     0.338 C 
ATOM      4  O   UNL     1       5.362   0.809  -3.057  1.00  0.00    -0.246 OA
BRANCH   3   5
ATOM      5  C   UNL     1       5.214   1.012  -0.699  1.00  0.00     0.062 A 
ATOM      6  C   UNL     1       4.091   0.674   1.398  1.00  0.00     0.042 A 
ATOM      7  C   UNL     1       5.066  -0.239   1.800  1.00  0.00     0.026 A 
ATOM      8  C   UNL     1       4.250   1.401   0.223  1.00  0.00     0.041 A 
ATOM      9  C   UNL     1       6.083  -0.584   0.914  1.00  0.00     0.003 A 
ATOM     10  C   UNL     1       6.109  -0.011  -0.358  1.00  0.00     0.016 A 
BRANCH   6  11
ATOM     11  N   UNL     1       2.919   0.765   2.152  1.00  0.00    -0.326 N 
ATOM     12  C   UNL     1       1.623   0.863   1.709  1.00  0.00     0.232 C 
ATOM     13  O   UNL     1       0.743   1.036   2.556  1.00  0.00    -0.274 OA
ATOM     14  H   UNL     1       3.037   0.758   3.129  1.00  0.00     0.169 HD
BRANCH  12  15
ATOM     15  C   UNL     1       1.265   0.617   0.234  1.00  0.00     0.135 C 
ATOM     16  O   UNL     1      -2.208  -0.004   0.184  1.00  0.00    -0.252 OA
ATOM     17  C   UNL     1      -0.989  -0.031   0.141  1.00  0.00     0.307 C 
ATOM     18  C   UNL     1      -0.113   1.158  -0.084  1.00  0.00     0.140 C 
ATOM     19  O   UNL     1      -0.250  -1.174   0.208  1.00  0.00    -0.457 OA
ATOM     20  C   UNL     1       1.132  -0.878  -0.042  1.00  0.00     0.220 C 
BRANCH  20  21
ATOM     21  C   UNL     1       1.525  -1.288  -1.459  1.00  0.00    -0.007 A 
ATOM     22  C   UNL     1       0.587  -1.593  -2.457  1.00  0.00     0.007 A 
ATOM     23  C   UNL     1       2.883  -1.380  -1.798  1.00  0.00     0.007 A 
ATOM     24  C   UNL     1       0.996  -1.931  -3.753  1.00  0.00     0.000 A 
ATOM     25  C   UNL     1       3.293  -1.692  -3.098  1.00  0.00     0.000 A 
ATOM     26  C   UNL     1       2.348  -1.963  -4.078  1.00  0.00     0.000 A 
ENDBRANCH  20  21
ENDBRANCH  12  15
ENDBRANCH   6  11
ENDBRANCH   3   5
ENDBRANCH   2   3
ENDBRANCH   1   2
BRANCH   1  27
ATOM     27  C   UNL     1       5.901   4.244  -3.686  1.00  0.00     0.275 C 
BRANCH  27  28
ATOM     28  O   UNL     1       7.069   3.412  -3.807  1.00  0.00    -0.458 OA
BRANCH  28  29
ATOM     29  C   UNL     1       7.806   3.290  -2.680  1.00  0.00     0.338 C 
ATOM     30  O   UNL     1       7.602   3.826  -1.602  1.00  0.00    -0.246 OA
BRANCH  29  31
ATOM     31  C   UNL     1       8.874   2.302  -2.874  1.00  0.00     0.060 A 
ATOM     32  C   UNL     1       8.563   0.958  -2.705  1.00  0.00     0.016 A 
ATOM     33  C   UNL     1      10.197   2.691  -3.036  1.00  0.00     0.016 A 
ATOM     34  C   UNL     1       9.560   0.005  -2.559  1.00  0.00     0.010 A 
ATOM     35  C   UNL     1      11.198   1.712  -3.024  1.00  0.00     0.010 A 
ATOM     36  C   UNL     1      10.894   0.363  -2.744  1.00  0.00    -0.014 A 
BRANCH  36  37
ATOM     37  C   UNL     1      11.968  -0.659  -2.633  1.00  0.00     0.031 A 
ATOM     38  C   UNL     1      13.109  -0.434  -1.679  1.00  0.00     0.074 A 
ATOM     39  C   UNL     1      11.944  -1.762  -3.412  1.00  0.00     0.049 A 
ATOM     40  N   UNL     1      14.261  -1.045  -1.615  1.00  0.00    -0.248 NA
ATOM     41  C   UNL     1      12.941   0.634  -0.676  1.00  0.00     0.031 C 
ATOM     42  C   UNL     1      10.873  -2.125  -4.346  1.00  0.00     0.029 A 
ATOM     43  N   UNL     1      12.868  -2.767  -3.571  1.00  0.00    -0.354 N 
ATOM     44  C   UNL     1      14.993  -0.372  -0.644  1.00  0.00     0.074 A 
ATOM     45  C   UNL     1      14.142   0.670  -0.115  1.00  0.00     0.031 C 
ATOM     46  C   UNL     1      11.205  -3.255  -4.986  1.00  0.00     0.029 A 
ATOM     47  C   UNL     1      12.551  -3.641  -4.587  1.00  0.00     0.049 A 
ATOM     48  H   UNL     1      13.676  -2.853  -3.014  1.00  0.00     0.167 HD
ATOM     49  C   UNL     1      16.265  -0.601  -0.245  1.00  0.00     0.034 A 
ATOM     50  C   UNL     1      13.287  -4.594  -5.191  1.00  0.00     0.034 A 
ATOM     51  C   UNL     1      17.069  -1.692  -0.724  1.00  0.00     0.049 A 
ATOM     52  C   UNL     1      14.697  -4.822  -4.725  1.00  0.00     0.074 A 
ATOM     53  C   UNL     1      18.342  -2.056  -0.326  1.00  0.00     0.029 A 
ATOM     54  N   UNL     1      16.680  -2.589  -1.705  1.00  0.00    -0.354 N 
ATOM     55  N   UNL     1      15.354  -4.218  -3.765  1.00  0.00    -0.248 NA
ATOM     56  C   UNL     1      15.465  -5.869  -5.414  1.00  0.00     0.031 C 
ATOM     57  C   UNL     1      18.739  -3.153  -1.093  1.00  0.00     0.029 A 
ATOM     58  C   UNL     1      17.695  -3.498  -1.937  1.00  0.00     0.049 A 
ATOM     59  H   UNL     1      15.811  -2.581  -2.168  1.00  0.00     0.167 HD
ATOM     60  C   UNL     1      16.594  -4.840  -3.706  1.00  0.00     0.074 A 
ATOM     61  C   UNL     1      16.594  -5.875  -4.718  1.00  0.00     0.031 C 
ATOM     62  C   UNL     1      17.645  -4.570  -2.896  1.00  0.00     0.034 A 
BRANCH  49  63
ATOM     63  C   UNL     1      16.889   0.338   0.751  1.00  0.00     0.023 A 
ATOM     64  C   UNL     1      16.528   0.280   2.110  1.00  0.00     0.012 A 
ATOM     65  C   UNL     1      17.923   1.206   0.344  1.00  0.00     0.148 A 
ATOM     66  C   UNL     1      17.180   1.081   3.048  1.00  0.00     0.002 A 
ATOM     67  C   UNL     1      18.598   1.966   1.289  1.00  0.00     0.091 A 
ATOM     68  F   UNL     1      18.235   1.258  -0.960  1.00  0.00    -0.205 F 
ATOM     69  C   UNL     1      18.222   1.912   2.641  1.00  0.00     0.022 A 
BRANCH  67  70
ATOM     70  S   UNL     1      20.010   2.997   0.877  1.00  0.00     0.127 S 
ATOM     71  O   UNL     1      19.485   4.335   1.145  1.00  0.00    -0.237 OA
ATOM     72  O   UNL     1      21.016   2.534   1.833  1.00  0.00    -0.237 OA
ATOM     73  O   UNL     1      20.320   2.721  -0.519  1.00  0.00    -0.744 OA
ENDBRANCH  67  70
ENDBRANCH  49  63
BRANCH  50  74
ATOM     74  C   UNL     1      12.719  -5.380  -6.325  1.00  0.00     0.023 A 
ATOM     75  C   UNL     1      12.498  -6.762  -6.172  1.00  0.00     0.012 A 
ATOM     76  C   UNL     1      12.396  -4.767  -7.552  1.00  0.00     0.148 A 
ATOM     77  C   UNL     1      12.005  -7.525  -7.232  1.00  0.00     0.002 A 
ATOM     78  C   UNL     1      11.844  -5.521  -8.582  1.00  0.00     0.091 A 
ATOM     79  F   UNL     1      12.630  -3.454  -7.691  1.00  0.00    -0.205 F 
ATOM     80  C   UNL     1      11.668  -6.904  -8.432  1.00  0.00     0.022 A 
BRANCH  78  81
ATOM     81  S   UNL     1      11.251  -4.769 -10.101  1.00  0.00     0.127 S 
ATOM     82  O   UNL     1      12.307  -5.127 -11.044  1.00  0.00    -0.237 OA
ATOM     83  O   UNL     1       9.978  -5.462 -10.309  1.00  0.00    -0.237 OA
ATOM     84  O   UNL     1      11.113  -3.350  -9.804  1.00  0.00    -0.744 OA
ENDBRANCH  78  81
ENDBRANCH  50  74
BRANCH  62  85
ATOM     85  C   UNL     1      18.858  -5.452  -2.999  1.00  0.00     0.023 A 
ATOM     86  C   UNL     1      19.738  -5.320  -4.089  1.00  0.00     0.012 A 
ATOM     87  C   UNL     1      19.176  -6.333  -1.947  1.00  0.00     0.148 A 
ATOM     88  C   UNL     1      20.912  -6.070  -4.140  1.00  0.00     0.002 A 
ATOM     89  C   UNL     1      20.372  -7.035  -1.978  1.00  0.00     0.091 A 
ATOM     90  F   UNL     1      18.311  -6.451  -0.930  1.00  0.00    -0.205 F 
ATOM     91  C   UNL     1      21.236  -6.914  -3.079  1.00  0.00     0.022 A 
BRANCH  89  92
ATOM     92  S   UNL     1      20.922  -8.060  -0.610  1.00  0.00     0.127 S 
ATOM     93  O   UNL     1      20.854  -9.399  -1.195  1.00  0.00    -0.237 OA
ATOM     94  O   UNL     1      22.279  -7.563  -0.379  1.00  0.00    -0.237 OA
ATOM     95  O   UNL     1      19.991  -7.812   0.482  1.00  0.00    -0.744 OA
ENDBRANCH  89  92
ENDBRANCH  62  85
ENDBRANCH  36  37
ENDBRANCH  29  31
ENDBRANCH  28  29
ENDBRANCH  27  28
ENDBRANCH   1  27
TORSDOF 17
