REMARK SMILES COc1ccc([C@H]2CC(c3ccc(S(C)(=O)=O)cc3)=NN2c2ccc(C(=O)OCCOC(=O)c3ccc(-c4c5nc(c(-c6cccc(S(=O)(=O)[O-])c6F)c6ccc([nH]6)c(-c6cccc(S(=O)(=O)[O-])c6F)c6nc(c(-c7cccc(S(=O)(=O)[O-])c7F)c7ccc4[nH]7)C=C6)C=C5)cc3)cc2)cc1
REMARK SMILES IDX 29 1 28 2 26 3 27 4 25 5 22 6 23 7 98 8 24 9 97 10 21 11
REMARK SMILES IDX 7 12 8 13 9 14 20 15 6 16 3 17 4 18 100 19 5 20 99 21 2 22
REMARK SMILES IDX 1 23 10 24 11 25 19 26 12 27 18 28 13 29 14 30 15 31 16 32
REMARK SMILES IDX 17 33 30 34 31 35 32 36 33 37 34 38 35 39 96 40 36 41 95 42
REMARK SMILES IDX 37 43 38 44 39 45 89 46 40 47 94 48 88 49 90 50 41 51 93 52
REMARK SMILES IDX 87 53 86 54 42 56 74 57 54 58 73 59 55 60 58 61 72 62 91 63
REMARK SMILES IDX 56 64 57 65 71 67 92 68 59 69 43 70 44 71 52 72 45 73 47 74
REMARK SMILES IDX 53 75 46 76 48 77 49 78 50 79 51 80 75 81 76 82 84 83 77 84
REMARK SMILES IDX 79 85 85 86 78 87 80 88 81 89 82 90 83 91 60 92 61 93 69 94
REMARK SMILES IDX 62 95 64 96 70 97 63 98 65 99 66 100 67 101 68 102
REMARK H PARENT 90 55 58 66
REMARK Flexibility Score: inf
ROOT
ATOM      1  C   UNL     1       1.712 -10.321  -4.325  1.00  0.00     0.275 C 
ENDROOT
BRANCH   1   2
ATOM      2  O   UNL     1       1.777  -9.036  -4.977  1.00  0.00    -0.458 OA
BRANCH   2   3
ATOM      3  C   UNL     1       2.190  -8.014  -4.186  1.00  0.00     0.338 C 
ATOM      4  O   UNL     1       2.483  -8.081  -3.004  1.00  0.00    -0.246 OA
BRANCH   3   5
ATOM      5  C   UNL     1       2.311  -6.763  -4.961  1.00  0.00     0.060 A 
ATOM      6  C   UNL     1       2.537  -4.240  -6.191  1.00  0.00     0.060 A 
ATOM      7  C   UNL     1       3.603  -4.784  -5.472  1.00  0.00     0.029 A 
ATOM      8  C   UNL     1       1.365  -5.003  -6.318  1.00  0.00     0.029 A 
ATOM      9  C   UNL     1       3.477  -6.010  -4.829  1.00  0.00     0.018 A 
ATOM     10  C   UNL     1       1.255  -6.271  -5.728  1.00  0.00     0.018 A 
BRANCH   6  11
ATOM     11  N   UNL     1       2.648  -2.960  -6.716  1.00  0.00    -0.257 N 
ATOM     12  C   UNL     1       1.730  -1.868  -6.388  1.00  0.00     0.144 C 
ATOM     13  C   UNL     1       2.444  -0.640  -6.969  1.00  0.00     0.091 C 
ATOM     14  C   UNL     1       3.727  -1.269  -7.432  1.00  0.00     0.071 C 
ATOM     15  N   UNL     1       3.819  -2.551  -7.278  1.00  0.00    -0.176 NA
BRANCH  12  16
ATOM     16  C   UNL     1       1.452  -1.725  -4.897  1.00  0.00    -0.023 A 
ATOM     17  C   UNL     1       0.849  -1.350  -2.166  1.00  0.00     0.118 A 
ATOM     18  C   UNL     1      -0.142  -1.757  -3.057  1.00  0.00     0.047 A 
ATOM     19  C   UNL     1       2.158  -1.196  -2.619  1.00  0.00     0.047 A 
ATOM     20  C   UNL     1       0.152  -1.934  -4.411  1.00  0.00     0.010 A 
ATOM     21  C   UNL     1       2.458  -1.389  -3.974  1.00  0.00     0.010 A 
BRANCH  17  22
ATOM     22  O   UNL     1       0.445  -1.176  -0.871  1.00  0.00    -0.497 OA
ATOM     23  C   UNL     1       1.094  -0.108  -0.187  1.00  0.00     0.278 C 
ENDBRANCH  17  22
ENDBRANCH  12  16
BRANCH  14  24
ATOM     24  C   UNL     1       4.757  -0.469  -8.104  1.00  0.00    -0.002 A 
ATOM     25  C   UNL     1       5.176  -0.868  -9.377  1.00  0.00     0.011 A 
ATOM     26  C   UNL     1       5.266   0.690  -7.512  1.00  0.00     0.011 A 
ATOM     27  C   UNL     1       6.076  -0.076 -10.090  1.00  0.00     0.021 A 
ATOM     28  C   UNL     1       6.188   1.472  -8.213  1.00  0.00     0.021 A 
ATOM     29  C   UNL     1       6.577   1.091  -9.503  1.00  0.00     0.067 A 
BRANCH  29  30
ATOM     30  S   UNL     1       7.651   2.139 -10.457  1.00  0.00     0.175 S 
ATOM     31  C   UNL     1       9.124   1.178 -10.680  1.00  0.00     0.163 C 
ATOM     32  O   UNL     1       7.014   2.312 -11.750  1.00  0.00    -0.224 OA
ATOM     33  O   UNL     1       7.981   3.291  -9.640  1.00  0.00    -0.224 OA
ENDBRANCH  29  30
ENDBRANCH  14  24
ENDBRANCH   6  11
ENDBRANCH   3   5
ENDBRANCH   2   3
ENDBRANCH   1   2
BRANCH   1  34
ATOM     34  C   UNL     1       2.962 -11.155  -4.604  1.00  0.00     0.275 C 
BRANCH  34  35
ATOM     35  O   UNL     1       4.116 -10.533  -4.013  1.00  0.00    -0.458 OA
BRANCH  35  36
ATOM     36  C   UNL     1       5.137 -10.268  -4.860  1.00  0.00     0.338 C 
ATOM     37  O   UNL     1       5.199 -10.541  -6.047  1.00  0.00    -0.246 OA
BRANCH  36  38
ATOM     38  C   UNL     1       6.220  -9.558  -4.154  1.00  0.00     0.060 A 
ATOM     39  C   UNL     1       5.951  -8.361  -3.499  1.00  0.00     0.016 A 
ATOM     40  C   UNL     1       7.536  -9.997  -4.280  1.00  0.00     0.016 A 
ATOM     41  C   UNL     1       6.998  -7.521  -3.118  1.00  0.00     0.010 A 
ATOM     42  C   UNL     1       8.579  -9.217  -3.765  1.00  0.00     0.010 A 
ATOM     43  C   UNL     1       8.332  -7.937  -3.234  1.00  0.00    -0.014 A 
BRANCH  43  44
ATOM     44  C   UNL     1       9.464  -7.040  -2.840  1.00  0.00     0.031 A 
ATOM     45  C   UNL     1      10.592  -6.762  -3.809  1.00  0.00     0.074 A 
ATOM     46  C   UNL     1       9.508  -6.481  -1.611  1.00  0.00     0.049 A 
ATOM     47  N   UNL     1      11.751  -6.191  -3.591  1.00  0.00    -0.248 NA
ATOM     48  C   UNL     1      10.405  -7.206  -5.201  1.00  0.00     0.031 C 
ATOM     49  C   UNL     1       8.496  -6.644  -0.566  1.00  0.00     0.029 A 
ATOM     50  N   UNL     1      10.452  -5.668  -1.027  1.00  0.00    -0.354 N 
ATOM     51  C   UNL     1      12.461  -6.293  -4.783  1.00  0.00     0.074 A 
ATOM     52  C   UNL     1      11.598  -6.967  -5.729  1.00  0.00     0.031 C 
ATOM     53  C   UNL     1       8.853  -5.932   0.513  1.00  0.00     0.029 A 
ATOM     54  C   UNL     1      10.162  -5.336   0.277  1.00  0.00     0.049 A 
ATOM     55  H   UNL     1      11.258  -5.354  -1.497  1.00  0.00     0.167 HD
ATOM     56  C   UNL     1      13.711  -5.856  -5.071  1.00  0.00     0.034 A 
ATOM     57  C   UNL     1      10.879  -4.666   1.202  1.00  0.00     0.034 A 
ATOM     58  C   UNL     1      14.530  -5.092  -4.168  1.00  0.00     0.049 A 
ATOM     59  C   UNL     1      12.244  -4.153   0.843  1.00  0.00     0.074 A 
ATOM     60  C   UNL     1      15.790  -4.562  -4.389  1.00  0.00     0.029 A 
ATOM     61  N   UNL     1      14.164  -4.725  -2.883  1.00  0.00    -0.354 N 
ATOM     62  N   UNL     1      12.880  -4.232  -0.300  1.00  0.00    -0.248 NA
ATOM     63  C   UNL     1      12.988  -3.450   1.898  1.00  0.00     0.031 C 
ATOM     64  C   UNL     1      16.186  -3.874  -3.236  1.00  0.00     0.029 A 
ATOM     65  C   UNL     1      15.167  -3.968  -2.302  1.00  0.00     0.049 A 
ATOM     66  H   UNL     1      13.315  -4.967  -2.447  1.00  0.00     0.167 HD
ATOM     67  C   UNL     1      14.089  -3.574  -0.108  1.00  0.00     0.074 A 
ATOM     68  C   UNL     1      14.084  -3.075   1.252  1.00  0.00     0.031 C 
ATOM     69  C   UNL     1      15.123  -3.422  -0.971  1.00  0.00     0.034 A 
BRANCH  56  70
ATOM     70  C   UNL     1      14.270  -6.158  -6.439  1.00  0.00     0.023 A 
ATOM     71  C   UNL     1      13.812  -5.435  -7.558  1.00  0.00     0.012 A 
ATOM     72  C   UNL     1      15.302  -7.105  -6.603  1.00  0.00     0.148 A 
ATOM     73  C   UNL     1      14.351  -5.669  -8.823  1.00  0.00     0.002 A 
ATOM     74  C   UNL     1      15.863  -7.303  -7.860  1.00  0.00     0.091 A 
ATOM     75  F   UNL     1      15.712  -7.798  -5.531  1.00  0.00    -0.205 F 
ATOM     76  C   UNL     1      15.383  -6.593  -8.972  1.00  0.00     0.022 A 
BRANCH  74  77
ATOM     77  S   UNL     1      17.250  -8.412  -8.136  1.00  0.00     0.127 S 
ATOM     78  O   UNL     1      16.599  -9.537  -8.807  1.00  0.00    -0.237 OA
ATOM     79  O   UNL     1      18.121  -7.612  -8.998  1.00  0.00    -0.237 OA
ATOM     80  O   UNL     1      17.801  -8.698  -6.819  1.00  0.00    -0.744 OA
ENDBRANCH  74  77
ENDBRANCH  56  70
BRANCH  57  81
ATOM     81  C   UNL     1      10.303  -4.430   2.558  1.00  0.00     0.023 A 
ATOM     82  C   UNL     1       9.946  -3.122   2.938  1.00  0.00     0.012 A 
ATOM     83  C   UNL     1      10.063  -5.492   3.451  1.00  0.00     0.148 A 
ATOM     84  C   UNL     1       9.377  -2.874   4.188  1.00  0.00     0.002 A 
ATOM     85  C   UNL     1       9.437  -5.248   4.668  1.00  0.00     0.091 A 
ATOM     86  F   UNL     1      10.435  -6.728   3.087  1.00  0.00    -0.205 F 
ATOM     87  C   UNL     1       9.107  -3.938   5.045  1.00  0.00     0.022 A 
BRANCH  85  88
ATOM     88  S   UNL     1       8.919  -6.583   5.752  1.00  0.00     0.127 S 
ATOM     89  O   UNL     1       9.970  -6.572   6.766  1.00  0.00    -0.237 OA
ATOM     90  O   UNL     1       7.611  -6.117   6.215  1.00  0.00    -0.237 OA
ATOM     91  O   UNL     1       8.861  -7.766   4.902  1.00  0.00    -0.744 OA
ENDBRANCH  85  88
ENDBRANCH  57  81
BRANCH  69  92
ATOM     92  C   UNL     1      16.325  -2.657  -0.488  1.00  0.00     0.023 A 
ATOM     93  C   UNL     1      17.223  -3.267   0.410  1.00  0.00     0.012 A 
ATOM     94  C   UNL     1      16.599  -1.364  -0.972  1.00  0.00     0.148 A 
ATOM     95  C   UNL     1      18.363  -2.590   0.840  1.00  0.00     0.002 A 
ATOM     96  C   UNL     1      17.759  -0.711  -0.571  1.00  0.00     0.091 A 
ATOM     97  F   UNL     1      15.720  -0.792  -1.808  1.00  0.00    -0.205 F 
ATOM     98  C   UNL     1      18.637  -1.318   0.341  1.00  0.00     0.022 A 
BRANCH  96  99
ATOM     99  S   UNL     1      18.229   0.893  -1.231  1.00  0.00     0.127 S 
ATOM    100  O   UNL     1      17.872   1.785  -0.130  1.00  0.00    -0.237 OA
ATOM    101  O   UNL     1      19.668   0.735  -1.446  1.00  0.00    -0.237 OA
ATOM    102  O   UNL     1      17.455   1.060  -2.454  1.00  0.00    -0.744 OA
ENDBRANCH  96  99
ENDBRANCH  69  92
ENDBRANCH  43  44
ENDBRANCH  36  38
ENDBRANCH  35  36
ENDBRANCH  34  35
ENDBRANCH   1  34
TORSDOF 19
