REMARK SMILES C[C@H]1CC[C@H]([N@@H+](CC(=O)OCCOC(=O)c2ccc(-c3c4nc(c(-c5cccc(S(=O)(=O)[O-])c5F)c5ccc([nH]5)c(-c5cccc(S(=O)(=O)[O-])c5F)c5nc(c(-c6cccc(S(=O)(=O)[O-])c6F)c6ccc3[nH]6)C=C5)C=C4)cc2)C(C)(C)C)C[C@@H]1C
REMARK SMILES IDX 12 1 11 2 10 3 8 4 9 5 7 6 6 7 5 9 1 10 2 11 3 12 84 13 4 14
REMARK SMILES IDX 83 15 85 16 79 17 80 18 81 19 82 20 13 21 14 22 15 23 16 24
REMARK SMILES IDX 17 25 78 26 18 27 77 28 19 29 20 30 21 31 71 32 22 33 76 34
REMARK SMILES IDX 70 35 72 36 23 37 75 38 69 39 68 40 24 42 56 43 36 44 55 45
REMARK SMILES IDX 37 46 40 47 54 48 73 49 38 50 39 51 53 53 74 54 41 55 25 56
REMARK SMILES IDX 26 57 34 58 27 59 29 60 35 61 28 62 30 63 31 64 32 65 33 66
REMARK SMILES IDX 57 67 58 68 66 69 59 70 61 71 67 72 60 73 62 74 63 75 64 76
REMARK SMILES IDX 65 77 42 78 43 79 51 80 44 81 46 82 52 83 45 84 47 85 48 86
REMARK SMILES IDX 49 87 50 88
REMARK H PARENT 6 8 72 41 40 52
REMARK Flexibility Score: inf
ROOT
ATOM      1  C   UNL     1       5.855  -3.285  -2.346  1.00  0.00     0.275 C 
ENDROOT
BRANCH   1   2
ATOM      2  C   UNL     1       4.673  -4.236  -2.228  1.00  0.00     0.274 C 
BRANCH   2   3
ATOM      3  O   UNL     1       4.080  -4.125  -0.911  1.00  0.00    -0.458 OA
BRANCH   3   4
ATOM      4  C   UNL     1       3.585  -5.272  -0.381  1.00  0.00     0.361 C 
ATOM      5  O   UNL     1       3.811  -6.386  -0.851  1.00  0.00    -0.245 OA
BRANCH   4   6
ATOM      6  C   UNL     1       2.683  -5.108   0.845  1.00  0.00     0.387 C 
BRANCH   6   7
ATOM      7  N   UNL     1       2.264  -3.745   1.242  1.00  0.00    -0.319 N 
ATOM      8  H   UNL     1       1.979  -3.276   2.101  1.00  0.00     0.349 HD
BRANCH   7   9
ATOM      9  C   UNL     1       1.150  -3.176   0.452  1.00  0.00     0.185 C 
ATOM     10  C   UNL     1      -1.381  -0.214  -1.706  1.00  0.00     0.008 C 
ATOM     11  C   UNL     1      -0.260  -0.886  -0.904  1.00  0.00    -0.011 C 
ATOM     12  C   UNL     1      -0.866  -1.634   0.291  1.00  0.00     0.010 C 
ATOM     13  C   UNL     1       0.593  -1.851  -1.745  1.00  0.00    -0.006 C 
ATOM     14  C   UNL     1       0.222  -2.201   1.191  1.00  0.00     0.065 C 
ATOM     15  C   UNL     1       1.630  -2.599  -0.891  1.00  0.00     0.068 C 
ATOM     16  C   UNL     1       1.359  -1.139  -2.873  1.00  0.00     0.008 C 
ENDBRANCH   7   9
BRANCH   7  17
ATOM     17  C   UNL     1       3.006  -3.018   2.304  1.00  0.00     0.090 C 
ATOM     18  C   UNL     1       3.528  -1.649   1.818  1.00  0.00     0.078 C 
ATOM     19  C   UNL     1       2.134  -2.830   3.569  1.00  0.00     0.078 C 
ATOM     20  C   UNL     1       4.257  -3.771   2.818  1.00  0.00     0.078 C 
ENDBRANCH   7  17
ENDBRANCH   6   7
ENDBRANCH   4   6
ENDBRANCH   3   4
ENDBRANCH   2   3
ENDBRANCH   1   2
BRANCH   1  21
ATOM     21  O   UNL     1       6.857  -3.746  -1.432  1.00  0.00    -0.458 OA
BRANCH  21  22
ATOM     22  C   UNL     1       6.947  -3.039  -0.289  1.00  0.00     0.338 C 
ATOM     23  O   UNL     1       6.490  -1.929  -0.051  1.00  0.00    -0.246 OA
BRANCH  22  24
ATOM     24  C   UNL     1       7.652  -3.848   0.704  1.00  0.00     0.060 A 
ATOM     25  C   UNL     1       7.061  -5.021   1.183  1.00  0.00     0.016 A 
ATOM     26  C   UNL     1       8.844  -3.370   1.240  1.00  0.00     0.016 A 
ATOM     27  C   UNL     1       7.618  -5.669   2.277  1.00  0.00     0.010 A 
ATOM     28  C   UNL     1       9.459  -4.085   2.263  1.00  0.00     0.010 A 
ATOM     29  C   UNL     1       8.840  -5.224   2.804  1.00  0.00    -0.014 A 
BRANCH  29  30
ATOM     30  C   UNL     1       9.528  -6.006   3.856  1.00  0.00     0.031 A 
ATOM     31  C   UNL     1       9.815  -5.404   5.200  1.00  0.00     0.074 A 
ATOM     32  C   UNL     1       9.956  -7.243   3.540  1.00  0.00     0.049 A 
ATOM     33  N   UNL     1      10.529  -5.890   6.180  1.00  0.00    -0.248 NA
ATOM     34  C   UNL     1       9.244  -4.075   5.475  1.00  0.00     0.031 C 
ATOM     35  C   UNL     1       9.750  -7.898   2.244  1.00  0.00     0.029 A 
ATOM     36  N   UNL     1      10.665  -8.163   4.266  1.00  0.00    -0.354 N 
ATOM     37  C   UNL     1      10.553  -4.905   7.160  1.00  0.00     0.074 A 
ATOM     38  C   UNL     1       9.762  -3.798   6.665  1.00  0.00     0.031 C 
ATOM     39  C   UNL     1      10.298  -9.119   2.274  1.00  0.00     0.029 A 
ATOM     40  C   UNL     1      10.954  -9.307   3.560  1.00  0.00     0.049 A 
ATOM     41  H   UNL     1      10.941  -8.019   5.199  1.00  0.00     0.167 HD
ATOM     42  C   UNL     1      11.180  -4.931   8.360  1.00  0.00     0.034 A 
ATOM     43  C   UNL     1      11.690 -10.380   3.900  1.00  0.00     0.034 A 
ATOM     44  C   UNL     1      11.919  -6.066   8.849  1.00  0.00     0.049 A 
ATOM     45  C   UNL     1      12.325 -10.401   5.257  1.00  0.00     0.074 A 
ATOM     46  C   UNL     1      12.544  -6.227  10.073  1.00  0.00     0.029 A 
ATOM     47  N   UNL     1      12.131  -7.238   8.135  1.00  0.00    -0.354 N 
ATOM     48  N   UNL     1      12.265  -9.497   6.206  1.00  0.00    -0.248 NA
ATOM     49  C   UNL     1      13.116 -11.588   5.599  1.00  0.00     0.031 C 
ATOM     50  C   UNL     1      13.141  -7.494  10.094  1.00  0.00     0.029 A 
ATOM     51  C   UNL     1      12.880  -8.126   8.888  1.00  0.00     0.049 A 
ATOM     52  H   UNL     1      11.796  -7.412   7.226  1.00  0.00     0.167 HD
ATOM     53  C   UNL     1      13.005 -10.006   7.263  1.00  0.00     0.074 A 
ATOM     54  C   UNL     1      13.470 -11.317   6.848  1.00  0.00     0.031 C 
ATOM     55  C   UNL     1      13.299  -9.435   8.457  1.00  0.00     0.034 A 
BRANCH  42  56
ATOM     56  C   UNL     1      11.076  -3.710   9.238  1.00  0.00     0.023 A 
ATOM     57  C   UNL     1       9.878  -3.448   9.932  1.00  0.00     0.012 A 
ATOM     58  C   UNL     1      12.180  -2.853   9.421  1.00  0.00     0.148 A 
ATOM     59  C   UNL     1       9.772  -2.342  10.776  1.00  0.00     0.002 A 
ATOM     60  C   UNL     1      12.078  -1.771  10.290  1.00  0.00     0.091 A 
ATOM     61  F   UNL     1      13.304  -3.099   8.732  1.00  0.00    -0.205 F 
ATOM     62  C   UNL     1      10.873  -1.510  10.963  1.00  0.00     0.022 A 
BRANCH  60  63
ATOM     63  S   UNL     1      13.465  -0.683  10.641  1.00  0.00     0.127 S 
ATOM     64  O   UNL     1      13.125   0.496   9.847  1.00  0.00    -0.237 OA
ATOM     65  O   UNL     1      13.356  -0.493  12.089  1.00  0.00    -0.237 OA
ATOM     66  O   UNL     1      14.655  -1.409  10.218  1.00  0.00    -0.744 OA
ENDBRANCH  60  63
ENDBRANCH  42  56
BRANCH  43  67
ATOM     67  C   UNL     1      11.801 -11.522   2.951  1.00  0.00     0.023 A 
ATOM     68  C   UNL     1      11.127 -12.722   3.246  1.00  0.00     0.012 A 
ATOM     69  C   UNL     1      12.470 -11.396   1.718  1.00  0.00     0.148 A 
ATOM     70  C   UNL     1      11.123 -13.777   2.333  1.00  0.00     0.002 A 
ATOM     71  C   UNL     1      12.409 -12.427   0.787  1.00  0.00     0.091 A 
ATOM     72  F   UNL     1      13.125 -10.254   1.461  1.00  0.00    -0.205 F 
ATOM     73  C   UNL     1      11.748 -13.624   1.097  1.00  0.00     0.022 A 
BRANCH  71  74
ATOM     74  S   UNL     1      13.044 -12.229  -0.883  1.00  0.00     0.127 S 
ATOM     75  O   UNL     1      14.340 -12.893  -0.794  1.00  0.00    -0.237 OA
ATOM     76  O   UNL     1      12.043 -12.936  -1.684  1.00  0.00    -0.237 OA
ATOM     77  O   UNL     1      13.073 -10.789  -1.110  1.00  0.00    -0.744 OA
ENDBRANCH  71  74
ENDBRANCH  43  67
BRANCH  55  78
ATOM     78  C   UNL     1      14.172 -10.232   9.385  1.00  0.00     0.023 A 
ATOM     79  C   UNL     1      15.552 -10.329   9.119  1.00  0.00     0.012 A 
ATOM     80  C   UNL     1      13.639 -10.853  10.529  1.00  0.00     0.148 A 
ATOM     81  C   UNL     1      16.384 -11.063   9.962  1.00  0.00     0.002 A 
ATOM     82  C   UNL     1      14.482 -11.549  11.386  1.00  0.00     0.091 A 
ATOM     83  F   UNL     1      12.318 -10.772  10.749  1.00  0.00    -0.205 F 
ATOM     84  C   UNL     1      15.852 -11.664  11.100  1.00  0.00     0.022 A 
BRANCH  82  85
ATOM     85  S   UNL     1      13.877 -12.280  12.911  1.00  0.00     0.127 S 
ATOM     86  O   UNL     1      13.645 -13.665  12.509  1.00  0.00    -0.237 OA
ATOM     87  O   UNL     1      15.005 -12.090  13.825  1.00  0.00    -0.237 OA
ATOM     88  O   UNL     1      12.690 -11.512  13.264  1.00  0.00    -0.744 OA
ENDBRANCH  82  85
ENDBRANCH  55  78
ENDBRANCH  29  30
ENDBRANCH  22  24
ENDBRANCH  21  22
ENDBRANCH   1  21
TORSDOF 17
