REMARK SMILES COc1cccc([C@H]2Oc3ccccc3[C@@H]3CC(c4cccs4)=NN23)c1OCC(=O)OCCOC(=O)c1ccc(-c2c3nc(c(-c4cccc(S(=O)(=O)[O-])c4F)c4ccc([nH]4)c(-c4cccc(S(=O)(=O)[O-])c4F)c4nc(c(-c5cccc(S(=O)(=O)[O-])c5F)c5ccc2[nH]5)C=C4)C=C3)cc1
REMARK SMILES IDX 32 1 31 2 29 3 30 4 28 5 27 6 26 7 3 8 4 9 5 10 7 11 6 12
REMARK SMILES IDX 2 13 1 14 8 15 9 16 25 17 10 18 16 19 24 20 11 21 15 22
REMARK SMILES IDX 17 23 18 24 12 25 14 26 13 27 19 28 20 29 23 30 21 31 22 32
REMARK SMILES IDX 33 33 34 34 35 35 36 36 37 37 38 38 99 39 39 40 98 41 40 42
REMARK SMILES IDX 41 43 42 44 92 45 43 46 97 47 91 48 93 49 44 50 96 51 90 52
REMARK SMILES IDX 89 53 45 55 77 56 57 57 76 58 58 59 61 60 75 61 94 62 59 63
REMARK SMILES IDX 60 64 74 66 95 67 62 68 46 69 47 70 55 71 48 72 50 73 56 74
REMARK SMILES IDX 49 75 51 76 52 77 53 78 54 79 78 80 79 81 87 82 80 83 82 84
REMARK SMILES IDX 88 85 81 86 83 87 84 88 85 89 86 90 63 91 64 92 72 93 65 94
REMARK SMILES IDX 67 95 73 96 66 97 68 98 69 99 70 100 71 101
REMARK H PARENT 93 54 61 65
REMARK Flexibility Score: inf
ROOT
ATOM      1  C   UNL     1       5.887   5.018  -1.214  1.00  0.00     0.274 C 
ENDROOT
BRANCH   1   2
ATOM      2  O   UNL     1       5.520   4.798   0.167  1.00  0.00    -0.460 OA
BRANCH   2   3
ATOM      3  C   UNL     1       5.268   5.909   0.910  1.00  0.00     0.344 C 
ATOM      4  O   UNL     1       5.423   7.058   0.506  1.00  0.00    -0.248 OA
BRANCH   3   5
ATOM      5  C   UNL     1       4.719   5.598   2.310  1.00  0.00     0.352 C 
BRANCH   5   6
ATOM      6  O   UNL     1       4.681   4.302   2.838  1.00  0.00    -0.477 OA
BRANCH   6   7
ATOM      7  C   UNL     1       3.965   3.291   2.289  1.00  0.00     0.170 A 
ATOM      8  C   UNL     1       2.824   3.351   1.479  1.00  0.00     0.161 A 
ATOM      9  C   UNL     1       2.291   2.186   0.890  1.00  0.00     0.050 A 
ATOM     10  C   UNL     1       2.872   0.944   1.126  1.00  0.00     0.005 A 
ATOM     11  C   UNL     1       4.431   2.034   2.664  1.00  0.00     0.061 A 
ATOM     12  C   UNL     1       3.920   0.870   2.030  1.00  0.00     0.014 A 
BRANCH   8  13
ATOM     13  O   UNL     1       2.010   4.455   1.513  1.00  0.00    -0.493 OA
ATOM     14  C   UNL     1       2.223   5.359   0.447  1.00  0.00     0.278 C 
ENDBRANCH   8  13
BRANCH  11  15
ATOM     15  C   UNL     1       5.390   1.791   3.805  1.00  0.00     0.324 C 
ATOM     16  O   UNL     1       6.687   1.390   3.257  1.00  0.00    -0.464 OA
ATOM     17  N   UNL     1       5.612   2.683   4.964  1.00  0.00    -0.246 NA
ATOM     18  C   UNL     1       7.168   0.423   4.132  1.00  0.00     0.128 A 
ATOM     19  C   UNL     1       6.586   2.033   5.867  1.00  0.00     0.146 C 
ATOM     20  N   UNL     1       4.707   3.471   5.623  1.00  0.00    -0.177 NA
ATOM     21  C   UNL     1       7.533  -0.787   3.572  1.00  0.00     0.047 A 
ATOM     22  C   UNL     1       6.828   0.589   5.488  1.00  0.00     0.019 A 
ATOM     23  C   UNL     1       6.050   2.374   7.236  1.00  0.00     0.091 C 
ATOM     24  C   UNL     1       5.095   3.470   6.863  1.00  0.00     0.080 C 
ATOM     25  C   UNL     1       7.261  -1.927   4.311  1.00  0.00     0.004 A 
ATOM     26  C   UNL     1       6.479  -0.561   6.183  1.00  0.00     0.010 A 
ATOM     27  C   UNL     1       6.658  -1.813   5.572  1.00  0.00     0.001 A 
BRANCH  24  28
ATOM     28  C   UNL     1       4.721   4.416   7.881  1.00  0.00     0.050 A 
ATOM     29  C   UNL     1       5.557   5.348   8.469  1.00  0.00     0.022 A 
ATOM     30  S   UNL     1       3.188   4.385   8.618  1.00  0.00    -0.142 S 
ATOM     31  C   UNL     1       4.952   5.994   9.582  1.00  0.00     0.012 A 
ATOM     32  C   UNL     1       3.663   5.553   9.785  1.00  0.00     0.065 A 
ENDBRANCH  24  28
ENDBRANCH  11  15
ENDBRANCH   6   7
ENDBRANCH   5   6
ENDBRANCH   3   5
ENDBRANCH   2   3
ENDBRANCH   1   2
BRANCH   1  33
ATOM     33  C   UNL     1       5.407   3.833  -2.061  1.00  0.00     0.275 C 
BRANCH  33  34
ATOM     34  O   UNL     1       3.989   3.949  -2.282  1.00  0.00    -0.458 OA
BRANCH  34  35
ATOM     35  C   UNL     1       3.374   2.869  -2.827  1.00  0.00     0.338 C 
ATOM     36  O   UNL     1       3.937   1.841  -3.200  1.00  0.00    -0.246 OA
BRANCH  35  37
ATOM     37  C   UNL     1       1.897   3.062  -2.845  1.00  0.00     0.060 A 
ATOM     38  C   UNL     1       1.334   4.239  -2.366  1.00  0.00     0.016 A 
ATOM     39  C   UNL     1       1.037   2.053  -3.288  1.00  0.00     0.016 A 
ATOM     40  C   UNL     1      -0.042   4.351  -2.172  1.00  0.00     0.010 A 
ATOM     41  C   UNL     1      -0.358   2.251  -3.273  1.00  0.00     0.010 A 
ATOM     42  C   UNL     1      -0.920   3.412  -2.715  1.00  0.00    -0.014 A 
BRANCH  42  43
ATOM     43  C   UNL     1      -2.384   3.724  -2.814  1.00  0.00     0.031 A 
ATOM     44  C   UNL     1      -3.429   2.716  -2.407  1.00  0.00     0.074 A 
ATOM     45  C   UNL     1      -2.777   4.907  -3.343  1.00  0.00     0.049 A 
ATOM     46  N   UNL     1      -4.705   2.687  -2.697  1.00  0.00    -0.248 NA
ATOM     47  C   UNL     1      -2.982   1.585  -1.577  1.00  0.00     0.031 C 
ATOM     48  C   UNL     1      -1.885   5.999  -3.752  1.00  0.00     0.029 A 
ATOM     49  N   UNL     1      -4.027   5.391  -3.657  1.00  0.00    -0.354 N 
ATOM     50  C   UNL     1      -5.195   1.498  -2.167  1.00  0.00     0.074 A 
ATOM     51  C   UNL     1      -4.084   0.848  -1.503  1.00  0.00     0.031 C 
ATOM     52  C   UNL     1      -2.603   7.023  -4.223  1.00  0.00     0.029 A 
ATOM     53  C   UNL     1      -3.991   6.608  -4.305  1.00  0.00     0.049 A 
ATOM     54  H   UNL     1      -4.862   4.917  -3.441  1.00  0.00     0.167 HD
ATOM     55  C   UNL     1      -6.452   0.995  -2.242  1.00  0.00     0.034 A 
ATOM     56  C   UNL     1      -4.931   7.287  -4.989  1.00  0.00     0.034 A 
ATOM     57  C   UNL     1      -7.555   1.684  -2.865  1.00  0.00     0.049 A 
ATOM     58  C   UNL     1      -6.296   6.685  -5.107  1.00  0.00     0.074 A 
ATOM     59  C   UNL     1      -8.875   1.282  -2.970  1.00  0.00     0.029 A 
ATOM     60  N   UNL     1      -7.464   2.919  -3.492  1.00  0.00    -0.354 N 
ATOM     61  N   UNL     1      -6.747   5.570  -4.588  1.00  0.00    -0.248 NA
ATOM     62  C   UNL     1      -7.280   7.426  -5.905  1.00  0.00     0.031 C 
ATOM     63  C   UNL     1      -9.573   2.256  -3.692  1.00  0.00     0.029 A 
ATOM     64  C   UNL     1      -8.697   3.283  -4.007  1.00  0.00     0.049 A 
ATOM     65  H   UNL     1      -6.643   3.458  -3.560  1.00  0.00     0.167 HD
ATOM     66  C   UNL     1      -8.073   5.480  -4.983  1.00  0.00     0.074 A 
ATOM     67  C   UNL     1      -8.359   6.670  -5.760  1.00  0.00     0.031 C 
ATOM     68  C   UNL     1      -8.967   4.491  -4.744  1.00  0.00     0.034 A 
BRANCH  55  69
ATOM     69  C   UNL     1      -6.709  -0.375  -1.659  1.00  0.00     0.023 A 
ATOM     70  C   UNL     1      -6.749  -0.559  -0.263  1.00  0.00     0.012 A 
ATOM     71  C   UNL     1      -6.970  -1.475  -2.504  1.00  0.00     0.148 A 
ATOM     72  C   UNL     1      -7.005  -1.819   0.282  1.00  0.00     0.002 A 
ATOM     73  C   UNL     1      -7.264  -2.719  -1.955  1.00  0.00     0.091 A 
ATOM     74  F   UNL     1      -6.920  -1.287  -3.831  1.00  0.00    -0.205 F 
ATOM     75  C   UNL     1      -7.269  -2.895  -0.562  1.00  0.00     0.022 A 
BRANCH  73  76
ATOM     76  S   UNL     1      -7.686  -4.151  -2.955  1.00  0.00     0.127 S 
ATOM     77  O   UNL     1      -6.519  -5.008  -2.749  1.00  0.00    -0.237 OA
ATOM     78  O   UNL     1      -8.911  -4.627  -2.310  1.00  0.00    -0.237 OA
ATOM     79  O   UNL     1      -7.864  -3.658  -4.313  1.00  0.00    -0.744 OA
ENDBRANCH  73  76
ENDBRANCH  55  69
BRANCH  56  80
ATOM     80  C   UNL     1      -4.584   8.581  -5.652  1.00  0.00     0.023 A 
ATOM     81  C   UNL     1      -5.149   9.776  -5.171  1.00  0.00     0.012 A 
ATOM     82  C   UNL     1      -3.651   8.640  -6.709  1.00  0.00     0.148 A 
ATOM     83  C   UNL     1      -4.803  11.004  -5.740  1.00  0.00     0.002 A 
ATOM     84  C   UNL     1      -3.261   9.870  -7.225  1.00  0.00     0.091 A 
ATOM     85  F   UNL     1      -3.135   7.491  -7.168  1.00  0.00    -0.205 F 
ATOM     86  C   UNL     1      -3.850  11.053  -6.754  1.00  0.00     0.022 A 
BRANCH  84  87
ATOM     87  S   UNL     1      -1.928  10.035  -8.419  1.00  0.00     0.127 S 
ATOM     88  O   UNL     1      -2.656  10.395  -9.633  1.00  0.00    -0.237 OA
ATOM     89  O   UNL     1      -1.130  11.115  -7.836  1.00  0.00    -0.237 OA
ATOM     90  O   UNL     1      -1.257   8.742  -8.440  1.00  0.00    -0.744 OA
ENDBRANCH  84  87
ENDBRANCH  56  80
BRANCH  68  91
ATOM     91  C   UNL     1     -10.350   4.669  -5.306  1.00  0.00     0.023 A 
ATOM     92  C   UNL     1     -10.569   4.503  -6.688  1.00  0.00     0.012 A 
ATOM     93  C   UNL     1     -11.439   4.934  -4.455  1.00  0.00     0.148 A 
ATOM     94  C   UNL     1     -11.852   4.622  -7.218  1.00  0.00     0.002 A 
ATOM     95  C   UNL     1     -12.721   5.000  -4.982  1.00  0.00     0.091 A 
ATOM     96  F   UNL     1     -11.199   5.110  -3.147  1.00  0.00    -0.205 F 
ATOM     97  C   UNL     1     -12.928   4.856  -6.365  1.00  0.00     0.022 A 
BRANCH  95  98
ATOM     98  S   UNL     1     -14.178   5.202  -3.953  1.00  0.00     0.127 S 
ATOM     99  O   UNL     1     -14.644   6.529  -4.354  1.00  0.00    -0.237 OA
ATOM    100  O   UNL     1     -15.025   4.096  -4.401  1.00  0.00    -0.237 OA
ATOM    101  O   UNL     1     -13.718   5.096  -2.575  1.00  0.00    -0.744 OA
ENDBRANCH  95  98
ENDBRANCH  68  91
ENDBRANCH  42  43
ENDBRANCH  35  37
ENDBRANCH  34  35
ENDBRANCH  33  34
ENDBRANCH   1  33
TORSDOF 19
