REMARK SMILES O=C(OCCOC(=O)[C@H]1C=C[C@H](NC(=O)[C@]23C[C@H]4C[C@H](C[C@H](C4)C2)C3)C1)c1ccc(-c2c3nc(c(-c4cccc(S(=O)(=O)[O-])c4F)c4ccc([nH]4)c(-c4cccc(S(=O)(=O)[O-])c4F)c4nc(c(-c5cccc(S(=O)(=O)[O-])c5F)c5ccc2[nH]5)C=C4)C=C3)cc1
REMARK SMILES IDX 4 1 3 2 2 3 1 4 27 5 28 6 89 7 29 8 88 9 30 10 31 11 32 12
REMARK SMILES IDX 82 13 33 14 87 15 81 16 83 17 34 18 86 19 80 20 79 21 35 23
REMARK SMILES IDX 67 24 47 25 66 26 48 27 51 28 65 29 84 30 49 31 50 32 64 34
REMARK SMILES IDX 85 35 52 36 36 37 37 38 45 39 38 40 40 41 46 42 39 43 41 44
REMARK SMILES IDX 42 45 43 46 44 47 68 48 69 49 77 50 70 51 72 52 78 53 71 54
REMARK SMILES IDX 73 55 74 56 75 57 76 58 53 59 54 60 62 61 55 62 57 63 63 64
REMARK SMILES IDX 56 65 58 66 59 67 60 68 61 69 5 70 6 71 7 72 8 73 9 74 10 75
REMARK SMILES IDX 26 76 11 77 12 78 13 79 14 80 15 82 16 83 17 84 24 85 25 86
REMARK SMILES IDX 18 87 22 88 20 89 19 90 23 91 21 92
REMARK H PARENT 83 22 51 33 13 81
REMARK Flexibility Score: inf
ROOT
ATOM      1  C   UNL     1       3.868   0.695  -1.814  1.00  0.00     0.275 C 
ENDROOT
BRANCH   1   2
ATOM      2  O   UNL     1       2.950  -0.190  -1.169  1.00  0.00    -0.458 OA
BRANCH   2   3
ATOM      3  C   UNL     1       3.122  -0.881  -0.019  1.00  0.00     0.338 C 
ATOM      4  O   UNL     1       2.262  -1.712   0.274  1.00  0.00    -0.246 OA
BRANCH   3   5
ATOM      5  C   UNL     1       4.224  -0.626   0.978  1.00  0.00     0.060 A 
ATOM      6  C   UNL     1       5.376   0.154   0.812  1.00  0.00     0.016 A 
ATOM      7  C   UNL     1       4.016  -1.177   2.248  1.00  0.00     0.016 A 
ATOM      8  C   UNL     1       6.239   0.451   1.878  1.00  0.00     0.010 A 
ATOM      9  C   UNL     1       4.850  -0.843   3.320  1.00  0.00     0.010 A 
ATOM     10  C   UNL     1       5.957   0.010   3.163  1.00  0.00    -0.014 A 
BRANCH  10  11
ATOM     11  C   UNL     1       6.792   0.422   4.338  1.00  0.00     0.031 A 
ATOM     12  C   UNL     1       7.316  -0.672   5.242  1.00  0.00     0.074 A 
ATOM     13  C   UNL     1       6.890   1.729   4.691  1.00  0.00     0.049 A 
ATOM     14  N   UNL     1       7.792  -0.595   6.455  1.00  0.00    -0.248 NA
ATOM     15  C   UNL     1       7.182  -2.054   4.744  1.00  0.00     0.031 C 
ATOM     16  C   UNL     1       6.321   2.864   3.951  1.00  0.00     0.029 A 
ATOM     17  N   UNL     1       7.399   2.329   5.826  1.00  0.00    -0.354 N 
ATOM     18  C   UNL     1       7.874  -1.908   6.914  1.00  0.00     0.074 A 
ATOM     19  C   UNL     1       7.400  -2.756   5.845  1.00  0.00     0.031 C 
ATOM     20  C   UNL     1       6.407   3.983   4.696  1.00  0.00     0.029 A 
ATOM     21  C   UNL     1       7.013   3.651   5.975  1.00  0.00     0.049 A 
ATOM     22  H   UNL     1       7.981   1.862   6.468  1.00  0.00     0.167 HD
ATOM     23  C   UNL     1       8.289  -2.366   8.121  1.00  0.00     0.034 A 
ATOM     24  C   UNL     1       7.078   4.480   7.040  1.00  0.00     0.034 A 
ATOM     25  C   UNL     1       8.757  -1.497   9.166  1.00  0.00     0.049 A 
ATOM     26  C   UNL     1       7.686   3.956   8.320  1.00  0.00     0.074 A 
ATOM     27  C   UNL     1       9.364  -1.828  10.364  1.00  0.00     0.029 A 
ATOM     28  N   UNL     1       8.645  -0.115   9.142  1.00  0.00    -0.354 N 
ATOM     29  N   UNL     1       8.047   2.732   8.622  1.00  0.00    -0.248 NA
ATOM     30  C   UNL     1       7.953   4.937   9.383  1.00  0.00     0.031 C 
ATOM     31  C   UNL     1       9.585  -0.646  11.079  1.00  0.00     0.029 A 
ATOM     32  C   UNL     1       9.156   0.422  10.307  1.00  0.00     0.049 A 
ATOM     33  H   UNL     1       8.258   0.407   8.403  1.00  0.00     0.167 HD
ATOM     34  C   UNL     1       8.656   2.812   9.870  1.00  0.00     0.074 A 
ATOM     35  C   UNL     1       8.607   4.202  10.271  1.00  0.00     0.031 C 
ATOM     36  C   UNL     1       9.210   1.827  10.618  1.00  0.00     0.034 A 
BRANCH  23  37
ATOM     37  C   UNL     1       8.293  -3.863   8.347  1.00  0.00     0.023 A 
ATOM     38  C   UNL     1       9.088  -4.687   7.521  1.00  0.00     0.012 A 
ATOM     39  C   UNL     1       7.540  -4.461   9.379  1.00  0.00     0.148 A 
ATOM     40  C   UNL     1       9.069  -6.074   7.654  1.00  0.00     0.002 A 
ATOM     41  C   UNL     1       7.586  -5.841   9.556  1.00  0.00     0.091 A 
ATOM     42  F   UNL     1       6.779  -3.678  10.157  1.00  0.00    -0.205 F 
ATOM     43  C   UNL     1       8.325  -6.650   8.677  1.00  0.00     0.022 A 
BRANCH  41  44
ATOM     44  S   UNL     1       6.773  -6.685  10.918  1.00  0.00     0.127 S 
ATOM     45  O   UNL     1       5.776  -7.492  10.215  1.00  0.00    -0.237 OA
ATOM     46  O   UNL     1       7.877  -7.453  11.497  1.00  0.00    -0.237 OA
ATOM     47  O   UNL     1       6.237  -5.642  11.779  1.00  0.00    -0.744 OA
ENDBRANCH  41  44
ENDBRANCH  23  37
BRANCH  24  48
ATOM     48  C   UNL     1       6.634   5.911   6.974  1.00  0.00     0.023 A 
ATOM     49  C   UNL     1       7.625   6.912   6.918  1.00  0.00     0.012 A 
ATOM     50  C   UNL     1       5.282   6.303   7.061  1.00  0.00     0.148 A 
ATOM     51  C   UNL     1       7.292   8.264   7.021  1.00  0.00     0.002 A 
ATOM     52  C   UNL     1       4.953   7.657   7.133  1.00  0.00     0.091 A 
ATOM     53  F   UNL     1       4.341   5.351   7.078  1.00  0.00    -0.205 F 
ATOM     54  C   UNL     1       5.957   8.636   7.136  1.00  0.00     0.022 A 
BRANCH  52  55
ATOM     55  S   UNL     1       3.259   8.260   7.208  1.00  0.00     0.127 S 
ATOM     56  O   UNL     1       3.246   8.957   8.495  1.00  0.00    -0.237 OA
ATOM     57  O   UNL     1       3.210   9.137   6.036  1.00  0.00    -0.237 OA
ATOM     58  O   UNL     1       2.417   7.081   7.120  1.00  0.00    -0.744 OA
ENDBRANCH  52  55
ENDBRANCH  24  48
BRANCH  36  59
ATOM     59  C   UNL     1       9.971   2.221  11.854  1.00  0.00     0.023 A 
ATOM     60  C   UNL     1       9.305   2.647  13.018  1.00  0.00     0.012 A 
ATOM     61  C   UNL     1      11.373   2.070  11.871  1.00  0.00     0.148 A 
ATOM     62  C   UNL     1      10.029   2.945  14.173  1.00  0.00     0.002 A 
ATOM     63  C   UNL     1      12.080   2.314  13.039  1.00  0.00     0.091 A 
ATOM     64  F   UNL     1      11.986   1.685  10.742  1.00  0.00    -0.205 F 
ATOM     65  C   UNL     1      11.412   2.765  14.188  1.00  0.00     0.022 A 
BRANCH  63  66
ATOM     66  S   UNL     1      13.844   2.003  13.172  1.00  0.00     0.127 S 
ATOM     67  O   UNL     1      14.382   3.361  13.230  1.00  0.00    -0.237 OA
ATOM     68  O   UNL     1      13.933   1.257  14.427  1.00  0.00    -0.237 OA
ATOM     69  O   UNL     1      14.209   1.238  11.987  1.00  0.00    -0.744 OA
ENDBRANCH  63  66
ENDBRANCH  36  59
ENDBRANCH  10  11
ENDBRANCH   3   5
ENDBRANCH   2   3
ENDBRANCH   1   2
BRANCH   1  70
ATOM     70  C   UNL     1       3.738   2.159  -1.360  1.00  0.00     0.274 C 
BRANCH  70  71
ATOM     71  O   UNL     1       3.288   2.308   0.006  1.00  0.00    -0.462 OA
BRANCH  71  72
ATOM     72  C   UNL     1       2.112   2.987   0.213  1.00  0.00     0.312 C 
ATOM     73  O   UNL     1       1.484   3.540  -0.685  1.00  0.00    -0.252 OA
BRANCH  72  74
ATOM     74  C   UNL     1       1.610   2.949   1.674  1.00  0.00     0.124 C 
ATOM     75  C   UNL     1       1.984   1.654   2.285  1.00  0.00    -0.014 C 
ATOM     76  C   UNL     1       2.227   3.977   2.658  1.00  0.00     0.048 C 
ATOM     77  C   UNL     1       2.669   1.823   3.411  1.00  0.00    -0.006 C 
ATOM     78  C   UNL     1       2.727   3.208   3.933  1.00  0.00     0.106 C 
BRANCH  78  79
ATOM     79  N   UNL     1       1.854   3.323   5.106  1.00  0.00    -0.349 N 
ATOM     80  C   UNL     1       1.783   2.857   6.388  1.00  0.00     0.226 C 
ATOM     81  H   UNL     1       1.091   3.913   4.911  1.00  0.00     0.164 HD
ATOM     82  O   UNL     1       0.821   3.329   7.020  1.00  0.00    -0.274 OA
BRANCH  80  83
ATOM     83  C   UNL     1       2.696   1.814   7.125  1.00  0.00     0.050 C 
ATOM     84  C   UNL     1       3.718   2.483   8.078  1.00  0.00     0.020 C 
ATOM     85  C   UNL     1       3.462   0.854   6.223  1.00  0.00     0.020 C 
ATOM     86  C   UNL     1       1.770   0.938   8.039  1.00  0.00     0.020 C 
ATOM     87  C   UNL     1       4.516   1.427   8.886  1.00  0.00    -0.010 C 
ATOM     88  C   UNL     1       4.259  -0.198   6.998  1.00  0.00    -0.010 C 
ATOM     89  C   UNL     1       2.557  -0.144   8.807  1.00  0.00    -0.010 C 
ATOM     90  C   UNL     1       3.587   0.539   9.722  1.00  0.00     0.007 C 
ATOM     91  C   UNL     1       5.251   0.501   7.923  1.00  0.00     0.007 C 
ATOM     92  C   UNL     1       3.287  -1.049   7.809  1.00  0.00     0.007 C 
ENDBRANCH  80  83
ENDBRANCH  78  79
ENDBRANCH  72  74
ENDBRANCH  71  72
ENDBRANCH  70  71
ENDBRANCH   1  70
TORSDOF 16
