REMARK SMILES Cc1cc(Br)cc2c1O[C@H](C(F)(F)F)C(C(=O)OCCOC(=O)c1ccc(-c3c4nc(c(-c5cccc(S(=O)(=O)[O-])c5F)c5ccc([nH]5)c(-c5cccc(S(=O)(=O)[O-])c5F)c5nc(c(-c6cccc(S(=O)(=O)[O-])c6F)c6ccc3[nH]6)C=C5)C=C4)cc1)=C2
REMARK SMILES IDX 20 1 19 2 18 3 16 4 17 5 15 6 1 7 2 8 3 9 8 10 4 11 7 12
REMARK SMILES IDX 9 13 5 14 6 15 87 16 10 17 11 18 12 19 13 20 14 21 21 22
REMARK SMILES IDX 22 23 23 24 24 25 25 26 86 27 26 28 85 29 27 30 28 31 29 32
REMARK SMILES IDX 79 33 30 34 84 35 78 36 80 37 31 38 83 39 77 40 76 41 32 43
REMARK SMILES IDX 64 44 44 45 63 46 45 47 48 48 62 49 81 50 46 51 47 52 61 54
REMARK SMILES IDX 82 55 49 56 33 57 34 58 42 59 35 60 37 61 43 62 36 63 38 64
REMARK SMILES IDX 39 65 40 66 41 67 65 68 66 69 74 70 67 71 69 72 75 73 68 74
REMARK SMILES IDX 70 75 71 76 72 77 73 78 50 79 51 80 59 81 52 82 54 83 60 84
REMARK SMILES IDX 53 85 55 86 56 87 57 88 58 89
REMARK H PARENT 80 42 48 53
REMARK Flexibility Score: inf
ROOT
ATOM      1  C   UNL     1      -3.876   1.393   7.676  1.00  0.00     0.275 C 
ENDROOT
BRANCH   1   2
ATOM      2  C   UNL     1      -4.333   0.650   6.420  1.00  0.00     0.275 C 
BRANCH   2   3
ATOM      3  O   UNL     1      -3.282   0.585   5.430  1.00  0.00    -0.459 OA
BRANCH   3   4
ATOM      4  C   UNL     1      -3.412   1.438   4.388  1.00  0.00     0.338 C 
ATOM      5  O   UNL     1      -4.338   2.212   4.194  1.00  0.00    -0.246 OA
BRANCH   4   6
ATOM      6  C   UNL     1      -2.264   1.327   3.472  1.00  0.00     0.087 C 
ATOM      7  C   UNL     1       1.110  -0.194  -0.131  1.00  0.00     0.048 C 
ATOM      8  C   UNL     1       0.700   1.097   0.517  1.00  0.00    -0.007 A 
ATOM      9  C   UNL     1       1.264   2.293   0.037  1.00  0.00     0.023 A 
ATOM     10  C   UNL     1      -0.262   1.152   1.538  1.00  0.00     0.130 A 
ATOM     11  C   UNL     1       0.899   3.518   0.591  1.00  0.00     0.019 A 
ATOM     12  C   UNL     1      -0.624   2.389   2.079  1.00  0.00     0.019 A 
ATOM     13  O   UNL     1      -0.797  -0.030   1.977  1.00  0.00    -0.475 OA
ATOM     14  Br  UNL     1       1.663   5.116  -0.068  1.00  0.00    -0.051 Br
ATOM     15  C   UNL     1      -0.037   3.572   1.615  1.00  0.00     0.027 A 
ATOM     16  C   UNL     1      -1.647   2.454   3.102  1.00  0.00     0.027 C 
ATOM     17  C   UNL     1      -1.943  -0.008   2.874  1.00  0.00     0.316 C 
BRANCH  17  18
ATOM     18  C   UNL     1      -3.160  -0.594   2.140  1.00  0.00     0.430 C 
ATOM     19  F   UNL     1      -2.867  -1.792   1.579  1.00  0.00    -0.167 F 
ATOM     20  F   UNL     1      -4.195  -0.814   2.987  1.00  0.00    -0.167 F 
ATOM     21  F   UNL     1      -3.608   0.216   1.154  1.00  0.00    -0.167 F 
ENDBRANCH  17  18
ENDBRANCH   4   6
ENDBRANCH   3   4
ENDBRANCH   2   3
ENDBRANCH   1   2
BRANCH   1  22
ATOM     22  O   UNL     1      -3.656   2.785   7.389  1.00  0.00    -0.458 OA
BRANCH  22  23
ATOM     23  C   UNL     1      -2.358   3.132   7.241  1.00  0.00     0.338 C 
ATOM     24  O   UNL     1      -1.384   2.408   7.359  1.00  0.00    -0.246 OA
BRANCH  23  25
ATOM     25  C   UNL     1      -2.240   4.529   6.798  1.00  0.00     0.060 A 
ATOM     26  C   UNL     1      -2.605   4.836   5.494  1.00  0.00     0.016 A 
ATOM     27  C   UNL     1      -1.535   5.454   7.562  1.00  0.00     0.016 A 
ATOM     28  C   UNL     1      -2.082   5.968   4.879  1.00  0.00     0.010 A 
ATOM     29  C   UNL     1      -1.161   6.674   6.987  1.00  0.00     0.010 A 
ATOM     30  C   UNL     1      -1.360   6.916   5.615  1.00  0.00    -0.014 A 
BRANCH  30  31
ATOM     31  C   UNL     1      -0.780   8.125   4.955  1.00  0.00     0.031 A 
ATOM     32  C   UNL     1       0.678   8.472   5.151  1.00  0.00     0.074 A 
ATOM     33  C   UNL     1      -1.547   8.923   4.181  1.00  0.00     0.049 A 
ATOM     34  N   UNL     1       1.308   9.586   4.879  1.00  0.00    -0.248 NA
ATOM     35  C   UNL     1       1.538   7.436   5.750  1.00  0.00     0.031 C 
ATOM     36  C   UNL     1      -2.956   8.694   3.853  1.00  0.00     0.029 A 
ATOM     37  N   UNL     1      -1.251  10.100   3.534  1.00  0.00    -0.354 N 
ATOM     38  C   UNL     1       2.607   9.418   5.351  1.00  0.00     0.074 A 
ATOM     39  C   UNL     1       2.679   8.091   5.922  1.00  0.00     0.031 C 
ATOM     40  C   UNL     1      -3.390   9.670   3.045  1.00  0.00     0.029 A 
ATOM     41  C   UNL     1      -2.335  10.661   2.897  1.00  0.00     0.049 A 
ATOM     42  H   UNL     1      -0.353  10.502   3.528  1.00  0.00     0.167 HD
ATOM     43  C   UNL     1       3.646  10.287   5.304  1.00  0.00     0.034 A 
ATOM     44  C   UNL     1      -2.495  11.866   2.314  1.00  0.00     0.034 A 
ATOM     45  C   UNL     1       3.587  11.572   4.659  1.00  0.00     0.049 A 
ATOM     46  C   UNL     1      -1.341  12.825   2.305  1.00  0.00     0.074 A 
ATOM     47  C   UNL     1       4.594  12.514   4.528  1.00  0.00     0.029 A 
ATOM     48  N   UNL     1       2.471  12.092   4.021  1.00  0.00    -0.354 N 
ATOM     49  N   UNL     1      -0.120  12.652   2.751  1.00  0.00    -0.248 NA
ATOM     50  C   UNL     1      -1.583  14.147   1.711  1.00  0.00     0.031 C 
ATOM     51  C   UNL     1       4.078  13.613   3.837  1.00  0.00     0.029 A 
ATOM     52  C   UNL     1       2.759  13.344   3.506  1.00  0.00     0.049 A 
ATOM     53  H   UNL     1       1.601  11.636   3.945  1.00  0.00     0.167 HD
ATOM     54  C   UNL     1       0.556  13.834   2.479  1.00  0.00     0.074 A 
ATOM     55  C   UNL     1      -0.381  14.702   1.794  1.00  0.00     0.031 C 
ATOM     56  C   UNL     1       1.829  14.181   2.790  1.00  0.00     0.034 A 
BRANCH  43  57
ATOM     57  C   UNL     1       4.950   9.881   5.946  1.00  0.00     0.023 A 
ATOM     58  C   UNL     1       5.757   8.895   5.344  1.00  0.00     0.012 A 
ATOM     59  C   UNL     1       5.421  10.545   7.098  1.00  0.00     0.148 A 
ATOM     60  C   UNL     1       6.995   8.557   5.890  1.00  0.00     0.002 A 
ATOM     61  C   UNL     1       6.678  10.239   7.608  1.00  0.00     0.091 A 
ATOM     62  F   UNL     1       4.635  11.470   7.668  1.00  0.00    -0.205 F 
ATOM     63  C   UNL     1       7.461   9.237   7.013  1.00  0.00     0.022 A 
BRANCH  61  64
ATOM     64  S   UNL     1       7.410  11.120   8.994  1.00  0.00     0.127 S 
ATOM     65  O   UNL     1       7.471  10.070  10.011  1.00  0.00    -0.237 OA
ATOM     66  O   UNL     1       8.709  11.518   8.451  1.00  0.00    -0.237 OA
ATOM     67  O   UNL     1       6.508  12.222   9.295  1.00  0.00    -0.744 OA
ENDBRANCH  61  64
ENDBRANCH  43  57
BRANCH  44  68
ATOM     68  C   UNL     1      -3.807  12.223   1.698  1.00  0.00     0.023 A 
ATOM     69  C   UNL     1      -3.892  12.379   0.301  1.00  0.00     0.012 A 
ATOM     70  C   UNL     1      -4.978  12.349   2.474  1.00  0.00     0.148 A 
ATOM     71  C   UNL     1      -5.114  12.667  -0.309  1.00  0.00     0.002 A 
ATOM     72  C   UNL     1      -6.202  12.567   1.853  1.00  0.00     0.091 A 
ATOM     73  F   UNL     1      -4.876  12.217   3.804  1.00  0.00    -0.205 F 
ATOM     74  C   UNL     1      -6.270  12.744   0.463  1.00  0.00     0.022 A 
BRANCH  72  75
ATOM     75  S   UNL     1      -7.760  12.526   2.747  1.00  0.00     0.127 S 
ATOM     76  O   UNL     1      -8.201  13.914   2.645  1.00  0.00    -0.237 OA
ATOM     77  O   UNL     1      -8.536  11.572   1.953  1.00  0.00    -0.237 OA
ATOM     78  O   UNL     1      -7.434  12.065   4.090  1.00  0.00    -0.744 OA
ENDBRANCH  72  75
ENDBRANCH  44  68
BRANCH  56  79
ATOM     79  C   UNL     1       2.296  15.556   2.388  1.00  0.00     0.023 A 
ATOM     80  C   UNL     1       1.797  16.686   3.066  1.00  0.00     0.012 A 
ATOM     81  C   UNL     1       3.289  15.724   1.402  1.00  0.00     0.148 A 
ATOM     82  C   UNL     1       2.254  17.964   2.748  1.00  0.00     0.002 A 
ATOM     83  C   UNL     1       3.779  16.995   1.129  1.00  0.00     0.091 A 
ATOM     84  F   UNL     1       3.740  14.639   0.756  1.00  0.00    -0.205 F 
ATOM     85  C   UNL     1       3.253  18.117   1.790  1.00  0.00     0.022 A 
BRANCH  83  86
ATOM     86  S   UNL     1       5.139  17.283  -0.010  1.00  0.00     0.127 S 
ATOM     87  O   UNL     1       4.464  17.964  -1.113  1.00  0.00    -0.237 OA
ATOM     88  O   UNL     1       6.027  18.136   0.781  1.00  0.00    -0.237 OA
ATOM     89  O   UNL     1       5.684  15.970  -0.328  1.00  0.00    -0.744 OA
ENDBRANCH  83  86
ENDBRANCH  56  79
ENDBRANCH  30  31
ENDBRANCH  23  25
ENDBRANCH  22  23
ENDBRANCH   1  22
TORSDOF 15
