REMARK SMILES Cc1nsc(N(C)C(=O)[C@@H](C)NC(N)=O)c1C(=O)OCCOC(=O)c1ccc(-c2c3nc(c(-c4cccc(S(=O)(=O)[O-])c4F)c4ccc([nH]4)c(-c4cccc(S(=O)(=O)[O-])c4F)c4nc(c(-c5cccc(S(=O)(=O)[O-])c5F)c5ccc2[nH]5)C=C4)C=C3)cc1
REMARK SMILES IDX 20 1 19 2 17 3 18 4 16 5 1 6 2 7 3 8 4 9 5 10 6 11 7 12 8 13
REMARK SMILES IDX 9 14 10 15 11 16 12 17 13 18 14 20 15 21 21 24 22 25 23 26
REMARK SMILES IDX 24 27 25 28 26 29 87 30 27 31 86 32 28 33 29 34 30 35 80 36
REMARK SMILES IDX 31 37 85 38 79 39 81 40 32 41 84 42 78 43 77 44 33 46 65 47
REMARK SMILES IDX 45 48 64 49 46 50 49 51 63 52 82 53 47 54 48 55 62 57 83 58
REMARK SMILES IDX 50 59 34 60 35 61 43 62 36 63 38 64 44 65 37 66 39 67 40 68
REMARK SMILES IDX 41 69 42 70 66 71 67 72 75 73 68 74 70 75 76 76 69 77 71 78
REMARK SMILES IDX 72 79 73 80 74 81 51 82 52 83 60 84 53 85 55 86 61 87 54 88
REMARK SMILES IDX 56 89 57 90 58 91 59 92
REMARK H PARENT 12 19 14 22 14 23 81 45 49 56
REMARK Flexibility Score: inf
ROOT
ATOM      1  C   UNL     1       2.848   2.494  -2.320  1.00  0.00     0.275 C 
ENDROOT
BRANCH   1   2
ATOM      2  O   UNL     1       2.168   1.970  -1.169  1.00  0.00    -0.458 OA
BRANCH   2   3
ATOM      3  C   UNL     1       2.493   2.477   0.056  1.00  0.00     0.343 C 
ATOM      4  O   UNL     1       3.615   2.883   0.356  1.00  0.00    -0.246 OA
BRANCH   3   5
ATOM      5  C   UNL     1       1.396   2.331   1.007  1.00  0.00     0.117 A 
ATOM      6  C   UNL     1       0.815  -0.123   0.239  1.00  0.00     0.069 C 
ATOM      7  C   UNL     1       0.653   1.079   1.111  1.00  0.00     0.068 A 
ATOM      8  N   UNL     1      -0.241   0.999   2.090  1.00  0.00    -0.195 NA
ATOM      9  S   UNL     1      -0.326   2.447   2.840  1.00  0.00    -0.017 S 
ATOM     10  C   UNL     1       0.879   3.275   1.909  1.00  0.00     0.133 A 
BRANCH  10  11
ATOM     11  N   UNL     1       1.046   4.673   2.200  1.00  0.00    -0.303 N 
ATOM     12  C   UNL     1       0.424   5.285   3.379  1.00  0.00     0.154 C 
BRANCH  11  13
ATOM     13  C   UNL     1       1.661   5.494   1.234  1.00  0.00     0.249 C 
ATOM     14  O   UNL     1       2.072   5.052   0.158  1.00  0.00    -0.272 OA
BRANCH  13  15
ATOM     15  C   UNL     1       1.806   7.042   1.448  1.00  0.00     0.170 C 
ATOM     16  C   UNL     1       0.513   7.840   1.601  1.00  0.00     0.041 C 
BRANCH  15  17
ATOM     17  N   UNL     1       2.776   7.409   2.477  1.00  0.00    -0.327 N 
ATOM     18  C   UNL     1       4.008   7.893   2.166  1.00  0.00     0.312 C 
ATOM     19  H   UNL     1       2.530   7.303   3.424  1.00  0.00     0.166 HD
ATOM     20  N   UNL     1       4.749   8.187   3.260  1.00  0.00    -0.352 N 
ATOM     21  O   UNL     1       4.448   8.077   1.043  1.00  0.00    -0.249 OA
ATOM     22  H   UNL     1       4.381   8.033   4.160  1.00  0.00     0.161 HD
ATOM     23  H   UNL     1       5.656   8.554   3.155  1.00  0.00     0.161 HD
ENDBRANCH  15  17
ENDBRANCH  13  15
ENDBRANCH  11  13
ENDBRANCH  10  11
ENDBRANCH   3   5
ENDBRANCH   2   3
ENDBRANCH   1   2
BRANCH   1  24
ATOM     24  C   UNL     1       1.822   3.177  -3.213  1.00  0.00     0.275 C 
BRANCH  24  25
ATOM     25  O   UNL     1       1.242   4.266  -2.513  1.00  0.00    -0.458 OA
BRANCH  25  26
ATOM     26  C   UNL     1       0.144   4.004  -1.767  1.00  0.00     0.338 C 
ATOM     27  O   UNL     1      -0.355   2.924  -1.519  1.00  0.00    -0.246 OA
BRANCH  26  28
ATOM     28  C   UNL     1      -0.494   5.292  -1.472  1.00  0.00     0.060 A 
ATOM     29  C   UNL     1      -1.734   5.268  -0.824  1.00  0.00     0.016 A 
ATOM     30  C   UNL     1       0.002   6.438  -2.109  1.00  0.00     0.016 A 
ATOM     31  C   UNL     1      -2.584   6.330  -1.023  1.00  0.00     0.010 A 
ATOM     32  C   UNL     1      -0.859   7.463  -2.356  1.00  0.00     0.010 A 
ATOM     33  C   UNL     1      -2.158   7.351  -1.873  1.00  0.00    -0.014 A 
BRANCH  33  34
ATOM     34  C   UNL     1      -3.091   8.360  -2.289  1.00  0.00     0.031 A 
ATOM     35  C   UNL     1      -3.202   9.479  -1.328  1.00  0.00     0.074 A 
ATOM     36  C   UNL     1      -3.618   8.300  -3.526  1.00  0.00     0.049 A 
ATOM     37  N   UNL     1      -4.229   9.792  -0.613  1.00  0.00    -0.248 NA
ATOM     38  C   UNL     1      -1.978  10.210  -0.960  1.00  0.00     0.031 C 
ATOM     39  C   UNL     1      -3.287   7.387  -4.628  1.00  0.00     0.029 A 
ATOM     40  N   UNL     1      -4.466   9.176  -4.109  1.00  0.00    -0.354 N 
ATOM     41  C   UNL     1      -3.847  10.911   0.121  1.00  0.00     0.074 A 
ATOM     42  C   UNL     1      -2.415  10.975   0.040  1.00  0.00     0.031 C 
ATOM     43  C   UNL     1      -3.719   7.928  -5.791  1.00  0.00     0.029 A 
ATOM     44  C   UNL     1      -4.448   9.149  -5.496  1.00  0.00     0.049 A 
ATOM     45  H   UNL     1      -5.046   9.781  -3.594  1.00  0.00     0.167 HD
ATOM     46  C   UNL     1      -4.766  11.830   0.526  1.00  0.00     0.034 A 
ATOM     47  C   UNL     1      -4.895  10.142  -6.306  1.00  0.00     0.034 A 
ATOM     48  C   UNL     1      -6.103  11.306   0.387  1.00  0.00     0.049 A 
ATOM     49  C   UNL     1      -5.814  10.983  -5.489  1.00  0.00     0.074 A 
ATOM     50  C   UNL     1      -6.779  10.232   0.930  1.00  0.00     0.029 A 
ATOM     51  N   UNL     1      -6.793  11.658  -0.751  1.00  0.00    -0.354 N 
ATOM     52  N   UNL     1      -6.937  10.530  -4.999  1.00  0.00    -0.248 NA
ATOM     53  C   UNL     1      -5.243  12.124  -4.783  1.00  0.00     0.031 C 
ATOM     54  C   UNL     1      -7.526   9.690  -0.157  1.00  0.00     0.029 A 
ATOM     55  C   UNL     1      -7.338  10.511  -1.271  1.00  0.00     0.049 A 
ATOM     56  H   UNL     1      -6.880  12.565  -1.124  1.00  0.00     0.167 HD
ATOM     57  C   UNL     1      -6.967  11.006  -3.692  1.00  0.00     0.074 A 
ATOM     58  C   UNL     1      -5.950  12.061  -3.648  1.00  0.00     0.031 C 
ATOM     59  C   UNL     1      -7.563  10.296  -2.686  1.00  0.00     0.034 A 
BRANCH  46  60
ATOM     60  C   UNL     1      -4.518  13.310   0.701  1.00  0.00     0.023 A 
ATOM     61  C   UNL     1      -5.592  14.074   1.212  1.00  0.00     0.012 A 
ATOM     62  C   UNL     1      -3.432  14.026   0.149  1.00  0.00     0.148 A 
ATOM     63  C   UNL     1      -5.623  15.467   1.103  1.00  0.00     0.002 A 
ATOM     64  C   UNL     1      -3.438  15.416   0.098  1.00  0.00     0.091 A 
ATOM     65  F   UNL     1      -2.429  13.379  -0.446  1.00  0.00    -0.205 F 
ATOM     66  C   UNL     1      -4.546  16.139   0.542  1.00  0.00     0.022 A 
BRANCH  64  67
ATOM     67  S   UNL     1      -2.059  16.345  -0.587  1.00  0.00     0.127 S 
ATOM     68  O   UNL     1      -2.626  16.823  -1.845  1.00  0.00    -0.237 OA
ATOM     69  O   UNL     1      -1.859  17.374   0.433  1.00  0.00    -0.237 OA
ATOM     70  O   UNL     1      -0.960  15.395  -0.701  1.00  0.00    -0.744 OA
ENDBRANCH  64  67
ENDBRANCH  46  60
BRANCH  47  71
ATOM     71  C   UNL     1      -4.298  10.595  -7.588  1.00  0.00     0.023 A 
ATOM     72  C   UNL     1      -5.047  11.370  -8.494  1.00  0.00     0.012 A 
ATOM     73  C   UNL     1      -2.907  10.472  -7.819  1.00  0.00     0.148 A 
ATOM     74  C   UNL     1      -4.431  12.003  -9.585  1.00  0.00     0.002 A 
ATOM     75  C   UNL     1      -2.303  11.087  -8.911  1.00  0.00     0.091 A 
ATOM     76  F   UNL     1      -2.154   9.834  -6.914  1.00  0.00    -0.205 F 
ATOM     77  C   UNL     1      -3.060  11.862  -9.794  1.00  0.00     0.022 A 
BRANCH  75  78
ATOM     78  S   UNL     1      -0.535  10.949  -9.217  1.00  0.00     0.127 S 
ATOM     79  O   UNL     1      -0.495  10.667 -10.652  1.00  0.00    -0.237 OA
ATOM     80  O   UNL     1      -0.060  12.277  -8.839  1.00  0.00    -0.237 OA
ATOM     81  O   UNL     1      -0.074   9.848  -8.381  1.00  0.00    -0.744 OA
ENDBRANCH  75  78
ENDBRANCH  47  71
BRANCH  59  82
ATOM     82  C   UNL     1      -8.310   9.030  -3.047  1.00  0.00     0.023 A 
ATOM     83  C   UNL     1      -7.662   7.898  -3.588  1.00  0.00     0.012 A 
ATOM     84  C   UNL     1      -9.642   8.899  -2.630  1.00  0.00     0.148 A 
ATOM     85  C   UNL     1      -8.326   6.676  -3.730  1.00  0.00     0.002 A 
ATOM     86  C   UNL     1     -10.287   7.670  -2.726  1.00  0.00     0.091 A 
ATOM     87  F   UNL     1     -10.248   9.973  -2.101  1.00  0.00    -0.205 F 
ATOM     88  C   UNL     1      -9.638   6.559  -3.286  1.00  0.00     0.022 A 
BRANCH  86  89
ATOM     89  S   UNL     1     -11.922   7.421  -2.034  1.00  0.00     0.127 S 
ATOM     90  O   UNL     1     -12.761   7.420  -3.230  1.00  0.00    -0.237 OA
ATOM     91  O   UNL     1     -11.792   6.119  -1.376  1.00  0.00    -0.237 OA
ATOM     92  O   UNL     1     -12.139   8.530  -1.113  1.00  0.00    -0.744 OA
ENDBRANCH  86  89
ENDBRANCH  59  82
ENDBRANCH  33  34
ENDBRANCH  26  28
ENDBRANCH  25  26
ENDBRANCH  24  25
ENDBRANCH   1  24
TORSDOF 18
