REMARK SMILES Cc1ccc([C@H](C)Nc2ccc(C(=O)OCCOC(=O)c3ccc(-c4c5nc(c(-c6cccc(S(=O)(=O)[O-])c6F)c6ccc([nH]6)c(-c6cccc(S(=O)(=O)[O-])c6F)c6nc(c(-c7cccc(S(=O)(=O)[O-])c7F)c7ccc4[nH]7)C=C6)C=C5)cc3)cc2Cl)cc1F
REMARK SMILES IDX 16 1 15 2 13 3 14 4 12 5 9 6 10 7 85 8 11 9 84 10 86 11 8 12
REMARK SMILES IDX 6 14 7 15 5 16 1 17 2 18 3 19 88 20 4 21 87 22 89 23 17 24
REMARK SMILES IDX 18 25 19 26 20 27 21 28 22 29 83 30 23 31 82 32 24 33 25 34
REMARK SMILES IDX 26 35 76 36 27 37 81 38 75 39 77 40 28 41 80 42 74 43 73 44
REMARK SMILES IDX 29 46 61 47 41 48 60 49 42 50 45 51 59 52 78 53 43 54 44 55
REMARK SMILES IDX 58 57 79 58 46 59 30 60 31 61 39 62 32 63 34 64 40 65 33 66
REMARK SMILES IDX 35 67 36 68 37 69 38 70 62 71 63 72 71 73 64 74 66 75 72 76
REMARK SMILES IDX 65 77 67 78 68 79 69 80 70 81 47 82 48 83 56 84 49 85 51 86
REMARK SMILES IDX 57 87 50 88 52 89 53 90 54 91 55 92
REMARK H PARENT 8 13 77 45 45 56
REMARK Flexibility Score: inf
ROOT
ATOM      1  C   UNL     1      -9.715  -1.482   5.357  1.00  0.00     0.275 C 
ENDROOT
BRANCH   1   2
ATOM      2  O   UNL     1      -8.670  -1.506   4.362  1.00  0.00    -0.458 OA
BRANCH   2   3
ATOM      3  C   UNL     1      -7.444  -1.033   4.726  1.00  0.00     0.338 C 
ATOM      4  O   UNL     1      -7.173  -0.451   5.755  1.00  0.00    -0.246 OA
BRANCH   3   5
ATOM      5  C   UNL     1      -6.417  -1.421   3.714  1.00  0.00     0.061 A 
ATOM      6  C   UNL     1      -4.423  -2.226   1.856  1.00  0.00     0.053 A 
ATOM      7  C   UNL     1      -4.105  -1.955   3.197  1.00  0.00     0.028 A 
ATOM      8  C   UNL     1      -5.769  -2.050   1.466  1.00  0.00     0.065 A 
ATOM      9  C   UNL     1      -5.078  -1.520   4.105  1.00  0.00     0.018 A 
ATOM     10  C   UNL     1      -6.758  -1.701   2.395  1.00  0.00     0.038 A 
ATOM     11  Cl  UNL     1      -6.333  -2.269  -0.156  1.00  0.00    -0.082 Cl
BRANCH   6  12
ATOM     12  N   UNL     1      -3.373  -2.595   1.027  1.00  0.00    -0.377 N 
ATOM     13  H   UNL     1      -2.832  -3.374   1.289  1.00  0.00     0.161 HD
BRANCH  12  14
ATOM     14  C   UNL     1      -3.021  -1.905  -0.207  1.00  0.00     0.106 C 
ATOM     15  C   UNL     1      -1.827  -0.992   0.113  1.00  0.00     0.036 C 
BRANCH  14  16
ATOM     16  C   UNL     1      -2.798  -2.919  -1.329  1.00  0.00    -0.023 A 
ATOM     17  C   UNL     1      -2.740  -5.533  -4.791  1.00  0.00     0.047 C 
ATOM     18  C   UNL     1      -2.703  -4.654  -3.581  1.00  0.00    -0.015 A 
ATOM     19  C   UNL     1      -1.790  -3.605  -3.452  1.00  0.00     0.007 A 
ATOM     20  C   UNL     1      -3.635  -4.848  -2.566  1.00  0.00     0.126 A 
ATOM     21  C   UNL     1      -1.841  -2.745  -2.343  1.00  0.00     0.006 A 
ATOM     22  C   UNL     1      -3.675  -4.013  -1.455  1.00  0.00     0.045 A 
ATOM     23  F   UNL     1      -4.537  -5.833  -2.674  1.00  0.00    -0.207 F 
ENDBRANCH  14  16
ENDBRANCH  12  14
ENDBRANCH   6  12
ENDBRANCH   3   5
ENDBRANCH   2   3
ENDBRANCH   1   2
BRANCH   1  24
ATOM     24  C   UNL     1      -9.797  -2.771   6.179  1.00  0.00     0.275 C 
BRANCH  24  25
ATOM     25  O   UNL     1      -8.743  -2.828   7.143  1.00  0.00    -0.458 OA
BRANCH  25  26
ATOM     26  C   UNL     1      -7.614  -3.343   6.617  1.00  0.00     0.338 C 
ATOM     27  O   UNL     1      -7.409  -3.658   5.456  1.00  0.00    -0.246 OA
BRANCH  26  28
ATOM     28  C   UNL     1      -6.628  -3.642   7.641  1.00  0.00     0.060 A 
ATOM     29  C   UNL     1      -5.302  -3.720   7.183  1.00  0.00     0.016 A 
ATOM     30  C   UNL     1      -7.104  -4.376   8.722  1.00  0.00     0.016 A 
ATOM     31  C   UNL     1      -4.509  -4.751   7.622  1.00  0.00     0.010 A 
ATOM     32  C   UNL     1      -6.317  -5.409   9.151  1.00  0.00     0.010 A 
ATOM     33  C   UNL     1      -5.077  -5.632   8.529  1.00  0.00    -0.014 A 
BRANCH  33  34
ATOM     34  C   UNL     1      -4.408  -6.826   8.962  1.00  0.00     0.031 A 
ATOM     35  C   UNL     1      -3.468  -6.695  10.074  1.00  0.00     0.074 A 
ATOM     36  C   UNL     1      -4.837  -8.005   8.478  1.00  0.00     0.049 A 
ATOM     37  N   UNL     1      -2.626  -7.598  10.420  1.00  0.00    -0.248 NA
ATOM     38  C   UNL     1      -3.337  -5.456  10.841  1.00  0.00     0.031 C 
ATOM     39  C   UNL     1      -4.742  -9.306   9.116  1.00  0.00     0.029 A 
ATOM     40  N   UNL     1      -5.290  -8.274   7.191  1.00  0.00    -0.354 N 
ATOM     41  C   UNL     1      -2.160  -7.236  11.659  1.00  0.00     0.074 A 
ATOM     42  C   UNL     1      -2.468  -5.831  11.782  1.00  0.00     0.031 C 
ATOM     43  C   UNL     1      -4.941 -10.258   8.190  1.00  0.00     0.029 A 
ATOM     44  C   UNL     1      -4.939  -9.602   6.890  1.00  0.00     0.049 A 
ATOM     45  H   UNL     1      -5.768  -7.650   6.599  1.00  0.00     0.167 HD
ATOM     46  C   UNL     1      -1.756  -8.219  12.511  1.00  0.00     0.034 A 
ATOM     47  C   UNL     1      -4.032  -9.867   5.898  1.00  0.00     0.034 A 
ATOM     48  C   UNL     1      -1.840  -9.529  11.867  1.00  0.00     0.049 A 
ATOM     49  C   UNL     1      -2.753 -10.517   6.394  1.00  0.00     0.074 A 
ATOM     50  C   UNL     1      -2.722 -10.594  11.964  1.00  0.00     0.029 A 
ATOM     51  N   UNL     1      -1.090  -9.762  10.731  1.00  0.00    -0.354 N 
ATOM     52  N   UNL     1      -2.413 -10.576   7.652  1.00  0.00    -0.248 NA
ATOM     53  C   UNL     1      -1.720 -11.079   5.524  1.00  0.00     0.031 C 
ATOM     54  C   UNL     1      -2.450 -11.495  10.895  1.00  0.00     0.029 A 
ATOM     55  C   UNL     1      -1.404 -10.974  10.158  1.00  0.00     0.049 A 
ATOM     56  H   UNL     1      -0.414  -9.140  10.376  1.00  0.00     0.167 HD
ATOM     57  C   UNL     1      -1.198 -11.192   7.782  1.00  0.00     0.074 A 
ATOM     58  C   UNL     1      -0.783 -11.452   6.417  1.00  0.00     0.031 C 
ATOM     59  C   UNL     1      -0.634 -11.409   9.005  1.00  0.00     0.034 A 
BRANCH  46  60
ATOM     60  C   UNL     1      -1.552  -8.033  13.999  1.00  0.00     0.023 A 
ATOM     61  C   UNL     1      -1.408  -6.770  14.613  1.00  0.00     0.012 A 
ATOM     62  C   UNL     1      -1.537  -9.142  14.872  1.00  0.00     0.148 A 
ATOM     63  C   UNL     1      -1.378  -6.600  16.003  1.00  0.00     0.002 A 
ATOM     64  C   UNL     1      -1.496  -8.975  16.256  1.00  0.00     0.091 A 
ATOM     65  F   UNL     1      -1.555 -10.388  14.382  1.00  0.00    -0.205 F 
ATOM     66  C   UNL     1      -1.437  -7.707  16.830  1.00  0.00     0.022 A 
BRANCH  64  67
ATOM     67  S   UNL     1      -1.548 -10.429  17.304  1.00  0.00     0.127 S 
ATOM     68  O   UNL     1      -2.840 -11.021  16.971  1.00  0.00    -0.237 OA
ATOM     69  O   UNL     1      -0.356 -11.167  16.901  1.00  0.00    -0.237 OA
ATOM     70  O   UNL     1      -1.477  -9.867  18.654  1.00  0.00    -0.744 OA
ENDBRANCH  64  67
ENDBRANCH  46  60
BRANCH  47  71
ATOM     71  C   UNL     1      -4.110  -8.882   4.776  1.00  0.00     0.023 A 
ATOM     72  C   UNL     1      -3.259  -7.761   4.768  1.00  0.00     0.012 A 
ATOM     73  C   UNL     1      -5.305  -8.834   4.025  1.00  0.00     0.148 A 
ATOM     74  C   UNL     1      -3.652  -6.582   4.121  1.00  0.00     0.002 A 
ATOM     75  C   UNL     1      -5.708  -7.644   3.424  1.00  0.00     0.091 A 
ATOM     76  F   UNL     1      -6.102  -9.915   4.013  1.00  0.00    -0.205 F 
ATOM     77  C   UNL     1      -4.892  -6.508   3.482  1.00  0.00     0.022 A 
BRANCH  75  78
ATOM     78  S   UNL     1      -7.380  -7.527   2.772  1.00  0.00     0.127 S 
ATOM     79  O   UNL     1      -7.345  -8.433   1.628  1.00  0.00    -0.237 OA
ATOM     80  O   UNL     1      -8.205  -7.945   3.903  1.00  0.00    -0.237 OA
ATOM     81  O   UNL     1      -7.519  -6.115   2.418  1.00  0.00    -0.744 OA
ENDBRANCH  75  78
ENDBRANCH  47  71
BRANCH  59  82
ATOM     82  C   UNL     1       0.737 -11.981   9.254  1.00  0.00     0.023 A 
ATOM     83  C   UNL     1       1.481 -11.497  10.363  1.00  0.00     0.012 A 
ATOM     84  C   UNL     1       1.313 -13.017   8.511  1.00  0.00     0.148 A 
ATOM     85  C   UNL     1       2.751 -11.971  10.685  1.00  0.00     0.002 A 
ATOM     86  C   UNL     1       2.608 -13.454   8.802  1.00  0.00     0.091 A 
ATOM     87  F   UNL     1       0.602 -13.619   7.547  1.00  0.00    -0.205 F 
ATOM     88  C   UNL     1       3.329 -12.939   9.885  1.00  0.00     0.022 A 
BRANCH  86  89
ATOM     89  S   UNL     1       3.388 -14.633   7.703  1.00  0.00     0.127 S 
ATOM     90  O   UNL     1       2.578 -15.835   7.872  1.00  0.00    -0.237 OA
ATOM     91  O   UNL     1       3.303 -13.966   6.406  1.00  0.00    -0.237 OA
ATOM     92  O   UNL     1       4.749 -14.741   8.230  1.00  0.00    -0.744 OA
ENDBRANCH  86  89
ENDBRANCH  59  82
ENDBRANCH  33  34
ENDBRANCH  26  28
ENDBRANCH  25  26
ENDBRANCH  24  25
ENDBRANCH   1  24
TORSDOF 17
