REMARK SMILES O=C(OCCOC(=O)[C@H]1Cc2[nH]cnc2CN1C(=O)NCc1nc[nH]n1)c1ccc(-c2c3nc(c(-c4cccc(S(=O)(=O)[O-])c4F)c4ccc([nH]4)c(-c4cccc(S(=O)(=O)[O-])c4F)c4nc(c(-c5cccc(S(=O)(=O)[O-])c5F)c5ccc2[nH]5)C=C4)C=C3)cc1
REMARK SMILES IDX 4 1 3 2 2 3 1 4 27 5 28 6 89 7 29 8 88 9 30 10 31 11 32 12
REMARK SMILES IDX 82 13 33 14 87 15 81 16 83 17 34 18 86 19 80 20 79 21 35 23
REMARK SMILES IDX 67 24 47 25 66 26 48 27 51 28 65 29 84 30 49 31 50 32 64 34
REMARK SMILES IDX 85 35 52 36 36 37 37 38 45 39 38 40 40 41 46 42 39 43 41 44
REMARK SMILES IDX 42 45 43 46 44 47 68 48 69 49 77 50 70 51 72 52 78 53 71 54
REMARK SMILES IDX 73 55 74 56 75 57 76 58 53 59 54 60 62 61 55 62 57 63 63 64
REMARK SMILES IDX 56 65 58 66 59 67 60 68 61 69 5 70 6 71 7 72 8 73 9 74 10 75
REMARK SMILES IDX 17 76 11 77 16 78 12 79 15 80 13 81 14 83 18 84 19 85 20 86
REMARK SMILES IDX 21 88 22 89 23 90 26 91 24 92 25 93
REMARK H PARENT 83 22 51 33 12 82 20 87 25 94
REMARK Flexibility Score: inf
ROOT
ATOM      1  C   UNL     1       4.673   0.396   1.423  1.00  0.00     0.275 C 
ENDROOT
BRANCH   1   2
ATOM      2  O   UNL     1       3.351   0.511   1.962  1.00  0.00    -0.458 OA
BRANCH   2   3
ATOM      3  C   UNL     1       2.252   1.035   1.384  1.00  0.00     0.338 C 
ATOM      4  O   UNL     1       1.144   0.638   1.743  1.00  0.00    -0.246 OA
BRANCH   3   5
ATOM      5  C   UNL     1       2.333   2.212   0.470  1.00  0.00     0.060 A 
ATOM      6  C   UNL     1       3.494   2.921   0.147  1.00  0.00     0.016 A 
ATOM      7  C   UNL     1       1.097   2.712   0.022  1.00  0.00     0.016 A 
ATOM      8  C   UNL     1       3.421   4.166  -0.450  1.00  0.00     0.010 A 
ATOM      9  C   UNL     1       1.014   3.952  -0.587  1.00  0.00     0.010 A 
ATOM     10  C   UNL     1       2.174   4.701  -0.744  1.00  0.00    -0.014 A 
BRANCH  10  11
ATOM     11  C   UNL     1       2.131   6.056  -1.252  1.00  0.00     0.031 A 
ATOM     12  C   UNL     1       2.688   6.225  -2.616  1.00  0.00     0.074 A 
ATOM     13  C   UNL     1       1.524   7.050  -0.579  1.00  0.00     0.049 A 
ATOM     14  N   UNL     1       3.787   6.802  -2.974  1.00  0.00    -0.248 NA
ATOM     15  C   UNL     1       2.005   5.516  -3.703  1.00  0.00     0.031 C 
ATOM     16  C   UNL     1       0.679   6.957   0.614  1.00  0.00     0.029 A 
ATOM     17  N   UNL     1       1.426   8.358  -0.924  1.00  0.00    -0.354 N 
ATOM     18  C   UNL     1       3.808   6.735  -4.367  1.00  0.00     0.074 A 
ATOM     19  C   UNL     1       2.821   5.756  -4.731  1.00  0.00     0.031 C 
ATOM     20  C   UNL     1      -0.045   8.094   0.728  1.00  0.00     0.029 A 
ATOM     21  C   UNL     1       0.395   9.035  -0.287  1.00  0.00     0.049 A 
ATOM     22  H   UNL     1       2.033   8.789  -1.569  1.00  0.00     0.167 HD
ATOM     23  C   UNL     1       4.449   7.671  -5.123  1.00  0.00     0.034 A 
ATOM     24  C   UNL     1      -0.098  10.248  -0.640  1.00  0.00     0.034 A 
ATOM     25  C   UNL     1       5.346   8.461  -4.321  1.00  0.00     0.049 A 
ATOM     26  C   UNL     1       0.927  10.910  -1.483  1.00  0.00     0.074 A 
ATOM     27  C   UNL     1       6.424   8.183  -3.505  1.00  0.00     0.029 A 
ATOM     28  N   UNL     1       4.920   9.720  -3.966  1.00  0.00    -0.354 N 
ATOM     29  N   UNL     1       2.087  11.293  -1.027  1.00  0.00    -0.248 NA
ATOM     30  C   UNL     1       0.849  10.729  -2.925  1.00  0.00     0.031 C 
ATOM     31  C   UNL     1       6.241   9.034  -2.376  1.00  0.00     0.029 A 
ATOM     32  C   UNL     1       5.127   9.841  -2.619  1.00  0.00     0.049 A 
ATOM     33  H   UNL     1       4.540  10.402  -4.566  1.00  0.00     0.167 HD
ATOM     34  C   UNL     1       2.981  10.954  -2.033  1.00  0.00     0.074 A 
ATOM     35  C   UNL     1       2.153  10.708  -3.214  1.00  0.00     0.031 C 
ATOM     36  C   UNL     1       4.271  10.609  -1.746  1.00  0.00     0.034 A 
BRANCH  23  37
ATOM     37  C   UNL     1       4.013   8.148  -6.494  1.00  0.00     0.023 A 
ATOM     38  C   UNL     1       4.859   9.068  -7.157  1.00  0.00     0.012 A 
ATOM     39  C   UNL     1       2.717   7.980  -7.031  1.00  0.00     0.148 A 
ATOM     40  C   UNL     1       4.412   9.837  -8.237  1.00  0.00     0.002 A 
ATOM     41  C   UNL     1       2.301   8.690  -8.152  1.00  0.00     0.091 A 
ATOM     42  F   UNL     1       1.816   7.229  -6.394  1.00  0.00    -0.205 F 
ATOM     43  C   UNL     1       3.131   9.647  -8.737  1.00  0.00     0.022 A 
BRANCH  41  44
ATOM     44  S   UNL     1       0.670   8.449  -8.866  1.00  0.00     0.127 S 
ATOM     45  O   UNL     1       0.001   9.688  -8.488  1.00  0.00    -0.237 OA
ATOM     46  O   UNL     1       0.984   8.315 -10.287  1.00  0.00    -0.237 OA
ATOM     47  O   UNL     1       0.153   7.228  -8.250  1.00  0.00    -0.744 OA
ENDBRANCH  41  44
ENDBRANCH  23  37
BRANCH  24  48
ATOM     48  C   UNL     1      -1.474  10.782  -0.526  1.00  0.00     0.023 A 
ATOM     49  C   UNL     1      -1.685  12.174  -0.577  1.00  0.00     0.012 A 
ATOM     50  C   UNL     1      -2.594   9.932  -0.654  1.00  0.00     0.148 A 
ATOM     51  C   UNL     1      -2.964  12.703  -0.785  1.00  0.00     0.002 A 
ATOM     52  C   UNL     1      -3.865  10.461  -0.857  1.00  0.00     0.091 A 
ATOM     53  F   UNL     1      -2.399   8.607  -0.673  1.00  0.00    -0.205 F 
ATOM     54  C   UNL     1      -4.052  11.847  -0.934  1.00  0.00     0.022 A 
BRANCH  52  55
ATOM     55  S   UNL     1      -5.310   9.419  -1.099  1.00  0.00     0.127 S 
ATOM     56  O   UNL     1      -6.267  10.008  -0.162  1.00  0.00    -0.237 OA
ATOM     57  O   UNL     1      -5.613   9.648  -2.509  1.00  0.00    -0.237 OA
ATOM     58  O   UNL     1      -4.888   8.068  -0.755  1.00  0.00    -0.744 OA
ENDBRANCH  52  55
ENDBRANCH  24  48
BRANCH  36  59
ATOM     59  C   UNL     1       4.775  10.804  -0.339  1.00  0.00     0.023 A 
ATOM     60  C   UNL     1       4.219  10.132   0.770  1.00  0.00     0.012 A 
ATOM     61  C   UNL     1       5.971  11.519  -0.168  1.00  0.00     0.148 A 
ATOM     62  C   UNL     1       4.837  10.185   2.023  1.00  0.00     0.002 A 
ATOM     63  C   UNL     1       6.611  11.523   1.063  1.00  0.00     0.091 A 
ATOM     64  F   UNL     1       6.486  12.156  -1.231  1.00  0.00    -0.205 F 
ATOM     65  C   UNL     1       6.043  10.867   2.165  1.00  0.00     0.022 A 
BRANCH  63  66
ATOM     66  S   UNL     1       8.238  12.254   1.250  1.00  0.00     0.127 S 
ATOM     67  O   UNL     1       7.925  13.544   1.858  1.00  0.00    -0.237 OA
ATOM     68  O   UNL     1       8.912  11.305   2.139  1.00  0.00    -0.237 OA
ATOM     69  O   UNL     1       8.804  12.306  -0.093  1.00  0.00    -0.744 OA
ENDBRANCH  63  66
ENDBRANCH  36  59
ENDBRANCH  10  11
ENDBRANCH   3   5
ENDBRANCH   2   3
ENDBRANCH   1   2
BRANCH   1  70
ATOM     70  C   UNL     1       4.796  -0.459   0.170  1.00  0.00     0.274 C 
BRANCH  70  71
ATOM     71  O   UNL     1       4.245  -0.035  -1.101  1.00  0.00    -0.461 OA
BRANCH  71  72
ATOM     72  C   UNL     1       3.037  -0.577  -1.455  1.00  0.00     0.329 C 
ATOM     73  O   UNL     1       2.187  -0.901  -0.633  1.00  0.00    -0.250 OA
BRANCH  72  74
ATOM     74  C   UNL     1       2.725  -0.597  -2.965  1.00  0.00     0.203 C 
ATOM     75  C   UNL     1       2.578   0.951  -3.261  1.00  0.00     0.093 C 
ATOM     76  N   UNL     1       3.534  -1.359  -4.027  1.00  0.00    -0.305 N 
ATOM     77  C   UNL     1       2.415   1.209  -4.697  1.00  0.00     0.042 A 
ATOM     78  C   UNL     1       3.133  -1.071  -5.444  1.00  0.00     0.180 C 
ATOM     79  N   UNL     1       2.012   2.344  -5.335  1.00  0.00    -0.348 N 
ATOM     80  C   UNL     1       2.707   0.316  -5.684  1.00  0.00     0.081 A 
ATOM     81  C   UNL     1       2.104   2.099  -6.681  1.00  0.00     0.197 A 
ATOM     82  H   UNL     1       1.712   3.180  -4.910  1.00  0.00     0.167 HD
ATOM     83  N   UNL     1       2.503   0.868  -6.921  1.00  0.00    -0.240 NA
BRANCH  76  84
ATOM     84  C   UNL     1       3.991  -2.664  -4.009  1.00  0.00     0.318 C 
ATOM     85  O   UNL     1       4.314  -3.267  -5.042  1.00  0.00    -0.249 OA
ATOM     86  N   UNL     1       4.029  -3.449  -2.930  1.00  0.00    -0.331 N 
ATOM     87  H   UNL     1       3.511  -4.282  -3.009  1.00  0.00     0.165 HD
BRANCH  86  88
ATOM     88  C   UNL     1       4.701  -3.275  -1.670  1.00  0.00     0.197 C 
BRANCH  88  89
ATOM     89  C   UNL     1       3.955  -3.983  -0.586  1.00  0.00     0.169 A 
ATOM     90  N   UNL     1       4.129  -5.315  -0.289  1.00  0.00    -0.218 NA
ATOM     91  N   UNL     1       3.087  -3.365   0.218  1.00  0.00    -0.157 NA
ATOM     92  C   UNL     1       3.324  -5.500   0.735  1.00  0.00     0.216 A 
ATOM     93  N   UNL     1       2.690  -4.338   1.036  1.00  0.00    -0.266 N 
ATOM     94  H   UNL     1       2.029  -4.229   1.758  1.00  0.00     0.191 HD
ENDBRANCH  88  89
ENDBRANCH  86  88
ENDBRANCH  76  84
ENDBRANCH  72  74
ENDBRANCH  71  72
ENDBRANCH  70  71
ENDBRANCH   1  70
TORSDOF 17
