REMARK SMILES Cc1ccc(S(=O)(=O)n2cc(C(=O)C(=O)NCC(=O)N[C@@H](Cc3c[nH]c4ccccc34)C(=O)OCCOC(=O)c3ccc(-c4c5nc(c(-c6cccc(S(=O)(=O)[O-])c6F)c6ccc([nH]6)c(-c6cccc(S(=O)(=O)[O-])c6F)c6nc(c(-c7cccc(S(=O)(=O)[O-])c7F)c7ccc4[nH]7)C=C6)C=C5)cc3)c3ccccc32)cc1
REMARK SMILES IDX 32 1 33 2 21 3 20 4 18 5 19 6 17 8 16 9 14 10 15 11 12 13
REMARK SMILES IDX 13 14 11 15 9 16 10 17 108 18 103 19 107 20 104 21 106 22
REMARK SMILES IDX 105 23 6 24 7 25 8 26 5 27 1 28 2 29 3 30 110 31 4 32 109 33
REMARK SMILES IDX 22 34 23 35 24 36 31 37 25 38 26 39 30 40 27 42 29 43 28 44
REMARK SMILES IDX 34 45 35 46 36 47 37 48 38 49 39 50 40 51 41 52 102 53 42 54
REMARK SMILES IDX 101 55 43 56 44 57 45 58 95 59 46 60 100 61 94 62 96 63
REMARK SMILES IDX 47 64 99 65 93 66 92 67 48 69 80 70 60 71 79 72 61 73 64 74
REMARK SMILES IDX 78 75 97 76 62 77 63 78 77 80 98 81 65 82 49 83 50 84 58 85
REMARK SMILES IDX 51 86 53 87 59 88 52 89 54 90 55 91 56 92 57 93 81 94 82 95
REMARK SMILES IDX 90 96 83 97 85 98 91 99 84 100 86 101 87 102 88 103 89 104
REMARK SMILES IDX 66 105 67 106 75 107 68 108 70 109 76 110 69 111 71 112
REMARK SMILES IDX 72 113 73 114 74 115
REMARK H PARENT 20 7 16 12 25 41 96 68 64 79
REMARK Flexibility Score: inf
ROOT
ATOM      1  C   UNL     1     -11.146   0.672   3.968  1.00  0.00     0.329 C 
ATOM      2  O   UNL     1     -10.514   0.642   5.017  1.00  0.00    -0.250 OA
ENDROOT
BRANCH   1   3
ATOM      3  C   UNL     1     -11.042   1.833   2.961  1.00  0.00     0.196 C 
BRANCH   3   4
ATOM      4  N   UNL     1     -12.108   1.902   1.961  1.00  0.00    -0.341 N 
ATOM      5  C   UNL     1     -12.032   1.893   0.597  1.00  0.00     0.240 C 
ATOM      6  O   UNL     1     -13.090   2.099  -0.010  1.00  0.00    -0.273 OA
ATOM      7  H   UNL     1     -13.020   1.964   2.327  1.00  0.00     0.164 HD
BRANCH   5   8
ATOM      8  C   UNL     1     -10.717   1.578  -0.184  1.00  0.00     0.216 C 
BRANCH   8   9
ATOM      9  N   UNL     1      -9.637   2.568  -0.216  1.00  0.00    -0.340 N 
ATOM     10  C   UNL     1      -8.430   2.501  -0.942  1.00  0.00     0.292 C 
ATOM     11  O   UNL     1      -7.753   3.513  -1.102  1.00  0.00    -0.265 OA
ATOM     12  H   UNL     1      -9.769   3.375   0.333  1.00  0.00     0.164 HD
BRANCH  10  13
ATOM     13  C   UNL     1      -8.058   1.214  -1.710  1.00  0.00     0.252 C 
ATOM     14  O   UNL     1      -8.981   0.750  -2.393  1.00  0.00    -0.283 OA
BRANCH  13  15
ATOM     15  C   UNL     1      -6.757   0.487  -1.656  1.00  0.00     0.054 A 
ATOM     16  N   UNL     1      -4.617  -0.178  -1.286  1.00  0.00    -0.240 N 
ATOM     17  C   UNL     1      -5.410   0.916  -1.627  1.00  0.00     0.117 A 
ATOM     18  C   UNL     1      -5.396  -1.344  -1.450  1.00  0.00     0.065 A 
ATOM     19  C   UNL     1      -6.715  -0.953  -1.636  1.00  0.00     0.012 A 
ATOM     20  C   UNL     1      -5.053  -2.720  -1.369  1.00  0.00     0.028 A 
ATOM     21  C   UNL     1      -7.703  -1.970  -1.696  1.00  0.00     0.011 A 
ATOM     22  C   UNL     1      -6.043  -3.690  -1.375  1.00  0.00     0.002 A 
ATOM     23  C   UNL     1      -7.360  -3.320  -1.545  1.00  0.00     0.001 A 
BRANCH  16  24
ATOM     24  S   UNL     1      -2.936  -0.478  -1.134  1.00  0.00     0.268 S 
ATOM     25  O   UNL     1      -2.620  -0.904  -2.498  1.00  0.00    -0.201 OA
ATOM     26  O   UNL     1      -3.004  -1.490  -0.076  1.00  0.00    -0.201 OA
BRANCH  24  27
ATOM     27  C   UNL     1      -1.395   0.212  -0.617  1.00  0.00     0.088 A 
ATOM     28  C   UNL     1       2.870   0.701   0.156  1.00  0.00     0.044 C 
ATOM     29  C   UNL     1       1.386   0.585  -0.054  1.00  0.00    -0.051 A 
ATOM     30  C   UNL     1       0.884  -0.696  -0.163  1.00  0.00     0.005 A 
ATOM     31  C   UNL     1       0.486   1.672  -0.177  1.00  0.00     0.005 A 
ATOM     32  C   UNL     1      -0.458  -0.861  -0.449  1.00  0.00     0.022 A 
ATOM     33  C   UNL     1      -0.913   1.497  -0.454  1.00  0.00     0.022 A 
ENDBRANCH  24  27
ENDBRANCH  16  24
ENDBRANCH  13  15
ENDBRANCH  10  13
ENDBRANCH   8   9
ENDBRANCH   5   8
ENDBRANCH   3   4
BRANCH   3  34
ATOM     34  C   UNL     1     -10.826   3.197   3.650  1.00  0.00     0.074 C 
BRANCH  34  35
ATOM     35  C   UNL     1     -11.492   3.524   4.971  1.00  0.00    -0.020 A 
ATOM     36  C   UNL     1     -12.181   2.720   5.866  1.00  0.00     0.087 A 
ATOM     37  C   UNL     1     -11.368   4.805   5.619  1.00  0.00     0.003 A 
ATOM     38  N   UNL     1     -12.258   3.375   7.068  1.00  0.00    -0.361 N 
ATOM     39  C   UNL     1     -11.860   4.672   6.915  1.00  0.00     0.046 A 
ATOM     40  C   UNL     1     -10.816   6.049   5.246  1.00  0.00     0.010 A 
ATOM     41  H   UNL     1     -12.556   2.970   7.915  1.00  0.00     0.166 HD
ATOM     42  C   UNL     1     -11.841   5.703   7.849  1.00  0.00     0.026 A 
ATOM     43  C   UNL     1     -10.805   7.104   6.167  1.00  0.00     0.001 A 
ATOM     44  C   UNL     1     -11.308   6.928   7.451  1.00  0.00     0.002 A 
ENDBRANCH  34  35
ENDBRANCH   3  34
ENDBRANCH   1   3
BRANCH   1  45
ATOM     45  O   UNL     1     -11.928  -0.383   3.572  1.00  0.00    -0.461 OA
BRANCH  45  46
ATOM     46  C   UNL     1     -11.962  -1.446   4.546  1.00  0.00     0.274 C 
BRANCH  46  47
ATOM     47  C   UNL     1     -11.910  -2.862   3.955  1.00  0.00     0.275 C 
BRANCH  47  48
ATOM     48  O   UNL     1     -10.957  -3.236   2.927  1.00  0.00    -0.458 OA
BRANCH  48  49
ATOM     49  C   UNL     1     -10.121  -2.366   2.305  1.00  0.00     0.338 C 
ATOM     50  O   UNL     1     -10.130  -2.185   1.108  1.00  0.00    -0.246 OA
BRANCH  49  51
ATOM     51  C   UNL     1      -9.139  -1.731   3.210  1.00  0.00     0.060 A 
ATOM     52  C   UNL     1      -8.586  -0.493   2.850  1.00  0.00     0.016 A 
ATOM     53  C   UNL     1      -8.889  -2.285   4.460  1.00  0.00     0.016 A 
ATOM     54  C   UNL     1      -7.868   0.253   3.788  1.00  0.00     0.010 A 
ATOM     55  C   UNL     1      -8.241  -1.521   5.400  1.00  0.00     0.010 A 
ATOM     56  C   UNL     1      -7.691  -0.270   5.060  1.00  0.00    -0.014 A 
BRANCH  56  57
ATOM     57  C   UNL     1      -6.811   0.303   6.072  1.00  0.00     0.031 A 
ATOM     58  C   UNL     1      -7.047   1.617   6.711  1.00  0.00     0.074 A 
ATOM     59  C   UNL     1      -5.839  -0.565   6.446  1.00  0.00     0.049 A 
ATOM     60  N   UNL     1      -6.157   2.242   7.401  1.00  0.00    -0.248 NA
ATOM     61  C   UNL     1      -8.299   2.363   6.631  1.00  0.00     0.031 C 
ATOM     62  C   UNL     1      -4.998  -0.612   7.621  1.00  0.00     0.029 A 
ATOM     63  N   UNL     1      -5.345  -1.621   5.660  1.00  0.00    -0.354 N 
ATOM     64  C   UNL     1      -6.793   3.264   8.091  1.00  0.00     0.074 A 
ATOM     65  C   UNL     1      -8.090   3.374   7.486  1.00  0.00     0.031 C 
ATOM     66  C   UNL     1      -3.948  -1.421   7.365  1.00  0.00     0.029 A 
ATOM     67  C   UNL     1      -3.983  -1.720   5.937  1.00  0.00     0.049 A 
ATOM     68  H   UNL     1      -5.860  -2.181   5.035  1.00  0.00     0.167 HD
ATOM     69  C   UNL     1      -6.194   3.743   9.218  1.00  0.00     0.034 A 
ATOM     70  C   UNL     1      -3.024  -1.370   5.019  1.00  0.00     0.034 A 
ATOM     71  C   UNL     1      -4.856   3.141   9.334  1.00  0.00     0.049 A 
ATOM     72  C   UNL     1      -2.138  -0.256   5.543  1.00  0.00     0.074 A 
ATOM     73  C   UNL     1      -4.422   2.004   9.995  1.00  0.00     0.029 A 
ATOM     74  N   UNL     1      -3.865   3.476   8.420  1.00  0.00    -0.354 N 
ATOM     75  N   UNL     1      -2.482   0.546   6.509  1.00  0.00    -0.248 NA
ATOM     76  C   UNL     1      -0.849   0.091   4.955  1.00  0.00     0.031 C 
ATOM     77  C   UNL     1      -3.203   1.596   9.396  1.00  0.00     0.029 A 
ATOM     78  C   UNL     1      -2.880   2.499   8.398  1.00  0.00     0.049 A 
ATOM     79  H   UNL     1      -3.863   4.291   7.867  1.00  0.00     0.167 HD
ATOM     80  C   UNL     1      -1.560   1.544   6.630  1.00  0.00     0.074 A 
ATOM     81  C   UNL     1      -0.526   1.181   5.672  1.00  0.00     0.031 C 
ATOM     82  C   UNL     1      -1.757   2.604   7.471  1.00  0.00     0.034 A 
BRANCH  69  83
ATOM     83  C   UNL     1      -6.858   4.450  10.405  1.00  0.00     0.023 A 
ATOM     84  C   UNL     1      -6.141   4.367  11.628  1.00  0.00     0.012 A 
ATOM     85  C   UNL     1      -8.113   5.108  10.481  1.00  0.00     0.148 A 
ATOM     86  C   UNL     1      -6.642   4.813  12.852  1.00  0.00     0.002 A 
ATOM     87  C   UNL     1      -8.617   5.567  11.716  1.00  0.00     0.091 A 
ATOM     88  F   UNL     1      -8.831   5.306   9.372  1.00  0.00    -0.205 F 
ATOM     89  C   UNL     1      -7.888   5.403  12.898  1.00  0.00     0.022 A 
BRANCH  87  90
ATOM     90  S   UNL     1     -10.214   6.379  11.939  1.00  0.00     0.127 S 
ATOM     91  O   UNL     1     -10.938   5.414  12.769  1.00  0.00    -0.237 OA
ATOM     92  O   UNL     1      -9.852   7.617  12.628  1.00  0.00    -0.237 OA
ATOM     93  O   UNL     1     -10.773   6.571  10.611  1.00  0.00    -0.744 OA
ENDBRANCH  87  90
ENDBRANCH  69  83
BRANCH  70  94
ATOM     94  C   UNL     1      -3.521  -1.343   3.596  1.00  0.00     0.023 A 
ATOM     95  C   UNL     1      -4.168  -2.488   3.068  1.00  0.00     0.012 A 
ATOM     96  C   UNL     1      -3.789  -0.091   3.024  1.00  0.00     0.148 A 
ATOM     97  C   UNL     1      -5.228  -2.340   2.171  1.00  0.00     0.002 A 
ATOM     98  C   UNL     1      -4.854   0.051   2.157  1.00  0.00     0.091 A 
ATOM     99  F   UNL     1      -3.065   0.978   3.374  1.00  0.00    -0.205 F 
ATOM    100  C   UNL     1      -5.602  -1.062   1.762  1.00  0.00     0.022 A 
BRANCH  98 101
ATOM    101  S   UNL     1      -5.295   1.708   1.648  1.00  0.00     0.127 S 
ATOM    102  O   UNL     1      -4.215   2.005   0.707  1.00  0.00    -0.237 OA
ATOM    103  O   UNL     1      -6.618   1.518   1.052  1.00  0.00    -0.237 OA
ATOM    104  O   UNL     1      -5.323   2.474   2.882  1.00  0.00    -0.744 OA
ENDBRANCH  98 101
ENDBRANCH  70  94
BRANCH  82 105
ATOM    105  C   UNL     1      -0.883   3.831   7.526  1.00  0.00     0.023 A 
ATOM    106  C   UNL     1      -0.100   4.247   6.434  1.00  0.00     0.012 A 
ATOM    107  C   UNL     1      -0.920   4.688   8.654  1.00  0.00     0.148 A 
ATOM    108  C   UNL     1       0.695   5.394   6.497  1.00  0.00     0.002 A 
ATOM    109  C   UNL     1      -0.240   5.898   8.653  1.00  0.00     0.091 A 
ATOM    110  F   UNL     1      -1.597   4.328   9.754  1.00  0.00    -0.205 F 
ATOM    111  C   UNL     1       0.610   6.232   7.600  1.00  0.00     0.022 A 
BRANCH 109 112
ATOM    112  S   UNL     1      -0.571   7.128   9.920  1.00  0.00     0.127 S 
ATOM    113  O   UNL     1       0.452   6.824  10.917  1.00  0.00    -0.237 OA
ATOM    114  O   UNL     1      -0.363   8.386   9.198  1.00  0.00    -0.237 OA
ATOM    115  O   UNL     1      -1.953   6.895  10.319  1.00  0.00    -0.744 OA
ENDBRANCH 109 112
ENDBRANCH  82 105
ENDBRANCH  56  57
ENDBRANCH  49  51
ENDBRANCH  48  49
ENDBRANCH  47  48
ENDBRANCH  46  47
ENDBRANCH  45  46
ENDBRANCH   1  45
TORSDOF 23
