REMARK SMILES CCCCn1c(C[N@H+]2C[C@H]3C(=O)NC[C@@]3(C(=O)OCCOC(=O)c3ccc(-c4c5nc(c(-c6cccc(S(=O)(=O)[O-])c6F)c6ccc([nH]6)c(-c6cccc(S(=O)(=O)[O-])c6F)c6nc(c(-c7cccc(S(=O)(=O)[O-])c7F)c7ccc4[nH]7)C=C6)C=C5)cc3)C2)nc2ccccc21
REMARK SMILES IDX 19 1 18 2 16 3 17 4 15 5 8 6 9 7 87 8 10 10 11 11 14 12
REMARK SMILES IDX 12 13 13 14 7 16 6 17 5 18 94 19 88 20 89 21 93 22 90 23
REMARK SMILES IDX 92 24 91 25 4 26 3 27 2 28 1 29 20 30 21 31 22 32 23 33
REMARK SMILES IDX 24 34 25 35 86 36 26 37 85 38 27 39 28 40 29 41 79 42 30 43
REMARK SMILES IDX 84 44 78 45 80 46 31 47 83 48 77 49 76 50 32 52 64 53 44 54
REMARK SMILES IDX 63 55 45 56 48 57 62 58 81 59 46 60 47 61 61 63 82 64 49 65
REMARK SMILES IDX 33 66 34 67 42 68 35 69 37 70 43 71 36 72 38 73 39 74 40 75
REMARK SMILES IDX 41 76 65 77 66 78 74 79 67 80 69 81 75 82 68 83 70 84 71 85
REMARK SMILES IDX 72 86 73 87 50 88 51 89 59 90 52 91 54 92 60 93 53 94 55 95
REMARK SMILES IDX 56 96 57 97 58 98
REMARK H PARENT 8 9 13 15 80 51 48 62
REMARK Flexibility Score: inf
ROOT
ATOM      1  C   UNL     1      -6.519   1.119  -0.140  1.00  0.00     0.274 C 
ENDROOT
BRANCH   1   2
ATOM      2  O   UNL     1      -5.271   0.487   0.155  1.00  0.00    -0.461 OA
BRANCH   2   3
ATOM      3  C   UNL     1      -5.254  -0.817   0.552  1.00  0.00     0.320 C 
ATOM      4  O   UNL     1      -6.266  -1.300   1.030  1.00  0.00    -0.251 OA
BRANCH   3   5
ATOM      5  C   UNL     1      -3.816  -1.421   0.572  1.00  0.00     0.151 C 
ATOM      6  N   UNL     1      -1.700  -0.606  -0.395  1.00  0.00    -0.327 N 
ATOM      7  C   UNL     1      -1.522  -2.012  -0.062  1.00  0.00     0.277 C 
ATOM      8  C   UNL     1      -3.129  -0.466  -0.425  1.00  0.00     0.284 C 
ATOM      9  H   UNL     1      -1.167  -0.437  -1.248  1.00  0.00     0.348 HD
ATOM     10  C   UNL     1      -2.942  -2.627   0.104  1.00  0.00     0.158 C 
ATOM     11  C   UNL     1      -2.659  -3.553   1.249  1.00  0.00     0.230 C 
ATOM     12  C   UNL     1      -3.836  -1.820   2.046  1.00  0.00     0.141 C 
ATOM     13  O   UNL     1      -2.194  -4.682   1.176  1.00  0.00    -0.275 OA
ATOM     14  N   UNL     1      -2.877  -2.814   2.370  1.00  0.00    -0.354 N 
ATOM     15  H   UNL     1      -2.447  -2.945   3.246  1.00  0.00     0.163 HD
BRANCH   6  16
ATOM     16  C   UNL     1      -1.166   0.436   0.503  1.00  0.00     0.339 C 
BRANCH  16  17
ATOM     17  C   UNL     1      -1.577   0.431   1.945  1.00  0.00     0.165 A 
ATOM     18  N   UNL     1      -0.743   0.086   2.992  1.00  0.00    -0.323 N 
ATOM     19  C   UNL     1      -1.506   0.090   4.152  1.00  0.00     0.068 A 
ATOM     20  N   UNL     1      -2.756   0.827   2.401  1.00  0.00    -0.227 NA
ATOM     21  C   UNL     1      -2.753   0.554   3.750  1.00  0.00     0.089 A 
ATOM     22  C   UNL     1      -1.257  -0.269   5.485  1.00  0.00     0.028 A 
ATOM     23  C   UNL     1      -3.832   0.566   4.660  1.00  0.00     0.030 A 
ATOM     24  C   UNL     1      -2.340  -0.243   6.380  1.00  0.00     0.002 A 
ATOM     25  C   UNL     1      -3.618   0.135   5.971  1.00  0.00     0.002 A 
BRANCH  18  26
ATOM     26  C   UNL     1       0.710   0.049   2.937  1.00  0.00     0.124 C 
BRANCH  26  27
ATOM     27  C   UNL     1       1.430  -1.166   2.323  1.00  0.00     0.022 C 
BRANCH  27  28
ATOM     28  C   UNL     1       1.730  -1.218   0.812  1.00  0.00    -0.002 C 
ATOM     29  C   UNL     1       2.321   0.017   0.145  1.00  0.00     0.004 C 
ENDBRANCH  27  28
ENDBRANCH  26  27
ENDBRANCH  18  26
ENDBRANCH  16  17
ENDBRANCH   6  16
ENDBRANCH   3   5
ENDBRANCH   2   3
ENDBRANCH   1   2
BRANCH   1  30
ATOM     30  C   UNL     1      -6.925   0.711  -1.559  1.00  0.00     0.275 C 
BRANCH  30  31
ATOM     31  O   UNL     1      -7.526  -0.602  -1.515  1.00  0.00    -0.458 OA
BRANCH  31  32
ATOM     32  C   UNL     1      -6.847  -1.617  -2.114  1.00  0.00     0.338 C 
ATOM     33  O   UNL     1      -6.033  -1.488  -3.017  1.00  0.00    -0.246 OA
BRANCH  32  34
ATOM     34  C   UNL     1      -6.952  -2.836  -1.252  1.00  0.00     0.060 A 
ATOM     35  C   UNL     1      -7.955  -3.002  -0.286  1.00  0.00     0.016 A 
ATOM     36  C   UNL     1      -5.801  -3.610  -1.163  1.00  0.00     0.016 A 
ATOM     37  C   UNL     1      -7.687  -3.735   0.891  1.00  0.00     0.010 A 
ATOM     38  C   UNL     1      -5.538  -4.303   0.021  1.00  0.00     0.010 A 
ATOM     39  C   UNL     1      -6.416  -4.280   1.119  1.00  0.00    -0.014 A 
BRANCH  39  40
ATOM     40  C   UNL     1      -6.125  -5.173   2.276  1.00  0.00     0.031 A 
ATOM     41  C   UNL     1      -6.521  -6.529   1.830  1.00  0.00     0.074 A 
ATOM     42  C   UNL     1      -5.590  -4.996   3.523  1.00  0.00     0.049 A 
ATOM     43  N   UNL     1      -7.704  -7.019   2.020  1.00  0.00    -0.248 NA
ATOM     44  C   UNL     1      -5.729  -7.249   0.815  1.00  0.00     0.031 C 
ATOM     45  C   UNL     1      -5.085  -3.790   4.188  1.00  0.00     0.029 A 
ATOM     46  N   UNL     1      -5.288  -5.941   4.487  1.00  0.00    -0.354 N 
ATOM     47  C   UNL     1      -7.652  -8.258   1.412  1.00  0.00     0.074 A 
ATOM     48  C   UNL     1      -6.593  -8.198   0.443  1.00  0.00     0.031 C 
ATOM     49  C   UNL     1      -4.248  -4.107   5.210  1.00  0.00     0.029 A 
ATOM     50  C   UNL     1      -4.349  -5.529   5.455  1.00  0.00     0.049 A 
ATOM     51  H   UNL     1      -5.698  -6.835   4.497  1.00  0.00     0.167 HD
ATOM     52  C   UNL     1      -8.141  -9.340   2.069  1.00  0.00     0.034 A 
ATOM     53  C   UNL     1      -3.779  -6.269   6.450  1.00  0.00     0.034 A 
ATOM     54  C   UNL     1      -8.965  -8.957   3.185  1.00  0.00     0.049 A 
ATOM     55  C   UNL     1      -4.775  -7.305   6.762  1.00  0.00     0.074 A 
ATOM     56  C   UNL     1     -10.116  -8.219   3.370  1.00  0.00     0.029 A 
ATOM     57  N   UNL     1      -8.300  -8.984   4.381  1.00  0.00    -0.354 N 
ATOM     58  N   UNL     1      -5.926  -7.053   7.317  1.00  0.00    -0.248 NA
ATOM     59  C   UNL     1      -4.624  -8.614   6.153  1.00  0.00     0.031 C 
ATOM     60  C   UNL     1      -9.985  -7.608   4.651  1.00  0.00     0.029 A 
ATOM     61  C   UNL     1      -8.796  -8.043   5.234  1.00  0.00     0.049 A 
ATOM     62  H   UNL     1      -7.564  -9.600   4.597  1.00  0.00     0.167 HD
ATOM     63  C   UNL     1      -6.774  -7.939   6.681  1.00  0.00     0.074 A 
ATOM     64  C   UNL     1      -5.907  -8.976   6.131  1.00  0.00     0.031 C 
ATOM     65  C   UNL     1      -8.043  -7.560   6.369  1.00  0.00     0.034 A 
BRANCH  52  66
ATOM     66  C   UNL     1      -7.431 -10.669   2.039  1.00  0.00     0.023 A 
ATOM     67  C   UNL     1      -8.151 -11.808   2.432  1.00  0.00     0.012 A 
ATOM     68  C   UNL     1      -6.028 -10.808   1.896  1.00  0.00     0.148 A 
ATOM     69  C   UNL     1      -7.508 -13.037   2.618  1.00  0.00     0.002 A 
ATOM     70  C   UNL     1      -5.414 -12.046   1.967  1.00  0.00     0.091 A 
ATOM     71  F   UNL     1      -5.250  -9.721   1.859  1.00  0.00    -0.205 F 
ATOM     72  C   UNL     1      -6.148 -13.166   2.349  1.00  0.00     0.022 A 
BRANCH  70  73
ATOM     73  S   UNL     1      -3.674 -12.248   1.575  1.00  0.00     0.127 S 
ATOM     74  O   UNL     1      -3.103 -12.483   2.897  1.00  0.00    -0.237 OA
ATOM     75  O   UNL     1      -3.704 -13.415   0.692  1.00  0.00    -0.237 OA
ATOM     76  O   UNL     1      -3.282 -11.011   0.912  1.00  0.00    -0.744 OA
ENDBRANCH  70  73
ENDBRANCH  52  66
BRANCH  53  77
ATOM     77  C   UNL     1      -2.437  -6.325   7.118  1.00  0.00     0.023 A 
ATOM     78  C   UNL     1      -2.258  -7.207   8.219  1.00  0.00     0.012 A 
ATOM     79  C   UNL     1      -1.273  -5.839   6.490  1.00  0.00     0.148 A 
ATOM     80  C   UNL     1      -0.993  -7.682   8.596  1.00  0.00     0.002 A 
ATOM     81  C   UNL     1      -0.010  -6.307   6.877  1.00  0.00     0.091 A 
ATOM     82  F   UNL     1      -1.407  -4.988   5.464  1.00  0.00    -0.205 F 
ATOM     83  C   UNL     1       0.130  -7.251   7.906  1.00  0.00     0.022 A 
BRANCH  81  84
ATOM     84  S   UNL     1       1.506  -5.773   6.065  1.00  0.00     0.127 S 
ATOM     85  O   UNL     1       2.421  -5.601   7.195  1.00  0.00    -0.237 OA
ATOM     86  O   UNL     1       1.813  -6.910   5.203  1.00  0.00    -0.237 OA
ATOM     87  O   UNL     1       1.166  -4.526   5.389  1.00  0.00    -0.744 OA
ENDBRANCH  81  84
ENDBRANCH  53  77
BRANCH  65  88
ATOM     88  C   UNL     1      -8.674  -6.456   7.164  1.00  0.00     0.023 A 
ATOM     89  C   UNL     1      -8.360  -5.093   6.999  1.00  0.00     0.012 A 
ATOM     90  C   UNL     1      -9.775  -6.824   7.953  1.00  0.00     0.148 A 
ATOM     91  C   UNL     1      -9.162  -4.113   7.597  1.00  0.00     0.002 A 
ATOM     92  C   UNL     1     -10.592  -5.851   8.502  1.00  0.00     0.091 A 
ATOM     93  F   UNL     1     -10.033  -8.133   8.098  1.00  0.00    -0.205 F 
ATOM     94  C   UNL     1     -10.290  -4.492   8.328  1.00  0.00     0.022 A 
BRANCH  92  95
ATOM     95  S   UNL     1     -12.117  -6.278   9.344  1.00  0.00     0.127 S 
ATOM     96  O   UNL     1     -11.857  -5.805  10.703  1.00  0.00    -0.237 OA
ATOM     97  O   UNL     1     -13.106  -5.496   8.601  1.00  0.00    -0.237 OA
ATOM     98  O   UNL     1     -12.269  -7.721   9.212  1.00  0.00    -0.744 OA
ENDBRANCH  92  95
ENDBRANCH  65  88
ENDBRANCH  39  40
ENDBRANCH  32  34
ENDBRANCH  31  32
ENDBRANCH  30  31
ENDBRANCH   1  30
TORSDOF 19
