REMARK SMILES CCn1nc(C(=O)OCCOC(=O)c2ccc(-c3c4nc(c(-c5cccc(S(=O)(=O)[O-])c5F)c5ccc([nH]5)c(-c5cccc(S(=O)(=O)[O-])c5F)c5nc(c(-c6cccc(S(=O)(=O)[O-])c6F)c6ccc3[nH]6)C=C5)C=C4)cc2)c2c1CC[C@H]([NH2+]Cc1nn(CC)c3ccccc13)C2
REMARK SMILES IDX 9 1 8 2 6 3 7 4 5 5 3 6 4 7 78 8 77 9 79 10 95 11 80 12
REMARK SMILES IDX 81 13 2 14 1 15 82 16 83 19 84 20 85 21 94 22 86 23 89 24
REMARK SMILES IDX 93 25 90 26 92 27 91 28 87 29 88 30 10 31 11 32 12 33 13 34
REMARK SMILES IDX 14 35 15 36 76 37 16 38 75 39 17 40 18 41 19 42 69 43 20 44
REMARK SMILES IDX 74 45 68 46 70 47 21 48 73 49 67 50 66 51 22 53 54 54 34 55
REMARK SMILES IDX 53 56 35 57 38 58 52 59 71 60 36 61 37 62 51 64 72 65 39 66
REMARK SMILES IDX 23 67 24 68 32 69 25 70 27 71 33 72 26 73 28 74 29 75 30 76
REMARK SMILES IDX 31 77 55 78 56 79 64 80 57 81 59 82 65 83 58 84 60 85 61 86
REMARK SMILES IDX 62 87 63 88 40 89 41 90 49 91 42 92 44 93 50 94 43 95 45 96
REMARK SMILES IDX 46 97 47 98 48 99
REMARK H PARENT 82 17 82 18 70 52 38 63
REMARK Flexibility Score: inf
ROOT
ATOM      1  C   UNL     1       1.143   6.656   2.997  1.00  0.00     0.275 C 
ENDROOT
BRANCH   1   2
ATOM      2  O   UNL     1       1.276   5.251   3.253  1.00  0.00    -0.457 OA
BRANCH   2   3
ATOM      3  C   UNL     1       0.514   4.364   2.522  1.00  0.00     0.359 C 
ATOM      4  O   UNL     1      -0.419   4.707   1.823  1.00  0.00    -0.244 OA
BRANCH   3   5
ATOM      5  C   UNL     1       0.984   2.973   2.695  1.00  0.00     0.174 A 
ATOM      6  N   UNL     1       1.199   0.861   2.415  1.00  0.00    -0.269 N 
ATOM      7  N   UNL     1       0.501   1.938   1.985  1.00  0.00    -0.165 NA
ATOM      8  C   UNL     1       2.021   1.142   3.471  1.00  0.00     0.043 A 
ATOM      9  C   UNL     1       1.927   2.497   3.636  1.00  0.00     0.014 A 
ATOM     10  C   UNL     1       2.842   0.250   4.331  1.00  0.00     0.062 C 
ATOM     11  C   UNL     1       2.537   3.230   4.749  1.00  0.00     0.105 C 
ATOM     12  C   UNL     1       3.163   0.950   5.692  1.00  0.00     0.072 C 
ATOM     13  C   UNL     1       3.556   2.461   5.590  1.00  0.00     0.187 C 
BRANCH   6  14
ATOM     14  C   UNL     1       0.926  -0.407   1.768  1.00  0.00     0.141 C 
ATOM     15  C   UNL     1       1.225  -0.364   0.276  1.00  0.00     0.029 C 
ENDBRANCH   6  14
BRANCH  13  16
ATOM     16  N   UNL     1       3.664   3.063   6.958  1.00  0.00    -0.338 N 
ATOM     17  H   UNL     1       4.378   2.548   7.473  1.00  0.00     0.346 HD
ATOM     18  H   UNL     1       2.733   2.994   7.371  1.00  0.00     0.346 HD
BRANCH  16  19
ATOM     19  C   UNL     1       4.024   4.511   6.992  1.00  0.00     0.320 C 
BRANCH  19  20
ATOM     20  C   UNL     1       2.846   5.484   6.904  1.00  0.00     0.124 A 
ATOM     21  N   UNL     1       1.570   5.072   6.786  1.00  0.00    -0.171 NA
ATOM     22  C   UNL     1       2.889   6.911   6.931  1.00  0.00     0.029 A 
ATOM     23  N   UNL     1       0.892   6.170   6.380  1.00  0.00    -0.265 N 
ATOM     24  C   UNL     1       1.668   7.309   6.388  1.00  0.00     0.069 A 
ATOM     25  C   UNL     1       3.807   7.910   7.308  1.00  0.00     0.012 A 
ATOM     26  C   UNL     1       1.399   8.635   6.016  1.00  0.00     0.028 A 
ATOM     27  C   UNL     1       3.476   9.258   7.092  1.00  0.00     0.001 A 
ATOM     28  C   UNL     1       2.322   9.608   6.395  1.00  0.00     0.002 A 
BRANCH  23  29
ATOM     29  C   UNL     1      -0.563   6.142   6.342  1.00  0.00     0.141 C 
ATOM     30  C   UNL     1      -1.240   5.589   5.097  1.00  0.00     0.029 C 
ENDBRANCH  23  29
ENDBRANCH  19  20
ENDBRANCH  16  19
ENDBRANCH  13  16
ENDBRANCH   3   5
ENDBRANCH   2   3
ENDBRANCH   1   2
BRANCH   1  31
ATOM     31  C   UNL     1       2.517   7.283   2.729  1.00  0.00     0.275 C 
BRANCH  31  32
ATOM     32  O   UNL     1       3.126   6.923   1.489  1.00  0.00    -0.458 OA
BRANCH  32  33
ATOM     33  C   UNL     1       2.749   5.726   0.990  1.00  0.00     0.338 C 
ATOM     34  O   UNL     1       3.271   4.662   1.275  1.00  0.00    -0.246 OA
BRANCH  33  35
ATOM     35  C   UNL     1       1.791   5.963  -0.114  1.00  0.00     0.060 A 
ATOM     36  C   UNL     1       2.035   5.158  -1.217  1.00  0.00     0.016 A 
ATOM     37  C   UNL     1       1.216   7.243  -0.227  1.00  0.00     0.016 A 
ATOM     38  C   UNL     1       2.186   5.818  -2.404  1.00  0.00     0.010 A 
ATOM     39  C   UNL     1       1.381   7.906  -1.399  1.00  0.00     0.010 A 
ATOM     40  C   UNL     1       1.993   7.207  -2.420  1.00  0.00    -0.014 A 
BRANCH  40  41
ATOM     41  C   UNL     1       2.296   7.918  -3.620  1.00  0.00     0.031 A 
ATOM     42  C   UNL     1       1.208   7.730  -4.583  1.00  0.00     0.074 A 
ATOM     43  C   UNL     1       3.391   8.675  -3.768  1.00  0.00     0.049 A 
ATOM     44  N   UNL     1       1.153   6.802  -5.476  1.00  0.00    -0.248 NA
ATOM     45  C   UNL     1      -0.076   8.393  -4.305  1.00  0.00     0.031 C 
ATOM     46  C   UNL     1       4.329   9.169  -2.760  1.00  0.00     0.029 A 
ATOM     47  N   UNL     1       3.816   9.266  -4.905  1.00  0.00    -0.354 N 
ATOM     48  C   UNL     1      -0.088   6.973  -6.062  1.00  0.00     0.074 A 
ATOM     49  C   UNL     1      -0.884   7.708  -5.116  1.00  0.00     0.031 C 
ATOM     50  C   UNL     1       5.055  10.179  -3.302  1.00  0.00     0.029 A 
ATOM     51  C   UNL     1       4.718  10.296  -4.712  1.00  0.00     0.049 A 
ATOM     52  H   UNL     1       3.509   8.986  -5.798  1.00  0.00     0.167 HD
ATOM     53  C   UNL     1      -0.231   6.828  -7.403  1.00  0.00     0.034 A 
ATOM     54  C   UNL     1       5.044  11.219  -5.650  1.00  0.00     0.034 A 
ATOM     55  C   UNL     1       0.927   6.191  -7.985  1.00  0.00     0.049 A 
ATOM     56  C   UNL     1       4.656  10.654  -6.973  1.00  0.00     0.074 A 
ATOM     57  C   UNL     1       1.563   4.979  -7.810  1.00  0.00     0.029 A 
ATOM     58  N   UNL     1       1.844   7.032  -8.573  1.00  0.00    -0.354 N 
ATOM     59  N   UNL     1       5.232   9.612  -7.505  1.00  0.00    -0.248 NA
ATOM     60  C   UNL     1       3.327  10.957  -7.486  1.00  0.00     0.031 C 
ATOM     61  C   UNL     1       2.955   5.268  -7.922  1.00  0.00     0.029 A 
ATOM     62  C   UNL     1       3.103   6.625  -8.217  1.00  0.00     0.049 A 
ATOM     63  H   UNL     1       1.631   7.798  -9.153  1.00  0.00     0.167 HD
ATOM     64  C   UNL     1       4.187   8.878  -8.057  1.00  0.00     0.074 A 
ATOM     65  C   UNL     1       3.063   9.810  -8.121  1.00  0.00     0.031 C 
ATOM     66  C   UNL     1       4.245   7.514  -8.121  1.00  0.00     0.034 A 
BRANCH  53  67
ATOM     67  C   UNL     1      -1.193   7.635  -8.232  1.00  0.00     0.023 A 
ATOM     68  C   UNL     1      -1.374   7.227  -9.567  1.00  0.00     0.012 A 
ATOM     69  C   UNL     1      -1.723   8.895  -7.865  1.00  0.00     0.148 A 
ATOM     70  C   UNL     1      -2.015   8.048 -10.497  1.00  0.00     0.002 A 
ATOM     71  C   UNL     1      -2.443   9.664  -8.766  1.00  0.00     0.091 A 
ATOM     72  F   UNL     1      -1.417   9.444  -6.688  1.00  0.00    -0.205 F 
ATOM     73  C   UNL     1      -2.563   9.261 -10.095  1.00  0.00     0.022 A 
BRANCH  71  74
ATOM     74  S   UNL     1      -3.211  11.212  -8.271  1.00  0.00     0.127 S 
ATOM     75  O   UNL     1      -2.351  12.189  -8.931  1.00  0.00    -0.237 OA
ATOM     76  O   UNL     1      -4.550  11.074  -8.842  1.00  0.00    -0.237 OA
ATOM     77  O   UNL     1      -3.184  11.218  -6.813  1.00  0.00    -0.744 OA
ENDBRANCH  71  74
ENDBRANCH  53  67
BRANCH  54  78
ATOM     78  C   UNL     1       5.359  12.655  -5.480  1.00  0.00     0.023 A 
ATOM     79  C   UNL     1       6.000  13.349  -6.525  1.00  0.00     0.012 A 
ATOM     80  C   UNL     1       4.783  13.409  -4.433  1.00  0.00     0.148 A 
ATOM     81  C   UNL     1       6.032  14.748  -6.548  1.00  0.00     0.002 A 
ATOM     82  C   UNL     1       4.822  14.800  -4.457  1.00  0.00     0.091 A 
ATOM     83  F   UNL     1       4.114  12.768  -3.466  1.00  0.00    -0.205 F 
ATOM     84  C   UNL     1       5.435  15.473  -5.521  1.00  0.00     0.022 A 
BRANCH  82  85
ATOM     85  S   UNL     1       4.041  15.803  -3.185  1.00  0.00     0.127 S 
ATOM     86  O   UNL     1       5.114  16.735  -2.835  1.00  0.00    -0.237 OA
ATOM     87  O   UNL     1       2.925  16.400  -3.914  1.00  0.00    -0.237 OA
ATOM     88  O   UNL     1       3.675  14.882  -2.116  1.00  0.00    -0.744 OA
ENDBRANCH  82  85
ENDBRANCH  54  78
BRANCH  66  89
ATOM     89  C   UNL     1       5.575   6.857  -7.844  1.00  0.00     0.023 A 
ATOM     90  C   UNL     1       6.208   6.914  -6.584  1.00  0.00     0.012 A 
ATOM     91  C   UNL     1       6.117   6.028  -8.839  1.00  0.00     0.148 A 
ATOM     92  C   UNL     1       7.369   6.176  -6.333  1.00  0.00     0.002 A 
ATOM     93  C   UNL     1       7.243   5.259  -8.571  1.00  0.00     0.091 A 
ATOM     94  F   UNL     1       5.502   5.984 -10.030  1.00  0.00    -0.205 F 
ATOM     95  C   UNL     1       7.879   5.338  -7.322  1.00  0.00     0.022 A 
BRANCH  93  96
ATOM     96  S   UNL     1       7.866   4.071  -9.761  1.00  0.00     0.127 S 
ATOM     97  O   UNL     1       9.052   4.750 -10.278  1.00  0.00    -0.237 OA
ATOM     98  O   UNL     1       8.146   2.903  -8.924  1.00  0.00    -0.237 OA
ATOM     99  O   UNL     1       6.790   3.866 -10.723  1.00  0.00    -0.744 OA
ENDBRANCH  93  96
ENDBRANCH  66  89
ENDBRANCH  40  41
ENDBRANCH  33  35
ENDBRANCH  32  33
ENDBRANCH  31  32
ENDBRANCH   1  31
TORSDOF 19
