REMARK SMILES C[C@H]1c2ccc(O)cc2OC(=O)[C@@H]1CC(=O)N[C@@H](CC1=c2ccccc2=NC1)C(=O)OCCOC(=O)c1ccc(-c2c3nc(c(-c4cccc(S(=O)(=O)[O-])c4F)c4ccc([nH]4)c(-c4cccc(S(=O)(=O)[O-])c4F)c4nc(c(-c5cccc(S(=O)(=O)[O-])c5F)c5ccc2[nH]5)C=C4)C=C3)cc1
REMARK SMILES IDX 32 1 31 2 29 3 30 4 18 5 17 6 15 7 16 8 14 10 13 11 1 12
REMARK SMILES IDX 2 13 3 14 4 15 9 16 11 17 5 18 8 19 10 20 12 21 6 22 7 23
REMARK SMILES IDX 19 25 20 26 21 27 28 28 22 29 26 30 27 31 23 32 25 33 24 34
REMARK SMILES IDX 33 35 34 36 35 37 36 38 37 39 38 40 99 41 39 42 98 43 40 44
REMARK SMILES IDX 41 45 42 46 92 47 43 48 97 49 91 50 93 51 44 52 96 53 90 54
REMARK SMILES IDX 89 55 45 57 77 58 57 59 76 60 58 61 61 62 75 63 94 64 59 65
REMARK SMILES IDX 60 66 74 68 95 69 62 70 46 71 47 72 55 73 48 74 50 75 56 76
REMARK SMILES IDX 49 77 51 78 52 79 53 80 54 81 78 82 79 83 87 84 80 85 82 86
REMARK SMILES IDX 88 87 81 88 83 89 84 90 85 91 86 92 63 93 64 94 72 95 65 96
REMARK SMILES IDX 67 97 73 98 66 99 68 100 69 101 70 102 71 103
REMARK H PARENT 17 9 7 24 93 56 61 67
REMARK Flexibility Score: inf
ROOT
ATOM      1  C   UNL     1      -1.723  -8.274   0.229  1.00  0.00     0.274 C 
ENDROOT
BRANCH   1   2
ATOM      2  O   UNL     1      -1.982  -6.861   0.343  1.00  0.00    -0.461 OA
BRANCH   2   3
ATOM      3  C   UNL     1      -0.877  -6.092   0.530  1.00  0.00     0.329 C 
ATOM      4  O   UNL     1       0.266  -6.534   0.615  1.00  0.00    -0.250 OA
BRANCH   3   5
ATOM      5  C   UNL     1      -1.193  -4.625   0.811  1.00  0.00     0.196 C 
BRANCH   5   6
ATOM      6  N   UNL     1      -2.356  -3.997   0.169  1.00  0.00    -0.342 N 
ATOM      7  C   UNL     1      -2.482  -2.789  -0.461  1.00  0.00     0.221 C 
ATOM      8  O   UNL     1      -3.616  -2.344  -0.652  1.00  0.00    -0.275 OA
ATOM      9  H   UNL     1      -3.181  -4.535   0.196  1.00  0.00     0.164 HD
BRANCH   7  10
ATOM     10  C   UNL     1      -1.264  -2.048  -1.005  1.00  0.00     0.116 C 
BRANCH  10  11
ATOM     11  C   UNL     1      -0.782  -0.813  -0.213  1.00  0.00     0.116 C 
ATOM     12  C   UNL     1       0.938   1.098  -0.083  1.00  0.00     0.014 C 
ATOM     13  C   UNL     1       0.542  -0.218  -0.759  1.00  0.00     0.034 C 
ATOM     14  C   UNL     1       1.632  -1.235  -0.554  1.00  0.00    -0.001 A 
ATOM     15  C   UNL     1       2.675  -1.419  -1.466  1.00  0.00     0.011 A 
ATOM     16  C   UNL     1       1.545  -2.081   0.553  1.00  0.00     0.138 A 
ATOM     17  C   UNL     1      -0.587  -1.153   1.240  1.00  0.00     0.315 C 
ATOM     18  C   UNL     1       3.532  -2.511  -1.319  1.00  0.00     0.047 A 
ATOM     19  C   UNL     1       2.370  -3.182   0.699  1.00  0.00     0.093 A 
ATOM     20  O   UNL     1       0.559  -1.882   1.533  1.00  0.00    -0.426 OA
ATOM     21  O   UNL     1      -1.408  -0.876   2.107  1.00  0.00    -0.251 OA
ATOM     22  C   UNL     1       3.322  -3.410  -0.277  1.00  0.00     0.119 A 
BRANCH  22  23
ATOM     23  O   UNL     1       3.982  -4.596  -0.236  1.00  0.00    -0.508 OA
ATOM     24  H   UNL     1       4.635  -4.791  -0.879  1.00  0.00     0.293 HD
ENDBRANCH  22  23
ENDBRANCH  10  11
ENDBRANCH   7  10
ENDBRANCH   5   6
BRANCH   5  25
ATOM     25  C   UNL     1      -1.197  -4.466   2.358  1.00  0.00     0.070 C 
BRANCH  25  26
ATOM     26  C   UNL     1      -2.409  -4.847   3.225  1.00  0.00    -0.037 C 
ATOM     27  C   UNL     1      -3.643  -4.925   2.713  1.00  0.00     0.001 A 
ATOM     28  C   UNL     1      -2.487  -3.960   4.459  1.00  0.00     0.174 C 
ATOM     29  C   UNL     1      -4.563  -6.033   2.620  1.00  0.00     0.010 A 
ATOM     30  C   UNL     1      -4.254  -3.686   3.256  1.00  0.00     0.065 A 
ATOM     31  N   UNL     1      -3.655  -3.082   4.231  1.00  0.00    -0.280 NA
ATOM     32  C   UNL     1      -5.858  -5.742   2.386  1.00  0.00     0.001 A 
ATOM     33  C   UNL     1      -5.534  -3.326   2.616  1.00  0.00     0.028 A 
ATOM     34  C   UNL     1      -6.279  -4.358   2.181  1.00  0.00     0.002 A 
ENDBRANCH  25  26
ENDBRANCH   5  25
ENDBRANCH   3   5
ENDBRANCH   2   3
ENDBRANCH   1   2
BRANCH   1  35
ATOM     35  C   UNL     1      -1.772  -8.742  -1.226  1.00  0.00     0.275 C 
BRANCH  35  36
ATOM     36  O   UNL     1      -0.672  -8.224  -1.997  1.00  0.00    -0.458 OA
BRANCH  36  37
ATOM     37  C   UNL     1      -0.891  -7.019  -2.578  1.00  0.00     0.338 C 
ATOM     38  O   UNL     1      -1.929  -6.375  -2.540  1.00  0.00    -0.246 OA
BRANCH  37  39
ATOM     39  C   UNL     1       0.372  -6.487  -3.132  1.00  0.00     0.060 A 
ATOM     40  C   UNL     1       1.289  -7.279  -3.829  1.00  0.00     0.016 A 
ATOM     41  C   UNL     1       0.626  -5.127  -2.955  1.00  0.00     0.016 A 
ATOM     42  C   UNL     1       2.476  -6.711  -4.319  1.00  0.00     0.010 A 
ATOM     43  C   UNL     1       1.810  -4.569  -3.433  1.00  0.00     0.010 A 
ATOM     44  C   UNL     1       2.762  -5.356  -4.100  1.00  0.00    -0.014 A 
BRANCH  44  45
ATOM     45  C   UNL     1       3.991  -4.714  -4.640  1.00  0.00     0.031 A 
ATOM     46  C   UNL     1       5.305  -4.766  -3.906  1.00  0.00     0.074 A 
ATOM     47  C   UNL     1       3.890  -3.968  -5.756  1.00  0.00     0.049 A 
ATOM     48  N   UNL     1       6.404  -4.090  -4.130  1.00  0.00    -0.248 NA
ATOM     49  C   UNL     1       5.371  -5.624  -2.719  1.00  0.00     0.031 C 
ATOM     50  C   UNL     1       2.661  -3.760  -6.523  1.00  0.00     0.029 A 
ATOM     51  N   UNL     1       4.836  -3.240  -6.428  1.00  0.00    -0.354 N 
ATOM     52  C   UNL     1       7.246  -4.350  -3.051  1.00  0.00     0.074 A 
ATOM     53  C   UNL     1       6.520  -5.241  -2.172  1.00  0.00     0.031 C 
ATOM     54  C   UNL     1       2.932  -2.965  -7.570  1.00  0.00     0.029 A 
ATOM     55  C   UNL     1       4.353  -2.625  -7.556  1.00  0.00     0.049 A 
ATOM     56  H   UNL     1       5.771  -3.165  -6.130  1.00  0.00     0.167 HD
ATOM     57  C   UNL     1       8.516  -3.918  -2.838  1.00  0.00     0.034 A 
ATOM     58  C   UNL     1       4.991  -1.905  -8.498  1.00  0.00     0.034 A 
ATOM     59  C   UNL     1       9.299  -3.240  -3.839  1.00  0.00     0.049 A 
ATOM     60  C   UNL     1       6.475  -1.706  -8.396  1.00  0.00     0.074 A 
ATOM     61  C   UNL     1      10.655  -2.953  -3.820  1.00  0.00     0.029 A 
ATOM     62  N   UNL     1       8.819  -2.808  -5.064  1.00  0.00    -0.354 N 
ATOM     63  N   UNL     1       7.280  -2.045  -7.420  1.00  0.00    -0.248 NA
ATOM     64  C   UNL     1       7.149  -1.078  -9.542  1.00  0.00     0.031 C 
ATOM     65  C   UNL     1      11.001  -2.385  -5.049  1.00  0.00     0.029 A 
ATOM     66  C   UNL     1       9.858  -2.308  -5.829  1.00  0.00     0.049 A 
ATOM     67  H   UNL     1       7.878  -2.851  -5.349  1.00  0.00     0.167 HD
ATOM     68  C   UNL     1       8.557  -1.696  -7.841  1.00  0.00     0.074 A 
ATOM     69  C   UNL     1       8.423  -1.134  -9.169  1.00  0.00     0.031 C 
ATOM     70  C   UNL     1       9.729  -1.816  -7.175  1.00  0.00     0.034 A 
BRANCH  57  71
ATOM     71  C   UNL     1       9.221  -4.282  -1.549  1.00  0.00     0.023 A 
ATOM     72  C   UNL     1       9.601  -5.620  -1.323  1.00  0.00     0.012 A 
ATOM     73  C   UNL     1       9.652  -3.285  -0.643  1.00  0.00     0.148 A 
ATOM     74  C   UNL     1      10.360  -5.969  -0.206  1.00  0.00     0.002 A 
ATOM     75  C   UNL     1      10.450  -3.636   0.445  1.00  0.00     0.091 A 
ATOM     76  F   UNL     1       9.307  -2.012  -0.881  1.00  0.00    -0.205 F 
ATOM     77  C   UNL     1      10.792  -4.979   0.669  1.00  0.00     0.022 A 
BRANCH  75  78
ATOM     78  S   UNL     1      11.152  -2.435   1.586  1.00  0.00     0.127 S 
ATOM     79  O   UNL     1      10.549  -2.842   2.856  1.00  0.00    -0.237 OA
ATOM     80  O   UNL     1      12.584  -2.713   1.478  1.00  0.00    -0.237 OA
ATOM     81  O   UNL     1      10.742  -1.124   1.102  1.00  0.00    -0.744 OA
ENDBRANCH  75  78
ENDBRANCH  57  71
BRANCH  58  82
ATOM     82  C   UNL     1       4.232  -1.484  -9.701  1.00  0.00     0.023 A 
ATOM     83  C   UNL     1       4.332  -2.267 -10.868  1.00  0.00     0.012 A 
ATOM     84  C   UNL     1       3.335  -0.402  -9.665  1.00  0.00     0.148 A 
ATOM     85  C   UNL     1       3.556  -1.973 -11.987  1.00  0.00     0.002 A 
ATOM     86  C   UNL     1       2.539  -0.136 -10.771  1.00  0.00     0.091 A 
ATOM     87  F   UNL     1       3.256   0.317  -8.536  1.00  0.00    -0.205 F 
ATOM     88  C   UNL     1       2.653  -0.915 -11.935  1.00  0.00     0.022 A 
BRANCH  86  89
ATOM     89  S   UNL     1       1.267   1.132 -10.766  1.00  0.00     0.127 S 
ATOM     90  O   UNL     1       1.802   2.092 -11.728  1.00  0.00    -0.237 OA
ATOM     91  O   UNL     1       0.097   0.384 -11.225  1.00  0.00    -0.237 OA
ATOM     92  O   UNL     1       1.183   1.600  -9.389  1.00  0.00    -0.744 OA
ENDBRANCH  86  89
ENDBRANCH  58  82
BRANCH  70  93
ATOM     93  C   UNL     1      10.989  -1.360  -7.855  1.00  0.00     0.023 A 
ATOM     94  C   UNL     1      11.304   0.012  -7.872  1.00  0.00     0.012 A 
ATOM     95  C   UNL     1      11.924  -2.296  -8.341  1.00  0.00     0.148 A 
ATOM     96  C   UNL     1      12.533   0.448  -8.366  1.00  0.00     0.002 A 
ATOM     97  C   UNL     1      13.159  -1.857  -8.802  1.00  0.00     0.091 A 
ATOM     98  F   UNL     1      11.593  -3.596  -8.322  1.00  0.00    -0.205 F 
ATOM     99  C   UNL     1      13.464  -0.485  -8.817  1.00  0.00     0.022 A 
BRANCH  97 100
ATOM    100  S   UNL     1      14.452  -2.985  -9.335  1.00  0.00     0.127 S 
ATOM    101  O   UNL     1      14.526  -2.697 -10.767  1.00  0.00    -0.237 OA
ATOM    102  O   UNL     1      15.604  -2.523  -8.560  1.00  0.00    -0.237 OA
ATOM    103  O   UNL     1      13.988  -4.323  -8.996  1.00  0.00    -0.744 OA
ENDBRANCH  97 100
ENDBRANCH  70  93
ENDBRANCH  44  45
ENDBRANCH  37  39
ENDBRANCH  36  37
ENDBRANCH  35  36
ENDBRANCH   1  35
TORSDOF 20
