REMARK SMILES Cc1ccccc1CCNC(=O)N[C@H](C)C(=O)OCCOC(=O)c1ccc(-c2c3nc(c(-c4cccc(S(=O)(=O)[O-])c4F)c4ccc([nH]4)c(-c4cccc(S(=O)(=O)[O-])c4F)c4nc(c(-c5cccc(S(=O)(=O)[O-])c5F)c5ccc2[nH]5)C=C4)C=C3)cc1
REMARK SMILES IDX 19 1 18 2 16 3 17 4 14 5 15 6 13 7 10 8 11 9 12 11 9 13 8 14
REMARK SMILES IDX 7 15 1 16 2 17 3 18 4 19 6 20 5 21 20 22 21 23 22 24 23 25
REMARK SMILES IDX 24 26 25 27 86 28 26 29 85 30 27 31 28 32 29 33 79 34 30 35
REMARK SMILES IDX 84 36 78 37 80 38 31 39 83 40 77 41 76 42 32 44 64 45 44 46
REMARK SMILES IDX 63 47 45 48 48 49 62 50 81 51 46 52 47 53 61 55 82 56 49 57
REMARK SMILES IDX 33 58 34 59 42 60 35 61 37 62 43 63 36 64 38 65 39 66 40 67
REMARK SMILES IDX 41 68 65 69 66 70 74 71 67 72 69 73 75 74 68 75 70 76 71 77
REMARK SMILES IDX 72 78 73 79 50 80 51 81 59 82 52 83 54 84 60 85 53 86 55 87
REMARK SMILES IDX 56 88 57 89 58 90
REMARK H PARENT 10 10 13 12 80 43 48 54
REMARK Flexibility Score: inf
ROOT
ATOM      1  C   UNL     1       2.632   6.972   2.801  1.00  0.00     0.274 C 
ENDROOT
BRANCH   1   2
ATOM      2  O   UNL     1       2.418   7.300   1.421  1.00  0.00    -0.461 OA
BRANCH   2   3
ATOM      3  C   UNL     1       2.268   6.182   0.482  1.00  0.00     0.328 C 
ATOM      4  O   UNL     1       2.954   5.263   1.001  1.00  0.00    -0.250 OA
BRANCH   3   5
ATOM      5  C   UNL     1       0.868   6.227  -1.212  1.00  0.00     0.190 C 
ATOM      6  C   UNL     1      -0.749   5.662  -1.361  1.00  0.00     0.043 C 
BRANCH   5   7
ATOM      7  N   UNL     1       0.548   7.397  -2.434  1.00  0.00    -0.325 N 
ATOM      8  N   UNL     1      -0.345   9.576  -1.985  1.00  0.00    -0.338 N 
ATOM      9  C   UNL     1       0.070   8.590  -2.779  1.00  0.00     0.315 C 
ATOM     10  H   UNL     1      -0.042  10.466  -2.275  1.00  0.00     0.165 HD
ATOM     11  O   UNL     1       0.081   8.838  -3.990  1.00  0.00    -0.249 OA
ATOM     12  H   UNL     1       0.872   6.993  -3.271  1.00  0.00     0.166 HD
BRANCH   8  13
ATOM     13  C   UNL     1      -1.148   9.606  -0.785  1.00  0.00     0.122 C 
BRANCH  13  14
ATOM     14  C   UNL     1      -0.487  10.127   0.502  1.00  0.00     0.057 C 
BRANCH  14  15
ATOM     15  C   UNL     1      -0.199  11.582   0.747  1.00  0.00    -0.043 A 
ATOM     16  C   UNL     1      -0.678  11.256   3.243  1.00  0.00     0.044 C 
ATOM     17  C   UNL     1      -0.319  12.112   2.054  1.00  0.00    -0.048 A 
ATOM     18  C   UNL     1      -0.069  13.473   2.265  1.00  0.00     0.004 A 
ATOM     19  C   UNL     1       0.419  14.271   1.233  1.00  0.00     0.000 A 
ATOM     20  C   UNL     1       0.373  12.374  -0.256  1.00  0.00     0.004 A 
ATOM     21  C   UNL     1       0.681  13.711  -0.013  1.00  0.00     0.000 A 
ENDBRANCH  14  15
ENDBRANCH  13  14
ENDBRANCH   8  13
ENDBRANCH   5   7
ENDBRANCH   3   5
ENDBRANCH   2   3
ENDBRANCH   1   2
BRANCH   1  22
ATOM     22  C   UNL     1       1.292   6.578   3.433  1.00  0.00     0.275 C 
BRANCH  22  23
ATOM     23  O   UNL     1       0.784   5.247   3.109  1.00  0.00    -0.458 OA
BRANCH  23  24
ATOM     24  C   UNL     1      -0.037   4.926   2.067  1.00  0.00     0.338 C 
ATOM     25  O   UNL     1      -0.983   4.159   2.165  1.00  0.00    -0.246 OA
BRANCH  24  26
ATOM     26  C   UNL     1       0.385   5.422   0.743  1.00  0.00     0.060 A 
ATOM     27  C   UNL     1       1.455   4.385  -0.274  1.00  0.00     0.016 A 
ATOM     28  C   UNL     1       0.430   7.195   0.543  1.00  0.00     0.016 A 
ATOM     29  C   UNL     1       2.768   5.137  -1.277  1.00  0.00     0.010 A 
ATOM     30  C   UNL     1       1.733   7.950  -0.488  1.00  0.00     0.010 A 
ATOM     31  C   UNL     1       2.917   6.910  -1.354  1.00  0.00    -0.014 A 
BRANCH  31  32
ATOM     32  C   UNL     1       4.138   7.661  -1.645  1.00  0.00     0.031 A 
ATOM     33  C   UNL     1       4.246   8.516  -2.846  1.00  0.00     0.074 A 
ATOM     34  C   UNL     1       4.952   7.907  -0.587  1.00  0.00     0.049 A 
ATOM     35  N   UNL     1       5.261   9.272  -3.078  1.00  0.00    -0.248 NA
ATOM     36  C   UNL     1       3.258   8.585  -3.906  1.00  0.00     0.031 C 
ATOM     37  C   UNL     1       5.801   9.079  -0.374  1.00  0.00     0.029 A 
ATOM     38  N   UNL     1       5.268   7.087   0.497  1.00  0.00    -0.354 N 
ATOM     39  C   UNL     1       4.955  10.109  -4.125  1.00  0.00     0.074 A 
ATOM     40  C   UNL     1       3.711   9.607  -4.642  1.00  0.00     0.031 C 
ATOM     41  C   UNL     1       6.704   8.810   0.577  1.00  0.00     0.029 A 
ATOM     42  C   UNL     1       6.565   7.412   0.924  1.00  0.00     0.049 A 
ATOM     43  H   UNL     1       4.684   6.401   0.894  1.00  0.00     0.167 HD
ATOM     44  C   UNL     1       5.781  11.163  -4.364  1.00  0.00     0.034 A 
ATOM     45  C   UNL     1       7.585   6.513   1.010  1.00  0.00     0.034 A 
ATOM     46  C   UNL     1       7.048  10.988  -3.625  1.00  0.00     0.049 A 
ATOM     47  C   UNL     1       8.656   6.796  -0.041  1.00  0.00     0.074 A 
ATOM     48  C   UNL     1       7.616  11.573  -2.508  1.00  0.00     0.029 A 
ATOM     49  N   UNL     1       7.813   9.854  -3.897  1.00  0.00    -0.354 N 
ATOM     50  N   UNL     1       8.721   7.866  -0.790  1.00  0.00    -0.248 NA
ATOM     51  C   UNL     1       9.713   5.843  -0.368  1.00  0.00     0.031 C 
ATOM     52  C   UNL     1       8.662  10.713  -2.051  1.00  0.00     0.029 A 
ATOM     53  C   UNL     1       8.765   9.632  -2.913  1.00  0.00     0.049 A 
ATOM     54  H   UNL     1       7.692   9.281  -4.689  1.00  0.00     0.167 HD
ATOM     55  C   UNL     1       9.596   7.647  -1.832  1.00  0.00     0.074 A 
ATOM     56  C   UNL     1      10.277   6.423  -1.440  1.00  0.00     0.031 C 
ATOM     57  C   UNL     1       9.614   8.431  -2.964  1.00  0.00     0.034 A 
BRANCH  44  58
ATOM     58  C   UNL     1       5.458  12.404  -5.185  1.00  0.00     0.023 A 
ATOM     59  C   UNL     1       6.475  13.381  -5.294  1.00  0.00     0.012 A 
ATOM     60  C   UNL     1       4.212  12.746  -5.773  1.00  0.00     0.148 A 
ATOM     61  C   UNL     1       6.276  14.614  -5.930  1.00  0.00     0.002 A 
ATOM     62  C   UNL     1       4.026  13.959  -6.452  1.00  0.00     0.091 A 
ATOM     63  F   UNL     1       3.158  11.943  -5.626  1.00  0.00    -0.205 F 
ATOM     64  C   UNL     1       5.055  14.900  -6.520  1.00  0.00     0.022 A 
BRANCH  62  65
ATOM     65  S   UNL     1       2.473  14.409  -7.255  1.00  0.00     0.127 S 
ATOM     66  O   UNL     1       2.050  15.572  -6.473  1.00  0.00    -0.237 OA
ATOM     67  O   UNL     1       2.902  14.721  -8.619  1.00  0.00    -0.237 OA
ATOM     68  O   UNL     1       1.598  13.249  -7.146  1.00  0.00    -0.744 OA
ENDBRANCH  62  65
ENDBRANCH  44  58
BRANCH  45  69
ATOM     69  C   UNL     1       7.111   5.165   1.452  1.00  0.00     0.023 A 
ATOM     70  C   UNL     1       6.523   5.090   2.740  1.00  0.00     0.012 A 
ATOM     71  C   UNL     1       6.822   4.160   0.520  1.00  0.00     0.148 A 
ATOM     72  C   UNL     1       5.539   4.139   3.021  1.00  0.00     0.002 A 
ATOM     73  C   UNL     1       5.820   3.233   0.796  1.00  0.00     0.091 A 
ATOM     74  F   UNL     1       7.450   4.171  -0.662  1.00  0.00    -0.205 F 
ATOM     75  C   UNL     1       5.152   3.243   2.029  1.00  0.00     0.022 A 
BRANCH  73  76
ATOM     76  S   UNL     1       5.232   2.154  -0.514  1.00  0.00     0.127 S 
ATOM     77  O   UNL     1       3.845   1.884  -0.135  1.00  0.00    -0.237 OA
ATOM     78  O   UNL     1       5.366   2.954  -1.725  1.00  0.00    -0.237 OA
ATOM     79  O   UNL     1       6.136   1.015  -0.390  1.00  0.00    -0.744 OA
ENDBRANCH  73  76
ENDBRANCH  45  69
BRANCH  57  80
ATOM     80  C   UNL     1      10.413   8.131  -4.244  1.00  0.00     0.023 A 
ATOM     81  C   UNL     1      10.995   6.875  -4.512  1.00  0.00     0.012 A 
ATOM     82  C   UNL     1      10.539   9.094  -5.284  1.00  0.00     0.148 A 
ATOM     83  C   UNL     1      11.737   6.614  -5.674  1.00  0.00     0.002 A 
ATOM     84  C   UNL     1      11.167   8.789  -6.495  1.00  0.00     0.091 A 
ATOM     85  F   UNL     1      10.082  10.341  -5.103  1.00  0.00    -0.205 F 
ATOM     86  C   UNL     1      11.808   7.566  -6.676  1.00  0.00     0.022 A 
BRANCH  84  87
ATOM     87  S   UNL     1      11.062   9.891  -7.915  1.00  0.00     0.127 S 
ATOM     88  O   UNL     1      12.331  10.610  -7.835  1.00  0.00    -0.237 OA
ATOM     89  O   UNL     1      10.965   8.950  -9.033  1.00  0.00    -0.237 OA
ATOM     90  O   UNL     1       9.858  10.680  -7.695  1.00  0.00    -0.744 OA
ENDBRANCH  84  87
ENDBRANCH  57  80
ENDBRANCH  31  32
ENDBRANCH  24  26
ENDBRANCH  23  24
ENDBRANCH  22  23
ENDBRANCH   1  22
TORSDOF 18
