REMARK SMILES O=C(OCCOC(=O)c1cc2n(n1)[C@@H](C(F)(F)F)C[C@H](c1ccc3c(c1)OCO3)N2)c1ccc(-c2c3nc(c(-c4cccc(S(=O)(=O)[O-])c4F)c4ccc([nH]4)c(-c4cccc(S(=O)(=O)[O-])c4F)c4nc(c(-c5cccc(S(=O)(=O)[O-])c5F)c5ccc2[nH]5)C=C4)C=C3)cc1
REMARK SMILES IDX 4 1 3 2 2 3 1 4 31 5 32 6 93 7 33 8 92 9 34 10 35 11 36 12
REMARK SMILES IDX 86 13 37 14 91 15 85 16 87 17 38 18 90 19 84 20 83 21 39 23
REMARK SMILES IDX 71 24 51 25 70 26 52 27 55 28 69 29 88 30 53 31 54 32 68 34
REMARK SMILES IDX 89 35 56 36 40 37 41 38 49 39 42 40 44 41 50 42 43 43 45 44
REMARK SMILES IDX 46 45 47 46 48 47 72 48 73 49 81 50 74 51 76 52 82 53 75 54
REMARK SMILES IDX 77 55 78 56 79 57 80 58 57 59 58 60 66 61 59 62 61 63 67 64
REMARK SMILES IDX 60 65 62 66 63 67 64 68 65 69 5 70 6 71 7 72 8 73 9 74 10 75
REMARK SMILES IDX 13 76 11 77 12 78 30 79 14 80 20 81 19 83 15 84 16 85 17 86
REMARK SMILES IDX 18 87 21 88 22 89 26 90 23 91 25 92 24 93 27 94 29 95 28 96
REMARK H PARENT 87 22 55 33 30 82
REMARK Flexibility Score: inf
ROOT
ATOM      1  C   UNL     1       3.919   1.688  -0.468  1.00  0.00     0.275 C 
ENDROOT
BRANCH   1   2
ATOM      2  O   UNL     1       2.981   0.694  -0.909  1.00  0.00    -0.458 OA
BRANCH   2   3
ATOM      3  C   UNL     1       3.117  -0.655  -0.886  1.00  0.00     0.338 C 
ATOM      4  O   UNL     1       2.454  -1.341  -1.661  1.00  0.00    -0.246 OA
BRANCH   3   5
ATOM      5  C   UNL     1       3.922  -1.352   0.161  1.00  0.00     0.060 A 
ATOM      6  C   UNL     1       5.203  -0.988   0.583  1.00  0.00     0.016 A 
ATOM      7  C   UNL     1       3.350  -2.505   0.718  1.00  0.00     0.016 A 
ATOM      8  C   UNL     1       5.860  -1.703   1.593  1.00  0.00     0.010 A 
ATOM      9  C   UNL     1       4.008  -3.221   1.723  1.00  0.00     0.010 A 
ATOM     10  C   UNL     1       5.266  -2.822   2.180  1.00  0.00    -0.014 A 
BRANCH  10  11
ATOM     11  C   UNL     1       5.999  -3.606   3.207  1.00  0.00     0.031 A 
ATOM     12  C   UNL     1       6.522  -4.971   2.865  1.00  0.00     0.074 A 
ATOM     13  C   UNL     1       6.213  -3.089   4.434  1.00  0.00     0.049 A 
ATOM     14  N   UNL     1       7.304  -5.749   3.567  1.00  0.00    -0.248 NA
ATOM     15  C   UNL     1       6.133  -5.531   1.560  1.00  0.00     0.031 C 
ATOM     16  C   UNL     1       5.733  -1.787   4.892  1.00  0.00     0.029 A 
ATOM     17  N   UNL     1       6.879  -3.591   5.525  1.00  0.00    -0.354 N 
ATOM     18  C   UNL     1       7.521  -6.873   2.780  1.00  0.00     0.074 A 
ATOM     19  C   UNL     1       6.729  -6.713   1.582  1.00  0.00     0.031 C 
ATOM     20  C   UNL     1       6.082  -1.605   6.176  1.00  0.00     0.029 A 
ATOM     21  C   UNL     1       6.846  -2.763   6.625  1.00  0.00     0.049 A 
ATOM     22  H   UNL     1       7.338  -4.462   5.521  1.00  0.00     0.167 HD
ATOM     23  C   UNL     1       8.352  -7.917   3.007  1.00  0.00     0.034 A 
ATOM     24  C   UNL     1       7.399  -2.908   7.846  1.00  0.00     0.034 A 
ATOM     25  C   UNL     1       9.137  -8.069   4.199  1.00  0.00     0.049 A 
ATOM     26  C   UNL     1       8.296  -4.094   8.086  1.00  0.00     0.074 A 
ATOM     27  C   UNL     1      10.030  -9.073   4.524  1.00  0.00     0.029 A 
ATOM     28  N   UNL     1       9.113  -7.190   5.272  1.00  0.00    -0.354 N 
ATOM     29  N   UNL     1       8.624  -5.059   7.260  1.00  0.00    -0.248 NA
ATOM     30  C   UNL     1       8.955  -4.177   9.397  1.00  0.00     0.031 C 
ATOM     31  C   UNL     1      10.537  -8.807   5.801  1.00  0.00     0.029 A 
ATOM     32  C   UNL     1       9.972  -7.628   6.263  1.00  0.00     0.049 A 
ATOM     33  H   UNL     1       8.565  -6.374   5.320  1.00  0.00     0.167 HD
ATOM     34  C   UNL     1       9.563  -5.832   7.930  1.00  0.00     0.074 A 
ATOM     35  C   UNL     1       9.765  -5.212   9.224  1.00  0.00     0.031 C 
ATOM     36  C   UNL     1      10.196  -6.959   7.519  1.00  0.00     0.034 A 
BRANCH  23  37
ATOM     37  C   UNL     1       8.494  -8.925   1.899  1.00  0.00     0.023 A 
ATOM     38  C   UNL     1       9.199  -8.560   0.731  1.00  0.00     0.012 A 
ATOM     39  C   UNL     1       7.940 -10.213   1.997  1.00  0.00     0.148 A 
ATOM     40  C   UNL     1       9.313  -9.446  -0.338  1.00  0.00     0.002 A 
ATOM     41  C   UNL     1       8.089 -11.105   0.941  1.00  0.00     0.091 A 
ATOM     42  F   UNL     1       7.261 -10.534   3.107  1.00  0.00    -0.205 F 
ATOM     43  C   UNL     1       8.763 -10.719  -0.231  1.00  0.00     0.022 A 
BRANCH  41  44
ATOM     44  S   UNL     1       7.465 -12.788   0.991  1.00  0.00     0.127 S 
ATOM     45  O   UNL     1       6.425 -12.749  -0.037  1.00  0.00    -0.237 OA
ATOM     46  O   UNL     1       8.651 -13.565   0.630  1.00  0.00    -0.237 OA
ATOM     47  O   UNL     1       6.986 -13.001   2.350  1.00  0.00    -0.744 OA
ENDBRANCH  41  44
ENDBRANCH  23  37
BRANCH  24  48
ATOM     48  C   UNL     1       7.212  -1.861   8.893  1.00  0.00     0.023 A 
ATOM     49  C   UNL     1       8.305  -1.069   9.299  1.00  0.00     0.012 A 
ATOM     50  C   UNL     1       5.957  -1.639   9.488  1.00  0.00     0.148 A 
ATOM     51  C   UNL     1       8.161  -0.114  10.308  1.00  0.00     0.002 A 
ATOM     52  C   UNL     1       5.810  -0.648  10.457  1.00  0.00     0.091 A 
ATOM     53  F   UNL     1       4.915  -2.390   9.100  1.00  0.00    -0.205 F 
ATOM     54  C   UNL     1       6.912   0.102  10.885  1.00  0.00     0.022 A 
BRANCH  52  55
ATOM     55  S   UNL     1       4.174  -0.250  11.081  1.00  0.00     0.127 S 
ATOM     56  O   UNL     1       3.922  -1.338  12.021  1.00  0.00    -0.237 OA
ATOM     57  O   UNL     1       4.369   1.061  11.703  1.00  0.00    -0.237 OA
ATOM     58  O   UNL     1       3.360  -0.216   9.871  1.00  0.00    -0.744 OA
ENDBRANCH  52  55
ENDBRANCH  24  48
BRANCH  36  59
ATOM     59  C   UNL     1      11.188  -7.578   8.466  1.00  0.00     0.023 A 
ATOM     60  C   UNL     1      10.730  -8.252   9.615  1.00  0.00     0.012 A 
ATOM     61  C   UNL     1      12.566  -7.551   8.180  1.00  0.00     0.148 A 
ATOM     62  C   UNL     1      11.633  -8.864  10.483  1.00  0.00     0.002 A 
ATOM     63  C   UNL     1      13.456  -8.207   9.023  1.00  0.00     0.091 A 
ATOM     64  F   UNL     1      12.984  -6.883   7.095  1.00  0.00    -0.205 F 
ATOM     65  C   UNL     1      12.992  -8.852  10.180  1.00  0.00     0.022 A 
BRANCH  63  66
ATOM     66  S   UNL     1      15.209  -8.327   8.651  1.00  0.00     0.127 S 
ATOM     67  O   UNL     1      15.775  -7.330   9.557  1.00  0.00    -0.237 OA
ATOM     68  O   UNL     1      15.509  -9.714   9.005  1.00  0.00    -0.237 OA
ATOM     69  O   UNL     1      15.333  -8.030   7.230  1.00  0.00    -0.744 OA
ENDBRANCH  63  66
ENDBRANCH  36  59
ENDBRANCH  10  11
ENDBRANCH   3   5
ENDBRANCH   2   3
ENDBRANCH   1   2
BRANCH   1  70
ATOM     70  C   UNL     1       3.673   2.224   0.944  1.00  0.00     0.275 C 
BRANCH  70  71
ATOM     71  O   UNL     1       3.380   1.206   1.909  1.00  0.00    -0.457 OA
BRANCH  71  72
ATOM     72  C   UNL     1       2.047   0.902   2.047  1.00  0.00     0.359 C 
ATOM     73  O   UNL     1       1.150   1.489   1.447  1.00  0.00    -0.244 OA
BRANCH  72  74
ATOM     74  C   UNL     1       1.831  -0.236   2.947  1.00  0.00     0.172 A 
ATOM     75  C   UNL     1       2.506  -0.507   4.170  1.00  0.00     0.084 A 
ATOM     76  N   UNL     1       0.919  -1.196   2.677  1.00  0.00    -0.163 NA
ATOM     77  C   UNL     1       1.998  -1.701   4.613  1.00  0.00     0.126 A 
ATOM     78  N   UNL     1       1.091  -2.089   3.667  1.00  0.00    -0.237 N 
ATOM     79  N   UNL     1       2.209  -2.437   5.725  1.00  0.00    -0.363 N 
ATOM     80  C   UNL     1       0.234  -3.250   3.801  1.00  0.00     0.217 C 
ATOM     81  C   UNL     1       1.488  -3.682   5.973  1.00  0.00     0.113 C 
ATOM     82  H   UNL     1       2.869  -2.126   6.386  1.00  0.00     0.162 HD
ATOM     83  C   UNL     1       0.108  -3.625   5.281  1.00  0.00     0.066 C 
BRANCH  80  84
ATOM     84  C   UNL     1       0.721  -4.420   2.980  1.00  0.00     0.410 C 
ATOM     85  F   UNL     1      -0.161  -5.450   3.088  1.00  0.00    -0.169 F 
ATOM     86  F   UNL     1       0.813  -4.143   1.663  1.00  0.00    -0.169 F 
ATOM     87  F   UNL     1       1.914  -4.903   3.383  1.00  0.00    -0.169 F 
ENDBRANCH  80  84
BRANCH  81  88
ATOM     88  C   UNL     1       1.263  -3.966   7.448  1.00  0.00    -0.022 A 
ATOM     89  C   UNL     1       0.937  -5.294   7.836  1.00  0.00     0.010 A 
ATOM     90  C   UNL     1       1.276  -2.956   8.424  1.00  0.00     0.056 A 
ATOM     91  C   UNL     1       0.626  -5.613   9.161  1.00  0.00     0.051 A 
ATOM     92  C   UNL     1       0.968  -3.303   9.722  1.00  0.00     0.166 A 
ATOM     93  C   UNL     1       0.658  -4.593  10.083  1.00  0.00     0.165 A 
ATOM     94  O   UNL     1       0.895  -2.445  10.771  1.00  0.00    -0.454 OA
ATOM     95  O   UNL     1       0.387  -4.706  11.413  1.00  0.00    -0.454 OA
ATOM     96  C   UNL     1       0.720  -3.367  11.856  1.00  0.00     0.468 C 
ENDBRANCH  81  88
ENDBRANCH  72  74
ENDBRANCH  71  72
ENDBRANCH  70  71
ENDBRANCH   1  70
TORSDOF 16
