REMARK SMILES COc1ccc(N2C(=O)/C(=C/c3c(C(=O)OCCOC(=O)c4ccc(-c5c6nc(c(-c7cccc(S(=O)(=O)[O-])c7F)c7ccc([nH]7)c(-c7cccc(S(=O)(=O)[O-])c7F)c7nc(c(-c8cccc(S(=O)(=O)[O-])c8F)c8ccc5[nH]8)C=C7)C=C6)cc4)[nH]c4cc(OC)ccc34)SC2=S)cc1
REMARK SMILES IDX 17 1 16 2 14 3 15 4 13 5 12 6 93 7 85 8 86 9 92 10 87 12
REMARK SMILES IDX 91 13 88 14 11 15 7 16 8 17 95 18 9 19 10 20 94 21 96 22
REMARK SMILES IDX 6 23 3 24 4 25 98 26 5 27 97 28 2 29 1 30 89 31 90 32 18 33
REMARK SMILES IDX 19 34 20 35 21 36 22 37 23 38 84 39 24 40 83 41 25 42 26 43
REMARK SMILES IDX 27 44 77 45 28 46 82 47 76 48 78 49 29 50 81 51 75 52 74 53
REMARK SMILES IDX 30 55 62 56 42 57 61 58 43 59 46 60 60 61 79 62 44 63 45 64
REMARK SMILES IDX 59 66 80 67 47 68 31 69 32 70 40 71 33 72 35 73 41 74 34 75
REMARK SMILES IDX 36 76 37 77 38 78 39 79 63 80 64 81 72 82 65 83 67 84 73 85
REMARK SMILES IDX 66 86 68 87 69 88 70 89 71 90 48 91 49 92 57 93 50 94 52 95
REMARK SMILES IDX 58 96 51 97 53 98 54 99 55 100 56 101
REMARK H PARENT 85 11 78 54 46 65
REMARK Flexibility Score: inf
ROOT
ATOM      1  C   UNL     1       3.531   4.734  -6.784  1.00  0.00     0.275 C 
ENDROOT
BRANCH   1   2
ATOM      2  O   UNL     1       2.841   5.999  -6.682  1.00  0.00    -0.457 OA
BRANCH   2   3
ATOM      3  C   UNL     1       3.642   7.086  -6.855  1.00  0.00     0.355 C 
ATOM      4  O   UNL     1       4.859   7.038  -6.974  1.00  0.00    -0.244 OA
BRANCH   3   5
ATOM      5  C   UNL     1       2.883   8.306  -6.954  1.00  0.00     0.133 A 
ATOM      6  C   UNL     1       2.034   8.983  -6.087  1.00  0.00     0.016 A 
ATOM      7  C   UNL     1       1.813  10.297  -6.636  1.00  0.00     0.008 A 
ATOM      8  N   UNL     1       2.915   9.053  -8.102  1.00  0.00    -0.348 N 
ATOM      9  C   UNL     1       2.389  10.294  -7.904  1.00  0.00     0.050 A 
ATOM     10  C   UNL     1       1.186  11.496  -6.230  1.00  0.00     0.015 A 
ATOM     11  H   UNL     1       3.273   8.733  -8.962  1.00  0.00     0.167 HD
ATOM     12  C   UNL     1       2.368  11.376  -8.784  1.00  0.00     0.073 A 
ATOM     13  C   UNL     1       1.195  12.623  -7.089  1.00  0.00     0.047 A 
ATOM     14  C   UNL     1       1.776  12.560  -8.355  1.00  0.00     0.120 A 
BRANCH   6  15
ATOM     15  C   UNL     1       1.433   8.358  -4.944  1.00  0.00     0.032 C 
ATOM     16  N   UNL     1       2.256   5.484  -3.044  1.00  0.00    -0.261 N 
ATOM     17  C   UNL     1       1.339   6.502  -3.353  1.00  0.00     0.270 C 
ATOM     18  C   UNL     1       3.598   5.847  -3.178  1.00  0.00     0.152 C 
ATOM     19  O   UNL     1       0.127   6.515  -3.172  1.00  0.00    -0.268 OA
ATOM     20  C   UNL     1       2.053   7.639  -3.995  1.00  0.00     0.081 C 
ATOM     21  S   UNL     1       3.715   7.555  -3.616  1.00  0.00    -0.054 SA
ATOM     22  S   UNL     1       5.005   4.940  -3.112  1.00  0.00    -0.051 S 
BRANCH  16  23
ATOM     23  C   UNL     1       1.778   4.175  -2.660  1.00  0.00     0.051 A 
ATOM     24  C   UNL     1       0.792   1.614  -1.897  1.00  0.00     0.119 A 
ATOM     25  C   UNL     1       0.072   2.416  -2.774  1.00  0.00     0.048 A 
ATOM     26  C   UNL     1       2.022   2.064  -1.432  1.00  0.00     0.048 A 
ATOM     27  C   UNL     1       0.555   3.680  -3.147  1.00  0.00     0.030 A 
ATOM     28  C   UNL     1       2.494   3.334  -1.795  1.00  0.00     0.030 A 
BRANCH  24  29
ATOM     29  O   UNL     1       0.218   0.417  -1.569  1.00  0.00    -0.497 OA
ATOM     30  C   UNL     1       0.601  -0.112  -0.303  1.00  0.00     0.278 C 
ENDBRANCH  24  29
ENDBRANCH  16  23
ENDBRANCH   6  15
BRANCH  14  31
ATOM     31  O   UNL     1       1.813  13.551  -9.296  1.00  0.00    -0.497 OA
ATOM     32  C   UNL     1       1.585  14.880  -8.859  1.00  0.00     0.278 C 
ENDBRANCH  14  31
ENDBRANCH   3   5
ENDBRANCH   2   3
ENDBRANCH   1   2
BRANCH   1  33
ATOM     33  C   UNL     1       3.484   4.164  -8.206  1.00  0.00     0.275 C 
BRANCH  33  34
ATOM     34  O   UNL     1       4.380   4.854  -9.099  1.00  0.00    -0.458 OA
BRANCH  34  35
ATOM     35  C   UNL     1       3.837   5.907  -9.743  1.00  0.00     0.338 C 
ATOM     36  O   UNL     1       2.694   6.326  -9.646  1.00  0.00    -0.246 OA
BRANCH  35  37
ATOM     37  C   UNL     1       4.840   6.622 -10.537  1.00  0.00     0.060 A 
ATOM     38  C   UNL     1       5.337   7.829 -10.041  1.00  0.00     0.016 A 
ATOM     39  C   UNL     1       5.096   6.233 -11.847  1.00  0.00     0.016 A 
ATOM     40  C   UNL     1       5.968   8.723 -10.888  1.00  0.00     0.010 A 
ATOM     41  C   UNL     1       5.835   7.085 -12.667  1.00  0.00     0.010 A 
ATOM     42  C   UNL     1       6.236   8.354 -12.207  1.00  0.00    -0.014 A 
BRANCH  42  43
ATOM     43  C   UNL     1       6.914   9.297 -13.123  1.00  0.00     0.031 A 
ATOM     44  C   UNL     1       6.223   9.706 -14.389  1.00  0.00     0.074 A 
ATOM     45  C   UNL     1       8.154   9.735 -12.836  1.00  0.00     0.049 A 
ATOM     46  N   UNL     1       6.727  10.238 -15.468  1.00  0.00    -0.248 NA
ATOM     47  C   UNL     1       4.772   9.454 -14.462  1.00  0.00     0.031 C 
ATOM     48  C   UNL     1       8.895   9.440 -11.608  1.00  0.00     0.029 A 
ATOM     49  N   UNL     1       9.023  10.496 -13.573  1.00  0.00    -0.354 N 
ATOM     50  C   UNL     1       5.684  10.288 -16.384  1.00  0.00     0.074 A 
ATOM     51  C   UNL     1       4.507   9.770 -15.722  1.00  0.00     0.031 C 
ATOM     52  C   UNL     1      10.108  10.006 -11.676  1.00  0.00     0.029 A 
ATOM     53  C   UNL     1      10.262  10.621 -12.987  1.00  0.00     0.049 A 
ATOM     54  H   UNL     1       8.786  10.911 -14.434  1.00  0.00     0.167 HD
ATOM     55  C   UNL     1       5.721  10.721 -17.666  1.00  0.00     0.034 A 
ATOM     56  C   UNL     1      11.413  11.117 -13.479  1.00  0.00     0.034 A 
ATOM     57  C   UNL     1       6.888  11.310 -18.263  1.00  0.00     0.049 A 
ATOM     58  C   UNL     1      11.416  11.637 -14.887  1.00  0.00     0.074 A 
ATOM     59  C   UNL     1       7.047  11.807 -19.543  1.00  0.00     0.029 A 
ATOM     60  N   UNL     1       8.093  11.505 -17.602  1.00  0.00    -0.354 N 
ATOM     61  N   UNL     1      10.429  11.673 -15.751  1.00  0.00    -0.248 NA
ATOM     62  C   UNL     1      12.680  12.188 -15.390  1.00  0.00     0.031 C 
ATOM     63  C   UNL     1       8.348  12.311 -19.653  1.00  0.00     0.029 A 
ATOM     64  C   UNL     1       8.996  12.131 -18.440  1.00  0.00     0.049 A 
ATOM     65  H   UNL     1       8.277  11.236 -16.674  1.00  0.00     0.167 HD
ATOM     66  C   UNL     1      10.946  12.266 -16.895  1.00  0.00     0.074 A 
ATOM     67  C   UNL     1      12.329  12.594 -16.603  1.00  0.00     0.031 C 
ATOM     68  C   UNL     1      10.345  12.497 -18.087  1.00  0.00     0.034 A 
BRANCH  55  69
ATOM     69  C   UNL     1       4.471  10.585 -18.491  1.00  0.00     0.023 A 
ATOM     70  C   UNL     1       3.392  11.467 -18.284  1.00  0.00     0.012 A 
ATOM     71  C   UNL     1       4.375   9.601 -19.496  1.00  0.00     0.148 A 
ATOM     72  C   UNL     1       2.228  11.356 -19.045  1.00  0.00     0.002 A 
ATOM     73  C   UNL     1       3.225   9.519 -20.275  1.00  0.00     0.091 A 
ATOM     74  F   UNL     1       5.398   8.750 -19.659  1.00  0.00    -0.205 F 
ATOM     75  C   UNL     1       2.148  10.390 -20.046  1.00  0.00     0.022 A 
BRANCH  73  76
ATOM     76  S   UNL     1       3.061   8.347 -21.628  1.00  0.00     0.127 S 
ATOM     77  O   UNL     1       2.188   7.334 -21.037  1.00  0.00    -0.237 OA
ATOM     78  O   UNL     1       2.433   9.159 -22.671  1.00  0.00    -0.237 OA
ATOM     79  O   UNL     1       4.414   7.908 -21.939  1.00  0.00    -0.744 OA
ENDBRANCH  73  76
ENDBRANCH  55  69
BRANCH  56  80
ATOM     80  C   UNL     1      12.628  11.144 -12.618  1.00  0.00     0.023 A 
ATOM     81  C   UNL     1      13.096  12.378 -12.130  1.00  0.00     0.012 A 
ATOM     82  C   UNL     1      13.266   9.957 -12.203  1.00  0.00     0.148 A 
ATOM     83  C   UNL     1      14.180  12.431 -11.252  1.00  0.00     0.002 A 
ATOM     84  C   UNL     1      14.307  10.013 -11.283  1.00  0.00     0.091 A 
ATOM     85  F   UNL     1      12.824   8.790 -12.693  1.00  0.00    -0.205 F 
ATOM     86  C   UNL     1      14.774  11.250 -10.816  1.00  0.00     0.022 A 
BRANCH  84  87
ATOM     87  S   UNL     1      15.010   8.524 -10.559  1.00  0.00     0.127 S 
ATOM     88  O   UNL     1      16.216   8.341 -11.361  1.00  0.00    -0.237 OA
ATOM     89  O   UNL     1      15.248   8.932  -9.174  1.00  0.00    -0.237 OA
ATOM     90  O   UNL     1      13.977   7.507 -10.707  1.00  0.00    -0.744 OA
ENDBRANCH  84  87
ENDBRANCH  56  80
BRANCH  68  91
ATOM     91  C   UNL     1      11.167  13.162 -19.153  1.00  0.00     0.023 A 
ATOM     92  C   UNL     1      12.086  12.396 -19.894  1.00  0.00     0.012 A 
ATOM     93  C   UNL     1      10.956  14.514 -19.480  1.00  0.00     0.148 A 
ATOM     94  C   UNL     1      12.797  12.974 -20.943  1.00  0.00     0.002 A 
ATOM     95  C   UNL     1      11.641  15.073 -20.550  1.00  0.00     0.091 A 
ATOM     96  F   UNL     1      10.091  15.225 -18.741  1.00  0.00    -0.205 F 
ATOM     97  C   UNL     1      12.566  14.307 -21.279  1.00  0.00     0.022 A 
BRANCH  95  98
ATOM     98  S   UNL     1      11.340  16.756 -21.101  1.00  0.00     0.127 S 
ATOM     99  O   UNL     1      12.516  17.453 -20.585  1.00  0.00    -0.237 OA
ATOM    100  O   UNL     1      11.309  16.608 -22.557  1.00  0.00    -0.237 OA
ATOM    101  O   UNL     1      10.068  17.146 -20.510  1.00  0.00    -0.744 OA
ENDBRANCH  95  98
ENDBRANCH  68  91
ENDBRANCH  42  43
ENDBRANCH  35  37
ENDBRANCH  34  35
ENDBRANCH  33  34
ENDBRANCH   1  33
TORSDOF 18
