REMARK SMILES C[C@@H](NC(=O)[C@@H]1CC[C@@H]2CCCC[C@@H]2[NH2+]1)C(=O)OCCOC(=O)c1ccc(-c2c3nc(c(-c4cccc(S(=O)(=O)[O-])c4F)c4ccc([nH]4)c(-c4cccc(S(=O)(=O)[O-])c4F)c4nc(c(-c5cccc(S(=O)(=O)[O-])c5F)c5ccc2[nH]5)C=C4)C=C3)cc1
REMARK SMILES IDX 20 1 19 2 18 3 16 4 17 5 2 6 1 7 3 8 4 9 5 11 6 12 7 13
REMARK SMILES IDX 15 14 8 15 14 16 9 19 13 20 10 21 12 22 11 23 21 24 22 25
REMARK SMILES IDX 23 26 24 27 25 28 86 29 26 30 85 31 27 32 28 33 29 34 79 35
REMARK SMILES IDX 30 36 84 37 78 38 80 39 31 40 83 41 77 42 76 43 32 45 64 46
REMARK SMILES IDX 44 47 63 48 45 49 48 50 62 51 81 52 46 53 47 54 61 56 82 57
REMARK SMILES IDX 49 58 33 59 34 60 42 61 35 62 37 63 43 64 36 65 38 66 39 67
REMARK SMILES IDX 40 68 41 69 65 70 66 71 74 72 67 73 69 74 75 75 68 76 70 77
REMARK SMILES IDX 71 78 72 79 73 80 50 81 51 82 59 83 52 84 54 85 60 86 53 87
REMARK SMILES IDX 55 88 56 89 57 90 58 91
REMARK H PARENT 3 10 15 17 15 18 80 44 48 55
REMARK Flexibility Score: inf
ROOT
ATOM      1  C   UNL     1      -4.366   0.896   0.186  1.00  0.00     0.275 C 
ENDROOT
BRANCH   1   2
ATOM      2  C   UNL     1      -3.956  -0.270  -0.718  1.00  0.00     0.274 C 
BRANCH   2   3
ATOM      3  O   UNL     1      -2.508  -0.326  -0.724  1.00  0.00    -0.461 OA
BRANCH   3   4
ATOM      4  C   UNL     1      -1.783  -0.605  -1.943  1.00  0.00     0.328 C 
ATOM      5  O   UNL     1      -2.575  -1.011  -2.811  1.00  0.00    -0.250 OA
BRANCH   4   6
ATOM      6  C   UNL     1       0.328  -0.312  -1.892  1.00  0.00     0.189 C 
ATOM      7  C   UNL     1       0.804   0.331   0.074  1.00  0.00     0.043 C 
BRANCH   6   8
ATOM      8  N   UNL     1       1.332  -1.123  -2.747  1.00  0.00    -0.338 N 
ATOM      9  C   UNL     1       0.856  -2.136  -3.517  1.00  0.00     0.278 C 
ATOM     10  H   UNL     1       2.293  -0.909  -2.733  1.00  0.00     0.164 HD
ATOM     11  O   UNL     1       1.480  -2.849  -4.274  1.00  0.00    -0.268 OA
BRANCH   9  12
ATOM     12  C   UNL     1      -0.591  -2.027  -3.299  1.00  0.00     0.272 C 
ATOM     13  C   UNL     1      -0.828  -0.332  -4.049  1.00  0.00     0.076 C 
ATOM     14  N   UNL     1      -0.754  -2.425  -1.605  1.00  0.00    -0.333 N 
ATOM     15  C   UNL     1      -1.166   1.125  -2.988  1.00  0.00     0.016 C 
ATOM     16  C   UNL     1      -0.465  -1.103  -0.449  1.00  0.00     0.186 C 
ATOM     17  H   UNL     1      -0.089  -3.170  -1.396  1.00  0.00     0.347 HD
ATOM     18  H   UNL     1      -1.733  -2.683  -1.481  1.00  0.00     0.347 HD
ATOM     19  C   UNL     1      -0.759   0.934  -1.099  1.00  0.00     0.048 C 
ATOM     20  C   UNL     1       1.382  -1.700  -0.365  1.00  0.00     0.065 C 
ATOM     21  C   UNL     1       0.796   2.026  -1.253  1.00  0.00     0.010 C 
ATOM     22  C   UNL     1       2.713  -0.493  -0.785  1.00  0.00     0.006 C 
ATOM     23  C   UNL     1       2.384   1.173  -1.460  1.00  0.00     0.001 C 
ENDBRANCH   9  12
ENDBRANCH   6   8
ENDBRANCH   4   6
ENDBRANCH   3   4
ENDBRANCH   2   3
ENDBRANCH   1   2
BRANCH   1  24
ATOM     24  O   UNL     1      -3.952   2.132  -0.435  1.00  0.00    -0.458 OA
BRANCH  24  25
ATOM     25  C   UNL     1      -3.599   3.131   0.414  1.00  0.00     0.338 C 
ATOM     26  O   UNL     1      -3.712   3.112   1.629  1.00  0.00    -0.246 OA
BRANCH  25  27
ATOM     27  C   UNL     1      -2.944   4.244  -0.322  1.00  0.00     0.060 A 
ATOM     28  C   UNL     1      -2.194   3.991  -1.467  1.00  0.00     0.016 A 
ATOM     29  C   UNL     1      -2.943   5.532   0.198  1.00  0.00     0.016 A 
ATOM     30  C   UNL     1      -1.330   4.945  -2.002  1.00  0.00     0.010 A 
ATOM     31  C   UNL     1      -2.192   6.534  -0.432  1.00  0.00     0.010 A 
ATOM     32  C   UNL     1      -1.329   6.247  -1.512  1.00  0.00    -0.014 A 
BRANCH  32  33
ATOM     33  C   UNL     1      -0.437   7.316  -2.059  1.00  0.00     0.031 A 
ATOM     34  C   UNL     1       0.298   8.199  -1.086  1.00  0.00     0.074 A 
ATOM     35  C   UNL     1      -0.323   7.572  -3.380  1.00  0.00     0.049 A 
ATOM     36  N   UNL     1       0.693   9.436  -1.218  1.00  0.00    -0.248 NA
ATOM     37  C   UNL     1       0.588   7.611   0.234  1.00  0.00     0.031 C 
ATOM     38  C   UNL     1      -0.847   6.755  -4.475  1.00  0.00     0.029 A 
ATOM     39  N   UNL     1       0.237   8.656  -4.023  1.00  0.00    -0.354 N 
ATOM     40  C   UNL     1       1.150   9.820   0.038  1.00  0.00     0.074 A 
ATOM     41  C   UNL     1       1.028   8.666   0.904  1.00  0.00     0.031 C 
ATOM     42  C   UNL     1      -0.611   7.369  -5.642  1.00  0.00     0.029 A 
ATOM     43  C   UNL     1      -0.053   8.684  -5.370  1.00  0.00     0.049 A 
ATOM     44  H   UNL     1       0.785   9.336  -3.569  1.00  0.00     0.167 HD
ATOM     45  C   UNL     1       1.597  11.037   0.430  1.00  0.00     0.034 A 
ATOM     46  C   UNL     1       0.005   9.685  -6.271  1.00  0.00     0.034 A 
ATOM     47  C   UNL     1       1.781  12.140  -0.475  1.00  0.00     0.049 A 
ATOM     48  C   UNL     1       0.463  11.042  -5.822  1.00  0.00     0.074 A 
ATOM     49  C   UNL     1       2.256  13.411  -0.203  1.00  0.00     0.029 A 
ATOM     50  N   UNL     1       1.506  12.098  -1.834  1.00  0.00    -0.354 N 
ATOM     51  N   UNL     1       0.836  11.432  -4.628  1.00  0.00    -0.248 NA
ATOM     52  C   UNL     1       0.511  12.097  -6.843  1.00  0.00     0.031 C 
ATOM     53  C   UNL     1       2.238  14.146  -1.393  1.00  0.00     0.029 A 
ATOM     54  C   UNL     1       1.800  13.318  -2.415  1.00  0.00     0.049 A 
ATOM     55  H   UNL     1       1.155  11.314  -2.315  1.00  0.00     0.167 HD
ATOM     56  C   UNL     1       1.205  12.765  -4.761  1.00  0.00     0.074 A 
ATOM     57  C   UNL     1       1.014  13.113  -6.155  1.00  0.00     0.031 C 
ATOM     58  C   UNL     1       1.656  13.626  -3.816  1.00  0.00     0.034 A 
BRANCH  45  59
ATOM     59  C   UNL     1       1.877  11.251   1.897  1.00  0.00     0.023 A 
ATOM     60  C   UNL     1       2.972  10.625   2.522  1.00  0.00     0.012 A 
ATOM     61  C   UNL     1       1.054  12.113   2.653  1.00  0.00     0.148 A 
ATOM     62  C   UNL     1       3.216  10.814   3.884  1.00  0.00     0.002 A 
ATOM     63  C   UNL     1       1.335  12.339   3.995  1.00  0.00     0.091 A 
ATOM     64  F   UNL     1       0.003  12.686   2.050  1.00  0.00    -0.205 F 
ATOM     65  C   UNL     1       2.405  11.677   4.617  1.00  0.00     0.022 A 
BRANCH  63  66
ATOM     66  S   UNL     1       0.400  13.499   4.999  1.00  0.00     0.127 S 
ATOM     67  O   UNL     1      -0.321  12.598   5.898  1.00  0.00    -0.237 OA
ATOM     68  O   UNL     1       1.461  14.277   5.638  1.00  0.00    -0.237 OA
ATOM     69  O   UNL     1      -0.432  14.254   4.073  1.00  0.00    -0.744 OA
ENDBRANCH  63  66
ENDBRANCH  45  59
BRANCH  46  70
ATOM     70  C   UNL     1      -0.437   9.443  -7.676  1.00  0.00     0.023 A 
ATOM     71  C   UNL     1       0.516   9.442  -8.711  1.00  0.00     0.012 A 
ATOM     72  C   UNL     1      -1.784   9.159  -7.984  1.00  0.00     0.148 A 
ATOM     73  C   UNL     1       0.135   9.178 -10.028  1.00  0.00     0.002 A 
ATOM     74  C   UNL     1      -2.146   8.833  -9.285  1.00  0.00     0.091 A 
ATOM     75  F   UNL     1      -2.681   9.180  -6.987  1.00  0.00    -0.205 F 
ATOM     76  C   UNL     1      -1.191   8.859 -10.312  1.00  0.00     0.022 A 
BRANCH  74  77
ATOM     77  S   UNL     1      -3.795   8.265  -9.719  1.00  0.00     0.127 S 
ATOM     78  O   UNL     1      -4.273   9.354 -10.566  1.00  0.00    -0.237 OA
ATOM     79  O   UNL     1      -3.504   7.016 -10.424  1.00  0.00    -0.237 OA
ATOM     80  O   UNL     1      -4.499   8.093  -8.456  1.00  0.00    -0.744 OA
ENDBRANCH  74  77
ENDBRANCH  46  70
BRANCH  58  81
ATOM     81  C   UNL     1       2.062  15.003  -4.264  1.00  0.00     0.023 A 
ATOM     82  C   UNL     1       1.087  15.956  -4.618  1.00  0.00     0.012 A 
ATOM     83  C   UNL     1       3.422  15.371  -4.255  1.00  0.00     0.148 A 
ATOM     84  C   UNL     1       1.465  17.248  -4.984  1.00  0.00     0.002 A 
ATOM     85  C   UNL     1       3.786  16.673  -4.566  1.00  0.00     0.091 A 
ATOM     86  F   UNL     1       4.332  14.439  -3.935  1.00  0.00    -0.205 F 
ATOM     87  C   UNL     1       2.811  17.610  -4.944  1.00  0.00     0.022 A 
BRANCH  85  88
ATOM     88  S   UNL     1       5.480  17.253  -4.442  1.00  0.00     0.127 S 
ATOM     89  O   UNL     1       5.827  17.463  -5.846  1.00  0.00    -0.237 OA
ATOM     90  O   UNL     1       5.328  18.481  -3.660  1.00  0.00    -0.237 OA
ATOM     91  O   UNL     1       6.222  16.195  -3.769  1.00  0.00    -0.744 OA
ENDBRANCH  85  88
ENDBRANCH  58  81
ENDBRANCH  32  33
ENDBRANCH  25  27
ENDBRANCH  24  25
ENDBRANCH   1  24
TORSDOF 16
