REMARK SMILES CCCN1CCC[C@@]2(CCN(c3ccc(C(=O)OCCOC(=O)c4ccc(-c5c6nc(c(-c7cccc(S(=O)(=O)[O-])c7F)c7ccc([nH]7)c(-c7cccc(S(=O)(=O)[O-])c7F)c7nc(c(-c8cccc(S(=O)(=O)[O-])c8F)c8ccc5[nH]8)C=C7)C=C6)cc4)cn3)C2)C1=O
REMARK SMILES IDX 19 1 18 2 16 3 17 4 15 5 12 6 13 7 88 8 14 9 87 10 11 11
REMARK SMILES IDX 4 12 5 13 90 14 6 15 8 16 91 17 7 18 9 19 89 20 10 21 3 22
REMARK SMILES IDX 2 23 1 24 20 25 21 26 22 27 23 28 24 29 25 30 86 31 26 32
REMARK SMILES IDX 85 33 27 34 28 35 29 36 79 37 30 38 84 39 78 40 80 41 31 42
REMARK SMILES IDX 83 43 77 44 76 45 32 47 64 48 44 49 63 50 45 51 48 52 62 53
REMARK SMILES IDX 81 54 46 55 47 56 61 58 82 59 49 60 33 61 34 62 42 63 35 64
REMARK SMILES IDX 37 65 43 66 36 67 38 68 39 69 40 70 41 71 65 72 66 73 74 74
REMARK SMILES IDX 67 75 69 76 75 77 68 78 70 79 71 80 72 81 73 82 50 83 51 84
REMARK SMILES IDX 59 85 52 86 54 87 60 88 53 89 55 90 56 91 57 92 58 93
REMARK H PARENT 80 46 48 57
REMARK Flexibility Score: inf
ROOT
ATOM      1  C   UNL     1      -8.510   1.521  -3.494  1.00  0.00     0.275 C 
ENDROOT
BRANCH   1   2
ATOM      2  O   UNL     1      -7.767   0.944  -2.400  1.00  0.00    -0.458 OA
BRANCH   2   3
ATOM      3  C   UNL     1      -6.416   0.985  -2.518  1.00  0.00     0.339 C 
ATOM      4  O   UNL     1      -5.783   1.412  -3.466  1.00  0.00    -0.246 OA
BRANCH   3   5
ATOM      5  C   UNL     1      -5.769   0.469  -1.300  1.00  0.00     0.078 A 
ATOM      6  C   UNL     1      -4.307  -0.461   0.852  1.00  0.00     0.128 A 
ATOM      7  C   UNL     1      -5.404  -1.190   0.382  1.00  0.00     0.048 A 
ATOM      8  N   UNL     1      -3.949   0.700   0.287  1.00  0.00    -0.238 NA
ATOM      9  C   UNL     1      -6.158  -0.715  -0.693  1.00  0.00     0.021 A 
ATOM     10  C   UNL     1      -4.659   1.120  -0.784  1.00  0.00     0.129 A 
BRANCH   6  11
ATOM     11  N   UNL     1      -3.497  -1.001   1.832  1.00  0.00    -0.356 N 
ATOM     12  N   UNL     1       0.245  -2.700   0.833  1.00  0.00    -0.342 N 
ATOM     13  C   UNL     1       0.288  -4.109   1.202  1.00  0.00     0.119 C 
ATOM     14  C   UNL     1      -0.142  -1.837   1.858  1.00  0.00     0.230 C 
ATOM     15  C   UNL     1      -0.990  -4.586   1.889  1.00  0.00     0.023 C 
ATOM     16  C   UNL     1      -1.511  -2.178   2.443  1.00  0.00     0.069 C 
ATOM     17  O   UNL     1       0.564  -0.924   2.270  1.00  0.00    -0.274 OA
ATOM     18  C   UNL     1      -1.441  -3.612   2.982  1.00  0.00     0.021 C 
ATOM     19  C   UNL     1      -1.931  -1.146   3.512  1.00  0.00     0.040 C 
ATOM     20  C   UNL     1      -2.592  -2.038   1.341  1.00  0.00     0.135 C 
ATOM     21  C   UNL     1      -2.744  -0.122   2.717  1.00  0.00     0.119 C 
BRANCH  12  22
ATOM     22  C   UNL     1       1.202  -2.230  -0.169  1.00  0.00     0.119 C 
BRANCH  22  23
ATOM     23  C   UNL     1       0.734  -1.000  -0.967  1.00  0.00     0.018 C 
ATOM     24  C   UNL     1       1.102   0.342  -0.346  1.00  0.00     0.006 C 
ENDBRANCH  22  23
ENDBRANCH  12  22
ENDBRANCH   6  11
ENDBRANCH   3   5
ENDBRANCH   2   3
ENDBRANCH   1   2
BRANCH   1  25
ATOM     25  C   UNL     1      -9.040   2.914  -3.147  1.00  0.00     0.275 C 
BRANCH  25  26
ATOM     26  O   UNL     1      -7.973   3.877  -3.092  1.00  0.00    -0.458 OA
BRANCH  26  27
ATOM     27  C   UNL     1      -7.528   4.154  -1.847  1.00  0.00     0.338 C 
ATOM     28  O   UNL     1      -7.949   3.699  -0.795  1.00  0.00    -0.246 OA
BRANCH  27  29
ATOM     29  C   UNL     1      -6.348   5.025  -1.902  1.00  0.00     0.060 A 
ATOM     30  C   UNL     1      -5.112   4.417  -2.075  1.00  0.00     0.016 A 
ATOM     31  C   UNL     1      -6.422   6.373  -1.567  1.00  0.00     0.016 A 
ATOM     32  C   UNL     1      -3.946   5.093  -1.741  1.00  0.00     0.010 A 
ATOM     33  C   UNL     1      -5.236   7.097  -1.388  1.00  0.00     0.010 A 
ATOM     34  C   UNL     1      -3.983   6.453  -1.417  1.00  0.00    -0.014 A 
BRANCH  34  35
ATOM     35  C   UNL     1      -2.720   7.184  -1.107  1.00  0.00     0.031 A 
ATOM     36  C   UNL     1      -2.576   7.960   0.178  1.00  0.00     0.074 A 
ATOM     37  C   UNL     1      -1.695   7.161  -1.986  1.00  0.00     0.049 A 
ATOM     38  N   UNL     1      -1.632   8.790   0.543  1.00  0.00    -0.248 NA
ATOM     39  C   UNL     1      -3.646   7.801   1.176  1.00  0.00     0.031 C 
ATOM     40  C   UNL     1      -1.684   6.435  -3.259  1.00  0.00     0.029 A 
ATOM     41  N   UNL     1      -0.465   7.772  -1.949  1.00  0.00    -0.354 N 
ATOM     42  C   UNL     1      -2.032   9.312   1.768  1.00  0.00     0.074 A 
ATOM     43  C   UNL     1      -3.306   8.704   2.086  1.00  0.00     0.031 C 
ATOM     44  C   UNL     1      -0.502   6.613  -3.863  1.00  0.00     0.029 A 
ATOM     45  C   UNL     1       0.291   7.548  -3.078  1.00  0.00     0.049 A 
ATOM     46  H   UNL     1      -0.154   8.316  -1.190  1.00  0.00     0.167 HD
ATOM     47  C   UNL     1      -1.395  10.211   2.559  1.00  0.00     0.034 A 
ATOM     48  C   UNL     1       1.466   8.073  -3.472  1.00  0.00     0.034 A 
ATOM     49  C   UNL     1      -0.097  10.761   2.266  1.00  0.00     0.049 A 
ATOM     50  C   UNL     1       2.147   9.075  -2.587  1.00  0.00     0.074 A 
ATOM     51  C   UNL     1       0.658  11.638   3.025  1.00  0.00     0.029 A 
ATOM     52  N   UNL     1       0.642  10.486   1.124  1.00  0.00    -0.354 N 
ATOM     53  N   UNL     1       1.773   9.527  -1.415  1.00  0.00    -0.248 NA
ATOM     54  C   UNL     1       3.417   9.629  -3.071  1.00  0.00     0.031 C 
ATOM     55  C   UNL     1       1.836  11.921   2.325  1.00  0.00     0.029 A 
ATOM     56  C   UNL     1       1.836  11.188   1.150  1.00  0.00     0.049 A 
ATOM     57  H   UNL     1       0.359   9.881   0.401  1.00  0.00     0.167 HD
ATOM     58  C   UNL     1       2.776  10.396  -1.005  1.00  0.00     0.074 A 
ATOM     59  C   UNL     1       3.783  10.390  -2.048  1.00  0.00     0.031 C 
ATOM     60  C   UNL     1       2.850  11.140   0.126  1.00  0.00     0.034 A 
BRANCH  47  61
ATOM     61  C   UNL     1      -2.095  10.658   3.820  1.00  0.00     0.023 A 
ATOM     62  C   UNL     1      -2.256   9.766   4.899  1.00  0.00     0.012 A 
ATOM     63  C   UNL     1      -2.567  11.981   3.947  1.00  0.00     0.148 A 
ATOM     64  C   UNL     1      -2.918  10.165   6.061  1.00  0.00     0.002 A 
ATOM     65  C   UNL     1      -3.180  12.387   5.127  1.00  0.00     0.091 A 
ATOM     66  F   UNL     1      -2.422  12.815   2.907  1.00  0.00    -0.205 F 
ATOM     67  C   UNL     1      -3.372  11.477   6.178  1.00  0.00     0.022 A 
BRANCH  65  68
ATOM     68  S   UNL     1      -3.721  14.078   5.405  1.00  0.00     0.127 S 
ATOM     69  O   UNL     1      -5.175  13.939   5.333  1.00  0.00    -0.237 OA
ATOM     70  O   UNL     1      -3.202  14.352   6.745  1.00  0.00    -0.237 OA
ATOM     71  O   UNL     1      -3.115  14.873   4.347  1.00  0.00    -0.744 OA
ENDBRANCH  65  68
ENDBRANCH  47  61
BRANCH  48  72
ATOM     72  C   UNL     1       2.068   7.647  -4.768  1.00  0.00     0.023 A 
ATOM     73  C   UNL     1       3.242   6.870  -4.762  1.00  0.00     0.012 A 
ATOM     74  C   UNL     1       1.454   7.955  -5.999  1.00  0.00     0.148 A 
ATOM     75  C   UNL     1       3.806   6.426  -5.958  1.00  0.00     0.002 A 
ATOM     76  C   UNL     1       1.985   7.457  -7.182  1.00  0.00     0.091 A 
ATOM     77  F   UNL     1       0.343   8.704  -5.984  1.00  0.00    -0.205 F 
ATOM     78  C   UNL     1       3.171   6.707  -7.166  1.00  0.00     0.022 A 
BRANCH  76  79
ATOM     79  S   UNL     1       1.163   7.647  -8.768  1.00  0.00     0.127 S 
ATOM     80  O   UNL     1       2.094   8.515  -9.485  1.00  0.00    -0.237 OA
ATOM     81  O   UNL     1       1.113   6.266  -9.247  1.00  0.00    -0.237 OA
ATOM     82  O   UNL     1      -0.139   8.229  -8.472  1.00  0.00    -0.744 OA
ENDBRANCH  76  79
ENDBRANCH  48  72
BRANCH  60  83
ATOM     83  C   UNL     1       4.085  11.979   0.322  1.00  0.00     0.023 A 
ATOM     84  C   UNL     1       4.288  13.132  -0.463  1.00  0.00     0.012 A 
ATOM     85  C   UNL     1       5.016  11.654   1.328  1.00  0.00     0.148 A 
ATOM     86  C   UNL     1       5.418  13.927  -0.274  1.00  0.00     0.002 A 
ATOM     87  C   UNL     1       6.111  12.480   1.546  1.00  0.00     0.091 A 
ATOM     88  F   UNL     1       4.815  10.543   2.050  1.00  0.00    -0.205 F 
ATOM     89  C   UNL     1       6.322  13.608   0.737  1.00  0.00     0.022 A 
BRANCH  87  90
ATOM     90  S   UNL     1       7.273  12.206   2.888  1.00  0.00     0.127 S 
ATOM     91  O   UNL     1       8.471  11.787   2.163  1.00  0.00    -0.237 OA
ATOM     92  O   UNL     1       7.362  13.534   3.496  1.00  0.00    -0.237 OA
ATOM     93  O   UNL     1       6.672  11.189   3.741  1.00  0.00    -0.744 OA
ENDBRANCH  87  90
ENDBRANCH  60  83
ENDBRANCH  34  35
ENDBRANCH  27  29
ENDBRANCH  26  27
ENDBRANCH  25  26
ENDBRANCH   1  25
TORSDOF 17
