REMARK SMILES C[C@H]1CC[C@@]2(CO)C(C(=O)OCCOC(=O)c3ccc(-c4c5nc(c(-c6cccc(S(=O)(=O)[O-])c6F)c6ccc([nH]6)c(-c6cccc(S(=O)(=O)[O-])c6F)c6nc(c(-c7cccc(S(=O)(=O)[O-])c7F)c7ccc4[nH]7)C=C6)C=C5)cc3)=C[C@@H](O)C[C@@H]2[C@@]1(C)CCc1ccoc1
REMARK SMILES IDX 12 1 11 2 9 3 10 4 8 5 1 6 2 7 3 8 85 9 4 10 84 11 86 12
REMARK SMILES IDX 5 13 83 14 81 15 80 16 87 17 88 18 89 19 90 20 93 21 91 22
REMARK SMILES IDX 92 23 6 24 7 25 82 27 13 29 14 30 15 31 16 32 17 33 18 34
REMARK SMILES IDX 79 35 19 36 78 37 20 38 21 39 22 40 72 41 23 42 77 43 71 44
REMARK SMILES IDX 73 45 24 46 76 47 70 48 69 49 25 51 57 52 37 53 56 54 38 55
REMARK SMILES IDX 41 56 55 57 74 58 39 59 40 60 54 62 75 63 42 64 26 65 27 66
REMARK SMILES IDX 35 67 28 68 30 69 36 70 29 71 31 72 32 73 33 74 34 75 58 76
REMARK SMILES IDX 59 77 67 78 60 79 62 80 68 81 61 82 63 83 64 84 65 85 66 86
REMARK SMILES IDX 43 87 44 88 52 89 45 90 47 91 53 92 46 93 48 94 49 95 50 96
REMARK SMILES IDX 51 97
REMARK H PARENT 7 26 82 28 73 50 41 61
REMARK Flexibility Score: inf
ROOT
ATOM      1  C   UNL     1       3.114  -1.373   2.664  1.00  0.00     0.275 C 
ENDROOT
BRANCH   1   2
ATOM      2  O   UNL     1       1.892  -1.709   1.976  1.00  0.00    -0.459 OA
BRANCH   2   3
ATOM      3  C   UNL     1       1.734  -1.069   0.779  1.00  0.00     0.334 C 
ATOM      4  O   UNL     1       2.510  -0.234   0.367  1.00  0.00    -0.247 OA
BRANCH   3   5
ATOM      5  C   UNL     1       0.521  -1.564   0.023  1.00  0.00     0.044 C 
ATOM      6  C   UNL     1       1.255   2.728  -0.800  1.00  0.00     0.008 C 
ATOM      7  C   UNL     1       0.127   2.296  -1.771  1.00  0.00    -0.008 C 
ATOM      8  C   UNL     1       0.708   1.263  -2.743  1.00  0.00     0.005 C 
ATOM      9  C   UNL     1      -1.209   1.785  -1.081  1.00  0.00    -0.026 C 
ATOM     10  C   UNL     1       1.003  -0.093  -2.108  1.00  0.00     0.015 C 
ATOM     11  C   UNL     1      -0.834   0.477  -0.283  1.00  0.00     0.011 C 
ATOM     12  C   UNL     1      -2.314   1.542  -2.141  1.00  0.00     0.012 C 
ATOM     13  C   UNL     1      -0.060  -0.648  -1.109  1.00  0.00     0.029 C 
ATOM     14  C   UNL     1      -1.953  -0.197   0.572  1.00  0.00     0.041 C 
ATOM     15  C   UNL     1      -1.437  -1.355   1.459  1.00  0.00     0.138 C 
ATOM     16  C   UNL     1      -0.375  -2.217   0.804  1.00  0.00     0.016 C 
BRANCH   9  17
ATOM     17  C   UNL     1      -1.711   2.981  -0.186  1.00  0.00     0.012 C 
BRANCH  17  18
ATOM     18  C   UNL     1      -3.074   2.893   0.521  1.00  0.00     0.039 C 
BRANCH  18  19
ATOM     19  C   UNL     1      -2.975   3.155   1.997  1.00  0.00    -0.010 A 
ATOM     20  C   UNL     1      -3.868   3.925   2.796  1.00  0.00     0.045 A 
ATOM     21  C   UNL     1      -1.995   2.724   2.874  1.00  0.00     0.198 A 
ATOM     22  C   UNL     1      -3.357   3.923   4.072  1.00  0.00     0.195 A 
ATOM     23  O   UNL     1      -2.217   3.193   4.126  1.00  0.00    -0.472 OA
ENDBRANCH  18  19
ENDBRANCH  17  18
ENDBRANCH   9  17
BRANCH  13  24
ATOM     24  C   UNL     1      -0.994  -1.581  -1.982  1.00  0.00     0.168 C 
BRANCH  24  25
ATOM     25  O   UNL     1      -1.411  -1.001  -3.208  1.00  0.00    -0.395 OA
ATOM     26  H   UNL     1      -1.940  -0.208  -3.027  1.00  0.00     0.210 HD
ENDBRANCH  24  25
ENDBRANCH  13  24
BRANCH  15  27
ATOM     27  O   UNL     1      -0.891  -0.801   2.654  1.00  0.00    -0.389 OA
ATOM     28  H   UNL     1      -0.136  -0.235   2.432  1.00  0.00     0.211 HD
ENDBRANCH  15  27
ENDBRANCH   3   5
ENDBRANCH   2   3
ENDBRANCH   1   2
BRANCH   1  29
ATOM     29  C   UNL     1       4.234  -2.370   2.345  1.00  0.00     0.275 C 
BRANCH  29  30
ATOM     30  O   UNL     1       4.606  -2.343   0.954  1.00  0.00    -0.458 OA
BRANCH  30  31
ATOM     31  C   UNL     1       3.933  -3.211   0.158  1.00  0.00     0.338 C 
ATOM     32  O   UNL     1       3.130  -4.057   0.525  1.00  0.00    -0.246 OA
BRANCH  31  33
ATOM     33  C   UNL     1       4.159  -2.893  -1.270  1.00  0.00     0.060 A 
ATOM     34  C   UNL     1       3.058  -2.977  -2.131  1.00  0.00     0.016 A 
ATOM     35  C   UNL     1       5.414  -2.545  -1.774  1.00  0.00     0.016 A 
ATOM     36  C   UNL     1       3.199  -2.696  -3.489  1.00  0.00     0.010 A 
ATOM     37  C   UNL     1       5.564  -2.302  -3.146  1.00  0.00     0.010 A 
ATOM     38  C   UNL     1       4.459  -2.383  -4.010  1.00  0.00    -0.014 A 
BRANCH  38  39
ATOM     39  C   UNL     1       4.638  -2.295  -5.479  1.00  0.00     0.031 A 
ATOM     40  C   UNL     1       4.845  -3.565  -6.254  1.00  0.00     0.074 A 
ATOM     41  C   UNL     1       4.616  -1.111  -6.117  1.00  0.00     0.049 A 
ATOM     42  N   UNL     1       5.070  -3.727  -7.531  1.00  0.00    -0.248 NA
ATOM     43  C   UNL     1       4.776  -4.821  -5.488  1.00  0.00     0.031 C 
ATOM     44  C   UNL     1       4.376   0.185  -5.488  1.00  0.00     0.029 A 
ATOM     45  N   UNL     1       4.826  -0.812  -7.441  1.00  0.00    -0.354 N 
ATOM     46  C   UNL     1       5.178  -5.098  -7.723  1.00  0.00     0.074 A 
ATOM     47  C   UNL     1       4.988  -5.726  -6.433  1.00  0.00     0.031 C 
ATOM     48  C   UNL     1       4.502   1.149  -6.419  1.00  0.00     0.029 A 
ATOM     49  C   UNL     1       4.853   0.538  -7.701  1.00  0.00     0.049 A 
ATOM     50  H   UNL     1       4.946  -1.498  -8.137  1.00  0.00     0.167 HD
ATOM     51  C   UNL     1       5.412  -5.778  -8.868  1.00  0.00     0.034 A 
ATOM     52  C   UNL     1       5.157   1.201  -8.835  1.00  0.00     0.034 A 
ATOM     53  C   UNL     1       5.636  -5.162 -10.146  1.00  0.00     0.049 A 
ATOM     54  C   UNL     1       5.491   0.423 -10.084  1.00  0.00     0.074 A 
ATOM     55  C   UNL     1       5.910  -5.772 -11.357  1.00  0.00     0.029 A 
ATOM     56  N   UNL     1       5.632  -3.796 -10.375  1.00  0.00    -0.354 N 
ATOM     57  N   UNL     1       5.506  -0.875 -10.271  1.00  0.00    -0.248 NA
ATOM     58  C   UNL     1       5.826   1.201 -11.287  1.00  0.00     0.031 C 
ATOM     59  C   UNL     1       6.090  -4.771 -12.317  1.00  0.00     0.029 A 
ATOM     60  C   UNL     1       5.904  -3.540 -11.708  1.00  0.00     0.049 A 
ATOM     61  H   UNL     1       5.461  -3.108  -9.692  1.00  0.00     0.167 HD
ATOM     62  C   UNL     1       5.821  -1.067 -11.613  1.00  0.00     0.074 A 
ATOM     63  C   UNL     1       5.968   0.248 -12.200  1.00  0.00     0.031 C 
ATOM     64  C   UNL     1       5.990  -2.228 -12.294  1.00  0.00     0.034 A 
BRANCH  51  65
ATOM     65  C   UNL     1       5.429  -7.278  -8.785  1.00  0.00     0.023 A 
ATOM     66  C   UNL     1       4.210  -7.977  -8.689  1.00  0.00     0.012 A 
ATOM     67  C   UNL     1       6.641  -7.993  -8.835  1.00  0.00     0.148 A 
ATOM     68  C   UNL     1       4.197  -9.369  -8.622  1.00  0.00     0.002 A 
ATOM     69  C   UNL     1       6.617  -9.381  -8.803  1.00  0.00     0.091 A 
ATOM     70  F   UNL     1       7.788  -7.303  -8.899  1.00  0.00    -0.205 F 
ATOM     71  C   UNL     1       5.398 -10.070  -8.688  1.00  0.00     0.022 A 
BRANCH  69  72
ATOM     72  S   UNL     1       8.104 -10.378  -8.938  1.00  0.00     0.127 S 
ATOM     73  O   UNL     1       8.209 -10.934  -7.589  1.00  0.00    -0.237 OA
ATOM     74  O   UNL     1       7.733 -11.346  -9.970  1.00  0.00    -0.237 OA
ATOM     75  O   UNL     1       9.170  -9.461  -9.318  1.00  0.00    -0.744 OA
ENDBRANCH  69  72
ENDBRANCH  51  65
BRANCH  52  76
ATOM     76  C   UNL     1       5.158   2.692  -8.851  1.00  0.00     0.023 A 
ATOM     77  C   UNL     1       4.177   3.382  -9.589  1.00  0.00     0.012 A 
ATOM     78  C   UNL     1       6.126   3.429  -8.139  1.00  0.00     0.148 A 
ATOM     79  C   UNL     1       4.176   4.777  -9.642  1.00  0.00     0.002 A 
ATOM     80  C   UNL     1       6.089   4.818  -8.154  1.00  0.00     0.091 A 
ATOM     81  F   UNL     1       7.065   2.753  -7.461  1.00  0.00    -0.205 F 
ATOM     82  C   UNL     1       5.125   5.494  -8.917  1.00  0.00     0.022 A 
BRANCH  80  83
ATOM     83  S   UNL     1       7.201   5.825  -7.166  1.00  0.00     0.127 S 
ATOM     84  O   UNL     1       8.030   6.451  -8.193  1.00  0.00    -0.237 OA
ATOM     85  O   UNL     1       6.268   6.729  -6.492  1.00  0.00    -0.237 OA
ATOM     86  O   UNL     1       7.889   4.899  -6.278  1.00  0.00    -0.744 OA
ENDBRANCH  80  83
ENDBRANCH  52  76
BRANCH  64  87
ATOM     87  C   UNL     1       6.325  -2.149 -13.762  1.00  0.00     0.023 A 
ATOM     88  C   UNL     1       7.622  -1.771 -14.162  1.00  0.00     0.012 A 
ATOM     89  C   UNL     1       5.390  -2.551 -14.736  1.00  0.00     0.148 A 
ATOM     90  C   UNL     1       7.976  -1.776 -15.511  1.00  0.00     0.002 A 
ATOM     91  C   UNL     1       5.764  -2.596 -16.075  1.00  0.00     0.091 A 
ATOM     92  F   UNL     1       4.155  -2.890 -14.338  1.00  0.00    -0.205 F 
ATOM     93  C   UNL     1       7.054  -2.200 -16.465  1.00  0.00     0.022 A 
BRANCH  91  94
ATOM     94  S   UNL     1       4.672  -3.223 -17.357  1.00  0.00     0.127 S 
ATOM     95  O   UNL     1       4.258  -1.990 -18.025  1.00  0.00    -0.237 OA
ATOM     96  O   UNL     1       5.568  -4.071 -18.145  1.00  0.00    -0.237 OA
ATOM     97  O   UNL     1       3.615  -3.946 -16.663  1.00  0.00    -0.744 OA
ENDBRANCH  91  94
ENDBRANCH  64  87
ENDBRANCH  38  39
ENDBRANCH  31  33
ENDBRANCH  30  31
ENDBRANCH  29  30
ENDBRANCH   1  29
TORSDOF 20
