REMARK SMILES CC(C)[C@@H]1SC[C@@H](C(=O)OCCOC(=O)c2ccc(-c3c4nc(c(-c5cccc(S(=O)(=O)[O-])c5F)c5ccc([nH]5)c(-c5cccc(S(=O)(=O)[O-])c5F)c5nc(c(-c6cccc(S(=O)(=O)[O-])c6F)c6ccc3[nH]6)C=C5)C=C4)cc2)N1C(=O)COCC[NH3+]
REMARK SMILES IDX 10 1 8 2 9 3 7 4 4 5 5 6 79 7 6 8 2 9 1 10 3 11 80 12 81 13
REMARK SMILES IDX 82 14 83 15 84 16 85 17 86 18 11 22 12 23 13 24 14 25 15 26
REMARK SMILES IDX 16 27 17 28 78 29 18 30 77 31 19 32 20 33 21 34 71 35 22 36
REMARK SMILES IDX 76 37 70 38 72 39 23 40 75 41 69 42 68 43 24 45 56 46 36 47
REMARK SMILES IDX 55 48 37 49 40 50 54 51 73 52 38 53 39 54 53 56 74 57 41 58
REMARK SMILES IDX 25 59 26 60 34 61 27 62 29 63 35 64 28 65 30 66 31 67 32 68
REMARK SMILES IDX 33 69 57 70 58 71 66 72 59 73 61 74 67 75 60 76 62 77 63 78
REMARK SMILES IDX 64 79 65 80 42 81 43 82 51 83 44 84 46 85 52 86 45 87 47 88
REMARK SMILES IDX 48 89 49 90 50 91
REMARK H PARENT 86 19 86 20 86 21 72 44 40 55
REMARK Flexibility Score: inf
ROOT
ATOM      1  O   UNL     1       0.662  -2.710   2.521  1.00  0.00    -0.461 OA
ENDROOT
BRANCH   1   2
ATOM      2  C   UNL     1      -0.284  -3.277   1.717  1.00  0.00     0.329 C 
ATOM      3  O   UNL     1      -0.223  -4.421   1.275  1.00  0.00    -0.250 OA
BRANCH   2   4
ATOM      4  C   UNL     1      -1.375  -2.285   1.271  1.00  0.00     0.206 C 
ATOM      5  C   UNL     1      -0.669   0.087   1.468  1.00  0.00     0.146 C 
ATOM      6  S   UNL     1       0.082  -0.611  -0.082  1.00  0.00    -0.134 SA
ATOM      7  N   UNL     1      -1.460  -1.015   2.026  1.00  0.00    -0.314 N 
ATOM      8  C   UNL     1      -1.114  -1.961  -0.188  1.00  0.00     0.109 C 
BRANCH   5   9
ATOM      9  C   UNL     1      -1.411   1.384   1.022  1.00  0.00     0.016 C 
ATOM     10  C   UNL     1      -2.866   1.183   0.594  1.00  0.00     0.010 C 
ATOM     11  C   UNL     1      -1.297   2.535   2.026  1.00  0.00     0.010 C 
ENDBRANCH   5   9
BRANCH   7  12
ATOM     12  C   UNL     1      -2.146  -1.065   3.225  1.00  0.00     0.250 C 
ATOM     13  O   UNL     1      -2.807  -2.068   3.513  1.00  0.00    -0.272 OA
BRANCH  12  14
ATOM     14  C   UNL     1      -2.192   0.134   4.177  1.00  0.00     0.260 C 
BRANCH  14  15
ATOM     15  O   UNL     1      -1.013   0.862   4.454  1.00  0.00    -0.366 OA
BRANCH  15  16
ATOM     16  C   UNL     1      -0.081   0.161   5.280  1.00  0.00     0.222 C 
BRANCH  16  17
ATOM     17  C   UNL     1      -0.284   0.403   6.788  1.00  0.00     0.287 C 
BRANCH  17  18
ATOM     18  N   UNL     1      -1.458  -0.248   7.361  1.00  0.00    -0.356 N 
ATOM     19  H   UNL     1      -2.301   0.126   6.925  1.00  0.00     0.344 HD
ATOM     20  H   UNL     1      -1.489  -0.072   8.366  1.00  0.00     0.344 HD
ATOM     21  H   UNL     1      -1.406  -1.253   7.194  1.00  0.00     0.344 HD
ENDBRANCH  17  18
ENDBRANCH  16  17
ENDBRANCH  15  16
ENDBRANCH  14  15
ENDBRANCH  12  14
ENDBRANCH   7  12
ENDBRANCH   2   4
ENDBRANCH   1   2
BRANCH   1  22
ATOM     22  C   UNL     1       1.817  -3.529   2.794  1.00  0.00     0.274 C 
BRANCH  22  23
ATOM     23  C   UNL     1       1.788  -4.056   4.222  1.00  0.00     0.275 C 
BRANCH  23  24
ATOM     24  O   UNL     1       0.568  -4.776   4.443  1.00  0.00    -0.458 OA
BRANCH  24  25
ATOM     25  C   UNL     1      -0.289  -4.175   5.300  1.00  0.00     0.338 C 
ATOM     26  O   UNL     1      -0.089  -3.164   5.949  1.00  0.00    -0.246 OA
BRANCH  25  27
ATOM     27  C   UNL     1      -1.530  -4.950   5.387  1.00  0.00     0.060 A 
ATOM     28  C   UNL     1      -2.444  -4.934   4.333  1.00  0.00     0.016 A 
ATOM     29  C   UNL     1      -1.836  -5.584   6.590  1.00  0.00     0.016 A 
ATOM     30  C   UNL     1      -3.711  -5.482   4.512  1.00  0.00     0.010 A 
ATOM     31  C   UNL     1      -3.077  -6.199   6.739  1.00  0.00     0.010 A 
ATOM     32  C   UNL     1      -4.038  -6.118   5.717  1.00  0.00    -0.014 A 
BRANCH  32  33
ATOM     33  C   UNL     1      -5.389  -6.687   5.930  1.00  0.00     0.031 A 
ATOM     34  C   UNL     1      -6.295  -6.104   6.978  1.00  0.00     0.074 A 
ATOM     35  C   UNL     1      -5.777  -7.755   5.209  1.00  0.00     0.049 A 
ATOM     36  N   UNL     1      -7.450  -6.543   7.406  1.00  0.00    -0.248 NA
ATOM     37  C   UNL     1      -5.835  -4.874   7.644  1.00  0.00     0.031 C 
ATOM     38  C   UNL     1      -4.981  -8.399   4.163  1.00  0.00     0.029 A 
ATOM     39  N   UNL     1      -6.927  -8.499   5.261  1.00  0.00    -0.354 N 
ATOM     40  C   UNL     1      -7.827  -5.682   8.430  1.00  0.00     0.074 A 
ATOM     41  C   UNL     1      -6.781  -4.690   8.555  1.00  0.00     0.031 C 
ATOM     42  C   UNL     1      -5.669  -9.438   3.666  1.00  0.00     0.029 A 
ATOM     43  C   UNL     1      -6.927  -9.566   4.394  1.00  0.00     0.049 A 
ATOM     44  H   UNL     1      -7.680  -8.290   5.860  1.00  0.00     0.167 HD
ATOM     45  C   UNL     1      -8.950  -5.711   9.186  1.00  0.00     0.034 A 
ATOM     46  C   UNL     1      -7.829 -10.550   4.222  1.00  0.00     0.034 A 
ATOM     47  C   UNL     1     -10.014  -6.662   9.008  1.00  0.00     0.049 A 
ATOM     48  C   UNL     1      -9.070 -10.552   5.068  1.00  0.00     0.074 A 
ATOM     49  C   UNL     1     -11.224  -6.738   9.675  1.00  0.00     0.029 A 
ATOM     50  N   UNL     1      -9.998  -7.702   8.090  1.00  0.00    -0.354 N 
ATOM     51  N   UNL     1      -9.453  -9.684   5.973  1.00  0.00    -0.248 NA
ATOM     52  C   UNL     1     -10.012 -11.661   4.860  1.00  0.00     0.031 C 
ATOM     53  C   UNL     1     -11.937  -7.829   9.164  1.00  0.00     0.029 A 
ATOM     54  C   UNL     1     -11.173  -8.430   8.176  1.00  0.00     0.049 A 
ATOM     55  H   UNL     1      -9.260  -7.895   7.468  1.00  0.00     0.167 HD
ATOM     56  C   UNL     1     -10.688 -10.126   6.427  1.00  0.00     0.074 A 
ATOM     57  C   UNL     1     -11.000 -11.329   5.681  1.00  0.00     0.031 C 
ATOM     58  C   UNL     1     -11.485  -9.596   7.388  1.00  0.00     0.034 A 
BRANCH  45  59
ATOM     59  C   UNL     1      -9.099  -4.660  10.253  1.00  0.00     0.023 A 
ATOM     60  C   UNL     1      -9.440  -3.342   9.888  1.00  0.00     0.012 A 
ATOM     61  C   UNL     1      -8.941  -4.979  11.615  1.00  0.00     0.148 A 
ATOM     62  C   UNL     1      -9.593  -2.353  10.860  1.00  0.00     0.002 A 
ATOM     63  C   UNL     1      -9.127  -3.995  12.581  1.00  0.00     0.091 A 
ATOM     64  F   UNL     1      -8.586  -6.230  11.946  1.00  0.00    -0.205 F 
ATOM     65  C   UNL     1      -9.446  -2.681  12.205  1.00  0.00     0.022 A 
BRANCH  63  66
ATOM     66  S   UNL     1      -9.018  -4.359  14.338  1.00  0.00     0.127 S 
ATOM     67  O   UNL     1      -7.640  -3.978  14.636  1.00  0.00    -0.237 OA
ATOM     68  O   UNL     1     -10.032  -3.471  14.911  1.00  0.00    -0.237 OA
ATOM     69  O   UNL     1      -9.329  -5.777  14.459  1.00  0.00    -0.744 OA
ENDBRANCH  63  66
ENDBRANCH  45  59
BRANCH  46  70
ATOM     70  C   UNL     1      -7.606 -11.572   3.162  1.00  0.00     0.023 A 
ATOM     71  C   UNL     1      -8.404 -11.536   2.003  1.00  0.00     0.012 A 
ATOM     72  C   UNL     1      -6.569 -12.521   3.256  1.00  0.00     0.148 A 
ATOM     73  C   UNL     1      -8.180 -12.433   0.959  1.00  0.00     0.002 A 
ATOM     74  C   UNL     1      -6.317 -13.376   2.189  1.00  0.00     0.091 A 
ATOM     75  F   UNL     1      -5.833 -12.551   4.376  1.00  0.00    -0.205 F 
ATOM     76  C   UNL     1      -7.128 -13.342   1.045  1.00  0.00     0.022 A 
BRANCH  74  77
ATOM     77  S   UNL     1      -4.902 -14.483   2.159  1.00  0.00     0.127 S 
ATOM     78  O   UNL     1      -5.535 -15.784   2.359  1.00  0.00    -0.237 OA
ATOM     79  O   UNL     1      -4.367 -14.259   0.815  1.00  0.00    -0.237 OA
ATOM     80  O   UNL     1      -4.028 -14.031   3.233  1.00  0.00    -0.744 OA
ENDBRANCH  74  77
ENDBRANCH  46  70
BRANCH  58  81
ATOM     81  C   UNL     1     -12.778 -10.306   7.680  1.00  0.00     0.023 A 
ATOM     82  C   UNL     1     -12.758 -11.494   8.437  1.00  0.00     0.012 A 
ATOM     83  C   UNL     1     -14.012  -9.766   7.269  1.00  0.00     0.148 A 
ATOM     84  C   UNL     1     -13.946 -12.147   8.760  1.00  0.00     0.002 A 
ATOM     85  C   UNL     1     -15.194 -10.402   7.629  1.00  0.00     0.091 A 
ATOM     86  F   UNL     1     -14.008  -8.648   6.528  1.00  0.00    -0.205 F 
ATOM     87  C   UNL     1     -15.163 -11.596   8.367  1.00  0.00     0.022 A 
BRANCH  85  88
ATOM     88  S   UNL     1     -16.804  -9.709   7.233  1.00  0.00     0.127 S 
ATOM     89  O   UNL     1     -17.185 -10.488   6.057  1.00  0.00    -0.237 OA
ATOM     90  O   UNL     1     -17.582 -10.004   8.437  1.00  0.00    -0.237 OA
ATOM     91  O   UNL     1     -16.574  -8.288   7.004  1.00  0.00    -0.744 OA
ENDBRANCH  85  88
ENDBRANCH  58  81
ENDBRANCH  32  33
ENDBRANCH  25  27
ENDBRANCH  24  25
ENDBRANCH  23  24
ENDBRANCH  22  23
ENDBRANCH   1  22
TORSDOF 21
