REMARK SMILES C#CCN(CC(=O)OCCOC(=O)c1ccc(-c2c3nc(c(-c4cccc(S(=O)(=O)[O-])c4F)c4ccc([nH]4)c(-c4cccc(S(=O)(=O)[O-])c4F)c4nc(c(-c5cccc(S(=O)(=O)[O-])c5F)c5ccc2[nH]5)C=C4)C=C3)cc1)C(=O)NCc1ccnc(C)n1
REMARK SMILES IDX 9 1 8 2 6 3 7 4 5 5 4 6 3 7 2 8 1 9 77 10 78 11 79 12 80 14
REMARK SMILES IDX 81 15 82 16 87 17 83 18 85 19 84 20 86 21 10 22 11 23 12 24
REMARK SMILES IDX 13 25 14 26 15 27 76 28 16 29 75 30 17 31 18 32 19 33 69 34
REMARK SMILES IDX 20 35 74 36 68 37 70 38 21 39 73 40 67 41 66 42 22 44 54 45
REMARK SMILES IDX 34 46 53 47 35 48 38 49 52 50 71 51 36 52 37 53 51 55 72 56
REMARK SMILES IDX 39 57 23 58 24 59 32 60 25 61 27 62 33 63 26 64 28 65 29 66
REMARK SMILES IDX 30 67 31 68 55 69 56 70 64 71 57 72 59 73 65 74 58 75 60 76
REMARK SMILES IDX 61 77 62 78 63 79 40 80 41 81 49 82 42 83 44 84 50 85 43 86
REMARK SMILES IDX 45 87 46 88 47 89 48 90
REMARK H PARENT 79 13 70 43 38 54
REMARK Flexibility Score: inf
ROOT
ATOM      1  C   UNL     1      -6.059   0.990  -0.824  1.00  0.00     0.274 C 
ENDROOT
BRANCH   1   2
ATOM      2  O   UNL     1      -4.679   0.608  -0.877  1.00  0.00    -0.461 OA
BRANCH   2   3
ATOM      3  C   UNL     1      -3.955   1.381  -1.739  1.00  0.00     0.325 C 
ATOM      4  O   UNL     1      -4.304   1.627  -2.887  1.00  0.00    -0.250 OA
BRANCH   3   5
ATOM      5  C   UNL     1      -2.746   2.037  -1.049  1.00  0.00     0.245 C 
BRANCH   5   6
ATOM      6  N   UNL     1      -2.398   1.379   0.198  1.00  0.00    -0.303 N 
BRANCH   6   7
ATOM      7  C   UNL     1      -1.903   0.034  -0.051  1.00  0.00     0.211 C 
BRANCH   7   8
ATOM      8  C   UNL     1      -0.383   0.034  -0.051  1.00  0.00    -0.085 C 
ATOM      9  C   UNL     1       0.921   0.034  -0.051  1.00  0.00     0.006 C 
ENDBRANCH   7   8
ENDBRANCH   6   7
BRANCH   6  10
ATOM     10  C   UNL     1      -2.676   1.715   1.490  1.00  0.00     0.319 C 
ATOM     11  O   UNL     1      -2.488   0.899   2.404  1.00  0.00    -0.249 OA
ATOM     12  N   UNL     1      -3.186   2.879   1.920  1.00  0.00    -0.332 N 
ATOM     13  H   UNL     1      -3.653   2.748   2.777  1.00  0.00     0.165 HD
BRANCH  12  14
ATOM     14  C   UNL     1      -3.265   4.282   1.515  1.00  0.00     0.174 C 
BRANCH  14  15
ATOM     15  C   UNL     1      -4.526   5.017   1.995  1.00  0.00     0.063 A 
ATOM     16  C   UNL     1      -4.483   6.386   2.204  1.00  0.00     0.046 A 
ATOM     17  N   UNL     1      -5.706   4.349   2.045  1.00  0.00    -0.236 NA
ATOM     18  C   UNL     1      -5.689   7.022   2.418  1.00  0.00     0.115 A 
ATOM     19  C   UNL     1      -6.839   5.066   2.221  1.00  0.00     0.125 A 
ATOM     20  N   UNL     1      -6.875   6.392   2.412  1.00  0.00    -0.242 NA
ATOM     21  C   UNL     1      -8.155   4.370   2.033  1.00  0.00     0.089 C 
ENDBRANCH  14  15
ENDBRANCH  12  14
ENDBRANCH   6  10
ENDBRANCH   5   6
ENDBRANCH   3   5
ENDBRANCH   2   3
ENDBRANCH   1   2
BRANCH   1  22
ATOM     22  C   UNL     1      -6.178   2.285  -0.032  1.00  0.00     0.275 C 
BRANCH  22  23
ATOM     23  O   UNL     1      -5.343   3.336  -0.568  1.00  0.00    -0.458 OA
BRANCH  23  24
ATOM     24  C   UNL     1      -5.810   4.100  -1.578  1.00  0.00     0.338 C 
ATOM     25  O   UNL     1      -6.881   3.983  -2.141  1.00  0.00    -0.246 OA
BRANCH  24  26
ATOM     26  C   UNL     1      -4.784   5.149  -1.824  1.00  0.00     0.060 A 
ATOM     27  C   UNL     1      -3.670   4.917  -2.643  1.00  0.00     0.016 A 
ATOM     28  C   UNL     1      -4.919   6.380  -1.183  1.00  0.00     0.016 A 
ATOM     29  C   UNL     1      -2.692   5.913  -2.811  1.00  0.00     0.010 A 
ATOM     30  C   UNL     1      -3.957   7.383  -1.368  1.00  0.00     0.010 A 
ATOM     31  C   UNL     1      -2.851   7.174  -2.209  1.00  0.00    -0.014 A 
BRANCH  31  32
ATOM     32  C   UNL     1      -2.116   8.370  -2.719  1.00  0.00     0.031 A 
ATOM     33  C   UNL     1      -1.081   9.122  -1.927  1.00  0.00     0.074 A 
ATOM     34  C   UNL     1      -2.567   8.886  -3.882  1.00  0.00     0.049 A 
ATOM     35  N   UNL     1      -0.499  10.261  -2.212  1.00  0.00    -0.248 NA
ATOM     36  C   UNL     1      -0.648   8.535  -0.652  1.00  0.00     0.031 C 
ATOM     37  C   UNL     1      -3.631   8.292  -4.699  1.00  0.00     0.029 A 
ATOM     38  N   UNL     1      -2.252  10.046  -4.541  1.00  0.00    -0.354 N 
ATOM     39  C   UNL     1       0.347  10.550  -1.147  1.00  0.00     0.074 A 
ATOM     40  C   UNL     1       0.203   9.456  -0.205  1.00  0.00     0.031 C 
ATOM     41  C   UNL     1      -3.918   9.115  -5.714  1.00  0.00     0.029 A 
ATOM     42  C   UNL     1      -3.076  10.299  -5.614  1.00  0.00     0.049 A 
ATOM     43  H   UNL     1      -1.512  10.638  -4.274  1.00  0.00     0.167 HD
ATOM     44  C   UNL     1       1.171  11.618  -0.981  1.00  0.00     0.034 A 
ATOM     45  C   UNL     1      -3.174  11.371  -6.423  1.00  0.00     0.034 A 
ATOM     46  C   UNL     1       1.322  12.689  -1.939  1.00  0.00     0.049 A 
ATOM     47  C   UNL     1      -2.218  12.510  -6.246  1.00  0.00     0.074 A 
ATOM     48  C   UNL     1       2.204  13.758  -1.904  1.00  0.00     0.029 A 
ATOM     49  N   UNL     1       0.569  12.841  -3.094  1.00  0.00    -0.354 N 
ATOM     50  N   UNL     1      -1.304  12.675  -5.323  1.00  0.00    -0.248 NA
ATOM     51  C   UNL     1      -2.268  13.581  -7.248  1.00  0.00     0.031 C 
ATOM     52  C   UNL     1       1.970  14.564  -3.024  1.00  0.00     0.029 A 
ATOM     53  C   UNL     1       0.961  13.985  -3.773  1.00  0.00     0.049 A 
ATOM     54  H   UNL     1      -0.141  12.226  -3.389  1.00  0.00     0.167 HD
ATOM     55  C   UNL     1      -0.636  13.845  -5.659  1.00  0.00     0.074 A 
ATOM     56  C   UNL     1      -1.249  14.344  -6.874  1.00  0.00     0.031 C 
ATOM     57  C   UNL     1       0.390  14.450  -5.012  1.00  0.00     0.034 A 
BRANCH  44  58
ATOM     58  C   UNL     1       2.038  11.679   0.258  1.00  0.00     0.023 A 
ATOM     59  C   UNL     1       3.150  10.820   0.364  1.00  0.00     0.012 A 
ATOM     60  C   UNL     1       1.839  12.668   1.246  1.00  0.00     0.148 A 
ATOM     61  C   UNL     1       4.032  10.924   1.441  1.00  0.00     0.002 A 
ATOM     62  C   UNL     1       2.744  12.790   2.296  1.00  0.00     0.091 A 
ATOM     63  F   UNL     1       0.774  13.475   1.138  1.00  0.00    -0.205 F 
ATOM     64  C   UNL     1       3.836  11.914   2.399  1.00  0.00     0.022 A 
BRANCH  62  65
ATOM     65  S   UNL     1       2.625  14.087   3.537  1.00  0.00     0.127 S 
ATOM     66  O   UNL     1       2.141  13.340   4.697  1.00  0.00    -0.237 OA
ATOM     67  O   UNL     1       4.010  14.547   3.643  1.00  0.00    -0.237 OA
ATOM     68  O   UNL     1       1.700  15.073   2.995  1.00  0.00    -0.744 OA
ENDBRANCH  62  65
ENDBRANCH  44  58
BRANCH  45  69
ATOM     69  C   UNL     1      -4.169  11.347  -7.528  1.00  0.00     0.023 A 
ATOM     70  C   UNL     1      -3.723  11.121  -8.843  1.00  0.00     0.012 A 
ATOM     71  C   UNL     1      -5.551  11.440  -7.271  1.00  0.00     0.148 A 
ATOM     72  C   UNL     1      -4.637  11.004  -9.889  1.00  0.00     0.002 A 
ATOM     73  C   UNL     1      -6.457  11.270  -8.310  1.00  0.00     0.091 A 
ATOM     74  F   UNL     1      -5.950  11.658  -6.010  1.00  0.00    -0.205 F 
ATOM     75  C   UNL     1      -6.002  11.065  -9.622  1.00  0.00     0.022 A 
BRANCH  73  76
ATOM     76  S   UNL     1      -8.231  11.189  -8.032  1.00  0.00     0.127 S 
ATOM     77  O   UNL     1      -8.671  12.485  -8.540  1.00  0.00    -0.237 OA
ATOM     78  O   UNL     1      -8.616  10.041  -8.855  1.00  0.00    -0.237 OA
ATOM     79  O   UNL     1      -8.391  10.978  -6.600  1.00  0.00    -0.744 OA
ENDBRANCH  73  76
ENDBRANCH  45  69
BRANCH  57  80
ATOM     80  C   UNL     1       0.960  15.700  -5.627  1.00  0.00     0.023 A 
ATOM     81  C   UNL     1       0.244  16.911  -5.551  1.00  0.00     0.012 A 
ATOM     82  C   UNL     1       2.235  15.686  -6.226  1.00  0.00     0.148 A 
ATOM     83  C   UNL     1       0.778  18.084  -6.085  1.00  0.00     0.002 A 
ATOM     84  C   UNL     1       2.779  16.867  -6.717  1.00  0.00     0.091 A 
ATOM     85  F   UNL     1       2.889  14.519  -6.310  1.00  0.00    -0.205 F 
ATOM     86  C   UNL     1       2.048  18.065  -6.656  1.00  0.00     0.022 A 
BRANCH  84  87
ATOM     87  S   UNL     1       4.441  16.954  -7.394  1.00  0.00     0.127 S 
ATOM     88  O   UNL     1       4.174  17.114  -8.822  1.00  0.00    -0.237 OA
ATOM     89  O   UNL     1       4.983  18.144  -6.738  1.00  0.00    -0.237 OA
ATOM     90  O   UNL     1       5.094  15.707  -7.016  1.00  0.00    -0.744 OA
ENDBRANCH  84  87
ENDBRANCH  57  80
ENDBRANCH  31  32
ENDBRANCH  24  26
ENDBRANCH  23  24
ENDBRANCH  22  23
ENDBRANCH   1  22
TORSDOF 20
