REMARK SMILES COc1cc(F)ccc1-c1ccc(=O)n(CC(=O)NCc2ccc(C(=O)OCCOC(=O)c3ccc(-c4c5nc(c(-c6cccc(S(=O)(=O)[O-])c6F)c6ccc([nH]6)c(-c6cccc(S(=O)(=O)[O-])c6F)c6nc(c(-c7cccc(S(=O)(=O)[O-])c7F)c7ccc4[nH]7)C=C6)C=C5)cc3)cc2)n1
REMARK SMILES IDX 27 1 25 2 26 3 24 4 21 5 22 6 97 7 23 8 96 9 20 10 19 11
REMARK SMILES IDX 17 12 18 13 16 15 15 16 10 17 11 18 98 19 12 20 13 21 14 22
REMARK SMILES IDX 9 23 3 24 4 25 5 26 8 27 6 28 7 29 2 30 1 31 28 32 29 33
REMARK SMILES IDX 30 34 31 35 32 36 33 37 34 38 95 39 35 40 94 41 36 42 37 43
REMARK SMILES IDX 38 44 88 45 39 46 93 47 87 48 89 49 40 50 92 51 86 52 85 53
REMARK SMILES IDX 41 55 73 56 53 57 72 58 54 59 57 60 71 61 90 62 55 63 56 64
REMARK SMILES IDX 70 66 91 67 58 68 42 69 43 70 51 71 44 72 46 73 52 74 45 75
REMARK SMILES IDX 47 76 48 77 49 78 50 79 74 80 75 81 83 82 76 83 78 84 84 85
REMARK SMILES IDX 77 86 79 87 80 88 81 89 82 90 59 91 60 92 68 93 61 94 63 95
REMARK SMILES IDX 69 96 62 97 64 98 65 99 66 100 67 101
REMARK H PARENT 19 14 89 54 57 65
REMARK Flexibility Score: inf
ROOT
ATOM      1  O   UNL     1      -3.091  -6.380   7.606  1.00  0.00    -0.458 OA
ENDROOT
BRANCH   1   2
ATOM      2  C   UNL     1      -3.785  -5.237   7.381  1.00  0.00     0.338 C 
ATOM      3  O   UNL     1      -4.102  -4.413   8.225  1.00  0.00    -0.246 OA
BRANCH   2   4
ATOM      4  C   UNL     1      -4.034  -5.045   5.928  1.00  0.00     0.060 A 
ATOM      5  C   UNL     1      -4.353  -4.502   3.181  1.00  0.00    -0.029 A 
ATOM      6  C   UNL     1      -4.551  -3.498   4.136  1.00  0.00     0.006 A 
ATOM      7  C   UNL     1      -4.014  -5.791   3.622  1.00  0.00     0.006 A 
ATOM      8  C   UNL     1      -4.413  -3.770   5.497  1.00  0.00     0.016 A 
ATOM      9  C   UNL     1      -3.855  -6.063   4.986  1.00  0.00     0.016 A 
BRANCH   5  10
ATOM     10  C   UNL     1      -4.438  -4.194   1.706  1.00  0.00     0.151 C 
BRANCH  10  11
ATOM     11  N   UNL     1      -5.596  -3.392   1.385  1.00  0.00    -0.350 N 
ATOM     12  C   UNL     1      -5.664  -2.151   0.825  1.00  0.00     0.242 C 
ATOM     13  O   UNL     1      -6.775  -1.789   0.420  1.00  0.00    -0.273 OA
ATOM     14  H   UNL     1      -6.464  -3.802   1.603  1.00  0.00     0.163 HD
BRANCH  12  15
ATOM     15  C   UNL     1      -4.406  -1.331   0.532  1.00  0.00     0.248 C 
BRANCH  15  16
ATOM     16  N   UNL     1      -3.569  -1.039   1.688  1.00  0.00    -0.220 N 
ATOM     17  C   UNL     1      -1.502  -1.232   2.639  1.00  0.00     0.095 A 
ATOM     18  C   UNL     1      -1.779  -0.182   3.634  1.00  0.00     0.037 A 
ATOM     19  N   UNL     1      -2.328  -1.643   1.730  1.00  0.00    -0.169 NA
ATOM     20  C   UNL     1      -2.993   0.367   3.595  1.00  0.00     0.075 A 
ATOM     21  C   UNL     1      -3.977  -0.047   2.572  1.00  0.00     0.267 A 
ATOM     22  O   UNL     1      -5.085   0.481   2.557  1.00  0.00    -0.268 OA
BRANCH  17  23
ATOM     23  C   UNL     1      -0.155  -1.823   2.716  1.00  0.00     0.044 A 
ATOM     24  C   UNL     1       0.898  -1.236   1.997  1.00  0.00     0.131 A 
ATOM     25  C   UNL     1       2.168  -1.807   2.079  1.00  0.00     0.086 A 
ATOM     26  C   UNL     1       2.356  -2.957   2.846  1.00  0.00     0.126 A 
ATOM     27  C   UNL     1       0.035  -2.980   3.482  1.00  0.00     0.017 A 
ATOM     28  F   UNL     1       3.574  -3.511   2.914  1.00  0.00    -0.207 F 
ATOM     29  C   UNL     1       1.305  -3.547   3.545  1.00  0.00     0.040 A 
BRANCH  24  30
ATOM     30  O   UNL     1       0.601  -0.101   1.295  1.00  0.00    -0.496 OA
ATOM     31  C   UNL     1       1.400   0.157   0.144  1.00  0.00     0.278 C 
ENDBRANCH  24  30
ENDBRANCH  17  23
ENDBRANCH  15  16
ENDBRANCH  12  15
ENDBRANCH  10  11
ENDBRANCH   5  10
ENDBRANCH   2   4
ENDBRANCH   1   2
BRANCH   1  32
ATOM     32  C   UNL     1      -2.622  -6.576   8.953  1.00  0.00     0.275 C 
BRANCH  32  33
ATOM     33  C   UNL     1      -1.121  -6.293   9.052  1.00  0.00     0.275 C 
BRANCH  33  34
ATOM     34  O   UNL     1      -0.844  -4.884   8.959  1.00  0.00    -0.458 OA
BRANCH  34  35
ATOM     35  C   UNL     1      -0.460  -4.436   7.740  1.00  0.00     0.338 C 
ATOM     36  O   UNL     1      -0.293  -5.087   6.724  1.00  0.00    -0.246 OA
BRANCH  35  37
ATOM     37  C   UNL     1      -0.368  -2.968   7.788  1.00  0.00     0.060 A 
ATOM     38  C   UNL     1       0.718  -2.325   8.381  1.00  0.00     0.016 A 
ATOM     39  C   UNL     1      -1.378  -2.229   7.175  1.00  0.00     0.016 A 
ATOM     40  C   UNL     1       0.774  -0.925   8.370  1.00  0.00     0.010 A 
ATOM     41  C   UNL     1      -1.310  -0.838   7.149  1.00  0.00     0.010 A 
ATOM     42  C   UNL     1      -0.236  -0.166   7.748  1.00  0.00    -0.014 A 
BRANCH  42  43
ATOM     43  C   UNL     1      -0.160   1.321   7.685  1.00  0.00     0.031 A 
ATOM     44  C   UNL     1      -1.206   2.184   8.345  1.00  0.00     0.074 A 
ATOM     45  C   UNL     1       0.816   1.905   6.960  1.00  0.00     0.049 A 
ATOM     46  N   UNL     1      -1.279   3.490   8.396  1.00  0.00    -0.248 NA
ATOM     47  C   UNL     1      -2.332   1.498   8.998  1.00  0.00     0.031 C 
ATOM     48  C   UNL     1       1.820   1.191   6.169  1.00  0.00     0.029 A 
ATOM     49  N   UNL     1       1.117   3.230   6.761  1.00  0.00    -0.354 N 
ATOM     50  C   UNL     1      -2.470   3.783   9.051  1.00  0.00     0.074 A 
ATOM     51  C   UNL     1      -3.107   2.517   9.346  1.00  0.00     0.031 C 
ATOM     52  C   UNL     1       2.646   2.083   5.601  1.00  0.00     0.029 A 
ATOM     53  C   UNL     1       2.227   3.433   5.973  1.00  0.00     0.049 A 
ATOM     54  H   UNL     1       0.589   3.966   7.147  1.00  0.00     0.167 HD
ATOM     55  C   UNL     1      -2.971   4.989   9.412  1.00  0.00     0.034 A 
ATOM     56  C   UNL     1       2.854   4.571   5.609  1.00  0.00     0.034 A 
ATOM     57  C   UNL     1      -2.298   6.242   9.194  1.00  0.00     0.049 A 
ATOM     58  C   UNL     1       2.347   5.892   6.126  1.00  0.00     0.074 A 
ATOM     59  C   UNL     1      -2.670   7.502   9.630  1.00  0.00     0.029 A 
ATOM     60  N   UNL     1      -1.115   6.395   8.490  1.00  0.00    -0.354 N 
ATOM     61  N   UNL     1       1.320   6.131   6.904  1.00  0.00    -0.248 NA
ATOM     62  C   UNL     1       3.105   7.095   5.749  1.00  0.00     0.031 C 
ATOM     63  C   UNL     1      -1.711   8.418   9.188  1.00  0.00     0.029 A 
ATOM     64  C   UNL     1      -0.739   7.727   8.483  1.00  0.00     0.049 A 
ATOM     65  H   UNL     1      -0.616   5.665   8.059  1.00  0.00     0.167 HD
ATOM     66  C   UNL     1       1.321   7.503   7.129  1.00  0.00     0.074 A 
ATOM     67  C   UNL     1       2.466   8.042   6.426  1.00  0.00     0.031 C 
ATOM     68  C   UNL     1       0.436   8.250   7.835  1.00  0.00     0.034 A 
BRANCH  55  69
ATOM     69  C   UNL     1      -4.271   5.018  10.176  1.00  0.00     0.023 A 
ATOM     70  C   UNL     1      -4.284   4.594  11.521  1.00  0.00     0.012 A 
ATOM     71  C   UNL     1      -5.445   5.553   9.609  1.00  0.00     0.148 A 
ATOM     72  C   UNL     1      -5.449   4.672  12.281  1.00  0.00     0.002 A 
ATOM     73  C   UNL     1      -6.593   5.668  10.387  1.00  0.00     0.091 A 
ATOM     74  F   UNL     1      -5.418   5.940   8.326  1.00  0.00    -0.205 F 
ATOM     75  C   UNL     1      -6.599   5.218  11.718  1.00  0.00     0.022 A 
BRANCH  73  76
ATOM     76  S   UNL     1      -8.101   6.441   9.789  1.00  0.00     0.127 S 
ATOM     77  O   UNL     1      -8.988   5.288   9.647  1.00  0.00    -0.237 OA
ATOM     78  O   UNL     1      -8.444   7.341  10.891  1.00  0.00    -0.237 OA
ATOM     79  O   UNL     1      -7.741   7.113   8.548  1.00  0.00    -0.744 OA
ENDBRANCH  73  76
ENDBRANCH  55  69
BRANCH  56  80
ATOM     80  C   UNL     1       4.110   4.487   4.811  1.00  0.00     0.023 A 
ATOM     81  C   UNL     1       5.339   4.760   5.443  1.00  0.00     0.012 A 
ATOM     82  C   UNL     1       4.108   4.064   3.468  1.00  0.00     0.148 A 
ATOM     83  C   UNL     1       6.542   4.630   4.748  1.00  0.00     0.002 A 
ATOM     84  C   UNL     1       5.313   3.881   2.798  1.00  0.00     0.091 A 
ATOM     85  F   UNL     1       2.929   3.824   2.878  1.00  0.00    -0.205 F 
ATOM     86  C   UNL     1       6.530   4.177   3.432  1.00  0.00     0.022 A 
BRANCH  84  87
ATOM     87  S   UNL     1       5.393   3.152   1.157  1.00  0.00     0.127 S 
ATOM     88  O   UNL     1       5.673   4.317   0.323  1.00  0.00    -0.237 OA
ATOM     89  O   UNL     1       6.504   2.209   1.293  1.00  0.00    -0.237 OA
ATOM     90  O   UNL     1       4.099   2.514   0.949  1.00  0.00    -0.744 OA
ENDBRANCH  84  87
ENDBRANCH  56  80
BRANCH  68  91
ATOM     91  C   UNL     1       0.654   9.739   7.906  1.00  0.00     0.023 A 
ATOM     92  C   UNL     1       0.339  10.535   6.787  1.00  0.00     0.012 A 
ATOM     93  C   UNL     1       1.038  10.359   9.111  1.00  0.00     0.148 A 
ATOM     94  C   UNL     1       0.415  11.925   6.863  1.00  0.00     0.002 A 
ATOM     95  C   UNL     1       1.072  11.747   9.191  1.00  0.00     0.091 A 
ATOM     96  F   UNL     1       1.351   9.582  10.159  1.00  0.00    -0.205 F 
ATOM     97  C   UNL     1       0.767  12.531   8.067  1.00  0.00     0.022 A 
BRANCH  95  98
ATOM     98  S   UNL     1       1.422  12.616  10.726  1.00  0.00     0.127 S 
ATOM     99  O   UNL     1       2.772  13.122  10.480  1.00  0.00    -0.237 OA
ATOM    100  O   UNL     1       0.381  13.644  10.748  1.00  0.00    -0.237 OA
ATOM    101  O   UNL     1       1.310  11.621  11.784  1.00  0.00    -0.744 OA
ENDBRANCH  95  98
ENDBRANCH  68  91
ENDBRANCH  42  43
ENDBRANCH  35  37
ENDBRANCH  34  35
ENDBRANCH  33  34
ENDBRANCH  32  33
ENDBRANCH   1  32
TORSDOF 20
