REMARK SMILES Cc1nc(C)c(C(=O)N[C@@H](CCS(C)(=O)=O)C(=O)OCCOC(=O)c2ccc(-c3c4nc(c(-c5cccc(S(=O)(=O)[O-])c5F)c5ccc([nH]5)c(-c5cccc(S(=O)(=O)[O-])c5F)c5nc(c(-c6cccc(S(=O)(=O)[O-])c6F)c6ccc3[nH]6)C=C5)C=C4)cc2)s1
REMARK SMILES IDX 20 1 19 2 17 3 18 4 10 5 9 6 7 7 8 8 6 10 1 11 2 12 3 13
REMARK SMILES IDX 88 14 4 15 5 16 11 17 12 18 13 19 14 20 15 21 16 22 21 23
REMARK SMILES IDX 22 24 23 25 24 26 25 27 26 28 87 29 27 30 86 31 28 32 29 33
REMARK SMILES IDX 30 34 80 35 31 36 85 37 79 38 81 39 32 40 84 41 78 42 77 43
REMARK SMILES IDX 33 45 65 46 45 47 64 48 46 49 49 50 63 51 82 52 47 53 48 54
REMARK SMILES IDX 62 56 83 57 50 58 34 59 35 60 43 61 36 62 38 63 44 64 37 65
REMARK SMILES IDX 39 66 40 67 41 68 42 69 66 70 67 71 75 72 68 73 70 74 76 75
REMARK SMILES IDX 69 76 71 77 72 78 73 79 74 80 51 81 52 82 60 83 53 84 55 85
REMARK SMILES IDX 61 86 54 87 56 88 57 89 58 90 59 91
REMARK H PARENT 9 9 81 44 49 55
REMARK Flexibility Score: inf
ROOT
ATOM      1  C   UNL     1       0.964  -6.100  -2.909  1.00  0.00     0.274 C 
ENDROOT
BRANCH   1   2
ATOM      2  O   UNL     1       0.468  -5.346  -1.780  1.00  0.00    -0.461 OA
BRANCH   2   3
ATOM      3  C   UNL     1       1.403  -4.821  -0.958  1.00  0.00     0.328 C 
ATOM      4  O   UNL     1       2.615  -4.930  -1.113  1.00  0.00    -0.250 OA
BRANCH   3   5
ATOM      5  C   UNL     1       0.817  -4.133   0.283  1.00  0.00     0.193 C 
BRANCH   5   6
ATOM      6  N   UNL     1      -0.612  -3.825   0.265  1.00  0.00    -0.338 N 
ATOM      7  C   UNL     1      -1.352  -2.661   0.363  1.00  0.00     0.263 C 
ATOM      8  O   UNL     1      -2.571  -2.857   0.317  1.00  0.00    -0.268 OA
ATOM      9  H   UNL     1      -1.174  -4.626   0.159  1.00  0.00     0.164 HD
BRANCH   7  10
ATOM     10  C   UNL     1      -0.800  -1.310   0.482  1.00  0.00     0.115 A 
ATOM     11  C   UNL     1       1.678   1.692   0.812  1.00  0.00     0.079 C 
ATOM     12  C   UNL     1       0.550   0.720   0.712  1.00  0.00     0.091 A 
ATOM     13  N   UNL     1      -0.643   1.031   0.273  1.00  0.00    -0.246 NA
ATOM     14  S   UNL     1       0.725  -0.917   1.181  1.00  0.00    -0.113 S 
ATOM     15  C   UNL     1      -1.438  -0.104   0.175  1.00  0.00     0.061 A 
ATOM     16  C   UNL     1      -2.838   0.142  -0.274  1.00  0.00     0.068 C 
ENDBRANCH   7  10
ENDBRANCH   5   6
BRANCH   5  17
ATOM     17  C   UNL     1       1.215  -4.874   1.576  1.00  0.00     0.053 C 
BRANCH  17  18
ATOM     18  C   UNL     1       0.524  -6.195   1.910  1.00  0.00     0.139 C 
BRANCH  18  19
ATOM     19  S   UNL     1       0.951  -7.671   0.997  1.00  0.00     0.147 S 
ATOM     20  C   UNL     1       2.687  -7.619   0.597  1.00  0.00     0.158 C 
ATOM     21  O   UNL     1       0.766  -8.796   1.897  1.00  0.00    -0.229 OA
ATOM     22  O   UNL     1       0.206  -7.633  -0.246  1.00  0.00    -0.229 OA
ENDBRANCH  18  19
ENDBRANCH  17  18
ENDBRANCH   5  17
ENDBRANCH   3   5
ENDBRANCH   2   3
ENDBRANCH   1   2
BRANCH   1  23
ATOM     23  C   UNL     1       0.462  -5.499  -4.220  1.00  0.00     0.275 C 
BRANCH  23  24
ATOM     24  O   UNL     1       0.999  -4.179  -4.402  1.00  0.00    -0.458 OA
BRANCH  24  25
ATOM     25  C   UNL     1       0.263  -3.194  -3.843  1.00  0.00     0.338 C 
ATOM     26  O   UNL     1      -0.833  -3.293  -3.302  1.00  0.00    -0.246 OA
BRANCH  25  27
ATOM     27  C   UNL     1       1.070  -1.978  -3.773  1.00  0.00     0.060 A 
ATOM     28  C   UNL     1       1.548  -1.605  -2.519  1.00  0.00     0.016 A 
ATOM     29  C   UNL     1       1.281  -1.167  -4.884  1.00  0.00     0.016 A 
ATOM     30  C   UNL     1       2.197  -0.394  -2.350  1.00  0.00     0.010 A 
ATOM     31  C   UNL     1       1.948   0.051  -4.715  1.00  0.00     0.010 A 
ATOM     32  C   UNL     1       2.378   0.461  -3.439  1.00  0.00    -0.014 A 
BRANCH  32  33
ATOM     33  C   UNL     1       2.916   1.823  -3.206  1.00  0.00     0.031 A 
ATOM     34  C   UNL     1       2.030   3.013  -3.444  1.00  0.00     0.074 A 
ATOM     35  C   UNL     1       4.167   1.994  -2.738  1.00  0.00     0.049 A 
ATOM     36  N   UNL     1       2.341   4.281  -3.468  1.00  0.00    -0.248 NA
ATOM     37  C   UNL     1       0.606   2.736  -3.698  1.00  0.00     0.031 C 
ATOM     38  C   UNL     1       5.098   0.917  -2.398  1.00  0.00     0.029 A 
ATOM     39  N   UNL     1       4.873   3.140  -2.477  1.00  0.00    -0.354 N 
ATOM     40  C   UNL     1       1.173   4.948  -3.818  1.00  0.00     0.074 A 
ATOM     41  C   UNL     1       0.142   3.945  -3.979  1.00  0.00     0.031 C 
ATOM     42  C   UNL     1       6.254   1.453  -1.977  1.00  0.00     0.029 A 
ATOM     43  C   UNL     1       6.173   2.905  -2.091  1.00  0.00     0.049 A 
ATOM     44  H   UNL     1       4.489   4.043  -2.558  1.00  0.00     0.167 HD
ATOM     45  C   UNL     1       0.979   6.277  -3.985  1.00  0.00     0.034 A 
ATOM     46  C   UNL     1       7.197   3.760  -1.904  1.00  0.00     0.034 A 
ATOM     47  C   UNL     1       1.992   7.270  -3.748  1.00  0.00     0.049 A 
ATOM     48  C   UNL     1       6.962   5.231  -2.115  1.00  0.00     0.074 A 
ATOM     49  C   UNL     1       1.893   8.645  -3.861  1.00  0.00     0.029 A 
ATOM     50  N   UNL     1       3.288   6.994  -3.338  1.00  0.00    -0.354 N 
ATOM     51  N   UNL     1       5.851   5.852  -2.431  1.00  0.00    -0.248 NA
ATOM     52  C   UNL     1       8.118   6.120  -1.937  1.00  0.00     0.031 C 
ATOM     53  C   UNL     1       3.135   9.200  -3.533  1.00  0.00     0.029 A 
ATOM     54  C   UNL     1       4.000   8.172  -3.194  1.00  0.00     0.049 A 
ATOM     55  H   UNL     1       3.648   6.093  -3.173  1.00  0.00     0.167 HD
ATOM     56  C   UNL     1       6.167   7.205  -2.467  1.00  0.00     0.074 A 
ATOM     57  C   UNL     1       7.568   7.314  -2.112  1.00  0.00     0.031 C 
ATOM     58  C   UNL     1       5.379   8.261  -2.787  1.00  0.00     0.034 A 
BRANCH  45  59
ATOM     59  C   UNL     1      -0.380   6.737  -4.442  1.00  0.00     0.023 A 
ATOM     60  C   UNL     1      -1.470   6.720  -3.550  1.00  0.00     0.012 A 
ATOM     61  C   UNL     1      -0.563   7.235  -5.748  1.00  0.00     0.148 A 
ATOM     62  C   UNL     1      -2.728   7.162  -3.959  1.00  0.00     0.002 A 
ATOM     63  C   UNL     1      -1.808   7.716  -6.135  1.00  0.00     0.091 A 
ATOM     64  F   UNL     1       0.480   7.220  -6.590  1.00  0.00    -0.205 F 
ATOM     65  C   UNL     1      -2.894   7.670  -5.246  1.00  0.00     0.022 A 
BRANCH  63  66
ATOM     66  S   UNL     1      -2.101   8.460  -7.744  1.00  0.00     0.127 S 
ATOM     67  O   UNL     1      -2.912   7.435  -8.400  1.00  0.00    -0.237 OA
ATOM     68  O   UNL     1      -2.828   9.680  -7.392  1.00  0.00    -0.237 OA
ATOM     69  O   UNL     1      -0.786   8.685  -8.327  1.00  0.00    -0.744 OA
ENDBRANCH  63  66
ENDBRANCH  45  59
BRANCH  46  70
ATOM     70  C   UNL     1       8.536   3.244  -1.501  1.00  0.00     0.023 A 
ATOM     71  C   UNL     1       9.046   3.552  -0.226  1.00  0.00     0.012 A 
ATOM     72  C   UNL     1       9.292   2.423  -2.362  1.00  0.00     0.148 A 
ATOM     73  C   UNL     1      10.293   3.072   0.176  1.00  0.00     0.002 A 
ATOM     74  C   UNL     1      10.503   1.895  -1.931  1.00  0.00     0.091 A 
ATOM     75  F   UNL     1       8.804   2.161  -3.583  1.00  0.00    -0.205 F 
ATOM     76  C   UNL     1      11.014   2.232  -0.669  1.00  0.00     0.022 A 
BRANCH  74  77
ATOM     77  S   UNL     1      11.417   0.686  -2.896  1.00  0.00     0.127 S 
ATOM     78  O   UNL     1      12.542   1.480  -3.382  1.00  0.00    -0.237 OA
ATOM     79  O   UNL     1      11.758  -0.315  -1.884  1.00  0.00    -0.237 OA
ATOM     80  O   UNL     1      10.485   0.213  -3.911  1.00  0.00    -0.744 OA
ENDBRANCH  74  77
ENDBRANCH  46  70
BRANCH  58  81
ATOM     81  C   UNL     1       6.001   9.631  -2.736  1.00  0.00     0.023 A 
ATOM     82  C   UNL     1       6.904  10.026  -3.742  1.00  0.00     0.012 A 
ATOM     83  C   UNL     1       5.637  10.547  -1.730  1.00  0.00     0.148 A 
ATOM     84  C   UNL     1       7.460  11.305  -3.731  1.00  0.00     0.002 A 
ATOM     85  C   UNL     1       6.159  11.835  -1.753  1.00  0.00     0.091 A 
ATOM     86  F   UNL     1       4.792  10.143  -0.771  1.00  0.00    -0.205 F 
ATOM     87  C   UNL     1       7.079  12.212  -2.745  1.00  0.00     0.022 A 
BRANCH  85  88
ATOM     88  S   UNL     1       5.654  13.096  -0.577  1.00  0.00     0.127 S 
ATOM     89  O   UNL     1       6.834  13.193   0.280  1.00  0.00    -0.237 OA
ATOM     90  O   UNL     1       5.431  14.256  -1.442  1.00  0.00    -0.237 OA
ATOM     91  O   UNL     1       4.452  12.585   0.067  1.00  0.00    -0.744 OA
ENDBRANCH  85  88
ENDBRANCH  58  81
ENDBRANCH  32  33
ENDBRANCH  25  27
ENDBRANCH  24  25
ENDBRANCH  23  24
ENDBRANCH   1  23
TORSDOF 19
