REMARK SMILES Cc1ccc(/C=C/C(=O)N2CCC[C@@H](C(=O)OCCOC(=O)c3ccc(-c4c5nc(c(-c6cccc(S(=O)(=O)[O-])c6F)c6ccc([nH]6)c(-c6cccc(S(=O)(=O)[O-])c6F)c6nc(c(-c7cccc(S(=O)(=O)[O-])c7F)c7ccc4[nH]7)C=C6)C=C5)cc3)C2)s1
REMARK SMILES IDX 18 1 17 2 15 3 16 4 14 5 10 6 11 7 86 8 12 9 13 10 8 11 9 12
REMARK SMILES IDX 7 13 6 14 5 15 1 16 2 17 3 18 87 19 4 20 19 21 20 22 21 23
REMARK SMILES IDX 22 24 23 25 24 26 85 27 25 28 84 29 26 30 27 31 28 32 78 33
REMARK SMILES IDX 29 34 83 35 77 36 79 37 30 38 82 39 76 40 75 41 31 43 63 44
REMARK SMILES IDX 43 45 62 46 44 47 47 48 61 49 80 50 45 51 46 52 60 54 81 55
REMARK SMILES IDX 48 56 32 57 33 58 41 59 34 60 36 61 42 62 35 63 37 64 38 65
REMARK SMILES IDX 39 66 40 67 64 68 65 69 73 70 66 71 68 72 74 73 67 74 69 75
REMARK SMILES IDX 70 76 71 77 72 78 49 79 50 80 58 81 51 82 53 83 59 84 52 85
REMARK SMILES IDX 54 86 55 87 56 88 57 89
REMARK H PARENT 79 42 47 53
REMARK Flexibility Score: inf
ROOT
ATOM      1  C   UNL     1      -8.270  -2.653   2.304  1.00  0.00     0.274 C 
ENDROOT
BRANCH   1   2
ATOM      2  O   UNL     1      -7.794  -1.530   1.532  1.00  0.00    -0.462 OA
BRANCH   2   3
ATOM      3  C   UNL     1      -8.188  -0.308   1.977  1.00  0.00     0.310 C 
ATOM      4  O   UNL     1      -8.941  -0.126   2.927  1.00  0.00    -0.252 OA
BRANCH   3   5
ATOM      5  C   UNL     1      -7.669   0.837   1.135  1.00  0.00     0.119 C 
ATOM      6  N   UNL     1      -5.918   1.752  -0.352  1.00  0.00    -0.338 N 
ATOM      7  C   UNL     1      -6.913   2.203  -1.322  1.00  0.00     0.120 C 
ATOM      8  C   UNL     1      -6.301   0.598   0.479  1.00  0.00     0.135 C 
ATOM      9  C   UNL     1      -8.264   2.461  -0.672  1.00  0.00     0.022 C 
ATOM     10  C   UNL     1      -8.728   1.232   0.104  1.00  0.00     0.019 C 
BRANCH   6  11
ATOM     11  C   UNL     1      -4.733   2.460  -0.268  1.00  0.00     0.246 C 
ATOM     12  O   UNL     1      -4.615   3.610  -0.691  1.00  0.00    -0.270 OA
BRANCH  11  13
ATOM     13  C   UNL     1      -3.512   1.812   0.272  1.00  0.00     0.073 C 
ATOM     14  C   UNL     1      -3.129   0.602  -0.162  1.00  0.00     0.024 C 
BRANCH  14  15
ATOM     15  C   UNL     1      -1.821   0.065   0.038  1.00  0.00     0.027 A 
ATOM     16  C   UNL     1       2.121  -0.075   0.123  1.00  0.00     0.056 C 
ATOM     17  C   UNL     1       0.646  -0.289   0.125  1.00  0.00     0.002 A 
ATOM     18  C   UNL     1      -0.051  -1.477   0.146  1.00  0.00     0.016 A 
ATOM     19  S   UNL     1      -0.409   1.053   0.094  1.00  0.00    -0.141 S 
ATOM     20  C   UNL     1      -1.462  -1.272   0.096  1.00  0.00     0.020 A 
ENDBRANCH  14  15
ENDBRANCH  11  13
ENDBRANCH   6  11
ENDBRANCH   3   5
ENDBRANCH   2   3
ENDBRANCH   1   2
BRANCH   1  21
ATOM     21  C   UNL     1      -7.218  -3.170   3.292  1.00  0.00     0.275 C 
BRANCH  21  22
ATOM     22  O   UNL     1      -6.894  -2.197   4.302  1.00  0.00    -0.458 OA
BRANCH  22  23
ATOM     23  C   UNL     1      -5.874  -1.369   3.974  1.00  0.00     0.338 C 
ATOM     24  O   UNL     1      -5.211  -1.403   2.950  1.00  0.00    -0.246 OA
BRANCH  23  25
ATOM     25  C   UNL     1      -5.747  -0.284   4.961  1.00  0.00     0.060 A 
ATOM     26  C   UNL     1      -5.829   1.028   4.488  1.00  0.00     0.016 A 
ATOM     27  C   UNL     1      -5.437  -0.536   6.299  1.00  0.00     0.016 A 
ATOM     28  C   UNL     1      -5.569   2.098   5.335  1.00  0.00     0.010 A 
ATOM     29  C   UNL     1      -5.169   0.542   7.152  1.00  0.00     0.010 A 
ATOM     30  C   UNL     1      -5.202   1.862   6.665  1.00  0.00    -0.014 A 
BRANCH  30  31
ATOM     31  C   UNL     1      -4.738   3.004   7.486  1.00  0.00     0.031 A 
ATOM     32  C   UNL     1      -3.264   3.197   7.711  1.00  0.00     0.074 A 
ATOM     33  C   UNL     1      -5.622   3.892   7.974  1.00  0.00     0.049 A 
ATOM     34  N   UNL     1      -2.646   4.138   8.375  1.00  0.00    -0.248 NA
ATOM     35  C   UNL     1      -2.366   2.199   7.106  1.00  0.00     0.031 C 
ATOM     36  C   UNL     1      -7.073   3.819   7.803  1.00  0.00     0.029 A 
ATOM     37  N   UNL     1      -5.427   5.030   8.715  1.00  0.00    -0.354 N 
ATOM     38  C   UNL     1      -1.293   3.831   8.298  1.00  0.00     0.074 A 
ATOM     39  C   UNL     1      -1.179   2.611   7.528  1.00  0.00     0.031 C 
ATOM     40  C   UNL     1      -7.639   4.864   8.431  1.00  0.00     0.029 A 
ATOM     41  C   UNL     1      -6.594   5.666   9.063  1.00  0.00     0.049 A 
ATOM     42  H   UNL     1      -4.536   5.359   8.973  1.00  0.00     0.167 HD
ATOM     43  C   UNL     1      -0.240   4.514   8.804  1.00  0.00     0.034 A 
ATOM     44  C   UNL     1      -6.796   6.768   9.812  1.00  0.00     0.034 A 
ATOM     45  C   UNL     1      -0.352   5.749   9.531  1.00  0.00     0.049 A 
ATOM     46  C   UNL     1      -5.605   7.513  10.355  1.00  0.00     0.074 A 
ATOM     47  C   UNL     1       0.658   6.528  10.066  1.00  0.00     0.029 A 
ATOM     48  N   UNL     1      -1.547   6.389   9.820  1.00  0.00    -0.354 N 
ATOM     49  N   UNL     1      -4.328   7.259  10.194  1.00  0.00    -0.248 NA
ATOM     50  C   UNL     1      -5.880   8.718  11.151  1.00  0.00     0.031 C 
ATOM     51  C   UNL     1       0.073   7.639  10.684  1.00  0.00     0.029 A 
ATOM     52  C   UNL     1      -1.301   7.556  10.523  1.00  0.00     0.049 A 
ATOM     53  H   UNL     1      -2.439   6.062   9.563  1.00  0.00     0.167 HD
ATOM     54  C   UNL     1      -3.649   8.288  10.838  1.00  0.00     0.074 A 
ATOM     55  C   UNL     1      -4.657   9.181  11.373  1.00  0.00     0.031 C 
ATOM     56  C   UNL     1      -2.314   8.468  10.990  1.00  0.00     0.034 A 
BRANCH  43  57
ATOM     57  C   UNL     1       1.135   3.953   8.557  1.00  0.00     0.023 A 
ATOM     58  C   UNL     1       1.717   4.080   7.281  1.00  0.00     0.012 A 
ATOM     59  C   UNL     1       1.865   3.340   9.594  1.00  0.00     0.148 A 
ATOM     60  C   UNL     1       2.996   3.583   7.031  1.00  0.00     0.002 A 
ATOM     61  C   UNL     1       3.153   2.879   9.347  1.00  0.00     0.091 A 
ATOM     62  F   UNL     1       1.282   3.202  10.793  1.00  0.00    -0.205 F 
ATOM     63  C   UNL     1       3.717   2.992   8.066  1.00  0.00     0.022 A 
BRANCH  61  64
ATOM     64  S   UNL     1       4.182   2.163  10.635  1.00  0.00     0.127 S 
ATOM     65  O   UNL     1       4.121   0.740  10.305  1.00  0.00    -0.237 OA
ATOM     66  O   UNL     1       5.479   2.791  10.383  1.00  0.00    -0.237 OA
ATOM     67  O   UNL     1       3.562   2.543  11.897  1.00  0.00    -0.744 OA
ENDBRANCH  61  64
ENDBRANCH  43  57
BRANCH  44  68
ATOM     68  C   UNL     1      -8.181   7.264  10.046  1.00  0.00     0.023 A 
ATOM     69  C   UNL     1      -8.599   8.465   9.440  1.00  0.00     0.012 A 
ATOM     70  C   UNL     1      -9.093   6.543  10.841  1.00  0.00     0.148 A 
ATOM     71  C   UNL     1      -9.891   8.952   9.643  1.00  0.00     0.002 A 
ATOM     72  C   UNL     1     -10.395   7.006  10.996  1.00  0.00     0.091 A 
ATOM     73  F   UNL     1      -8.671   5.414  11.428  1.00  0.00    -0.205 F 
ATOM     74  C   UNL     1     -10.792   8.218  10.411  1.00  0.00     0.022 A 
BRANCH  72  75
ATOM     75  S   UNL     1     -11.649   6.056  11.862  1.00  0.00     0.127 S 
ATOM     76  O   UNL     1     -11.743   6.771  13.132  1.00  0.00    -0.237 OA
ATOM     77  O   UNL     1     -12.810   6.206  10.983  1.00  0.00    -0.237 OA
ATOM     78  O   UNL     1     -11.127   4.698  11.932  1.00  0.00    -0.744 OA
ENDBRANCH  72  75
ENDBRANCH  44  68
BRANCH  56  79
ATOM     79  C   UNL     1      -1.854   9.692  11.736  1.00  0.00     0.023 A 
ATOM     80  C   UNL     1      -1.986   9.744  13.137  1.00  0.00     0.012 A 
ATOM     81  C   UNL     1      -1.221  10.755  11.061  1.00  0.00     0.148 A 
ATOM     82  C   UNL     1      -1.522  10.847  13.853  1.00  0.00     0.002 A 
ATOM     83  C   UNL     1      -0.723  11.832  11.785  1.00  0.00     0.091 A 
ATOM     84  F   UNL     1      -1.124  10.699   9.724  1.00  0.00    -0.205 F 
ATOM     85  C   UNL     1      -0.880  11.884  13.180  1.00  0.00     0.022 A 
BRANCH  83  86
ATOM     86  S   UNL     1       0.197  13.161  11.001  1.00  0.00     0.127 S 
ATOM     87  O   UNL     1      -0.821  14.204  10.888  1.00  0.00    -0.237 OA
ATOM     88  O   UNL     1       1.248  13.441  11.982  1.00  0.00    -0.237 OA
ATOM     89  O   UNL     1       0.685  12.613   9.743  1.00  0.00    -0.744 OA
ENDBRANCH  83  86
ENDBRANCH  56  79
ENDBRANCH  30  31
ENDBRANCH  23  25
ENDBRANCH  22  23
ENDBRANCH  21  22
ENDBRANCH   1  21
TORSDOF 17
