REMARK SMILES O=C(OCCOC(=O)c1cncc(Oc2cc(F)ccc2F)n1)c1ccc(-c2c3nc(c(-c4cccc(S(=O)(=O)[O-])c4F)c4ccc([nH]4)c(-c4cccc(S(=O)(=O)[O-])c4F)c4nc(c(-c5cccc(S(=O)(=O)[O-])c5F)c5ccc2[nH]5)C=C4)C=C3)cc1
REMARK SMILES IDX 4 1 3 2 2 3 1 4 24 5 25 6 86 7 26 8 85 9 27 10 28 11 29 12
REMARK SMILES IDX 79 13 30 14 84 15 78 16 80 17 31 18 83 19 77 20 76 21 32 23
REMARK SMILES IDX 64 24 44 25 63 26 45 27 48 28 62 29 81 30 46 31 47 32 61 34
REMARK SMILES IDX 82 35 49 36 33 37 34 38 42 39 35 40 37 41 43 42 36 43 38 44
REMARK SMILES IDX 39 45 40 46 41 47 65 48 66 49 74 50 67 51 69 52 75 53 68 54
REMARK SMILES IDX 70 55 71 56 72 57 73 58 50 59 51 60 59 61 52 62 54 63 60 64
REMARK SMILES IDX 53 65 55 66 56 67 57 68 58 69 5 70 6 71 7 72 8 73 9 74 10 75
REMARK SMILES IDX 23 76 11 77 13 78 12 79 14 80 15 81 16 82 21 83 17 84 20 85
REMARK SMILES IDX 22 86 18 87 19 88
REMARK H PARENT 80 22 48 33
REMARK Flexibility Score: inf
ROOT
ATOM      1  C   UNL     1       4.254  -0.320   1.710  1.00  0.00     0.275 C 
ENDROOT
BRANCH   1   2
ATOM      2  O   UNL     1       3.328   0.642   1.185  1.00  0.00    -0.458 OA
BRANCH   2   3
ATOM      3  C   UNL     1       3.301   1.222  -0.039  1.00  0.00     0.338 C 
ATOM      4  O   UNL     1       2.638   2.246  -0.192  1.00  0.00    -0.246 OA
BRANCH   3   5
ATOM      5  C   UNL     1       3.929   0.611  -1.254  1.00  0.00     0.060 A 
ATOM      6  C   UNL     1       5.155  -0.054  -1.312  1.00  0.00     0.016 A 
ATOM      7  C   UNL     1       3.227   0.791  -2.456  1.00  0.00     0.016 A 
ATOM      8  C   UNL     1       5.644  -0.558  -2.526  1.00  0.00     0.010 A 
ATOM      9  C   UNL     1       3.702   0.282  -3.669  1.00  0.00     0.010 A 
ATOM     10  C   UNL     1       4.929  -0.383  -3.713  1.00  0.00    -0.014 A 
BRANCH  10  11
ATOM     11  C   UNL     1       5.525  -0.781  -5.010  1.00  0.00     0.031 A 
ATOM     12  C   UNL     1       6.083   0.283  -5.912  1.00  0.00     0.074 A 
ATOM     13  C   UNL     1       5.562  -2.074  -5.381  1.00  0.00     0.049 A 
ATOM     14  N   UNL     1       6.696   0.152  -7.058  1.00  0.00    -0.248 NA
ATOM     15  C   UNL     1       5.941   1.678  -5.460  1.00  0.00     0.031 C 
ATOM     16  C   UNL     1       5.042  -3.188  -4.593  1.00  0.00     0.029 A 
ATOM     17  N   UNL     1       6.026  -2.669  -6.527  1.00  0.00    -0.354 N 
ATOM     18  C   UNL     1       7.020   1.441  -7.460  1.00  0.00     0.074 A 
ATOM     19  C   UNL     1       6.493   2.345  -6.463  1.00  0.00     0.031 C 
ATOM     20  C   UNL     1       5.158  -4.324  -5.299  1.00  0.00     0.029 A 
ATOM     21  C   UNL     1       5.779  -4.022  -6.583  1.00  0.00     0.049 A 
ATOM     22  H   UNL     1       6.492  -2.176  -7.240  1.00  0.00     0.167 HD
ATOM     23  C   UNL     1       7.730   1.833  -8.543  1.00  0.00     0.034 A 
ATOM     24  C   UNL     1       6.028  -4.914  -7.562  1.00  0.00     0.034 A 
ATOM     25  C   UNL     1       8.251   0.927  -9.527  1.00  0.00     0.049 A 
ATOM     26  C   UNL     1       6.776  -4.448  -8.783  1.00  0.00     0.074 A 
ATOM     27  C   UNL     1       9.030   1.209 -10.633  1.00  0.00     0.029 A 
ATOM     28  N   UNL     1       8.024  -0.441  -9.532  1.00  0.00    -0.354 N 
ATOM     29  N   UNL     1       7.228  -3.249  -9.063  1.00  0.00    -0.248 NA
ATOM     30  C   UNL     1       7.102  -5.463  -9.795  1.00  0.00     0.031 C 
ATOM     31  C   UNL     1       9.255   0.011 -11.321  1.00  0.00     0.029 A 
ATOM     32  C   UNL     1       8.632  -1.019 -10.631  1.00  0.00     0.049 A 
ATOM     33  H   UNL     1       7.505  -0.930  -8.853  1.00  0.00     0.167 HD
ATOM     34  C   UNL     1       7.932  -3.373 -10.254  1.00  0.00     0.074 A 
ATOM     35  C   UNL     1       7.851  -4.768 -10.641  1.00  0.00     0.031 C 
ATOM     36  C   UNL     1       8.584  -2.420 -10.965  1.00  0.00     0.034 A 
BRANCH  23  37
ATOM     37  C   UNL     1       8.015   3.304  -8.678  1.00  0.00     0.023 A 
ATOM     38  C   UNL     1       8.956   3.906  -7.816  1.00  0.00     0.012 A 
ATOM     39  C   UNL     1       7.365   4.089  -9.648  1.00  0.00     0.148 A 
ATOM     40  C   UNL     1       9.215   5.274  -7.890  1.00  0.00     0.002 A 
ATOM     41  C   UNL     1       7.655   5.446  -9.740  1.00  0.00     0.091 A 
ATOM     42  F   UNL     1       6.458   3.502 -10.442  1.00  0.00    -0.205 F 
ATOM     43  C   UNL     1       8.569   6.041  -8.855  1.00  0.00     0.022 A 
BRANCH  41  44
ATOM     44  S   UNL     1       6.918   6.512 -10.982  1.00  0.00     0.127 S 
ATOM     45  O   UNL     1       6.029   7.341 -10.170  1.00  0.00    -0.237 OA
ATOM     46  O   UNL     1       8.087   7.214 -11.516  1.00  0.00    -0.237 OA
ATOM     47  O   UNL     1       6.256   5.627 -11.930  1.00  0.00    -0.744 OA
ENDBRANCH  41  44
ENDBRANCH  23  37
BRANCH  24  48
ATOM     48  C   UNL     1       5.637  -6.343  -7.392  1.00  0.00     0.023 A 
ATOM     49  C   UNL     1       6.633  -7.316  -7.184  1.00  0.00     0.012 A 
ATOM     50  C   UNL     1       4.284  -6.739  -7.415  1.00  0.00     0.148 A 
ATOM     51  C   UNL     1       6.293  -8.661  -7.030  1.00  0.00     0.002 A 
ATOM     52  C   UNL     1       3.950  -8.075  -7.219  1.00  0.00     0.091 A 
ATOM     53  F   UNL     1       3.351  -5.800  -7.627  1.00  0.00    -0.205 F 
ATOM     54  C   UNL     1       4.953  -9.039  -7.040  1.00  0.00     0.022 A 
BRANCH  52  55
ATOM     55  S   UNL     1       2.248  -8.643  -7.120  1.00  0.00     0.127 S 
ATOM     56  O   UNL     1       2.111  -9.393  -8.366  1.00  0.00    -0.237 OA
ATOM     57  O   UNL     1       2.273  -9.463  -5.908  1.00  0.00    -0.237 OA
ATOM     58  O   UNL     1       1.435  -7.439  -7.016  1.00  0.00    -0.744 OA
ENDBRANCH  52  55
ENDBRANCH  24  48
BRANCH  36  59
ATOM     59  C   UNL     1       9.296  -2.850 -12.218  1.00  0.00     0.023 A 
ATOM     60  C   UNL     1       8.554  -3.150 -13.377  1.00  0.00     0.012 A 
ATOM     61  C   UNL     1      10.704  -2.859 -12.272  1.00  0.00     0.148 A 
ATOM     62  C   UNL     1       9.204  -3.473 -14.567  1.00  0.00     0.002 A 
ATOM     63  C   UNL     1      11.344  -3.133 -13.474  1.00  0.00     0.091 A 
ATOM     64  F   UNL     1      11.389  -2.591 -11.151  1.00  0.00    -0.205 F 
ATOM     65  C   UNL     1      10.596  -3.450 -14.620  1.00  0.00     0.022 A 
BRANCH  63  66
ATOM     66  S   UNL     1      13.127  -3.024 -13.658  1.00  0.00     0.127 S 
ATOM     67  O   UNL     1      13.505  -4.434 -13.742  1.00  0.00    -0.237 OA
ATOM     68  O   UNL     1      13.266  -2.279 -14.909  1.00  0.00    -0.237 OA
ATOM     69  O   UNL     1      13.609  -2.317 -12.479  1.00  0.00    -0.744 OA
ENDBRANCH  63  66
ENDBRANCH  36  59
ENDBRANCH  10  11
ENDBRANCH   3   5
ENDBRANCH   2   3
ENDBRANCH   1   2
BRANCH   1  70
ATOM     70  C   UNL     1       3.817  -1.774   1.542  1.00  0.00     0.275 C 
BRANCH  70  71
ATOM     71  O   UNL     1       3.345  -2.080   0.224  1.00  0.00    -0.457 OA
BRANCH  71  72
ATOM     72  C   UNL     1       1.993  -2.000   0.053  1.00  0.00     0.358 C 
ATOM     73  O   UNL     1       1.177  -1.720   0.916  1.00  0.00    -0.244 OA
BRANCH  72  74
ATOM     74  C   UNL     1       1.670  -2.263  -1.367  1.00  0.00     0.170 A 
ATOM     75  C   UNL     1       2.238  -3.352  -2.007  1.00  0.00     0.147 A 
ATOM     76  N   UNL     1       0.825  -1.398  -1.993  1.00  0.00    -0.203 NA
ATOM     77  N   UNL     1       2.000  -3.624  -3.309  1.00  0.00    -0.257 NA
ATOM     78  C   UNL     1       0.599  -1.667  -3.305  1.00  0.00     0.238 A 
ATOM     79  C   UNL     1       1.178  -2.755  -3.950  1.00  0.00     0.179 A 
BRANCH  78  80
ATOM     80  O   UNL     1      -0.181  -0.817  -4.085  1.00  0.00    -0.434 OA
BRANCH  80  81
ATOM     81  C   UNL     1      -0.731   0.261  -3.438  1.00  0.00     0.168 A 
ATOM     82  C   UNL     1      -0.152   1.519  -3.605  1.00  0.00     0.089 A 
ATOM     83  C   UNL     1      -1.893   0.125  -2.680  1.00  0.00     0.166 A 
ATOM     84  C   UNL     1      -0.694   2.608  -2.930  1.00  0.00     0.127 A 
ATOM     85  C   UNL     1      -2.447   1.225  -2.027  1.00  0.00     0.046 A 
ATOM     86  F   UNL     1      -2.504  -1.064  -2.583  1.00  0.00    -0.203 F 
ATOM     87  F   UNL     1      -0.115   3.810  -3.046  1.00  0.00    -0.207 F 
ATOM     88  C   UNL     1      -1.831   2.473  -2.138  1.00  0.00     0.042 A 
ENDBRANCH  80  81
ENDBRANCH  78  80
ENDBRANCH  72  74
ENDBRANCH  71  72
ENDBRANCH  70  71
ENDBRANCH   1  70
TORSDOF 16
