REMARK SMILES C/C=C/C=C/C(=O)N[C@@](C)(C(=O)OCCOC(=O)c1ccc(-c2c3nc(c(-c4cccc(S(=O)(=O)[O-])c4F)c4ccc([nH]4)c(-c4cccc(S(=O)(=O)[O-])c4F)c4nc(c(-c5cccc(S(=O)(=O)[O-])c5F)c5ccc2[nH]5)C=C4)C=C3)cc1)C(F)(F)F
REMARK SMILES IDX 14 1 13 2 11 3 12 4 9 5 10 6 8 7 6 8 7 9 5 11 4 12 3 13 1 14
REMARK SMILES IDX 2 15 82 16 83 17 84 18 85 19 15 20 16 21 17 22 18 23 19 24
REMARK SMILES IDX 20 25 81 26 21 27 80 28 22 29 23 30 24 31 74 32 25 33 79 34
REMARK SMILES IDX 73 35 75 36 26 37 78 38 72 39 71 40 27 42 59 43 39 44 58 45
REMARK SMILES IDX 40 46 43 47 57 48 76 49 41 50 42 51 56 53 77 54 44 55 28 56
REMARK SMILES IDX 29 57 37 58 30 59 32 60 38 61 31 62 33 63 34 64 35 65 36 66
REMARK SMILES IDX 60 67 61 68 69 69 62 70 64 71 70 72 63 73 65 74 66 75 67 76
REMARK SMILES IDX 68 77 45 78 46 79 54 80 47 81 49 82 55 83 48 84 50 85 51 86
REMARK SMILES IDX 52 87 53 88
REMARK H PARENT 8 10 75 41 43 52
REMARK Flexibility Score: inf
ROOT
ATOM      1  C   UNL     1      -2.918  -6.917   3.264  1.00  0.00     0.274 C 
ENDROOT
BRANCH   1   2
ATOM      2  O   UNL     1      -2.252  -5.788   3.871  1.00  0.00    -0.460 OA
BRANCH   2   3
ATOM      3  C   UNL     1      -1.042  -5.449   3.326  1.00  0.00     0.341 C 
ATOM      4  O   UNL     1      -0.566  -6.011   2.348  1.00  0.00    -0.249 OA
BRANCH   3   5
ATOM      5  C   UNL     1      -0.265  -4.480   4.222  1.00  0.00     0.231 C 
ATOM      6  C   UNL     1       0.427  -5.374   5.281  1.00  0.00     0.058 C 
BRANCH   5   7
ATOM      7  N   UNL     1      -1.152  -3.563   5.021  1.00  0.00    -0.329 N 
ATOM      8  C   UNL     1      -1.756  -2.365   4.846  1.00  0.00     0.245 C 
ATOM      9  O   UNL     1      -2.547  -1.990   5.711  1.00  0.00    -0.270 OA
ATOM     10  H   UNL     1      -1.345  -3.935   5.912  1.00  0.00     0.165 HD
BRANCH   8  11
ATOM     11  C   UNL     1      -1.546  -1.521   3.664  1.00  0.00     0.071 C 
ATOM     12  C   UNL     1      -0.395  -0.880   3.423  1.00  0.00     0.005 C 
BRANCH  12  13
ATOM     13  C   UNL     1      -0.226   0.005   2.294  1.00  0.00    -0.004 C 
ATOM     14  C   UNL     1       1.087   0.880   0.348  1.00  0.00     0.035 C 
ATOM     15  C   UNL     1       0.889   0.010   1.549  1.00  0.00    -0.030 C 
ENDBRANCH  12  13
ENDBRANCH   8  11
ENDBRANCH   5   7
BRANCH   5  16
ATOM     16  C   UNL     1       0.855  -3.876   3.361  1.00  0.00     0.422 C 
ATOM     17  F   UNL     1       0.403  -3.242   2.264  1.00  0.00    -0.168 F 
ATOM     18  F   UNL     1       1.584  -2.989   4.085  1.00  0.00    -0.168 F 
ATOM     19  F   UNL     1       1.741  -4.813   2.942  1.00  0.00    -0.168 F 
ENDBRANCH   5  16
ENDBRANCH   3   5
ENDBRANCH   2   3
ENDBRANCH   1   2
BRANCH   1  20
ATOM     20  C   UNL     1      -4.144  -6.492   2.464  1.00  0.00     0.275 C 
BRANCH  20  21
ATOM     21  O   UNL     1      -3.777  -5.547   1.451  1.00  0.00    -0.458 OA
BRANCH  21  22
ATOM     22  C   UNL     1      -4.110  -4.266   1.728  1.00  0.00     0.338 C 
ATOM     23  O   UNL     1      -4.690  -3.846   2.719  1.00  0.00    -0.246 OA
BRANCH  22  24
ATOM     24  C   UNL     1      -3.626  -3.387   0.662  1.00  0.00     0.060 A 
ATOM     25  C   UNL     1      -2.264  -3.115   0.575  1.00  0.00     0.016 A 
ATOM     26  C   UNL     1      -4.539  -2.719  -0.148  1.00  0.00     0.016 A 
ATOM     27  C   UNL     1      -1.814  -2.100  -0.268  1.00  0.00     0.010 A 
ATOM     28  C   UNL     1      -4.074  -1.762  -1.054  1.00  0.00     0.010 A 
ATOM     29  C   UNL     1      -2.712  -1.411  -1.094  1.00  0.00    -0.014 A 
BRANCH  29  30
ATOM     30  C   UNL     1      -2.264  -0.289  -1.966  1.00  0.00     0.031 A 
ATOM     31  C   UNL     1      -2.901   1.068  -1.821  1.00  0.00     0.074 A 
ATOM     32  C   UNL     1      -1.320  -0.478  -2.910  1.00  0.00     0.049 A 
ATOM     33  N   UNL     1      -2.875   2.087  -2.640  1.00  0.00    -0.248 NA
ATOM     34  C   UNL     1      -3.689   1.302  -0.599  1.00  0.00     0.031 C 
ATOM     35  C   UNL     1      -0.577  -1.717  -3.134  1.00  0.00     0.029 A 
ATOM     36  N   UNL     1      -0.837   0.376  -3.872  1.00  0.00    -0.354 N 
ATOM     37  C   UNL     1      -3.716   3.043  -2.083  1.00  0.00     0.074 A 
ATOM     38  C   UNL     1      -4.213   2.496  -0.839  1.00  0.00     0.031 C 
ATOM     39  C   UNL     1       0.279  -1.541  -4.151  1.00  0.00     0.029 A 
ATOM     40  C   UNL     1       0.082  -0.209  -4.712  1.00  0.00     0.049 A 
ATOM     41  H   UNL     1      -1.121   1.315  -3.953  1.00  0.00     0.167 HD
ATOM     42  C   UNL     1      -4.044   4.265  -2.567  1.00  0.00     0.034 A 
ATOM     43  C   UNL     1       0.664   0.252  -5.838  1.00  0.00     0.034 A 
ATOM     44  C   UNL     1      -3.480   4.839  -3.759  1.00  0.00     0.049 A 
ATOM     45  C   UNL     1       0.294   1.616  -6.350  1.00  0.00     0.074 A 
ATOM     46  C   UNL     1      -3.741   6.073  -4.328  1.00  0.00     0.029 A 
ATOM     47  N   UNL     1      -2.519   4.229  -4.550  1.00  0.00    -0.354 N 
ATOM     48  N   UNL     1      -0.516   2.502  -5.825  1.00  0.00    -0.248 NA
ATOM     49  C   UNL     1       0.916   2.043  -7.612  1.00  0.00     0.031 C 
ATOM     50  C   UNL     1      -2.931   6.213  -5.460  1.00  0.00     0.029 A 
ATOM     51  C   UNL     1      -2.164   5.067  -5.593  1.00  0.00     0.049 A 
ATOM     52  H   UNL     1      -2.144   3.333  -4.393  1.00  0.00     0.167 HD
ATOM     53  C   UNL     1      -0.490   3.597  -6.681  1.00  0.00     0.074 A 
ATOM     54  C   UNL     1       0.437   3.273  -7.746  1.00  0.00     0.031 C 
ATOM     55  C   UNL     1      -1.191   4.754  -6.608  1.00  0.00     0.034 A 
BRANCH  42  56
ATOM     56  C   UNL     1      -5.047   5.078  -1.794  1.00  0.00     0.023 A 
ATOM     57  C   UNL     1      -4.656   5.731  -0.609  1.00  0.00     0.012 A 
ATOM     58  C   UNL     1      -6.364   5.241  -2.271  1.00  0.00     0.148 A 
ATOM     59  C   UNL     1      -5.566   6.512   0.104  1.00  0.00     0.002 A 
ATOM     60  C   UNL     1      -7.254   6.052  -1.575  1.00  0.00     0.091 A 
ATOM     61  F   UNL     1      -6.729   4.589  -3.384  1.00  0.00    -0.205 F 
ATOM     62  C   UNL     1      -6.859   6.682  -0.384  1.00  0.00     0.022 A 
BRANCH  60  63
ATOM     63  S   UNL     1      -8.914   6.381  -2.180  1.00  0.00     0.127 S 
ATOM     64  O   UNL     1      -9.709   5.440  -1.393  1.00  0.00    -0.237 OA
ATOM     65  O   UNL     1      -9.108   7.788  -1.825  1.00  0.00    -0.237 OA
ATOM     66  O   UNL     1      -8.865   6.126  -3.614  1.00  0.00    -0.744 OA
ENDBRANCH  60  63
ENDBRANCH  42  56
BRANCH  43  67
ATOM     67  C   UNL     1       1.675  -0.588  -6.542  1.00  0.00     0.023 A 
ATOM     68  C   UNL     1       3.025  -0.190  -6.528  1.00  0.00     0.012 A 
ATOM     69  C   UNL     1       1.324  -1.800  -7.168  1.00  0.00     0.148 A 
ATOM     70  C   UNL     1       4.006  -0.980  -7.129  1.00  0.00     0.002 A 
ATOM     71  C   UNL     1       2.314  -2.613  -7.708  1.00  0.00     0.091 A 
ATOM     72  F   UNL     1       0.030  -2.149  -7.203  1.00  0.00    -0.205 F 
ATOM     73  C   UNL     1       3.654  -2.199  -7.703  1.00  0.00     0.022 A 
BRANCH  71  74
ATOM     74  S   UNL     1       1.955  -4.265  -8.318  1.00  0.00     0.127 S 
ATOM     75  O   UNL     1       1.940  -4.057  -9.763  1.00  0.00    -0.237 OA
ATOM     76  O   UNL     1       3.096  -5.034  -7.818  1.00  0.00    -0.237 OA
ATOM     77  O   UNL     1       0.682  -4.630  -7.709  1.00  0.00    -0.744 OA
ENDBRANCH  71  74
ENDBRANCH  43  67
BRANCH  55  78
ATOM     78  C   UNL     1      -0.967   5.775  -7.689  1.00  0.00     0.023 A 
ATOM     79  C   UNL     1      -1.569   5.592  -8.949  1.00  0.00     0.012 A 
ATOM     80  C   UNL     1      -0.233   6.949  -7.434  1.00  0.00     0.148 A 
ATOM     81  C   UNL     1      -1.429   6.556  -9.946  1.00  0.00     0.002 A 
ATOM     82  C   UNL     1      -0.128   7.923  -8.420  1.00  0.00     0.091 A 
ATOM     83  F   UNL     1       0.350   7.091  -6.234  1.00  0.00    -0.205 F 
ATOM     84  C   UNL     1      -0.720   7.725  -9.679  1.00  0.00     0.022 A 
BRANCH  82  85
ATOM     85  S   UNL     1       0.701   9.491  -8.135  1.00  0.00     0.127 S 
ATOM     86  O   UNL     1       1.961   9.297  -8.850  1.00  0.00    -0.237 OA
ATOM     87  O   UNL     1      -0.214  10.448  -8.759  1.00  0.00    -0.237 OA
ATOM     88  O   UNL     1       0.813   9.624  -6.688  1.00  0.00    -0.744 OA
ENDBRANCH  82  85
ENDBRANCH  55  78
ENDBRANCH  29  30
ENDBRANCH  22  24
ENDBRANCH  21  22
ENDBRANCH  20  21
ENDBRANCH   1  20
TORSDOF 18
