REMARK SMILES O=C(COc1ncc(C(F)(F)F)cc1Cl)OCCOC(=O)c1ccc(-c2c3nc(c(-c4cccc(S(=O)(=O)[O-])c4F)c4ccc([nH]4)c(-c4cccc(S(=O)(=O)[O-])c4F)c4nc(c(-c5cccc(S(=O)(=O)[O-])c5F)c5ccc2[nH]5)C=C4)C=C3)cc1
REMARK SMILES IDX 17 1 16 2 2 3 1 4 3 5 4 6 5 7 6 8 14 9 7 10 13 11 15 12 8 13
REMARK SMILES IDX 9 14 10 15 11 16 12 17 18 18 19 19 20 20 21 21 22 22 23 23
REMARK SMILES IDX 84 24 24 25 83 26 25 27 26 28 27 29 77 30 28 31 82 32 76 33
REMARK SMILES IDX 78 34 29 35 81 36 75 37 74 38 30 40 62 41 42 42 61 43 43 44
REMARK SMILES IDX 46 45 60 46 79 47 44 48 45 49 59 51 80 52 47 53 31 54 32 55
REMARK SMILES IDX 40 56 33 57 35 58 41 59 34 60 36 61 37 62 38 63 39 64 63 65
REMARK SMILES IDX 64 66 72 67 65 68 67 69 73 70 66 71 68 72 69 73 70 74 71 75
REMARK SMILES IDX 48 76 49 77 57 78 50 79 52 80 58 81 51 82 53 83 54 84 55 85
REMARK SMILES IDX 56 86
REMARK H PARENT 78 39 46 50
REMARK Flexibility Score: inf
ROOT
ATOM      1  C   UNL     1       4.582   0.787  -0.841  1.00  0.00     0.274 C 
ENDROOT
BRANCH   1   2
ATOM      2  O   UNL     1       3.183   0.448  -0.952  1.00  0.00    -0.460 OA
BRANCH   2   3
ATOM      3  C   UNL     1       2.550  -0.413  -0.115  1.00  0.00     0.344 C 
ATOM      4  O   UNL     1       1.322  -0.489  -0.112  1.00  0.00    -0.248 OA
BRANCH   3   5
ATOM      5  C   UNL     1       3.397  -1.323   0.758  1.00  0.00     0.353 C 
BRANCH   5   6
ATOM      6  O   UNL     1       4.082  -2.274  -0.053  1.00  0.00    -0.465 OA
BRANCH   6   7
ATOM      7  C   UNL     1       3.344  -3.430  -0.085  1.00  0.00     0.233 A 
ATOM      8  N   UNL     1       3.456  -4.213   1.011  1.00  0.00    -0.220 NA
ATOM      9  C   UNL     1       2.562  -3.745  -1.190  1.00  0.00     0.103 A 
ATOM     10  C   UNL     1       2.725  -5.351   1.028  1.00  0.00     0.128 A 
ATOM     11  C   UNL     1       1.800  -4.908  -1.133  1.00  0.00     0.041 A 
ATOM     12  Cl  UNL     1       2.501  -2.764  -2.601  1.00  0.00    -0.078 Cl
ATOM     13  C   UNL     1       1.873  -5.733  -0.001  1.00  0.00     0.076 A 
BRANCH  13  14
ATOM     14  C   UNL     1       1.107  -7.015   0.091  1.00  0.00     0.417 C 
ATOM     15  F   UNL     1       1.859  -8.088  -0.275  1.00  0.00    -0.166 F 
ATOM     16  F   UNL     1       0.644  -7.280   1.340  1.00  0.00    -0.166 F 
ATOM     17  F   UNL     1       0.015  -7.037  -0.724  1.00  0.00    -0.166 F 
ENDBRANCH  13  14
ENDBRANCH   6   7
ENDBRANCH   5   6
ENDBRANCH   3   5
ENDBRANCH   2   3
ENDBRANCH   1   2
BRANCH   1  18
ATOM     18  C   UNL     1       4.769   2.040   0.017  1.00  0.00     0.275 C 
BRANCH  18  19
ATOM     19  O   UNL     1       4.302   1.799   1.356  1.00  0.00    -0.458 OA
BRANCH  19  20
ATOM     20  C   UNL     1       3.041   2.227   1.620  1.00  0.00     0.338 C 
ATOM     21  O   UNL     1       2.322   2.879   0.881  1.00  0.00    -0.246 OA
BRANCH  20  22
ATOM     22  C   UNL     1       2.586   1.622   2.889  1.00  0.00     0.060 A 
ATOM     23  C   UNL     1       1.298   1.074   2.940  1.00  0.00     0.016 A 
ATOM     24  C   UNL     1       3.408   1.601   4.019  1.00  0.00     0.016 A 
ATOM     25  C   UNL     1       0.815   0.536   4.134  1.00  0.00     0.010 A 
ATOM     26  C   UNL     1       2.920   1.068   5.215  1.00  0.00     0.010 A 
ATOM     27  C   UNL     1       1.611   0.563   5.287  1.00  0.00    -0.014 A 
BRANCH  27  28
ATOM     28  C   UNL     1       1.026   0.213   6.603  1.00  0.00     0.031 A 
ATOM     29  C   UNL     1       0.546   1.322   7.499  1.00  0.00     0.074 A 
ATOM     30  C   UNL     1       0.942  -1.066   7.010  1.00  0.00     0.049 A 
ATOM     31  N   UNL     1       0.011   1.253   8.690  1.00  0.00    -0.248 NA
ATOM     32  C   UNL     1       0.697   2.694   6.986  1.00  0.00     0.031 C 
ATOM     33  C   UNL     1       1.385  -2.229   6.244  1.00  0.00     0.029 A 
ATOM     34  N   UNL     1       0.475  -1.595   8.188  1.00  0.00    -0.354 N 
ATOM     35  C   UNL     1      -0.223   2.567   9.076  1.00  0.00     0.074 A 
ATOM     36  C   UNL     1       0.248   3.415   8.002  1.00  0.00     0.031 C 
ATOM     37  C   UNL     1       1.193  -3.336   6.984  1.00  0.00     0.029 A 
ATOM     38  C   UNL     1       0.627  -2.958   8.278  1.00  0.00     0.049 A 
ATOM     39  H   UNL     1       0.071  -1.050   8.901  1.00  0.00     0.167 HD
ATOM     40  C   UNL     1      -0.798   3.028  10.211  1.00  0.00     0.034 A 
ATOM     41  C   UNL     1       0.350  -3.801   9.294  1.00  0.00     0.034 A 
ATOM     42  C   UNL     1      -1.278   2.189  11.275  1.00  0.00     0.049 A 
ATOM     43  C   UNL     1      -0.271  -3.259  10.557  1.00  0.00     0.074 A 
ATOM     44  C   UNL     1      -1.919   2.562  12.442  1.00  0.00     0.029 A 
ATOM     45  N   UNL     1      -1.155   0.809  11.309  1.00  0.00    -0.354 N 
ATOM     46  N   UNL     1      -0.622  -2.029  10.846  1.00  0.00    -0.248 NA
ATOM     47  C   UNL     1      -0.570  -4.230  11.622  1.00  0.00     0.031 C 
ATOM     48  C   UNL     1      -2.163   1.408  13.195  1.00  0.00     0.029 A 
ATOM     49  C   UNL     1      -1.697   0.315  12.483  1.00  0.00     0.049 A 
ATOM     50  H   UNL     1      -0.744   0.261  10.602  1.00  0.00     0.167 HD
ATOM     51  C   UNL     1      -1.219  -2.085  12.102  1.00  0.00     0.074 A 
ATOM     52  C   UNL     1      -1.198  -3.474  12.512  1.00  0.00     0.031 C 
ATOM     53  C   UNL     1      -1.727  -1.077  12.854  1.00  0.00     0.034 A 
BRANCH  40  54
ATOM     54  C   UNL     1      -0.971   4.518  10.344  1.00  0.00     0.023 A 
ATOM     55  C   UNL     1      -1.955   5.173   9.575  1.00  0.00     0.012 A 
ATOM     56  C   UNL     1      -0.197   5.260  11.256  1.00  0.00     0.148 A 
ATOM     57  C   UNL     1      -2.144   6.549   9.689  1.00  0.00     0.002 A 
ATOM     58  C   UNL     1      -0.420   6.625  11.394  1.00  0.00     0.091 A 
ATOM     59  F   UNL     1       0.751   4.622  11.958  1.00  0.00    -0.205 F 
ATOM     60  C   UNL     1      -1.385   7.272  10.604  1.00  0.00     0.022 A 
BRANCH  58  61
ATOM     61  S   UNL     1       0.458   7.629  12.596  1.00  0.00     0.127 S 
ATOM     62  O   UNL     1       1.349   8.407  11.737  1.00  0.00    -0.237 OA
ATOM     63  O   UNL     1      -0.627   8.400  13.205  1.00  0.00    -0.237 OA
ATOM     64  O   UNL     1       1.115   6.693  13.497  1.00  0.00    -0.744 OA
ENDBRANCH  58  61
ENDBRANCH  40  54
BRANCH  41  65
ATOM     65  C   UNL     1       0.608  -5.262   9.146  1.00  0.00     0.023 A 
ATOM     66  C   UNL     1      -0.480  -6.152   9.067  1.00  0.00     0.012 A 
ATOM     67  C   UNL     1       1.919  -5.772   9.082  1.00  0.00     0.148 A 
ATOM     68  C   UNL     1      -0.268  -7.528   8.964  1.00  0.00     0.002 A 
ATOM     69  C   UNL     1       2.123  -7.138   8.925  1.00  0.00     0.091 A 
ATOM     70  F   UNL     1       2.942  -4.910   9.175  1.00  0.00    -0.205 F 
ATOM     71  C   UNL     1       1.032  -8.019   8.884  1.00  0.00     0.022 A 
BRANCH  69  72
ATOM     72  S   UNL     1       3.756  -7.849   8.690  1.00  0.00     0.127 S 
ATOM     73  O   UNL     1       3.953  -8.569   9.945  1.00  0.00    -0.237 OA
ATOM     74  O   UNL     1       3.548  -8.698   7.516  1.00  0.00    -0.237 OA
ATOM     75  O   UNL     1       4.648  -6.720   8.462  1.00  0.00    -0.744 OA
ENDBRANCH  69  72
ENDBRANCH  41  65
BRANCH  53  76
ATOM     76  C   UNL     1      -2.344  -1.429  14.184  1.00  0.00     0.023 A 
ATOM     77  C   UNL     1      -1.520  -1.808  15.262  1.00  0.00     0.012 A 
ATOM     78  C   UNL     1      -3.734  -1.306  14.388  1.00  0.00     0.148 A 
ATOM     79  C   UNL     1      -2.071  -2.089  16.512  1.00  0.00     0.002 A 
ATOM     80  C   UNL     1      -4.271  -1.541  15.649  1.00  0.00     0.091 A 
ATOM     81  F   UNL     1      -4.506  -0.963  13.346  1.00  0.00    -0.205 F 
ATOM     82  C   UNL     1      -3.443  -1.944  16.709  1.00  0.00     0.022 A 
BRANCH  80  83
ATOM     83  S   UNL     1      -6.011  -1.284  16.015  1.00  0.00     0.127 S 
ATOM     84  O   UNL     1      -6.506  -2.657  16.092  1.00  0.00    -0.237 OA
ATOM     85  O   UNL     1      -5.959  -0.582  17.299  1.00  0.00    -0.237 OA
ATOM     86  O   UNL     1      -6.537  -0.487  14.915  1.00  0.00    -0.744 OA
ENDBRANCH  80  83
ENDBRANCH  53  76
ENDBRANCH  27  28
ENDBRANCH  20  22
ENDBRANCH  19  20
ENDBRANCH  18  19
ENDBRANCH   1  18
TORSDOF 17
