REMARK SMILES CCc1nc(COC)cc(N2CCCC[C@H]2C(=O)OCCOC(=O)c2ccc(-c3c4nc(c(-c5cccc(S(=O)(=O)[O-])c5F)c5ccc([nH]5)c(-c5cccc(S(=O)(=O)[O-])c5F)c5nc(c(-c6cccc(S(=O)(=O)[O-])c6F)c6ccc3[nH]6)C=C5)C=C4)cc2)n1
REMARK SMILES IDX 20 1 19 2 17 3 18 4 16 5 11 6 12 7 13 8 15 9 14 10 10 11
REMARK SMILES IDX 3 12 4 13 88 14 5 15 9 16 2 17 1 18 6 19 7 20 8 21 21 22
REMARK SMILES IDX 22 23 23 24 24 25 25 26 26 27 87 28 27 29 86 30 28 31 29 32
REMARK SMILES IDX 30 33 80 34 31 35 85 36 79 37 81 38 32 39 84 40 78 41 77 42
REMARK SMILES IDX 33 44 65 45 45 46 64 47 46 48 49 49 63 50 82 51 47 52 48 53
REMARK SMILES IDX 62 55 83 56 50 57 34 58 35 59 43 60 36 61 38 62 44 63 37 64
REMARK SMILES IDX 39 65 40 66 41 67 42 68 66 69 67 70 75 71 68 72 70 73 76 74
REMARK SMILES IDX 69 75 71 76 72 77 73 78 74 79 51 80 52 81 60 82 53 83 55 84
REMARK SMILES IDX 61 85 54 86 56 87 57 88 58 89 59 90
REMARK H PARENT 81 43 49 54
REMARK Flexibility Score: inf
ROOT
ATOM      1  C   UNL     1       4.425  -0.078   9.093  1.00  0.00     0.274 C 
ENDROOT
BRANCH   1   2
ATOM      2  O   UNL     1       3.513  -0.282   7.996  1.00  0.00    -0.461 OA
BRANCH   2   3
ATOM      3  C   UNL     1       3.166  -1.579   7.721  1.00  0.00     0.328 C 
ATOM      4  O   UNL     1       3.558  -2.548   8.358  1.00  0.00    -0.250 OA
BRANCH   3   5
ATOM      5  C   UNL     1       2.210  -1.636   6.513  1.00  0.00     0.193 C 
ATOM      6  N   UNL     1       2.932  -1.326   5.259  1.00  0.00    -0.343 N 
ATOM      7  C   UNL     1       3.822  -2.366   4.739  1.00  0.00     0.119 C 
ATOM      8  C   UNL     1       3.121  -3.715   4.599  1.00  0.00     0.022 C 
ATOM      9  C   UNL     1       1.478  -2.983   6.341  1.00  0.00     0.037 C 
ATOM     10  C   UNL     1       2.395  -4.109   5.878  1.00  0.00     0.005 C 
BRANCH   6  11
ATOM     11  C   UNL     1       2.230  -0.533   4.357  1.00  0.00     0.133 A 
ATOM     12  C   UNL     1       1.138  -0.243   2.357  1.00  0.00     0.130 A 
ATOM     13  N   UNL     1       0.801   1.030   2.624  1.00  0.00    -0.235 NA
ATOM     14  N   UNL     1       1.864  -1.035   3.169  1.00  0.00    -0.216 NA
ATOM     15  C   UNL     1       1.225   1.534   3.798  1.00  0.00     0.072 A 
ATOM     16  C   UNL     1       1.923   0.768   4.710  1.00  0.00     0.073 A 
BRANCH  12  17
ATOM     17  C   UNL     1       0.639  -0.836   1.068  1.00  0.00     0.074 C 
ATOM     18  C   UNL     1       1.129  -0.057  -0.143  1.00  0.00     0.012 C 
ENDBRANCH  12  17
BRANCH  15  19
ATOM     19  C   UNL     1       0.992   3.003   4.068  1.00  0.00     0.216 C 
BRANCH  19  20
ATOM     20  O   UNL     1       1.794   3.867   3.250  1.00  0.00    -0.378 OA
ATOM     21  C   UNL     1       3.190   3.717   3.472  1.00  0.00     0.195 C 
ENDBRANCH  19  20
ENDBRANCH  15  19
ENDBRANCH   6  11
ENDBRANCH   3   5
ENDBRANCH   2   3
ENDBRANCH   1   2
BRANCH   1  22
ATOM     22  C   UNL     1       3.717   0.471  10.336  1.00  0.00     0.275 C 
BRANCH  22  23
ATOM     23  O   UNL     1       2.837  -0.504  10.924  1.00  0.00    -0.458 OA
BRANCH  23  24
ATOM     24  C   UNL     1       1.546  -0.412  10.536  1.00  0.00     0.338 C 
ATOM     25  O   UNL     1       1.063   0.419   9.779  1.00  0.00    -0.246 OA
BRANCH  24  26
ATOM     26  C   UNL     1       0.802  -1.599  10.979  1.00  0.00     0.060 A 
ATOM     27  C   UNL     1       0.487  -2.528   9.991  1.00  0.00     0.016 A 
ATOM     28  C   UNL     1       0.315  -1.760  12.272  1.00  0.00     0.016 A 
ATOM     29  C   UNL     1      -0.342  -3.607  10.260  1.00  0.00     0.010 A 
ATOM     30  C   UNL     1      -0.507  -2.861  12.555  1.00  0.00     0.010 A 
ATOM     31  C   UNL     1      -0.863  -3.779  11.545  1.00  0.00    -0.014 A 
BRANCH  31  32
ATOM     32  C   UNL     1      -1.842  -4.869  11.792  1.00  0.00     0.031 A 
ATOM     33  C   UNL     1      -3.270  -4.531  12.117  1.00  0.00     0.074 A 
ATOM     34  C   UNL     1      -1.466  -6.159  11.697  1.00  0.00     0.049 A 
ATOM     35  N   UNL     1      -4.248  -5.325  12.469  1.00  0.00    -0.248 NA
ATOM     36  C   UNL     1      -3.646  -3.110  12.044  1.00  0.00     0.031 C 
ATOM     37  C   UNL     1      -0.120  -6.622  11.362  1.00  0.00     0.029 A 
ATOM     38  N   UNL     1      -2.181  -7.316  11.891  1.00  0.00    -0.354 N 
ATOM     39  C   UNL     1      -5.331  -4.497  12.732  1.00  0.00     0.074 A 
ATOM     40  C   UNL     1      -4.896  -3.139  12.482  1.00  0.00     0.031 C 
ATOM     41  C   UNL     1      -0.101  -7.964  11.385  1.00  0.00     0.029 A 
ATOM     42  C   UNL     1      -1.417  -8.454  11.787  1.00  0.00     0.049 A 
ATOM     43  H   UNL     1      -3.146  -7.328  12.085  1.00  0.00     0.167 HD
ATOM     44  C   UNL     1      -6.578  -4.836  13.137  1.00  0.00     0.034 A 
ATOM     45  C   UNL     1      -1.728  -9.744  12.025  1.00  0.00     0.034 A 
ATOM     46  C   UNL     1      -7.034  -6.188  13.310  1.00  0.00     0.049 A 
ATOM     47  C   UNL     1      -3.127 -10.100  12.443  1.00  0.00     0.074 A 
ATOM     48  C   UNL     1      -8.297  -6.632  13.660  1.00  0.00     0.029 A 
ATOM     49  N   UNL     1      -6.248  -7.317  13.137  1.00  0.00    -0.354 N 
ATOM     50  N   UNL     1      -4.160  -9.311  12.618  1.00  0.00    -0.248 NA
ATOM     51  C   UNL     1      -3.413 -11.523  12.676  1.00  0.00     0.031 C 
ATOM     52  C   UNL     1      -8.272  -8.031  13.706  1.00  0.00     0.029 A 
ATOM     53  C   UNL     1      -6.995  -8.457  13.377  1.00  0.00     0.049 A 
ATOM     54  H   UNL     1      -5.297  -7.308  12.881  1.00  0.00     0.167 HD
ATOM     55  C   UNL     1      -5.218 -10.140  12.973  1.00  0.00     0.074 A 
ATOM     56  C   UNL     1      -4.710 -11.497  12.954  1.00  0.00     0.031 C 
ATOM     57  C   UNL     1      -6.489  -9.805  13.309  1.00  0.00     0.034 A 
BRANCH  44  58
ATOM     58  C   UNL     1      -7.545  -3.715  13.403  1.00  0.00     0.023 A 
ATOM     59  C   UNL     1      -8.139  -3.029  12.325  1.00  0.00     0.012 A 
ATOM     60  C   UNL     1      -7.882  -3.355  14.722  1.00  0.00     0.148 A 
ATOM     61  C   UNL     1      -9.028  -1.980  12.557  1.00  0.00     0.002 A 
ATOM     62  C   UNL     1      -8.798  -2.332  14.945  1.00  0.00     0.091 A 
ATOM     63  F   UNL     1      -7.283  -3.995  15.737  1.00  0.00    -0.205 F 
ATOM     64  C   UNL     1      -9.365  -1.638  13.864  1.00  0.00     0.022 A 
BRANCH  62  65
ATOM     65  S   UNL     1      -9.329  -1.882  16.601  1.00  0.00     0.127 S 
ATOM     66  O   UNL     1      -8.451  -0.752  16.898  1.00  0.00    -0.237 OA
ATOM     67  O   UNL     1     -10.734  -1.524  16.398  1.00  0.00    -0.237 OA
ATOM     68  O   UNL     1      -9.127  -3.076  17.410  1.00  0.00    -0.744 OA
ENDBRANCH  62  65
ENDBRANCH  44  58
BRANCH  45  69
ATOM     69  C   UNL     1      -0.678 -10.788  11.856  1.00  0.00     0.023 A 
ATOM     70  C   UNL     1      -0.753 -11.684  10.774  1.00  0.00     0.012 A 
ATOM     71  C   UNL     1       0.434 -10.845  12.720  1.00  0.00     0.148 A 
ATOM     72  C   UNL     1       0.257 -12.623  10.559  1.00  0.00     0.002 A 
ATOM     73  C   UNL     1       1.465 -11.741  12.465  1.00  0.00     0.091 A 
ATOM     74  F   UNL     1       0.475  -9.999  13.760  1.00  0.00    -0.205 F 
ATOM     75  C   UNL     1       1.373 -12.640  11.392  1.00  0.00     0.022 A 
BRANCH  73  76
ATOM     76  S   UNL     1       3.002 -11.723  13.396  1.00  0.00     0.127 S 
ATOM     77  O   UNL     1       2.880 -12.937  14.198  1.00  0.00    -0.237 OA
ATOM     78  O   UNL     1       4.003 -11.787  12.330  1.00  0.00    -0.237 OA
ATOM     79  O   UNL     1       2.997 -10.469  14.136  1.00  0.00    -0.744 OA
ENDBRANCH  73  76
ENDBRANCH  45  69
BRANCH  57  80
ATOM     80  C   UNL     1      -7.427 -10.921  13.684  1.00  0.00     0.023 A 
ATOM     81  C   UNL     1      -7.305 -11.529  14.948  1.00  0.00     0.012 A 
ATOM     82  C   UNL     1      -8.473 -11.312  12.825  1.00  0.00     0.148 A 
ATOM     83  C   UNL     1      -8.196 -12.527  15.344  1.00  0.00     0.002 A 
ATOM     84  C   UNL     1      -9.380 -12.280  13.242  1.00  0.00     0.091 A 
ATOM     85  F   UNL     1      -8.559 -10.739  11.616  1.00  0.00    -0.205 F 
ATOM     86  C   UNL     1      -9.239 -12.894  14.497  1.00  0.00     0.022 A 
BRANCH  84  87
ATOM     87  S   UNL     1     -10.801 -12.745  12.245  1.00  0.00     0.127 S 
ATOM     88  O   UNL     1     -10.345 -13.994  11.638  1.00  0.00    -0.237 OA
ATOM     89  O   UNL     1     -11.854 -12.905  13.248  1.00  0.00    -0.237 OA
ATOM     90  O   UNL     1     -11.015 -11.636  11.324  1.00  0.00    -0.744 OA
ENDBRANCH  84  87
ENDBRANCH  57  80
ENDBRANCH  31  32
ENDBRANCH  24  26
ENDBRANCH  23  24
ENDBRANCH  22  23
ENDBRANCH   1  22
TORSDOF 18
