REMARK SMILES Cc1ccccc1NC(=O)c1ccccc1NC(=O)CCC(=O)OCCOC(=O)c1ccc(-c2c3nc(c(-c4cccc(S(=O)(=O)[O-])c4F)c4ccc([nH]4)c(-c4cccc(S(=O)(=O)[O-])c4F)c4nc(c(-c5cccc(S(=O)(=O)[O-])c5F)c5ccc2[nH]5)C=C4)C=C3)cc1
REMARK SMILES IDX 25 1 24 2 22 3 23 4 21 5 20 6 18 7 17 8 19 10 16 11 11 12
REMARK SMILES IDX 12 13 13 14 15 15 14 16 9 17 8 18 10 20 7 21 1 22 2 23 3 24
REMARK SMILES IDX 4 25 6 26 5 27 26 28 27 29 28 30 29 31 30 32 31 33 92 34
REMARK SMILES IDX 32 35 91 36 33 37 34 38 35 39 85 40 36 41 90 42 84 43 86 44
REMARK SMILES IDX 37 45 89 46 83 47 82 48 38 50 70 51 50 52 69 53 51 54 54 55
REMARK SMILES IDX 68 56 87 57 52 58 53 59 67 61 88 62 55 63 39 64 40 65 48 66
REMARK SMILES IDX 41 67 43 68 49 69 42 70 44 71 45 72 46 73 47 74 71 75 72 76
REMARK SMILES IDX 80 77 73 78 75 79 81 80 74 81 76 82 77 83 78 84 79 85 56 86
REMARK SMILES IDX 57 87 65 88 58 89 60 90 66 91 59 92 61 93 62 94 63 95 64 96
REMARK H PARENT 17 9 8 19 86 49 54 60
REMARK Flexibility Score: inf
ROOT
ATOM      1  C   UNL     1      -0.447   4.794   1.950  1.00  0.00     0.274 C 
ENDROOT
BRANCH   1   2
ATOM      2  O   UNL     1       0.130   3.567   2.472  1.00  0.00    -0.462 OA
BRANCH   2   3
ATOM      3  C   UNL     1      -0.721   2.576   2.689  1.00  0.00     0.306 C 
ATOM      4  O   UNL     1      -1.910   2.696   2.410  1.00  0.00    -0.252 OA
BRANCH   3   5
ATOM      5  C   UNL     1      -0.250   1.277   3.224  1.00  0.00     0.132 C 
BRANCH   5   6
ATOM      6  C   UNL     1      -1.405   0.305   2.913  1.00  0.00     0.112 C 
BRANCH   6   7
ATOM      7  C   UNL     1      -1.580   0.013   1.417  1.00  0.00     0.224 C 
ATOM      8  N   UNL     1      -1.195   0.991   0.518  1.00  0.00    -0.325 N 
ATOM      9  H   UNL     1      -0.238   0.985   0.289  1.00  0.00     0.169 HD
ATOM     10  O   UNL     1      -1.881  -1.125   1.056  1.00  0.00    -0.275 OA
BRANCH   8  11
ATOM     11  C   UNL     1      -1.962   2.014  -0.135  1.00  0.00     0.054 A 
ATOM     12  C   UNL     1      -1.329   2.991  -0.959  1.00  0.00     0.063 A 
ATOM     13  C   UNL     1      -2.061   4.107  -1.426  1.00  0.00     0.016 A 
ATOM     14  C   UNL     1      -3.400   4.278  -1.087  1.00  0.00     0.001 A 
ATOM     15  C   UNL     1      -3.329   2.182   0.147  1.00  0.00     0.027 A 
ATOM     16  C   UNL     1      -4.028   3.319  -0.299  1.00  0.00     0.002 A 
BRANCH  12  17
ATOM     17  C   UNL     1       0.133   3.062  -1.285  1.00  0.00     0.257 C 
ATOM     18  N   UNL     1       0.911   1.955  -1.536  1.00  0.00    -0.322 N 
ATOM     19  H   UNL     1       1.881   2.121  -1.556  1.00  0.00     0.170 HD
ATOM     20  O   UNL     1       0.686   4.165  -1.274  1.00  0.00    -0.269 OA
BRANCH  18  21
ATOM     21  C   UNL     1       0.528   0.625  -1.768  1.00  0.00     0.044 A 
ATOM     22  C   UNL     1       2.603  -0.203  -0.476  1.00  0.00     0.046 C 
ATOM     23  C   UNL     1       1.284  -0.405  -1.177  1.00  0.00    -0.027 A 
ATOM     24  C   UNL     1       0.710  -1.685  -1.106  1.00  0.00     0.005 A 
ATOM     25  C   UNL     1      -0.577  -1.925  -1.593  1.00  0.00     0.000 A 
ATOM     26  C   UNL     1      -0.705   0.343  -2.374  1.00  0.00     0.026 A 
ATOM     27  C   UNL     1      -1.279  -0.916  -2.241  1.00  0.00     0.002 A 
ENDBRANCH  18  21
ENDBRANCH  12  17
ENDBRANCH   8  11
ENDBRANCH   6   7
ENDBRANCH   5   6
ENDBRANCH   3   5
ENDBRANCH   2   3
ENDBRANCH   1   2
BRANCH   1  28
ATOM     28  C   UNL     1      -1.994   5.248   1.910  1.00  0.00     0.275 C 
BRANCH  28  29
ATOM     29  O   UNL     1      -3.298   4.582   2.350  1.00  0.00    -0.458 OA
BRANCH  29  30
ATOM     30  C   UNL     1      -3.801   3.848   3.436  1.00  0.00     0.338 C 
ATOM     31  O   UNL     1      -4.889   3.292   3.385  1.00  0.00    -0.246 OA
BRANCH  30  32
ATOM     32  C   UNL     1      -2.925   3.786   4.628  1.00  0.00     0.060 A 
ATOM     33  C   UNL     1      -2.631   2.796   5.583  1.00  0.00     0.016 A 
ATOM     34  C   UNL     1      -2.134   4.866   4.618  1.00  0.00     0.016 A 
ATOM     35  C   UNL     1      -1.489   2.989   6.413  1.00  0.00     0.010 A 
ATOM     36  C   UNL     1      -0.845   4.562   4.825  1.00  0.00     0.010 A 
ATOM     37  C   UNL     1      -0.600   3.978   6.028  1.00  0.00    -0.014 A 
BRANCH  37  38
ATOM     38  C   UNL     1       0.547   4.702   6.592  1.00  0.00     0.031 A 
ATOM     39  C   UNL     1       1.823   4.003   6.713  1.00  0.00     0.074 A 
ATOM     40  C   UNL     1       0.431   6.068   6.470  1.00  0.00     0.049 A 
ATOM     41  N   UNL     1       2.594   4.051   7.739  1.00  0.00    -0.248 NA
ATOM     42  C   UNL     1       2.334   3.154   5.632  1.00  0.00     0.031 C 
ATOM     43  C   UNL     1       1.351   7.188   6.369  1.00  0.00     0.029 A 
ATOM     44  N   UNL     1      -0.788   6.730   6.195  1.00  0.00    -0.354 N 
ATOM     45  C   UNL     1       3.826   3.637   7.270  1.00  0.00     0.074 A 
ATOM     46  C   UNL     1       3.553   2.845   6.090  1.00  0.00     0.031 C 
ATOM     47  C   UNL     1       0.636   8.344   6.462  1.00  0.00     0.029 A 
ATOM     48  C   UNL     1      -0.774   8.010   6.686  1.00  0.00     0.049 A 
ATOM     49  H   UNL     1      -1.546   6.326   5.715  1.00  0.00     0.167 HD
ATOM     50  C   UNL     1       4.938   4.370   7.573  1.00  0.00     0.034 A 
ATOM     51  C   UNL     1      -1.620   8.171   7.744  1.00  0.00     0.034 A 
ATOM     52  C   UNL     1       4.532   5.682   8.140  1.00  0.00     0.049 A 
ATOM     53  C   UNL     1      -0.775   8.173   8.993  1.00  0.00     0.074 A 
ATOM     54  C   UNL     1       4.553   6.971   7.629  1.00  0.00     0.029 A 
ATOM     55  N   UNL     1       3.716   5.743   9.266  1.00  0.00    -0.354 N 
ATOM     56  N   UNL     1       0.525   8.046   8.992  1.00  0.00    -0.248 NA
ATOM     57  C   UNL     1      -1.321   8.289  10.334  1.00  0.00     0.031 C 
ATOM     58  C   UNL     1       3.676   7.780   8.417  1.00  0.00     0.029 A 
ATOM     59  C   UNL     1       3.111   6.990   9.405  1.00  0.00     0.049 A 
ATOM     60  H   UNL     1       3.582   4.993   9.890  1.00  0.00     0.167 HD
ATOM     61  C   UNL     1       0.950   7.777  10.252  1.00  0.00     0.074 A 
ATOM     62  C   UNL     1      -0.212   8.103  11.069  1.00  0.00     0.031 C 
ATOM     63  C   UNL     1       2.168   7.209  10.511  1.00  0.00     0.034 A 
BRANCH  50  64
ATOM     64  C   UNL     1       6.354   4.099   7.069  1.00  0.00     0.023 A 
ATOM     65  C   UNL     1       7.312   5.116   7.288  1.00  0.00     0.012 A 
ATOM     66  C   UNL     1       6.849   2.902   6.489  1.00  0.00     0.148 A 
ATOM     67  C   UNL     1       8.652   4.993   6.910  1.00  0.00     0.002 A 
ATOM     68  C   UNL     1       8.185   2.792   6.072  1.00  0.00     0.091 A 
ATOM     69  F   UNL     1       6.058   1.827   6.401  1.00  0.00    -0.205 F 
ATOM     70  C   UNL     1       9.088   3.837   6.285  1.00  0.00     0.022 A 
BRANCH  68  71
ATOM     71  S   UNL     1       8.845   1.338   5.230  1.00  0.00     0.127 S 
ATOM     72  O   UNL     1       9.463   1.926   4.039  1.00  0.00    -0.237 OA
ATOM     73  O   UNL     1       9.796   0.812   6.207  1.00  0.00    -0.237 OA
ATOM     74  O   UNL     1       7.702   0.481   4.943  1.00  0.00    -0.744 OA
ENDBRANCH  68  71
ENDBRANCH  50  64
BRANCH  51  75
ATOM     75  C   UNL     1      -2.939   7.385   7.564  1.00  0.00     0.023 A 
ATOM     76  C   UNL     1      -3.734   7.662   6.413  1.00  0.00     0.012 A 
ATOM     77  C   UNL     1      -3.239   6.196   8.269  1.00  0.00     0.148 A 
ATOM     78  C   UNL     1      -4.712   6.765   5.946  1.00  0.00     0.002 A 
ATOM     79  C   UNL     1      -4.225   5.309   7.803  1.00  0.00     0.091 A 
ATOM     80  F   UNL     1      -2.543   5.906   9.375  1.00  0.00    -0.205 F 
ATOM     81  C   UNL     1      -4.946   5.579   6.632  1.00  0.00     0.022 A 
BRANCH  79  82
ATOM     82  S   UNL     1      -4.532   3.741   8.647  1.00  0.00     0.127 S 
ATOM     83  O   UNL     1      -5.133   2.905   7.606  1.00  0.00    -0.237 OA
ATOM     84  O   UNL     1      -3.217   3.290   9.082  1.00  0.00    -0.237 OA
ATOM     85  O   UNL     1      -5.456   4.150   9.701  1.00  0.00    -0.744 OA
ENDBRANCH  79  82
ENDBRANCH  51  75
BRANCH  63  86
ATOM     86  C   UNL     1       2.570   6.770  11.893  1.00  0.00     0.023 A 
ATOM     87  C   UNL     1       1.632   6.365  12.859  1.00  0.00     0.012 A 
ATOM     88  C   UNL     1       3.938   6.650  12.226  1.00  0.00     0.148 A 
ATOM     89  C   UNL     1       2.023   6.001  14.146  1.00  0.00     0.002 A 
ATOM     90  C   UNL     1       4.323   6.132  13.452  1.00  0.00     0.091 A 
ATOM     91  F   UNL     1       4.879   7.057  11.361  1.00  0.00    -0.205 F 
ATOM     92  C   UNL     1       3.373   5.866  14.438  1.00  0.00     0.022 A 
BRANCH  90  93
ATOM     93  S   UNL     1       6.023   5.638  13.732  1.00  0.00     0.127 S 
ATOM     94  O   UNL     1       6.593   6.838  14.337  1.00  0.00    -0.237 OA
ATOM     95  O   UNL     1       5.874   4.504  14.645  1.00  0.00    -0.237 OA
ATOM     96  O   UNL     1       6.532   5.277  12.414  1.00  0.00    -0.744 OA
ENDBRANCH  90  93
ENDBRANCH  63  86
ENDBRANCH  37  38
ENDBRANCH  30  32
ENDBRANCH  29  30
ENDBRANCH  28  29
ENDBRANCH   1  28
TORSDOF 19
