REMARK SMILES CCC1(C(=O)OCCOC(=O)c2ccc(-c3c4nc(c(-c5cccc(S(=O)(=O)[O-])c5F)c5ccc([nH]5)c(-c5cccc(S(=O)(=O)[O-])c5F)c5nc(c(-c6cccc(S(=O)(=O)[O-])c6F)c6ccc3[nH]6)C=C5)C=C4)cc2)CCN(C(=O)C[C@H]2CSCC[NH2+]2)CC1
REMARK SMILES IDX 8 1 7 2 6 3 4 4 5 5 3 6 75 7 88 8 76 9 87 10 77 11 78 12
REMARK SMILES IDX 79 13 2 14 1 15 80 16 81 17 82 18 86 19 83 20 85 21 84 24
REMARK SMILES IDX 9 25 10 26 11 27 12 28 13 29 74 30 14 31 73 32 15 33 16 34
REMARK SMILES IDX 17 35 67 36 18 37 72 38 66 39 68 40 19 41 71 42 65 43 64 44
REMARK SMILES IDX 20 46 52 47 32 48 51 49 33 50 36 51 50 52 69 53 34 54 35 55
REMARK SMILES IDX 49 57 70 58 37 59 21 60 22 61 30 62 23 63 25 64 31 65 24 66
REMARK SMILES IDX 26 67 27 68 28 69 29 70 53 71 54 72 62 73 55 74 57 75 63 76
REMARK SMILES IDX 56 77 58 78 59 79 60 80 61 81 38 82 39 83 47 84 40 85 42 86
REMARK SMILES IDX 48 87 41 88 43 89 44 90 45 91 46 92
REMARK H PARENT 86 22 86 23 68 45 36 56
REMARK Flexibility Score: inf
ROOT
ATOM      1  C   UNL     1      -0.439  -0.585   0.003  1.00  0.00     0.275 C 
ENDROOT
BRANCH   1   2
ATOM      2  C   UNL     1       0.676  -1.166   0.865  1.00  0.00     0.274 C 
BRANCH   2   3
ATOM      3  O   UNL     1       0.320  -2.492   1.317  1.00  0.00    -0.462 OA
BRANCH   3   4
ATOM      4  C   UNL     1       0.135  -2.662   2.653  1.00  0.00     0.312 C 
ATOM      5  O   UNL     1       0.156  -1.749   3.472  1.00  0.00    -0.252 OA
BRANCH   4   6
ATOM      6  C   UNL     1      -0.036  -4.140   3.060  1.00  0.00     0.071 C 
ATOM      7  C   UNL     1       0.240  -5.090   1.862  1.00  0.00     0.040 C 
ATOM      8  C   UNL     1       1.031  -4.346   4.187  1.00  0.00     0.040 C 
ATOM      9  C   UNL     1       0.509  -6.521   2.307  1.00  0.00     0.120 C 
ATOM     10  C   UNL     1       1.379  -5.807   4.464  1.00  0.00     0.120 C 
ATOM     11  N   UNL     1       1.652  -6.495   3.209  1.00  0.00    -0.342 N 
ATOM     12  C   UNL     1       2.898  -6.833   2.711  1.00  0.00     0.228 C 
ATOM     13  O   UNL     1       3.049  -7.273   1.567  1.00  0.00    -0.275 OA
BRANCH   6  14
ATOM     14  C   UNL     1      -1.439  -4.360   3.696  1.00  0.00     0.015 C 
ATOM     15  C   UNL     1      -2.575  -4.676   2.732  1.00  0.00     0.005 C 
ENDBRANCH   6  14
BRANCH  12  16
ATOM     16  C   UNL     1       4.130  -6.624   3.571  1.00  0.00     0.166 C 
BRANCH  16  17
ATOM     17  C   UNL     1       4.744  -5.203   3.534  1.00  0.00     0.201 C 
ATOM     18  C   UNL     1       4.316  -4.377   2.296  1.00  0.00     0.135 C 
ATOM     19  N   UNL     1       4.504  -4.549   4.843  1.00  0.00    -0.342 N 
ATOM     20  S   UNL     1       5.019  -2.693   2.246  1.00  0.00    -0.150 SA
ATOM     21  C   UNL     1       5.140  -3.230   4.948  1.00  0.00     0.271 C 
ATOM     22  H   UNL     1       4.876  -5.149   5.579  1.00  0.00     0.346 HD
ATOM     23  H   UNL     1       3.498  -4.412   4.936  1.00  0.00     0.346 HD
ATOM     24  C   UNL     1       4.606  -2.204   3.949  1.00  0.00     0.131 C 
ENDBRANCH  16  17
ENDBRANCH  12  16
ENDBRANCH   4   6
ENDBRANCH   3   4
ENDBRANCH   2   3
ENDBRANCH   1   2
BRANCH   1  25
ATOM     25  O   UNL     1      -1.605  -0.445   0.827  1.00  0.00    -0.458 OA
BRANCH  25  26
ATOM     26  C   UNL     1      -2.734  -1.041   0.380  1.00  0.00     0.338 C 
ATOM     27  O   UNL     1      -2.929  -1.510  -0.728  1.00  0.00    -0.246 OA
BRANCH  26  28
ATOM     28  C   UNL     1      -3.710  -1.116   1.488  1.00  0.00     0.060 A 
ATOM     29  C   UNL     1      -3.273  -1.359   2.791  1.00  0.00     0.016 A 
ATOM     30  C   UNL     1      -5.076  -1.073   1.216  1.00  0.00     0.016 A 
ATOM     31  C   UNL     1      -4.187  -1.665   3.794  1.00  0.00     0.010 A 
ATOM     32  C   UNL     1      -5.995  -1.260   2.255  1.00  0.00     0.010 A 
ATOM     33  C   UNL     1      -5.564  -1.598   3.551  1.00  0.00    -0.014 A 
BRANCH  33  34
ATOM     34  C   UNL     1      -6.549  -1.902   4.631  1.00  0.00     0.031 A 
ATOM     35  C   UNL     1      -7.647  -2.907   4.392  1.00  0.00     0.074 A 
ATOM     36  C   UNL     1      -6.487  -1.268   5.821  1.00  0.00     0.049 A 
ATOM     37  N   UNL     1      -8.743  -3.110   5.076  1.00  0.00    -0.248 NA
ATOM     38  C   UNL     1      -7.506  -3.784   3.217  1.00  0.00     0.031 C 
ATOM     39  C   UNL     1      -5.467  -0.293   6.214  1.00  0.00     0.029 A 
ATOM     40  N   UNL     1      -7.309  -1.341   6.920  1.00  0.00    -0.354 N 
ATOM     41  C   UNL     1      -9.472  -4.051   4.356  1.00  0.00     0.074 A 
ATOM     42  C   UNL     1      -8.676  -4.408   3.202  1.00  0.00     0.031 C 
ATOM     43  C   UNL     1      -5.699   0.111   7.470  1.00  0.00     0.029 A 
ATOM     44  C   UNL     1      -6.944  -0.487   7.936  1.00  0.00     0.049 A 
ATOM     45  H   UNL     1      -8.083  -1.946   6.976  1.00  0.00     0.167 HD
ATOM     46  C   UNL     1     -10.692  -4.568   4.635  1.00  0.00     0.034 A 
ATOM     47  C   UNL     1      -7.564  -0.168   9.090  1.00  0.00     0.034 A 
ATOM     48  C   UNL     1     -11.427  -4.296   5.841  1.00  0.00     0.049 A 
ATOM     49  C   UNL     1      -8.895  -0.789   9.399  1.00  0.00     0.074 A 
ATOM     50  C   UNL     1     -12.653  -4.804   6.235  1.00  0.00     0.029 A 
ATOM     51  N   UNL     1     -10.991  -3.467   6.863  1.00  0.00    -0.354 N 
ATOM     52  N   UNL     1      -9.572  -1.671   8.705  1.00  0.00    -0.248 NA
ATOM     53  C   UNL     1      -9.551  -0.369  10.645  1.00  0.00     0.031 C 
ATOM     54  C   UNL     1     -12.954  -4.287   7.500  1.00  0.00     0.029 A 
ATOM     55  C   UNL     1     -11.916  -3.458   7.893  1.00  0.00     0.049 A 
ATOM     56  H   UNL     1     -10.147  -2.959   6.857  1.00  0.00     0.167 HD
ATOM     57  C   UNL     1     -10.732  -1.913   9.429  1.00  0.00     0.074 A 
ATOM     58  C   UNL     1     -10.648  -1.115  10.635  1.00  0.00     0.031 C 
ATOM     59  C   UNL     1     -11.789  -2.700   9.109  1.00  0.00     0.034 A 
BRANCH  46  60
ATOM     60  C   UNL     1     -11.308  -5.504   3.630  1.00  0.00     0.023 A 
ATOM     61  C   UNL     1     -10.860  -6.836   3.544  1.00  0.00     0.012 A 
ATOM     62  C   UNL     1     -12.379  -5.080   2.817  1.00  0.00     0.148 A 
ATOM     63  C   UNL     1     -11.454  -7.727   2.650  1.00  0.00     0.002 A 
ATOM     64  C   UNL     1     -12.990  -5.983   1.955  1.00  0.00     0.091 A 
ATOM     65  F   UNL     1     -12.773  -3.800   2.892  1.00  0.00    -0.205 F 
ATOM     66  C   UNL     1     -12.524  -7.304   1.865  1.00  0.00     0.022 A 
BRANCH  64  67
ATOM     67  S   UNL     1     -14.424  -5.543   0.964  1.00  0.00     0.127 S 
ATOM     68  O   UNL     1     -13.823  -5.342  -0.353  1.00  0.00    -0.237 OA
ATOM     69  O   UNL     1     -15.261  -6.739   1.075  1.00  0.00    -0.237 OA
ATOM     70  O   UNL     1     -14.987  -4.355   1.591  1.00  0.00    -0.744 OA
ENDBRANCH  64  67
ENDBRANCH  46  60
BRANCH  47  71
ATOM     71  C   UNL     1      -6.918   0.792  10.031  1.00  0.00     0.023 A 
ATOM     72  C   UNL     1      -6.418   0.321  11.259  1.00  0.00     0.012 A 
ATOM     73  C   UNL     1      -6.728   2.145   9.687  1.00  0.00     0.148 A 
ATOM     74  C   UNL     1      -5.746   1.181  12.129  1.00  0.00     0.002 A 
ATOM     75  C   UNL     1      -5.997   2.978  10.525  1.00  0.00     0.091 A 
ATOM     76  F   UNL     1      -7.239   2.588   8.529  1.00  0.00    -0.205 F 
ATOM     77  C   UNL     1      -5.517   2.503  11.754  1.00  0.00     0.022 A 
BRANCH  75  78
ATOM     78  S   UNL     1      -5.517   4.633  10.016  1.00  0.00     0.127 S 
ATOM     79  O   UNL     1      -6.532   5.456  10.665  1.00  0.00    -0.237 OA
ATOM     80  O   UNL     1      -4.171   4.756  10.579  1.00  0.00    -0.237 OA
ATOM     81  O   UNL     1      -5.546   4.603   8.559  1.00  0.00    -0.744 OA
ENDBRANCH  75  78
ENDBRANCH  47  71
BRANCH  59  82
ATOM     82  C   UNL     1     -12.935  -2.744  10.080  1.00  0.00     0.023 A 
ATOM     83  C   UNL     1     -13.846  -1.670  10.120  1.00  0.00     0.012 A 
ATOM     84  C   UNL     1     -13.150  -3.869  10.898  1.00  0.00     0.148 A 
ATOM     85  C   UNL     1     -14.944  -1.706  10.977  1.00  0.00     0.002 A 
ATOM     86  C   UNL     1     -14.267  -3.913  11.725  1.00  0.00     0.091 A 
ATOM     87  F   UNL     1     -12.258  -4.869  10.862  1.00  0.00    -0.205 F 
ATOM     88  C   UNL     1     -15.161  -2.830  11.771  1.00  0.00     0.022 A 
BRANCH  86  89
ATOM     89  S   UNL     1     -14.659  -5.356  12.720  1.00  0.00     0.127 S 
ATOM     90  O   UNL     1     -14.204  -4.938  14.045  1.00  0.00    -0.237 OA
ATOM     91  O   UNL     1     -16.113  -5.453  12.578  1.00  0.00    -0.237 OA
ATOM     92  O   UNL     1     -13.924  -6.461  12.120  1.00  0.00    -0.744 OA
ENDBRANCH  86  89
ENDBRANCH  59  82
ENDBRANCH  33  34
ENDBRANCH  26  28
ENDBRANCH  25  26
ENDBRANCH   1  25
TORSDOF 17
