REMARK SMILES O=C(CN(CC(=O)OCCOC(=O)c1ccc(-c2c3nc(c(-c4cccc(S(=O)(=O)[O-])c4F)c4ccc([nH]4)c(-c4cccc(S(=O)(=O)[O-])c4F)c4nc(c(-c5cccc(S(=O)(=O)[O-])c5F)c5ccc2[nH]5)C=C4)C=C3)cc1)c1ccccc1)NCc1ccccc1
REMARK SMILES IDX 9 1 8 2 6 3 7 4 5 5 4 6 3 7 2 8 1 9 83 10 84 12 85 13 86 14
REMARK SMILES IDX 90 15 87 16 89 17 88 18 77 19 78 20 82 21 79 22 81 23 80 24
REMARK SMILES IDX 10 25 11 26 12 27 13 28 14 29 15 30 76 31 16 32 75 33 17 34
REMARK SMILES IDX 18 35 19 36 69 37 20 38 74 39 68 40 70 41 21 42 73 43 67 44
REMARK SMILES IDX 66 45 22 47 54 48 34 49 53 50 35 51 38 52 52 53 71 54 36 55
REMARK SMILES IDX 37 56 51 58 72 59 39 60 23 61 24 62 32 63 25 64 27 65 33 66
REMARK SMILES IDX 26 67 28 68 29 69 30 70 31 71 55 72 56 73 64 74 57 75 59 76
REMARK SMILES IDX 65 77 58 78 60 79 61 80 62 81 63 82 40 83 41 84 49 85 42 86
REMARK SMILES IDX 44 87 50 88 43 89 45 90 46 91 47 92 48 93
REMARK H PARENT 83 11 70 46 38 57
REMARK Flexibility Score: inf
ROOT
ATOM      1  C   UNL     1       5.666  -5.008   1.176  1.00  0.00     0.274 C 
ENDROOT
BRANCH   1   2
ATOM      2  O   UNL     1       4.863  -3.892   0.744  1.00  0.00    -0.461 OA
BRANCH   2   3
ATOM      3  C   UNL     1       5.521  -2.714   0.583  1.00  0.00     0.325 C 
ATOM      4  O   UNL     1       6.697  -2.533   0.892  1.00  0.00    -0.250 OA
BRANCH   3   5
ATOM      5  C   UNL     1       4.710  -1.610  -0.087  1.00  0.00     0.239 C 
BRANCH   5   6
ATOM      6  N   UNL     1       3.252  -1.758  -0.077  1.00  0.00    -0.351 N 
BRANCH   6   7
ATOM      7  C   UNL     1       2.432  -1.040   0.909  1.00  0.00     0.217 C 
BRANCH   7   8
ATOM      8  C   UNL     1       1.832   0.278   0.385  1.00  0.00     0.239 C 
ATOM      9  O   UNL     1       0.681   0.618   0.654  1.00  0.00    -0.273 OA
ATOM     10  N   UNL     1       2.693   1.078  -0.340  1.00  0.00    -0.350 N 
ATOM     11  H   UNL     1       3.655   0.872  -0.330  1.00  0.00     0.163 HD
BRANCH  10  12
ATOM     12  C   UNL     1       2.228   2.208  -1.114  1.00  0.00     0.151 C 
BRANCH  12  13
ATOM     13  C   UNL     1       2.545   3.563  -0.533  1.00  0.00    -0.029 A 
ATOM     14  C   UNL     1       2.732   3.779   0.838  1.00  0.00     0.005 A 
ATOM     15  C   UNL     1       2.559   4.674  -1.394  1.00  0.00     0.005 A 
ATOM     16  C   UNL     1       2.947   5.069   1.331  1.00  0.00     0.000 A 
ATOM     17  C   UNL     1       2.767   5.962  -0.900  1.00  0.00     0.000 A 
ATOM     18  C   UNL     1       2.961   6.160   0.464  1.00  0.00     0.000 A 
ENDBRANCH  12  13
ENDBRANCH  10  12
ENDBRANCH   7   8
ENDBRANCH   6   7
BRANCH   6  19
ATOM     19  C   UNL     1       2.642  -2.315  -1.191  1.00  0.00     0.038 A 
ATOM     20  C   UNL     1       2.286  -3.667  -1.206  1.00  0.00     0.026 A 
ATOM     21  C   UNL     1       2.396  -1.565  -2.349  1.00  0.00     0.026 A 
ATOM     22  C   UNL     1       1.723  -4.254  -2.345  1.00  0.00     0.002 A 
ATOM     23  C   UNL     1       1.813  -2.139  -3.482  1.00  0.00     0.002 A 
ATOM     24  C   UNL     1       1.484  -3.489  -3.483  1.00  0.00     0.000 A 
ENDBRANCH   6  19
ENDBRANCH   5   6
ENDBRANCH   3   5
ENDBRANCH   2   3
ENDBRANCH   1   2
BRANCH   1  25
ATOM     25  C   UNL     1       5.985  -5.925  -0.002  1.00  0.00     0.275 C 
BRANCH  25  26
ATOM     26  O   UNL     1       6.659  -5.180  -1.031  1.00  0.00    -0.458 OA
BRANCH  26  27
ATOM     27  C   UNL     1       5.946  -5.011  -2.165  1.00  0.00     0.338 C 
ATOM     28  O   UNL     1       4.831  -5.454  -2.410  1.00  0.00    -0.246 OA
BRANCH  27  29
ATOM     29  C   UNL     1       6.726  -4.261  -3.155  1.00  0.00     0.060 A 
ATOM     30  C   UNL     1       7.080  -2.925  -2.946  1.00  0.00     0.016 A 
ATOM     31  C   UNL     1       7.009  -4.892  -4.366  1.00  0.00     0.016 A 
ATOM     32  C   UNL     1       7.663  -2.196  -3.984  1.00  0.00     0.010 A 
ATOM     33  C   UNL     1       7.647  -4.181  -5.378  1.00  0.00     0.010 A 
ATOM     34  C   UNL     1       7.952  -2.822  -5.206  1.00  0.00    -0.014 A 
BRANCH  34  35
ATOM     35  C   UNL     1       8.623  -2.101  -6.313  1.00  0.00     0.031 A 
ATOM     36  C   UNL     1       7.895  -1.850  -7.603  1.00  0.00     0.074 A 
ATOM     37  C   UNL     1       9.926  -1.790  -6.187  1.00  0.00     0.049 A 
ATOM     38  N   UNL     1       8.366  -1.423  -8.745  1.00  0.00    -0.248 NA
ATOM     39  C   UNL     1       6.448  -2.125  -7.615  1.00  0.00     0.031 C 
ATOM     40  C   UNL     1      10.730  -2.016  -4.985  1.00  0.00     0.029 A 
ATOM     41  N   UNL     1      10.815  -1.271  -7.093  1.00  0.00    -0.354 N 
ATOM     42  C   UNL     1       7.290  -1.420  -9.624  1.00  0.00     0.074 A 
ATOM     43  C   UNL     1       6.136  -1.880  -8.881  1.00  0.00     0.031 C 
ATOM     44  C   UNL     1      12.001  -1.669  -5.237  1.00  0.00     0.029 A 
ATOM     45  C   UNL     1      12.108  -1.243  -6.628  1.00  0.00     0.049 A 
ATOM     46  H   UNL     1      10.553  -0.949  -7.986  1.00  0.00     0.167 HD
ATOM     47  C   UNL     1       7.270  -1.058 -10.929  1.00  0.00     0.034 A 
ATOM     48  C   UNL     1      13.260  -0.950  -7.262  1.00  0.00     0.034 A 
ATOM     49  C   UNL     1       8.420  -0.574 -11.646  1.00  0.00     0.049 A 
ATOM     50  C   UNL     1      13.209  -0.547  -8.707  1.00  0.00     0.074 A 
ATOM     51  C   UNL     1       8.495  -0.128 -12.954  1.00  0.00     0.029 A 
ATOM     52  N   UNL     1       9.697  -0.475 -11.115  1.00  0.00    -0.354 N 
ATOM     53  N   UNL     1      12.166  -0.448  -9.495  1.00  0.00    -0.248 NA
ATOM     54  C   UNL     1      14.484  -0.194  -9.345  1.00  0.00     0.031 C 
ATOM     55  C   UNL     1       9.822   0.236 -13.215  1.00  0.00     0.029 A 
ATOM     56  C   UNL     1      10.570   0.021 -12.069  1.00  0.00     0.049 A 
ATOM     57  H   UNL     1       9.947  -0.722 -10.196  1.00  0.00     0.167 HD
ATOM     58  C   UNL     1      12.653   0.002 -10.716  1.00  0.00     0.074 A 
ATOM     59  C   UNL     1      14.083   0.174 -10.556  1.00  0.00     0.031 C 
ATOM     60  C   UNL     1      11.981   0.233 -11.870  1.00  0.00     0.034 A 
BRANCH  47  61
ATOM     61  C   UNL     1       5.955  -1.125 -11.661  1.00  0.00     0.023 A 
ATOM     62  C   UNL     1       4.995  -0.118 -11.444  1.00  0.00     0.012 A 
ATOM     63  C   UNL     1       5.698  -2.133 -12.611  1.00  0.00     0.148 A 
ATOM     64  C   UNL     1       3.791  -0.120 -12.149  1.00  0.00     0.002 A 
ATOM     65  C   UNL     1       4.508  -2.113 -13.332  1.00  0.00     0.091 A 
ATOM     66  F   UNL     1       6.612  -3.099 -12.784  1.00  0.00    -0.205 F 
ATOM     67  C   UNL     1       3.552  -1.111 -13.099  1.00  0.00     0.022 A 
BRANCH  65  68
ATOM     68  S   UNL     1       4.144  -3.312 -14.620  1.00  0.00     0.127 S 
ATOM     69  O   UNL     1       3.219  -4.212 -13.933  1.00  0.00    -0.237 OA
ATOM     70  O   UNL     1       3.529  -2.483 -15.657  1.00  0.00    -0.237 OA
ATOM     71  O   UNL     1       5.427  -3.890 -14.995  1.00  0.00    -0.744 OA
ENDBRANCH  65  68
ENDBRANCH  47  61
BRANCH  48  72
ATOM     72  C   UNL     1      14.539  -0.991  -6.502  1.00  0.00     0.023 A 
ATOM     73  C   UNL     1      15.169   0.218  -6.153  1.00  0.00     0.012 A 
ATOM     74  C   UNL     1      15.082  -2.207  -6.042  1.00  0.00     0.148 A 
ATOM     75  C   UNL     1      16.321   0.217  -5.366  1.00  0.00     0.002 A 
ATOM     76  C   UNL     1      16.198  -2.197  -5.212  1.00  0.00     0.091 A 
ATOM     77  F   UNL     1      14.482  -3.351  -6.402  1.00  0.00    -0.205 F 
ATOM     78  C   UNL     1      16.825  -0.987  -4.882  1.00  0.00     0.022 A 
BRANCH  76  79
ATOM     79  S   UNL     1      16.804  -3.697  -4.428  1.00  0.00     0.127 S 
ATOM     80  O   UNL     1      17.918  -4.063  -5.298  1.00  0.00    -0.237 OA
ATOM     81  O   UNL     1      17.192  -3.220  -3.099  1.00  0.00    -0.237 OA
ATOM     82  O   UNL     1      15.667  -4.608  -4.420  1.00  0.00    -0.744 OA
ENDBRANCH  76  79
ENDBRANCH  48  72
BRANCH  60  83
ATOM     83  C   UNL     1      12.781   0.715 -13.048  1.00  0.00     0.023 A 
ATOM     84  C   UNL     1      13.554  -0.207 -13.780  1.00  0.00     0.012 A 
ATOM     85  C   UNL     1      12.708   2.055 -13.472  1.00  0.00     0.148 A 
ATOM     86  C   UNL     1      14.261   0.204 -14.909  1.00  0.00     0.002 A 
ATOM     87  C   UNL     1      13.386   2.450 -14.619  1.00  0.00     0.091 A 
ATOM     88  F   UNL     1      11.985   2.919 -12.745  1.00  0.00    -0.205 F 
ATOM     89  C   UNL     1      14.168   1.528 -15.335  1.00  0.00     0.022 A 
BRANCH  87  90
ATOM     90  S   UNL     1      13.256   4.115 -15.278  1.00  0.00     0.127 S 
ATOM     91  O   UNL     1      14.519   4.708 -14.844  1.00  0.00    -0.237 OA
ATOM     92  O   UNL     1      13.157   3.877 -16.719  1.00  0.00    -0.237 OA
ATOM     93  O   UNL     1      12.055   4.684 -14.681  1.00  0.00    -0.744 OA
ENDBRANCH  87  90
ENDBRANCH  60  83
ENDBRANCH  34  35
ENDBRANCH  27  29
ENDBRANCH  26  27
ENDBRANCH  25  26
ENDBRANCH   1  25
TORSDOF 20
