REMARK SMILES CC[N@@H+](C)Cc1cc2c(cc1Cl)C=C(C(=O)OCCOC(=O)c1ccc(-c3c4nc(c(-c5cccc(S(=O)(=O)[O-])c5F)c5ccc([nH]5)c(-c5cccc(S(=O)(=O)[O-])c5F)c5nc(c(-c6cccc(S(=O)(=O)[O-])c6F)c6ccc3[nH]6)C=C5)C=C4)cc1)[C@@H](C(F)(F)F)O2
REMARK SMILES IDX 18 1 17 2 15 3 16 4 14 5 6 6 7 7 11 8 8 9 10 10 12 11 9 12
REMARK SMILES IDX 91 13 13 14 86 15 5 16 3 17 4 18 2 20 1 21 87 22 88 23 89 24
REMARK SMILES IDX 90 25 19 26 20 27 21 28 22 29 23 30 24 31 85 32 25 33 84 34
REMARK SMILES IDX 26 35 27 36 28 37 78 38 29 39 83 40 77 41 79 42 30 43 82 44
REMARK SMILES IDX 76 45 75 46 31 48 63 49 43 50 62 51 44 52 47 53 61 54 80 55
REMARK SMILES IDX 45 56 46 57 60 59 81 60 48 61 32 62 33 63 41 64 34 65 36 66
REMARK SMILES IDX 42 67 35 68 37 69 38 70 39 71 40 72 64 73 65 74 73 75 66 76
REMARK SMILES IDX 68 77 74 78 67 79 69 80 70 81 71 82 72 83 49 84 50 85 58 86
REMARK SMILES IDX 51 87 53 88 59 89 52 90 54 91 55 92 56 93 57 94
REMARK H PARENT 3 19 79 47 47 58
REMARK Flexibility Score: inf
ROOT
ATOM      1  C   UNL     1       5.141   1.611  -9.336  1.00  0.00     0.275 C 
ENDROOT
BRANCH   1   2
ATOM      2  O   UNL     1       4.852   1.373  -7.941  1.00  0.00    -0.459 OA
BRANCH   2   3
ATOM      3  C   UNL     1       3.989   0.362  -7.687  1.00  0.00     0.338 C 
ATOM      4  O   UNL     1       3.407  -0.322  -8.514  1.00  0.00    -0.246 OA
BRANCH   3   5
ATOM      5  C   UNL     1       3.868   0.147  -6.233  1.00  0.00     0.087 C 
ATOM      6  C   UNL     1       3.029  -1.907  -1.731  1.00  0.00     0.029 A 
ATOM      7  C   UNL     1       3.118  -0.581  -2.208  1.00  0.00     0.058 A 
ATOM      8  C   UNL     1       3.446  -2.947  -2.576  1.00  0.00     0.050 A 
ATOM      9  C   UNL     1       3.452  -0.310  -3.530  1.00  0.00     0.128 A 
ATOM     10  C   UNL     1       3.808  -2.674  -3.893  1.00  0.00     0.033 A 
ATOM     11  Cl  UNL     1       3.505  -4.597  -2.073  1.00  0.00    -0.084 Cl
ATOM     12  C   UNL     1       3.756  -1.364  -4.377  1.00  0.00     0.019 A 
ATOM     13  O   UNL     1       3.434   0.999  -3.922  1.00  0.00    -0.475 OA
ATOM     14  C   UNL     1       3.965  -1.107  -5.782  1.00  0.00     0.027 C 
ATOM     15  C   UNL     1       3.515   1.305  -5.346  1.00  0.00     0.316 C 
BRANCH   6  16
ATOM     16  C   UNL     1       2.403  -2.161  -0.373  1.00  0.00     0.300 C 
BRANCH  16  17
ATOM     17  N   UNL     1       0.923  -2.178  -0.335  1.00  0.00    -0.334 N 
ATOM     18  C   UNL     1       0.366  -3.289  -1.115  1.00  0.00     0.333 C 
ATOM     19  H   UNL     1       0.717  -2.315   0.655  1.00  0.00     0.348 HD
BRANCH  17  20
ATOM     20  C   UNL     1       0.259  -0.922  -0.699  1.00  0.00     0.258 C 
ATOM     21  C   UNL     1       0.566   0.226   0.257  1.00  0.00     0.071 C 
ENDBRANCH  17  20
ENDBRANCH  16  17
ENDBRANCH   6  16
BRANCH  15  22
ATOM     22  C   UNL     1       2.189   1.946  -5.789  1.00  0.00     0.430 C 
ATOM     23  F   UNL     1       1.847   2.981  -4.983  1.00  0.00    -0.167 F 
ATOM     24  F   UNL     1       2.275   2.453  -7.044  1.00  0.00    -0.167 F 
ATOM     25  F   UNL     1       1.161   1.068  -5.777  1.00  0.00    -0.167 F 
ENDBRANCH  15  22
ENDBRANCH   3   5
ENDBRANCH   2   3
ENDBRANCH   1   2
BRANCH   1  26
ATOM     26  C   UNL     1       6.537   1.109  -9.707  1.00  0.00     0.275 C 
BRANCH  26  27
ATOM     27  O   UNL     1       6.580  -0.329  -9.686  1.00  0.00    -0.458 OA
BRANCH  27  28
ATOM     28  C   UNL     1       7.160  -0.871  -8.591  1.00  0.00     0.338 C 
ATOM     29  O   UNL     1       7.672  -0.279  -7.656  1.00  0.00    -0.246 OA
BRANCH  28  30
ATOM     30  C   UNL     1       6.981  -2.329  -8.612  1.00  0.00     0.060 A 
ATOM     31  C   UNL     1       8.038  -3.199  -8.839  1.00  0.00     0.016 A 
ATOM     32  C   UNL     1       5.745  -2.829  -8.227  1.00  0.00     0.016 A 
ATOM     33  C   UNL     1       7.827  -4.576  -8.683  1.00  0.00     0.010 A 
ATOM     34  C   UNL     1       5.595  -4.168  -7.887  1.00  0.00     0.010 A 
ATOM     35  C   UNL     1       6.615  -5.080  -8.159  1.00  0.00    -0.014 A 
BRANCH  35  36
ATOM     36  C   UNL     1       6.407  -6.540  -7.915  1.00  0.00     0.031 A 
ATOM     37  C   UNL     1       5.192  -7.266  -8.461  1.00  0.00     0.074 A 
ATOM     38  C   UNL     1       7.295  -7.223  -7.160  1.00  0.00     0.049 A 
ATOM     39  N   UNL     1       4.885  -8.537  -8.367  1.00  0.00    -0.248 NA
ATOM     40  C   UNL     1       4.166  -6.473  -9.164  1.00  0.00     0.031 C 
ATOM     41  C   UNL     1       8.434  -6.635  -6.450  1.00  0.00     0.029 A 
ATOM     42  N   UNL     1       7.390  -8.563  -6.874  1.00  0.00    -0.354 N 
ATOM     43  C   UNL     1       3.628  -8.675  -8.948  1.00  0.00     0.074 A 
ATOM     44  C   UNL     1       3.196  -7.357  -9.342  1.00  0.00     0.031 C 
ATOM     45  C   UNL     1       9.156  -7.613  -5.883  1.00  0.00     0.029 A 
ATOM     46  C   UNL     1       8.515  -8.895  -6.153  1.00  0.00     0.049 A 
ATOM     47  H   UNL     1       6.717  -9.223  -7.157  1.00  0.00     0.167 HD
ATOM     48  C   UNL     1       2.916  -9.800  -9.191  1.00  0.00     0.034 A 
ATOM     49  C   UNL     1       8.997 -10.094  -5.773  1.00  0.00     0.034 A 
ATOM     50  C   UNL     1       3.386 -11.125  -8.903  1.00  0.00     0.049 A 
ATOM     51  C   UNL     1       8.254 -11.340  -6.160  1.00  0.00     0.074 A 
ATOM     52  C   UNL     1       2.792 -12.333  -9.219  1.00  0.00     0.029 A 
ATOM     53  N   UNL     1       4.572 -11.415  -8.251  1.00  0.00    -0.354 N 
ATOM     54  N   UNL     1       7.136 -11.450  -6.835  1.00  0.00    -0.248 NA
ATOM     55  C   UNL     1       8.848 -12.625  -5.765  1.00  0.00     0.031 C 
ATOM     56  C   UNL     1       3.621 -13.358  -8.755  1.00  0.00     0.029 A 
ATOM     57  C   UNL     1       4.735 -12.784  -8.163  1.00  0.00     0.049 A 
ATOM     58  H   UNL     1       5.205 -10.746  -7.902  1.00  0.00     0.167 HD
ATOM     59  C   UNL     1       6.902 -12.813  -6.963  1.00  0.00     0.074 A 
ATOM     60  C   UNL     1       8.004 -13.491  -6.311  1.00  0.00     0.031 C 
ATOM     61  C   UNL     1       5.861 -13.443  -7.558  1.00  0.00     0.034 A 
BRANCH  48  62
ATOM     62  C   UNL     1       1.595  -9.668  -9.904  1.00  0.00     0.023 A 
ATOM     63  C   UNL     1       1.587  -9.394 -11.287  1.00  0.00     0.012 A 
ATOM     64  C   UNL     1       0.378  -9.917  -9.240  1.00  0.00     0.148 A 
ATOM     65  C   UNL     1       0.388  -9.350 -11.996  1.00  0.00     0.002 A 
ATOM     66  C   UNL     1      -0.811  -9.907  -9.961  1.00  0.00     0.091 A 
ATOM     67  F   UNL     1       0.409 -10.169  -7.924  1.00  0.00    -0.205 F 
ATOM     68  C   UNL     1      -0.808  -9.617 -11.336  1.00  0.00     0.022 A 
BRANCH  66  69
ATOM     69  S   UNL     1      -2.403 -10.298  -9.226  1.00  0.00     0.127 S 
ATOM     70  O   UNL     1      -3.123  -9.035  -9.391  1.00  0.00    -0.237 OA
ATOM     71  O   UNL     1      -2.876 -11.385 -10.084  1.00  0.00    -0.237 OA
ATOM     72  O   UNL     1      -2.131 -10.677  -7.847  1.00  0.00    -0.744 OA
ENDBRANCH  66  69
ENDBRANCH  48  62
BRANCH  49  73
ATOM     73  C   UNL     1      10.312 -10.163  -5.079  1.00  0.00     0.023 A 
ATOM     74  C   UNL     1      11.450 -10.566  -5.806  1.00  0.00     0.012 A 
ATOM     75  C   UNL     1      10.458  -9.751  -3.741  1.00  0.00     0.148 A 
ATOM     76  C   UNL     1      12.711 -10.562  -5.210  1.00  0.00     0.002 A 
ATOM     77  C   UNL     1      11.722  -9.712  -3.166  1.00  0.00     0.091 A 
ATOM     78  F   UNL     1       9.359  -9.371  -3.074  1.00  0.00    -0.205 F 
ATOM     79  C   UNL     1      12.849 -10.126  -3.895  1.00  0.00     0.022 A 
BRANCH  77  80
ATOM     80  S   UNL     1      12.018  -9.066  -1.516  1.00  0.00     0.127 S 
ATOM     81  O   UNL     1      12.518 -10.249  -0.818  1.00  0.00    -0.237 OA
ATOM     82  O   UNL     1      13.022  -8.034  -1.776  1.00  0.00    -0.237 OA
ATOM     83  O   UNL     1      10.735  -8.561  -1.051  1.00  0.00    -0.744 OA
ENDBRANCH  77  80
ENDBRANCH  49  73
BRANCH  61  84
ATOM     84  C   UNL     1       5.852 -14.945  -7.566  1.00  0.00     0.023 A 
ATOM     85  C   UNL     1       5.465 -15.641  -6.406  1.00  0.00     0.012 A 
ATOM     86  C   UNL     1       6.095 -15.652  -8.759  1.00  0.00     0.148 A 
ATOM     87  C   UNL     1       5.327 -17.028  -6.431  1.00  0.00     0.002 A 
ATOM     88  C   UNL     1       5.922 -17.029  -8.786  1.00  0.00     0.091 A 
ATOM     89  F   UNL     1       6.469 -14.961  -9.845  1.00  0.00    -0.205 F 
ATOM     90  C   UNL     1       5.542 -17.719  -7.622  1.00  0.00     0.022 A 
BRANCH  88  91
ATOM     91  S   UNL     1       6.100 -17.997 -10.288  1.00  0.00     0.127 S 
ATOM     92  O   UNL     1       7.297 -18.783  -9.995  1.00  0.00    -0.237 OA
ATOM     93  O   UNL     1       4.855 -18.765 -10.311  1.00  0.00    -0.237 OA
ATOM     94  O   UNL     1       6.241 -17.035 -11.374  1.00  0.00    -0.744 OA
ENDBRANCH  88  91
ENDBRANCH  61  84
ENDBRANCH  35  36
ENDBRANCH  28  30
ENDBRANCH  27  28
ENDBRANCH  26  27
ENDBRANCH   1  26
TORSDOF 18
