REMARK SMILES Cc1cc(=O)oc2cc(O[C@@H](C)C(=O)N[C@H](CC(C)C)C(=O)OCCOC(=O)c3ccc(-c4c5nc(c(-c6cccc(S(=O)(=O)[O-])c6F)c6ccc([nH]6)c(-c6cccc(S(=O)(=O)[O-])c6F)c6nc(c(-c7cccc(S(=O)(=O)[O-])c7F)c7ccc4[nH]7)C=C6)C=C5)cc3)ccc12
REMARK SMILES IDX 24 1 23 2 21 3 22 4 16 5 15 6 13 7 14 8 11 10 12 11 10 12
REMARK SMILES IDX 9 13 1 14 2 15 3 16 94 17 4 18 7 19 93 20 5 21 6 22 8 23
REMARK SMILES IDX 92 24 17 25 18 26 19 27 20 28 25 29 26 30 27 31 28 32 29 33
REMARK SMILES IDX 30 34 91 35 31 36 90 37 32 38 33 39 34 40 84 41 35 42 89 43
REMARK SMILES IDX 83 44 85 45 36 46 88 47 82 48 81 49 37 51 69 52 49 53 68 54
REMARK SMILES IDX 50 55 53 56 67 57 86 58 51 59 52 60 66 62 87 63 54 64 38 65
REMARK SMILES IDX 39 66 47 67 40 68 42 69 48 70 41 71 43 72 44 73 45 74 46 75
REMARK SMILES IDX 70 76 71 77 79 78 72 79 74 80 80 81 73 82 75 83 76 84 77 85
REMARK SMILES IDX 78 86 55 87 56 88 64 89 57 90 59 91 65 92 58 93 60 94 61 95
REMARK SMILES IDX 62 96 63 97
REMARK H PARENT 15 9 85 50 53 61
REMARK Flexibility Score: inf
ROOT
ATOM      1  C   UNL     1      -2.822   2.696   0.342  1.00  0.00     0.274 C 
ENDROOT
BRANCH   1   2
ATOM      2  O   UNL     1      -1.797   3.097   1.413  1.00  0.00    -0.461 OA
BRANCH   2   3
ATOM      3  C   UNL     1      -0.490   2.903   1.775  1.00  0.00     0.328 C 
ATOM      4  O   UNL     1       0.224   3.884   2.033  1.00  0.00    -0.250 OA
BRANCH   3   5
ATOM      5  C   UNL     1       0.150   1.581   2.167  1.00  0.00     0.192 C 
BRANCH   5   6
ATOM      6  N   UNL     1      -0.658   0.455   1.811  1.00  0.00    -0.339 N 
ATOM      7  C   UNL     1      -0.742   0.049   0.500  1.00  0.00     0.261 C 
ATOM      8  O   UNL     1      -1.176  -1.093   0.312  1.00  0.00    -0.271 OA
ATOM      9  H   UNL     1      -1.156  -0.031   2.507  1.00  0.00     0.164 HD
BRANCH   7  10
ATOM     10  C   UNL     1      -0.408   1.044  -0.758  1.00  0.00     0.258 C 
ATOM     11  C   UNL     1       0.328   0.277  -1.855  1.00  0.00     0.064 C 
BRANCH  10  12
ATOM     12  O   UNL     1      -0.393   2.473  -0.881  1.00  0.00    -0.481 OA
BRANCH  12  13
ATOM     13  C   UNL     1       0.340   3.608  -0.729  1.00  0.00     0.124 A 
ATOM     14  C   UNL     1       1.243   8.444   1.223  1.00  0.00     0.045 C 
ATOM     15  C   UNL     1       2.074   7.273   0.762  1.00  0.00    -0.033 A 
ATOM     16  C   UNL     1       3.394   7.192   0.958  1.00  0.00     0.098 A 
ATOM     17  C   UNL     1       1.453   6.115   0.125  1.00  0.00     0.021 A 
ATOM     18  C   UNL     1       4.192   6.030   0.534  1.00  0.00     0.336 A 
ATOM     19  C   UNL     1       2.217   5.046  -0.392  1.00  0.00     0.142 A 
ATOM     20  C   UNL     1       0.097   5.975   0.112  1.00  0.00     0.016 A 
ATOM     21  O   UNL     1       5.353   5.901   0.935  1.00  0.00    -0.246 OA
ATOM     22  O   UNL     1       3.620   5.126  -0.339  1.00  0.00    -0.423 OA
ATOM     23  C   UNL     1       1.686   3.807  -0.847  1.00  0.00     0.094 A 
ATOM     24  C   UNL     1      -0.409   4.766  -0.339  1.00  0.00     0.047 A 
ENDBRANCH  12  13
ENDBRANCH  10  12
ENDBRANCH   7  10
ENDBRANCH   5   6
BRANCH   5  25
ATOM     25  C   UNL     1       0.554   1.832   3.675  1.00  0.00     0.040 C 
BRANCH  25  26
ATOM     26  C   UNL     1       2.081   1.951   4.059  1.00  0.00    -0.015 C 
ATOM     27  C   UNL     1       3.116   1.555   3.004  1.00  0.00     0.007 C 
ATOM     28  C   UNL     1       2.477   3.360   4.564  1.00  0.00     0.007 C 
ENDBRANCH  25  26
ENDBRANCH   5  25
ENDBRANCH   3   5
ENDBRANCH   2   3
ENDBRANCH   1   2
BRANCH   1  29
ATOM     29  C   UNL     1      -3.143   3.599  -1.018  1.00  0.00     0.275 C 
BRANCH  29  30
ATOM     30  O   UNL     1      -2.229   3.525  -2.191  1.00  0.00    -0.458 OA
BRANCH  30  31
ATOM     31  C   UNL     1      -1.873   4.660  -2.921  1.00  0.00     0.338 C 
ATOM     32  O   UNL     1      -2.428   5.745  -2.807  1.00  0.00    -0.246 OA
BRANCH  31  33
ATOM     33  C   UNL     1      -0.591   4.484  -3.751  1.00  0.00     0.060 A 
ATOM     34  C   UNL     1       0.070   3.268  -3.732  1.00  0.00     0.016 A 
ATOM     35  C   UNL     1       0.075   5.526  -4.426  1.00  0.00     0.016 A 
ATOM     36  C   UNL     1       1.395   3.128  -4.178  1.00  0.00     0.010 A 
ATOM     37  C   UNL     1       1.334   5.311  -5.082  1.00  0.00     0.010 A 
ATOM     38  C   UNL     1       2.017   4.087  -4.982  1.00  0.00    -0.014 A 
BRANCH  38  39
ATOM     39  C   UNL     1       3.240   3.701  -5.800  1.00  0.00     0.031 A 
ATOM     40  C   UNL     1       4.452   4.601  -5.973  1.00  0.00     0.074 A 
ATOM     41  C   UNL     1       3.248   2.519  -6.472  1.00  0.00     0.049 A 
ATOM     42  N   UNL     1       5.415   4.534  -6.864  1.00  0.00    -0.248 NA
ATOM     43  C   UNL     1       4.609   5.714  -5.025  1.00  0.00     0.031 C 
ATOM     44  C   UNL     1       2.199   1.494  -6.416  1.00  0.00     0.029 A 
ATOM     45  N   UNL     1       4.152   1.979  -7.369  1.00  0.00    -0.354 N 
ATOM     46  C   UNL     1       6.236   5.641  -6.651  1.00  0.00     0.074 A 
ATOM     47  C   UNL     1       5.680   6.339  -5.507  1.00  0.00     0.031 C 
ATOM     48  C   UNL     1       2.515   0.464  -7.201  1.00  0.00     0.029 A 
ATOM     49  C   UNL     1       3.704   0.811  -7.954  1.00  0.00     0.049 A 
ATOM     50  H   UNL     1       5.026   2.386  -7.569  1.00  0.00     0.167 HD
ATOM     51  C   UNL     1       7.334   6.043  -7.346  1.00  0.00     0.034 A 
ATOM     52  C   UNL     1       4.102   0.123  -9.041  1.00  0.00     0.034 A 
ATOM     53  C   UNL     1       7.928   5.309  -8.441  1.00  0.00     0.049 A 
ATOM     54  C   UNL     1       5.282   0.607  -9.820  1.00  0.00     0.074 A 
ATOM     55  C   UNL     1       9.065   5.620  -9.173  1.00  0.00     0.029 A 
ATOM     56  N   UNL     1       7.441   4.121  -8.964  1.00  0.00    -0.354 N 
ATOM     57  N   UNL     1       6.039   1.649  -9.594  1.00  0.00    -0.248 NA
ATOM     58  C   UNL     1       5.672  -0.186 -10.993  1.00  0.00     0.031 C 
ATOM     59  C   UNL     1       9.240   4.643 -10.160  1.00  0.00     0.029 A 
ATOM     60  C   UNL     1       8.239   3.698 -10.017  1.00  0.00     0.049 A 
ATOM     61  H   UNL     1       6.643   3.646  -8.636  1.00  0.00     0.167 HD
ATOM     62  C   UNL     1       7.016   1.623 -10.579  1.00  0.00     0.074 A 
ATOM     63  C   UNL     1       6.766   0.448 -11.389  1.00  0.00     0.031 C 
ATOM     64  C   UNL     1       8.020   2.506 -10.796  1.00  0.00     0.034 A 
BRANCH  51  65
ATOM     65  C   UNL     1       7.982   7.362  -6.972  1.00  0.00     0.023 A 
ATOM     66  C   UNL     1       8.737   7.479  -5.788  1.00  0.00     0.012 A 
ATOM     67  C   UNL     1       7.913   8.467  -7.851  1.00  0.00     0.148 A 
ATOM     68  C   UNL     1       9.373   8.681  -5.464  1.00  0.00     0.002 A 
ATOM     69  C   UNL     1       8.584   9.646  -7.542  1.00  0.00     0.091 A 
ATOM     70  F   UNL     1       7.194   8.344  -8.976  1.00  0.00    -0.205 F 
ATOM     71  C   UNL     1       9.303   9.760  -6.343  1.00  0.00     0.022 A 
BRANCH  69  72
ATOM     72  S   UNL     1       8.622  11.065  -8.648  1.00  0.00     0.127 S 
ATOM     73  O   UNL     1       7.777  12.020  -7.933  1.00  0.00    -0.237 OA
ATOM     74  O   UNL     1      10.045  11.407  -8.666  1.00  0.00    -0.237 OA
ATOM     75  O   UNL     1       8.095  10.596  -9.922  1.00  0.00    -0.744 OA
ENDBRANCH  69  72
ENDBRANCH  51  65
BRANCH  52  76
ATOM     76  C   UNL     1       3.330  -1.081  -9.476  1.00  0.00     0.023 A 
ATOM     77  C   UNL     1       3.909  -2.357  -9.355  1.00  0.00     0.012 A 
ATOM     78  C   UNL     1       2.002  -0.969  -9.945  1.00  0.00     0.148 A 
ATOM     79  C   UNL     1       3.189  -3.498  -9.711  1.00  0.00     0.002 A 
ATOM     80  C   UNL     1       1.270  -2.114 -10.232  1.00  0.00     0.091 A 
ATOM     81  F   UNL     1       1.470   0.256 -10.062  1.00  0.00    -0.205 F 
ATOM     82  C   UNL     1       1.867  -3.379 -10.134  1.00  0.00     0.022 A 
BRANCH  80  83
ATOM     83  S   UNL     1      -0.483  -2.065 -10.628  1.00  0.00     0.127 S 
ATOM     84  O   UNL     1      -0.481  -2.434 -12.041  1.00  0.00    -0.237 OA
ATOM     85  O   UNL     1      -1.025  -3.081  -9.725  1.00  0.00    -0.237 OA
ATOM     86  O   UNL     1      -0.917  -0.707 -10.328  1.00  0.00    -0.744 OA
ENDBRANCH  80  83
ENDBRANCH  52  76
BRANCH  64  87
ATOM     87  C   UNL     1       8.965   2.208 -11.929  1.00  0.00     0.023 A 
ATOM     88  C   UNL     1       8.537   2.356 -13.264  1.00  0.00     0.012 A 
ATOM     89  C   UNL     1      10.293   1.819 -11.667  1.00  0.00     0.148 A 
ATOM     90  C   UNL     1       9.408   2.090 -14.320  1.00  0.00     0.002 A 
ATOM     91  C   UNL     1      11.170   1.607 -12.724  1.00  0.00     0.091 A 
ATOM     92  F   UNL     1      10.672   1.656 -10.391  1.00  0.00    -0.205 F 
ATOM     93  C   UNL     1      10.726   1.728 -14.051  1.00  0.00     0.022 A 
BRANCH  91  94
ATOM     94  S   UNL     1      12.907   1.229 -12.473  1.00  0.00     0.127 S 
ATOM     95  O   UNL     1      12.975  -0.167 -12.904  1.00  0.00    -0.237 OA
ATOM     96  O   UNL     1      13.562   2.178 -13.374  1.00  0.00    -0.237 OA
ATOM     97  O   UNL     1      13.169   1.458 -11.059  1.00  0.00    -0.744 OA
ENDBRANCH  91  94
ENDBRANCH  64  87
ENDBRANCH  38  39
ENDBRANCH  31  33
ENDBRANCH  30  31
ENDBRANCH  29  30
ENDBRANCH   1  29
TORSDOF 20
