REMARK SMILES COCc1cc(C)nc(N/N=C\c2ccc(-c3cccc(C(=O)OCCOC(=O)c4ccc(-c5c6nc(c(-c7cccc(S(=O)(=O)[O-])c7F)c7ccc([nH]7)c(-c7cccc(S(=O)(=O)[O-])c7F)c7nc(c(-c8cccc(S(=O)(=O)[O-])c8F)c8ccc5[nH]8)C=C7)C=C6)cc4)c3)o2)c1C#N
REMARK SMILES IDX 24 1 22 2 23 3 21 4 17 5 18 6 93 7 19 8 20 9 16 10 13 11
REMARK SMILES IDX 14 12 94 13 15 14 12 15 11 16 10 17 9 19 4 20 5 21 95 22
REMARK SMILES IDX 6 23 7 24 8 25 3 26 2 27 1 28 96 29 97 30 25 31 26 32 27 33
REMARK SMILES IDX 28 34 29 35 30 36 31 37 92 38 32 39 91 40 33 41 34 42 35 43
REMARK SMILES IDX 85 44 36 45 90 46 84 47 86 48 37 49 89 50 83 51 82 52 38 54
REMARK SMILES IDX 70 55 50 56 69 57 51 58 54 59 68 60 87 61 52 62 53 63 67 65
REMARK SMILES IDX 88 66 55 67 39 68 40 69 48 70 41 71 43 72 49 73 42 74 44 75
REMARK SMILES IDX 45 76 46 77 47 78 71 79 72 80 80 81 73 82 75 83 81 84 74 85
REMARK SMILES IDX 76 86 77 87 78 88 79 89 56 90 57 91 65 92 58 93 60 94 66 95
REMARK SMILES IDX 59 96 61 97 62 98 63 99 64 100
REMARK H PARENT 10 18 86 53 54 64
REMARK Flexibility Score: inf
ROOT
ATOM      1  O   UNL     1      -1.314  -0.310   6.744  1.00  0.00    -0.458 OA
ENDROOT
BRANCH   1   2
ATOM      2  C   UNL     1      -2.166  -0.529   5.712  1.00  0.00     0.338 C 
ATOM      3  O   UNL     1      -2.630  -1.600   5.364  1.00  0.00    -0.246 OA
BRANCH   2   4
ATOM      4  C   UNL     1      -2.560   0.787   5.146  1.00  0.00     0.060 A 
ATOM      5  C   UNL     1      -2.061   3.128   4.772  1.00  0.00     0.018 A 
ATOM      6  C   UNL     1      -3.336   3.300   4.211  1.00  0.00     0.012 A 
ATOM      7  C   UNL     1      -1.736   1.894   5.337  1.00  0.00     0.027 A 
ATOM      8  C   UNL     1      -4.173   2.197   4.019  1.00  0.00     0.002 A 
ATOM      9  C   UNL     1      -3.740   0.930   4.407  1.00  0.00     0.016 A 
BRANCH   5  10
ATOM     10  C   UNL     1      -0.960   4.036   4.466  1.00  0.00     0.134 A 
ATOM     11  C   UNL     1      -0.167   5.691   3.273  1.00  0.00     0.147 A 
ATOM     12  C   UNL     1       0.912   4.886   3.571  1.00  0.00     0.053 A 
ATOM     13  O   UNL     1      -1.284   5.234   3.916  1.00  0.00    -0.455 OA
ATOM     14  C   UNL     1       0.404   3.825   4.356  1.00  0.00     0.051 A 
BRANCH  11  15
ATOM     15  C   UNL     1      -0.366   6.803   2.398  1.00  0.00     0.180 C 
ATOM     16  N   UNL     1       0.045   7.003   1.180  1.00  0.00    -0.178 NA
BRANCH  16  17
ATOM     17  N   UNL     1       0.756   6.090   0.450  1.00  0.00    -0.260 N 
ATOM     18  H   UNL     1       1.641   6.366   0.118  1.00  0.00     0.192 HD
BRANCH  17  19
ATOM     19  C   UNL     1       0.316   4.761   0.130  1.00  0.00     0.164 A 
ATOM     20  C   UNL     1       0.735   2.649  -1.040  1.00  0.00     0.001 A 
ATOM     21  C   UNL     1      -0.336   2.107  -0.348  1.00  0.00     0.031 A 
ATOM     22  C   UNL     1       1.028   4.014  -0.838  1.00  0.00     0.102 A 
ATOM     23  C   UNL     1      -0.968   2.866   0.608  1.00  0.00     0.040 A 
ATOM     24  C   UNL     1      -1.871   2.143   1.551  1.00  0.00     0.067 C 
ATOM     25  N   UNL     1      -0.668   4.168   0.846  1.00  0.00    -0.233 NA
BRANCH  20  26
ATOM     26  C   UNL     1       1.566   1.744  -1.925  1.00  0.00     0.196 C 
BRANCH  26  27
ATOM     27  O   UNL     1       1.272   0.353  -1.728  1.00  0.00    -0.380 OA
ATOM     28  C   UNL     1       1.834  -0.203  -0.541  1.00  0.00     0.195 C 
ENDBRANCH  26  27
ENDBRANCH  20  26
BRANCH  22  29
ATOM     29  C   UNL     1       2.019   4.648  -1.647  1.00  0.00     0.103 C 
ATOM     30  N   UNL     1       2.799   5.182  -2.326  1.00  0.00    -0.192 NA
ENDBRANCH  22  29
ENDBRANCH  17  19
ENDBRANCH  16  17
ENDBRANCH  11  15
ENDBRANCH   5  10
ENDBRANCH   2   4
ENDBRANCH   1   2
BRANCH   1  31
ATOM     31  C   UNL     1      -1.152  -1.356   7.714  1.00  0.00     0.275 C 
BRANCH  31  32
ATOM     32  C   UNL     1      -1.991  -1.029   8.952  1.00  0.00     0.275 C 
BRANCH  32  33
ATOM     33  O   UNL     1      -3.390  -1.250   8.689  1.00  0.00    -0.458 OA
BRANCH  33  34
ATOM     34  C   UNL     1      -4.098  -0.143   8.373  1.00  0.00     0.338 C 
ATOM     35  O   UNL     1      -3.694   1.007   8.330  1.00  0.00    -0.246 OA
BRANCH  34  36
ATOM     36  C   UNL     1      -5.454  -0.519   7.954  1.00  0.00     0.060 A 
ATOM     37  C   UNL     1      -5.685  -0.702   6.596  1.00  0.00     0.016 A 
ATOM     38  C   UNL     1      -6.515  -0.537   8.848  1.00  0.00     0.016 A 
ATOM     39  C   UNL     1      -6.976  -0.759   6.094  1.00  0.00     0.010 A 
ATOM     40  C   UNL     1      -7.812  -0.734   8.357  1.00  0.00     0.010 A 
ATOM     41  C   UNL     1      -8.061  -0.803   6.972  1.00  0.00    -0.014 A 
BRANCH  41  42
ATOM     42  C   UNL     1      -9.444  -0.925   6.435  1.00  0.00     0.031 A 
ATOM     43  C   UNL     1     -10.487   0.102   6.786  1.00  0.00     0.074 A 
ATOM     44  C   UNL     1      -9.768  -1.966   5.642  1.00  0.00     0.049 A 
ATOM     45  N   UNL     1     -11.770   0.097   6.531  1.00  0.00    -0.248 NA
ATOM     46  C   UNL     1     -10.031   1.280   7.539  1.00  0.00     0.031 C 
ATOM     47  C   UNL     1      -8.846  -3.014   5.196  1.00  0.00     0.029 A 
ATOM     48  N   UNL     1     -10.967  -2.324   5.077  1.00  0.00    -0.354 N 
ATOM     49  C   UNL     1     -12.286   1.227   7.154  1.00  0.00     0.074 A 
ATOM     50  C   UNL     1     -11.176   1.890   7.805  1.00  0.00     0.031 C 
ATOM     51  C   UNL     1      -9.502  -3.878   4.410  1.00  0.00     0.029 A 
ATOM     52  C   UNL     1     -10.909  -3.504   4.372  1.00  0.00     0.049 A 
ATOM     53  H   UNL     1     -11.788  -1.789   5.168  1.00  0.00     0.167 HD
ATOM     54  C   UNL     1     -13.566   1.671   7.182  1.00  0.00     0.034 A 
ATOM     55  C   UNL     1     -11.883  -4.233   3.796  1.00  0.00     0.034 A 
ATOM     56  C   UNL     1     -14.657   1.017   6.510  1.00  0.00     0.049 A 
ATOM     57  C   UNL     1     -13.301  -3.748   3.888  1.00  0.00     0.074 A 
ATOM     58  C   UNL     1     -15.982   1.409   6.435  1.00  0.00     0.029 A 
ATOM     59  N   UNL     1     -14.556  -0.178   5.812  1.00  0.00    -0.354 N 
ATOM     60  N   UNL     1     -13.764  -2.649   4.431  1.00  0.00    -0.248 NA
ATOM     61  C   UNL     1     -14.329  -4.597   3.272  1.00  0.00     0.031 C 
ATOM     62  C   UNL     1     -16.692   0.420   5.745  1.00  0.00     0.029 A 
ATOM     63  C   UNL     1     -15.799  -0.554   5.329  1.00  0.00     0.049 A 
ATOM     64  H   UNL     1     -13.723  -0.686   5.679  1.00  0.00     0.167 HD
ATOM     65  C   UNL     1     -15.132  -2.651   4.185  1.00  0.00     0.074 A 
ATOM     66  C   UNL     1     -15.417  -3.856   3.432  1.00  0.00     0.031 C 
ATOM     67  C   UNL     1     -16.066  -1.739   4.551  1.00  0.00     0.034 A 
BRANCH  54  68
ATOM     68  C   UNL     1     -13.855   2.911   7.994  1.00  0.00     0.023 A 
ATOM     69  C   UNL     1     -13.340   4.163   7.599  1.00  0.00     0.012 A 
ATOM     70  C   UNL     1     -14.648   2.832   9.157  1.00  0.00     0.148 A 
ATOM     71  C   UNL     1     -13.552   5.299   8.381  1.00  0.00     0.002 A 
ATOM     72  C   UNL     1     -14.904   3.978   9.899  1.00  0.00     0.091 A 
ATOM     73  F   UNL     1     -15.121   1.634   9.529  1.00  0.00    -0.205 F 
ATOM     74  C   UNL     1     -14.339   5.208   9.525  1.00  0.00     0.022 A 
BRANCH  72  75
ATOM     75  S   UNL     1     -15.976   3.979  11.340  1.00  0.00     0.127 S 
ATOM     76  O   UNL     1     -15.016   4.188  12.422  1.00  0.00    -0.237 OA
ATOM     77  O   UNL     1     -16.849   5.122  11.071  1.00  0.00    -0.237 OA
ATOM     78  O   UNL     1     -16.650   2.688  11.342  1.00  0.00    -0.744 OA
ENDBRANCH  72  75
ENDBRANCH  54  68
BRANCH  55  79
ATOM     79  C   UNL     1     -11.545  -5.486   3.063  1.00  0.00     0.023 A 
ATOM     80  C   UNL     1     -11.703  -5.526   1.665  1.00  0.00     0.012 A 
ATOM     81  C   UNL     1     -11.041  -6.620   3.732  1.00  0.00     0.148 A 
ATOM     82  C   UNL     1     -11.394  -6.681   0.948  1.00  0.00     0.002 A 
ATOM     83  C   UNL     1     -10.681  -7.747   3.004  1.00  0.00     0.091 A 
ATOM     84  F   UNL     1     -10.900  -6.561   5.063  1.00  0.00    -0.205 F 
ATOM     85  C   UNL     1     -10.874  -7.787   1.615  1.00  0.00     0.022 A 
BRANCH  83  86
ATOM     86  S   UNL     1      -9.895  -9.176   3.756  1.00  0.00     0.127 S 
ATOM     87  O   UNL     1     -10.889 -10.221   3.524  1.00  0.00    -0.237 OA
ATOM     88  O   UNL     1      -8.674  -9.297   2.959  1.00  0.00    -0.237 OA
ATOM     89  O   UNL     1      -9.674  -8.822   5.152  1.00  0.00    -0.744 OA
ENDBRANCH  83  86
ENDBRANCH  55  79
BRANCH  67  90
ATOM     90  C   UNL     1     -17.482  -1.972   4.092  1.00  0.00     0.023 A 
ATOM     91  C   UNL     1     -18.247  -3.023   4.636  1.00  0.00     0.012 A 
ATOM     92  C   UNL     1     -18.073  -1.101   3.154  1.00  0.00     0.148 A 
ATOM     93  C   UNL     1     -19.563  -3.228   4.222  1.00  0.00     0.002 A 
ATOM     94  C   UNL     1     -19.402  -1.275   2.792  1.00  0.00     0.091 A 
ATOM     95  F   UNL     1     -17.324  -0.118   2.635  1.00  0.00    -0.205 F 
ATOM     96  C   UNL     1     -20.144  -2.348   3.312  1.00  0.00     0.022 A 
BRANCH  94  97
ATOM     97  S   UNL     1     -20.264  -0.134   1.707  1.00  0.00     0.127 S 
ATOM     98  O   UNL     1     -20.495  -0.964   0.525  1.00  0.00    -0.237 OA
ATOM     99  O   UNL     1     -21.466   0.176   2.480  1.00  0.00    -0.237 OA
ATOM    100  O   UNL     1     -19.363   0.994   1.506  1.00  0.00    -0.744 OA
ENDBRANCH  94  97
ENDBRANCH  67  90
ENDBRANCH  41  42
ENDBRANCH  34  36
ENDBRANCH  33  34
ENDBRANCH  32  33
ENDBRANCH  31  32
ENDBRANCH   1  31
TORSDOF 21
