REMARK SMILES COc1nc(-c2ccccc2)nc(C)c1CC(=O)OCCOC(=O)c1ccc(-c2c3nc(c(-c4cccc(S(=O)(=O)[O-])c4F)c4ccc([nH]4)c(-c4cccc(S(=O)(=O)[O-])c4F)c4nc(c(-c5cccc(S(=O)(=O)[O-])c5F)c5ccc2[nH]5)C=C4)C=C3)cc1
REMARK SMILES IDX 21 1 20 2 19 3 17 4 18 5 16 6 15 7 3 8 4 9 5 10 13 11 12 12
REMARK SMILES IDX 14 13 2 14 1 15 6 16 7 17 11 18 8 19 10 20 9 21 22 22 23 23
REMARK SMILES IDX 24 24 25 25 26 26 87 27 27 28 86 29 28 30 29 31 30 32 80 33
REMARK SMILES IDX 31 34 85 35 79 36 81 37 32 38 84 39 78 40 77 41 33 43 65 44
REMARK SMILES IDX 45 45 64 46 46 47 49 48 63 49 82 50 47 51 48 52 62 54 83 55
REMARK SMILES IDX 50 56 34 57 35 58 43 59 36 60 38 61 44 62 37 63 39 64 40 65
REMARK SMILES IDX 41 66 42 67 66 68 67 69 75 70 68 71 70 72 76 73 69 74 71 75
REMARK SMILES IDX 72 76 73 77 74 78 51 79 52 80 60 81 53 82 55 83 61 84 54 85
REMARK SMILES IDX 56 86 57 87 58 88 59 89
REMARK H PARENT 81 42 49 53
REMARK Flexibility Score: inf
ROOT
ATOM      1  C   UNL     1       1.711  -2.670  -1.865  1.00  0.00     0.275 C 
ENDROOT
BRANCH   1   2
ATOM      2  C   UNL     1       2.705  -3.300  -0.894  1.00  0.00     0.274 C 
BRANCH   2   3
ATOM      3  O   UNL     1       2.683  -2.605   0.369  1.00  0.00    -0.462 OA
BRANCH   3   4
ATOM      4  C   UNL     1       3.727  -1.765   0.598  1.00  0.00     0.310 C 
ATOM      5  O   UNL     1       4.699  -1.645  -0.140  1.00  0.00    -0.252 OA
BRANCH   4   6
ATOM      6  C   UNL     1       3.593  -0.949   1.862  1.00  0.00     0.165 C 
BRANCH   6   7
ATOM      7  C   UNL     1       2.476  -1.329   2.791  1.00  0.00     0.047 A 
ATOM      8  C   UNL     1       1.217  -0.755   2.696  1.00  0.00     0.220 A 
ATOM      9  N   UNL     1       0.192  -1.049   3.511  1.00  0.00    -0.193 NA
ATOM     10  C   UNL     1       0.454  -1.936   4.479  1.00  0.00     0.163 A 
ATOM     11  C   UNL     1       2.620  -2.280   3.791  1.00  0.00     0.049 A 
ATOM     12  N   UNL     1       1.629  -2.566   4.659  1.00  0.00    -0.233 NA
ATOM     13  C   UNL     1       3.906  -3.018   4.019  1.00  0.00     0.067 C 
BRANCH   8  14
ATOM     14  O   UNL     1       1.030   0.193   1.709  1.00  0.00    -0.481 OA
ATOM     15  C   UNL     1      -0.280   0.760   1.697  1.00  0.00     0.280 C 
ENDBRANCH   8  14
BRANCH  10  16
ATOM     16  C   UNL     1      -0.615  -2.236   5.429  1.00  0.00     0.019 A 
ATOM     17  C   UNL     1      -0.443  -1.994   6.803  1.00  0.00     0.012 A 
ATOM     18  C   UNL     1      -1.835  -2.779   4.996  1.00  0.00     0.012 A 
ATOM     19  C   UNL     1      -1.458  -2.287   7.716  1.00  0.00     0.001 A 
ATOM     20  C   UNL     1      -2.845  -3.089   5.910  1.00  0.00     0.001 A 
ATOM     21  C   UNL     1      -2.656  -2.841   7.269  1.00  0.00     0.000 A 
ENDBRANCH  10  16
ENDBRANCH   6   7
ENDBRANCH   4   6
ENDBRANCH   3   4
ENDBRANCH   2   3
ENDBRANCH   1   2
BRANCH   1  22
ATOM     22  O   UNL     1       1.944  -1.254  -1.944  1.00  0.00    -0.458 OA
BRANCH  22  23
ATOM     23  C   UNL     1       0.866  -0.476  -1.703  1.00  0.00     0.338 C 
ATOM     24  O   UNL     1      -0.285  -0.851  -1.505  1.00  0.00    -0.246 OA
BRANCH  23  25
ATOM     25  C   UNL     1       1.242   0.948  -1.724  1.00  0.00     0.060 A 
ATOM     26  C   UNL     1       2.357   1.412  -1.021  1.00  0.00     0.016 A 
ATOM     27  C   UNL     1       0.394   1.851  -2.367  1.00  0.00     0.016 A 
ATOM     28  C   UNL     1       2.581   2.784  -0.898  1.00  0.00     0.010 A 
ATOM     29  C   UNL     1       0.668   3.218  -2.312  1.00  0.00     0.010 A 
ATOM     30  C   UNL     1       1.745   3.702  -1.553  1.00  0.00    -0.014 A 
BRANCH  30  31
ATOM     31  C   UNL     1       1.994   5.165  -1.480  1.00  0.00     0.031 A 
ATOM     32  C   UNL     1       0.961   6.089  -0.893  1.00  0.00     0.074 A 
ATOM     33  C   UNL     1       3.120   5.674  -2.018  1.00  0.00     0.049 A 
ATOM     34  N   UNL     1       0.921   7.397  -0.906  1.00  0.00    -0.248 NA
ATOM     35  C   UNL     1      -0.185   5.462  -0.212  1.00  0.00     0.031 C 
ATOM     36  C   UNL     1       4.192   4.889  -2.631  1.00  0.00     0.029 A 
ATOM     37  N   UNL     1       3.532   6.976  -2.169  1.00  0.00    -0.354 N 
ATOM     38  C   UNL     1      -0.273   7.750  -0.287  1.00  0.00     0.074 A 
ATOM     39  C   UNL     1      -0.928   6.517   0.096  1.00  0.00     0.031 C 
ATOM     40  C   UNL     1       5.132   5.721  -3.102  1.00  0.00     0.029 A 
ATOM     41  C   UNL     1       4.704   7.098  -2.878  1.00  0.00     0.049 A 
ATOM     42  H   UNL     1       3.037   7.745  -1.805  1.00  0.00     0.167 HD
ATOM     43  C   UNL     1      -0.769   8.987  -0.047  1.00  0.00     0.034 A 
ATOM     44  C   UNL     1       5.346   8.190  -3.336  1.00  0.00     0.034 A 
ATOM     45  C   UNL     1      -0.090  10.212  -0.377  1.00  0.00     0.049 A 
ATOM     46  C   UNL     1       4.775   9.550  -3.053  1.00  0.00     0.074 A 
ATOM     47  C   UNL     1      -0.486  11.512  -0.114  1.00  0.00     0.029 A 
ATOM     48  N   UNL     1       1.126  10.292  -1.038  1.00  0.00    -0.354 N 
ATOM     49  N   UNL     1       3.692   9.865  -2.386  1.00  0.00    -0.248 NA
ATOM     50  C   UNL     1       5.522  10.705  -3.570  1.00  0.00     0.031 C 
ATOM     51  C   UNL     1       0.489  12.379  -0.622  1.00  0.00     0.029 A 
ATOM     52  C   UNL     1       1.493  11.618  -1.197  1.00  0.00     0.049 A 
ATOM     53  H   UNL     1       1.651   9.519  -1.350  1.00  0.00     0.167 HD
ATOM     54  C   UNL     1       3.636  11.253  -2.386  1.00  0.00     0.074 A 
ATOM     55  C   UNL     1       4.809  11.719  -3.098  1.00  0.00     0.031 C 
ATOM     56  C   UNL     1       2.687  12.068  -1.864  1.00  0.00     0.034 A 
BRANCH  43  57
ATOM     57  C   UNL     1      -2.097   9.090   0.655  1.00  0.00     0.023 A 
ATOM     58  C   UNL     1      -2.161   8.883   2.047  1.00  0.00     0.012 A 
ATOM     59  C   UNL     1      -3.259   9.477  -0.041  1.00  0.00     0.148 A 
ATOM     60  C   UNL     1      -3.364   9.044   2.734  1.00  0.00     0.002 A 
ATOM     61  C   UNL     1      -4.448   9.668   0.656  1.00  0.00     0.091 A 
ATOM     62  F   UNL     1      -3.186   9.643  -1.370  1.00  0.00    -0.205 F 
ATOM     63  C   UNL     1      -4.503   9.448   2.042  1.00  0.00     0.022 A 
BRANCH  61  64
ATOM     64  S   UNL     1      -5.945  10.258  -0.145  1.00  0.00     0.127 S 
ATOM     65  O   UNL     1      -6.709   9.021  -0.292  1.00  0.00    -0.237 OA
ATOM     66  O   UNL     1      -6.484  11.193   0.843  1.00  0.00    -0.237 OA
ATOM     67  O   UNL     1      -5.507  10.883  -1.386  1.00  0.00    -0.744 OA
ENDBRANCH  61  64
ENDBRANCH  43  57
BRANCH  44  68
ATOM     68  C   UNL     1       6.623   8.025  -4.082  1.00  0.00     0.023 A 
ATOM     69  C   UNL     1       7.833   8.389  -3.463  1.00  0.00     0.012 A 
ATOM     70  C   UNL     1       6.654   7.439  -5.362  1.00  0.00     0.148 A 
ATOM     71  C   UNL     1       9.052   8.180  -4.110  1.00  0.00     0.002 A 
ATOM     72  C   UNL     1       7.873   7.179  -5.976  1.00  0.00     0.091 A 
ATOM     73  F   UNL     1       5.489   7.123  -5.947  1.00  0.00    -0.205 F 
ATOM     74  C   UNL     1       9.073   7.560  -5.357  1.00  0.00     0.022 A 
BRANCH  72  75
ATOM     75  S   UNL     1       7.981   6.242  -7.505  1.00  0.00     0.127 S 
ATOM     76  O   UNL     1       8.153   7.301  -8.495  1.00  0.00    -0.237 OA
ATOM     77  O   UNL     1       9.165   5.412  -7.279  1.00  0.00    -0.237 OA
ATOM     78  O   UNL     1       6.735   5.490  -7.580  1.00  0.00    -0.744 OA
ENDBRANCH  72  75
ENDBRANCH  44  68
BRANCH  56  79
ATOM     79  C   UNL     1       2.881  13.550  -2.031  1.00  0.00     0.023 A 
ATOM     80  C   UNL     1       2.619  14.143  -3.282  1.00  0.00     0.012 A 
ATOM     81  C   UNL     1       3.262  14.362  -0.946  1.00  0.00     0.148 A 
ATOM     82  C   UNL     1       2.759  15.518  -3.458  1.00  0.00     0.002 A 
ATOM     83  C   UNL     1       3.365  15.738  -1.119  1.00  0.00     0.091 A 
ATOM     84  F   UNL     1       3.530  13.777   0.231  1.00  0.00    -0.205 F 
ATOM     85  C   UNL     1       3.121  16.317  -2.375  1.00  0.00     0.022 A 
BRANCH  83  86
ATOM     86  S   UNL     1       3.751  16.841   0.245  1.00  0.00     0.127 S 
ATOM     87  O   UNL     1       5.177  17.086   0.037  1.00  0.00    -0.237 OA
ATOM     88  O   UNL     1       2.889  17.993  -0.024  1.00  0.00    -0.237 OA
ATOM     89  O   UNL     1       3.405  16.106   1.455  1.00  0.00    -0.744 OA
ENDBRANCH  83  86
ENDBRANCH  56  79
ENDBRANCH  30  31
ENDBRANCH  23  25
ENDBRANCH  22  23
ENDBRANCH   1  22
TORSDOF 17
