REMARK SMILES CC[NH+]1CC[NH+]([C@@H]2CC(=O)N(c3ccc(C(=O)OCCOC(=O)c4ccc(-c5c6nc(c(-c7cccc(S(=O)(=O)[O-])c7F)c7ccc([nH]7)c(-c7cccc(S(=O)(=O)[O-])c7F)c7nc(c(-c8cccc(S(=O)(=O)[O-])c8F)c8ccc5[nH]8)C=C7)C=C6)cc4)cc3)C2=O)CC1
REMARK SMILES IDX 19 1 18 2 16 3 17 4 15 5 12 6 13 7 88 8 14 9 87 10 11 11
REMARK SMILES IDX 7 12 8 13 89 14 9 15 90 16 10 17 6 18 3 19 4 20 92 21 5 23
REMARK SMILES IDX 91 24 2 26 1 27 20 28 21 29 22 30 23 31 24 32 25 33 86 34
REMARK SMILES IDX 26 35 85 36 27 37 28 38 29 39 79 40 30 41 84 42 78 43 80 44
REMARK SMILES IDX 31 45 83 46 77 47 76 48 32 50 64 51 44 52 63 53 45 54 48 55
REMARK SMILES IDX 62 56 81 57 46 58 47 59 61 61 82 62 49 63 33 64 34 65 42 66
REMARK SMILES IDX 35 67 37 68 43 69 36 70 38 71 39 72 40 73 41 74 65 75 66 76
REMARK SMILES IDX 74 77 67 78 69 79 75 80 68 81 70 82 71 83 72 84 73 85 50 86
REMARK SMILES IDX 51 87 59 88 52 89 54 90 60 91 53 92 55 93 56 94 57 95 58 96
REMARK H PARENT 3 22 6 25 80 49 48 60
REMARK Flexibility Score: inf
ROOT
ATOM      1  C   UNL     1       8.965  -5.562   4.979  1.00  0.00     0.275 C 
ENDROOT
BRANCH   1   2
ATOM      2  O   UNL     1       8.435  -4.232   4.795  1.00  0.00    -0.458 OA
BRANCH   2   3
ATOM      3  C   UNL     1       7.246  -4.162   4.147  1.00  0.00     0.338 C 
ATOM      4  O   UNL     1       6.615  -5.092   3.680  1.00  0.00    -0.246 OA
BRANCH   3   5
ATOM      5  C   UNL     1       6.735  -2.773   4.142  1.00  0.00     0.060 A 
ATOM      6  C   UNL     1       5.604  -0.194   4.019  1.00  0.00     0.052 A 
ATOM      7  C   UNL     1       4.869  -1.272   4.515  1.00  0.00     0.028 A 
ATOM      8  C   UNL     1       6.921  -0.425   3.590  1.00  0.00     0.028 A 
ATOM      9  C   UNL     1       5.414  -2.549   4.526  1.00  0.00     0.018 A 
ATOM     10  C   UNL     1       7.500  -1.702   3.684  1.00  0.00     0.018 A 
BRANCH   6  11
ATOM     11  N   UNL     1       4.950   1.050   3.867  1.00  0.00    -0.245 N 
ATOM     12  C   UNL     1       3.208   2.626   4.043  1.00  0.00     0.285 C 
ATOM     13  C   UNL     1       4.096   2.974   2.854  1.00  0.00     0.176 C 
ATOM     14  C   UNL     1       3.980   1.509   4.732  1.00  0.00     0.292 C 
ATOM     15  C   UNL     1       5.131   1.890   2.800  1.00  0.00     0.240 C 
ATOM     16  O   UNL     1       3.750   1.111   5.867  1.00  0.00    -0.267 OA
ATOM     17  O   UNL     1       5.954   1.811   1.897  1.00  0.00    -0.274 OA
BRANCH  12  18
ATOM     18  N   UNL     1       1.783   2.269   3.862  1.00  0.00    -0.315 N 
ATOM     19  N   UNL     1       1.109   1.543   1.023  1.00  0.00    -0.326 N 
ATOM     20  C   UNL     1       0.920   2.916   1.526  1.00  0.00     0.324 C 
ATOM     21  C   UNL     1       1.774   0.629   1.968  1.00  0.00     0.324 C 
ATOM     22  H   UNL     1       1.757   1.671   0.246  1.00  0.00     0.348 HD
ATOM     23  C   UNL     1       0.986   3.195   3.054  1.00  0.00     0.325 C 
ATOM     24  C   UNL     1       1.468   0.897   3.447  1.00  0.00     0.325 C 
ATOM     25  H   UNL     1       1.503   2.354   4.839  1.00  0.00     0.349 HD
BRANCH  19  26
ATOM     26  C   UNL     1      -0.107   0.940   0.471  1.00  0.00     0.259 C 
ATOM     27  C   UNL     1       0.256  -0.080  -0.612  1.00  0.00     0.071 C 
ENDBRANCH  19  26
ENDBRANCH  12  18
ENDBRANCH   6  11
ENDBRANCH   3   5
ENDBRANCH   2   3
ENDBRANCH   1   2
BRANCH   1  28
ATOM     28  C   UNL     1       8.733  -6.076   6.402  1.00  0.00     0.275 C 
BRANCH  28  29
ATOM     29  O   UNL     1       7.346  -6.389   6.625  1.00  0.00    -0.458 OA
BRANCH  29  30
ATOM     30  C   UNL     1       6.658  -5.449   7.309  1.00  0.00     0.338 C 
ATOM     31  O   UNL     1       7.089  -4.398   7.757  1.00  0.00    -0.246 OA
BRANCH  30  32
ATOM     32  C   UNL     1       5.234  -5.797   7.380  1.00  0.00     0.060 A 
ATOM     33  C   UNL     1       4.436  -5.451   6.299  1.00  0.00     0.016 A 
ATOM     34  C   UNL     1       4.649  -6.229   8.566  1.00  0.00     0.016 A 
ATOM     35  C   UNL     1       3.061  -5.335   6.455  1.00  0.00     0.010 A 
ATOM     36  C   UNL     1       3.251  -6.286   8.659  1.00  0.00     0.010 A 
ATOM     37  C   UNL     1       2.437  -5.782   7.627  1.00  0.00    -0.014 A 
BRANCH  37  38
ATOM     38  C   UNL     1       0.949  -5.726   7.753  1.00  0.00     0.031 A 
ATOM     39  C   UNL     1       0.298  -5.080   8.952  1.00  0.00     0.074 A 
ATOM     40  C   UNL     1       0.170  -6.272   6.795  1.00  0.00     0.049 A 
ATOM     41  N   UNL     1      -0.958  -5.097   9.321  1.00  0.00    -0.248 NA
ATOM     42  C   UNL     1       1.176  -4.336   9.870  1.00  0.00     0.031 C 
ATOM     43  C   UNL     1       0.656  -6.926   5.577  1.00  0.00     0.029 A 
ATOM     44  N   UNL     1      -1.197  -6.383   6.699  1.00  0.00    -0.354 N 
ATOM     45  C   UNL     1      -1.009  -4.439  10.546  1.00  0.00     0.074 A 
ATOM     46  C   UNL     1       0.345  -4.036  10.859  1.00  0.00     0.031 C 
ATOM     47  C   UNL     1      -0.386  -7.345   4.848  1.00  0.00     0.029 A 
ATOM     48  C   UNL     1      -1.610  -7.095   5.595  1.00  0.00     0.049 A 
ATOM     49  H   UNL     1      -1.819  -5.992   7.354  1.00  0.00     0.167 HD
ATOM     50  C   UNL     1      -2.083  -4.188  11.334  1.00  0.00     0.034 A 
ATOM     51  C   UNL     1      -2.823  -7.561   5.243  1.00  0.00     0.034 A 
ATOM     52  C   UNL     1      -3.436  -4.545  10.990  1.00  0.00     0.049 A 
ATOM     53  C   UNL     1      -3.995  -7.283   6.135  1.00  0.00     0.074 A 
ATOM     54  C   UNL     1      -4.599  -4.294  11.697  1.00  0.00     0.029 A 
ATOM     55  N   UNL     1      -3.808  -5.230   9.843  1.00  0.00    -0.354 N 
ATOM     56  N   UNL     1      -4.029  -6.621   7.265  1.00  0.00    -0.248 NA
ATOM     57  C   UNL     1      -5.298  -7.799   5.696  1.00  0.00     0.031 C 
ATOM     58  C   UNL     1      -5.670  -4.859  10.995  1.00  0.00     0.029 A 
ATOM     59  C   UNL     1      -5.180  -5.422   9.827  1.00  0.00     0.049 A 
ATOM     60  H   UNL     1      -3.188  -5.535   9.142  1.00  0.00     0.167 HD
ATOM     61  C   UNL     1      -5.360  -6.619   7.662  1.00  0.00     0.074 A 
ATOM     62  C   UNL     1      -6.102  -7.324   6.636  1.00  0.00     0.031 C 
ATOM     63  C   UNL     1      -5.913  -6.091   8.782  1.00  0.00     0.034 A 
BRANCH  50  64
ATOM     64  C   UNL     1      -1.840  -3.488  12.652  1.00  0.00     0.023 A 
ATOM     65  C   UNL     1      -1.446  -2.135  12.675  1.00  0.00     0.012 A 
ATOM     66  C   UNL     1      -2.036  -4.166  13.873  1.00  0.00     0.148 A 
ATOM     67  C   UNL     1      -1.200  -1.484  13.884  1.00  0.00     0.002 A 
ATOM     68  C   UNL     1      -1.838  -3.497  15.076  1.00  0.00     0.091 A 
ATOM     69  F   UNL     1      -2.397  -5.457  13.838  1.00  0.00    -0.205 F 
ATOM     70  C   UNL     1      -1.404  -2.162  15.083  1.00  0.00     0.022 A 
BRANCH  68  71
ATOM     71  S   UNL     1      -2.157  -4.257  16.673  1.00  0.00     0.127 S 
ATOM     72  O   UNL     1      -0.802  -4.429  17.194  1.00  0.00    -0.237 OA
ATOM     73  O   UNL     1      -2.944  -3.227  17.352  1.00  0.00    -0.237 OA
ATOM     74  O   UNL     1      -2.882  -5.489  16.395  1.00  0.00    -0.744 OA
ENDBRANCH  68  71
ENDBRANCH  50  64
BRANCH  51  75
ATOM     75  C   UNL     1      -2.968  -8.356   3.990  1.00  0.00     0.023 A 
ATOM     76  C   UNL     1      -3.659  -7.809   2.893  1.00  0.00     0.012 A 
ATOM     77  C   UNL     1      -2.366  -9.624   3.862  1.00  0.00     0.148 A 
ATOM     78  C   UNL     1      -3.763  -8.519   1.696  1.00  0.00     0.002 A 
ATOM     79  C   UNL     1      -2.418 -10.297   2.648  1.00  0.00     0.091 A 
ATOM     80  F   UNL     1      -1.722 -10.131   4.923  1.00  0.00    -0.205 F 
ATOM     81  C   UNL     1      -3.132  -9.754   1.569  1.00  0.00     0.022 A 
BRANCH  79  82
ATOM     82  S   UNL     1      -1.512 -11.818   2.348  1.00  0.00     0.127 S 
ATOM     83  O   UNL     1      -2.596 -12.784   2.185  1.00  0.00    -0.237 OA
ATOM     84  O   UNL     1      -0.784 -11.495   1.120  1.00  0.00    -0.237 OA
ATOM     85  O   UNL     1      -0.665 -12.013   3.517  1.00  0.00    -0.744 OA
ENDBRANCH  79  82
ENDBRANCH  51  75
BRANCH  63  86
ATOM     86  C   UNL     1      -7.406  -6.212   8.937  1.00  0.00     0.023 A 
ATOM     87  C   UNL     1      -7.989  -7.463   9.223  1.00  0.00     0.012 A 
ATOM     88  C   UNL     1      -8.226  -5.070   8.854  1.00  0.00     0.148 A 
ATOM     89  C   UNL     1      -9.369  -7.580   9.387  1.00  0.00     0.002 A 
ATOM     90  C   UNL     1      -9.593  -5.185   9.072  1.00  0.00     0.091 A 
ATOM     91  F   UNL     1      -7.654  -3.893   8.560  1.00  0.00    -0.205 F 
ATOM     92  C   UNL     1     -10.168  -6.441   9.324  1.00  0.00     0.022 A 
BRANCH  90  93
ATOM     93  S   UNL     1     -10.686  -3.760   9.106  1.00  0.00     0.127 S 
ATOM     94  O   UNL     1     -11.467  -3.955   7.885  1.00  0.00    -0.237 OA
ATOM     95  O   UNL     1     -11.431  -3.973  10.347  1.00  0.00    -0.237 OA
ATOM     96  O   UNL     1      -9.822  -2.588   9.112  1.00  0.00    -0.744 OA
ENDBRANCH  90  93
ENDBRANCH  63  86
ENDBRANCH  37  38
ENDBRANCH  30  32
ENDBRANCH  29  30
ENDBRANCH  28  29
ENDBRANCH   1  28
TORSDOF 17
