REMARK SMILES Cc1ccc(-c2cc(C(=O)OCCOC(=O)c3ccc(-c4c5nc(c(-c6cccc(S(=O)(=O)[O-])c6F)c6ccc([nH]6)c(-c6cccc(S(=O)(=O)[O-])c6F)c6nc(c(-c7cccc(S(=O)(=O)[O-])c7F)c7ccc4[nH]7)C=C6)C=C5)cc3)c3c(-c4cccc([N+](=O)[O-])c4)[nH]nc3n2)cc1
REMARK SMILES IDX 13 1 12 2 11 3 9 4 10 5 8 6 6 7 7 8 94 9 93 10 80 11 92 12
REMARK SMILES IDX 81 13 91 14 5 16 1 17 2 18 3 19 96 20 4 21 95 22 82 23 83 24
REMARK SMILES IDX 90 25 84 26 86 27 85 28 87 29 88 30 89 31 14 32 15 33 16 34
REMARK SMILES IDX 17 35 18 36 79 37 19 38 78 39 20 40 21 41 22 42 72 43 23 44
REMARK SMILES IDX 77 45 71 46 73 47 24 48 76 49 70 50 69 51 25 53 57 54 37 55
REMARK SMILES IDX 56 56 38 57 41 58 55 59 74 60 39 61 40 62 54 64 75 65 42 66
REMARK SMILES IDX 26 67 27 68 35 69 28 70 30 71 36 72 29 73 31 74 32 75 33 76
REMARK SMILES IDX 34 77 58 78 59 79 67 80 60 81 62 82 68 83 61 84 63 85 64 86
REMARK SMILES IDX 65 87 66 88 43 89 44 90 52 91 45 92 47 93 53 94 46 95 48 96
REMARK SMILES IDX 49 97 50 98 51 99
REMARK H PARENT 91 15 73 52 41 63
REMARK Flexibility Score: inf
ROOT
ATOM      1  C   UNL     1      -5.653   0.480  -6.157  1.00  0.00     0.275 C 
ENDROOT
BRANCH   1   2
ATOM      2  C   UNL     1      -4.604   0.920  -5.116  1.00  0.00     0.275 C 
BRANCH   2   3
ATOM      3  O   UNL     1      -4.758   0.550  -3.720  1.00  0.00    -0.458 OA
BRANCH   3   4
ATOM      4  C   UNL     1      -5.138  -0.667  -3.241  1.00  0.00     0.339 C 
ATOM      5  O   UNL     1      -5.419  -1.644  -3.907  1.00  0.00    -0.246 OA
BRANCH   4   6
ATOM      6  C   UNL     1      -4.883  -0.668  -1.781  1.00  0.00     0.075 A 
ATOM      7  C   UNL     1      -2.998  -0.479  -0.162  1.00  0.00     0.074 A 
ATOM      8  C   UNL     1      -3.556  -0.286  -1.438  1.00  0.00     0.045 A 
ATOM      9  N   UNL     1      -3.632  -1.057   0.874  1.00  0.00    -0.226 NA
ATOM     10  C   UNL     1      -4.933  -1.333   0.638  1.00  0.00     0.182 A 
ATOM     11  C   UNL     1      -5.611  -1.161  -0.653  1.00  0.00     0.061 A 
ATOM     12  N   UNL     1      -5.720  -1.862   1.561  1.00  0.00    -0.154 NA
ATOM     13  C   UNL     1      -6.964  -1.460  -0.349  1.00  0.00     0.076 A 
ATOM     14  N   UNL     1      -6.917  -1.693   1.023  1.00  0.00    -0.275 N 
ATOM     15  H   UNL     1      -7.736  -1.730   1.568  1.00  0.00     0.190 HD
BRANCH   7  16
ATOM     16  C   UNL     1      -1.560  -0.273   0.038  1.00  0.00     0.000 A 
ATOM     17  C   UNL     1       2.740   0.109   0.045  1.00  0.00     0.044 C 
ATOM     18  C   UNL     1       1.247  -0.006   0.112  1.00  0.00    -0.051 A 
ATOM     19  C   UNL     1       0.658  -1.272   0.149  1.00  0.00     0.004 A 
ATOM     20  C   UNL     1       0.426   1.129   0.104  1.00  0.00     0.004 A 
ATOM     21  C   UNL     1      -0.729  -1.401   0.122  1.00  0.00     0.010 A 
ATOM     22  C   UNL     1      -0.968   0.998   0.067  1.00  0.00     0.010 A 
ENDBRANCH   7  16
BRANCH  13  23
ATOM     23  C   UNL     1      -8.351  -1.362  -0.907  1.00  0.00     0.007 A 
ATOM     24  C   UNL     1      -9.405  -0.895  -0.063  1.00  0.00     0.011 A 
ATOM     25  C   UNL     1      -8.719  -1.689  -2.206  1.00  0.00     0.096 A 
ATOM     26  C   UNL     1     -10.713  -0.646  -0.501  1.00  0.00     0.008 A 
ATOM     27  C   UNL     1     -10.025  -1.365  -2.665  1.00  0.00     0.270 A 
ATOM     28  C   UNL     1     -11.017  -0.835  -1.832  1.00  0.00     0.085 A 
BRANCH  27  29
ATOM     29  N   UNL     1     -10.357  -1.478  -4.083  1.00  0.00     0.062 N 
ATOM     30  O   UNL     1     -10.972  -0.527  -4.600  1.00  0.00    -0.258 OA
ATOM     31  O   UNL     1     -10.085  -2.544  -4.653  1.00  0.00    -0.258 OA
ENDBRANCH  27  29
ENDBRANCH  13  23
ENDBRANCH   4   6
ENDBRANCH   3   4
ENDBRANCH   2   3
ENDBRANCH   1   2
BRANCH   1  32
ATOM     32  O   UNL     1      -6.994   0.958  -6.002  1.00  0.00    -0.458 OA
BRANCH  32  33
ATOM     33  C   UNL     1      -7.512   0.738  -4.773  1.00  0.00     0.338 C 
ATOM     34  O   UNL     1      -7.947  -0.312  -4.394  1.00  0.00    -0.246 OA
BRANCH  33  35
ATOM     35  C   UNL     1      -7.289   1.936  -3.955  1.00  0.00     0.060 A 
ATOM     36  C   UNL     1      -7.002   1.804  -2.587  1.00  0.00     0.016 A 
ATOM     37  C   UNL     1      -7.109   3.130  -4.641  1.00  0.00     0.016 A 
ATOM     38  C   UNL     1      -6.518   2.880  -1.878  1.00  0.00     0.010 A 
ATOM     39  C   UNL     1      -6.556   4.170  -3.970  1.00  0.00     0.010 A 
ATOM     40  C   UNL     1      -6.379   4.055  -2.583  1.00  0.00    -0.014 A 
BRANCH  40  41
ATOM     41  C   UNL     1      -6.318   5.327  -1.919  1.00  0.00     0.031 A 
ATOM     42  C   UNL     1      -5.028   5.730  -1.353  1.00  0.00     0.074 A 
ATOM     43  C   UNL     1      -7.449   6.027  -2.183  1.00  0.00     0.049 A 
ATOM     44  N   UNL     1      -4.897   6.563  -0.387  1.00  0.00    -0.248 NA
ATOM     45  C   UNL     1      -3.746   5.131  -1.758  1.00  0.00     0.031 C 
ATOM     46  C   UNL     1      -7.674   7.443  -2.342  1.00  0.00     0.029 A 
ATOM     47  N   UNL     1      -8.727   5.483  -2.425  1.00  0.00    -0.354 N 
ATOM     48  C   UNL     1      -3.579   6.969  -0.445  1.00  0.00     0.074 A 
ATOM     49  C   UNL     1      -2.873   5.890  -1.085  1.00  0.00     0.031 C 
ATOM     50  C   UNL     1      -9.005   7.671  -2.360  1.00  0.00     0.029 A 
ATOM     51  C   UNL     1      -9.673   6.421  -2.017  1.00  0.00     0.049 A 
ATOM     52  H   UNL     1      -8.917   4.599  -2.813  1.00  0.00     0.167 HD
ATOM     53  C   UNL     1      -3.323   8.302  -0.309  1.00  0.00     0.034 A 
ATOM     54  C   UNL     1     -10.511   6.217  -0.947  1.00  0.00     0.034 A 
ATOM     55  C   UNL     1      -4.601   9.018  -0.125  1.00  0.00     0.049 A 
ATOM     56  C   UNL     1     -10.133   7.151   0.190  1.00  0.00     0.074 A 
ATOM     57  C   UNL     1      -5.403   9.705  -1.024  1.00  0.00     0.029 A 
ATOM     58  N   UNL     1      -5.400   8.750   0.981  1.00  0.00    -0.354 N 
ATOM     59  N   UNL     1      -9.014   7.813   0.235  1.00  0.00    -0.248 NA
ATOM     60  C   UNL     1     -10.936   7.326   1.393  1.00  0.00     0.031 C 
ATOM     61  C   UNL     1      -6.700   9.825  -0.458  1.00  0.00     0.029 A 
ATOM     62  C   UNL     1      -6.699   9.196   0.774  1.00  0.00     0.049 A 
ATOM     63  H   UNL     1      -5.087   8.304   1.801  1.00  0.00     0.167 HD
ATOM     64  C   UNL     1      -8.868   8.398   1.458  1.00  0.00     0.074 A 
ATOM     65  C   UNL     1     -10.129   8.110   2.128  1.00  0.00     0.031 C 
ATOM     66  C   UNL     1      -7.705   9.021   1.818  1.00  0.00     0.034 A 
BRANCH  53  67
ATOM     67  C   UNL     1      -2.051   9.025  -0.733  1.00  0.00     0.023 A 
ATOM     68  C   UNL     1      -2.174  10.416  -0.966  1.00  0.00     0.012 A 
ATOM     69  C   UNL     1      -0.758   8.480  -0.921  1.00  0.00     0.148 A 
ATOM     70  C   UNL     1      -1.120  11.212  -1.419  1.00  0.00     0.002 A 
ATOM     71  C   UNL     1       0.299   9.274  -1.395  1.00  0.00     0.091 A 
ATOM     72  F   UNL     1      -0.519   7.206  -0.597  1.00  0.00    -0.205 F 
ATOM     73  C   UNL     1       0.116  10.638  -1.648  1.00  0.00     0.022 A 
BRANCH  71  74
ATOM     74  S   UNL     1       1.949   8.630  -1.734  1.00  0.00     0.127 S 
ATOM     75  O   UNL     1       2.161   9.042  -3.124  1.00  0.00    -0.237 OA
ATOM     76  O   UNL     1       2.772   9.346  -0.760  1.00  0.00    -0.237 OA
ATOM     77  O   UNL     1       1.873   7.187  -1.545  1.00  0.00    -0.744 OA
ENDBRANCH  71  74
ENDBRANCH  53  67
BRANCH  54  78
ATOM     78  C   UNL     1     -10.849   4.774  -0.672  1.00  0.00     0.023 A 
ATOM     79  C   UNL     1     -11.266   3.992  -1.774  1.00  0.00     0.012 A 
ATOM     80  C   UNL     1     -10.197   4.150   0.402  1.00  0.00     0.148 A 
ATOM     81  C   UNL     1     -10.691   2.741  -1.965  1.00  0.00     0.002 A 
ATOM     82  C   UNL     1      -9.601   2.927   0.200  1.00  0.00     0.091 A 
ATOM     83  F   UNL     1     -10.089   4.774   1.579  1.00  0.00    -0.205 F 
ATOM     84  C   UNL     1      -9.785   2.270  -1.016  1.00  0.00     0.022 A 
BRANCH  82  85
ATOM     85  S   UNL     1      -8.437   2.330   1.428  1.00  0.00     0.127 S 
ATOM     86  O   UNL     1      -9.331   1.730   2.414  1.00  0.00    -0.237 OA
ATOM     87  O   UNL     1      -7.633   1.362   0.686  1.00  0.00    -0.237 OA
ATOM     88  O   UNL     1      -7.706   3.520   1.827  1.00  0.00    -0.744 OA
ENDBRANCH  82  85
ENDBRANCH  54  78
BRANCH  66  89
ATOM     89  C   UNL     1      -7.419   9.586   3.186  1.00  0.00     0.023 A 
ATOM     90  C   UNL     1      -8.094   9.159   4.341  1.00  0.00     0.012 A 
ATOM     91  C   UNL     1      -6.374  10.529   3.367  1.00  0.00     0.148 A 
ATOM     92  C   UNL     1      -7.851   9.738   5.588  1.00  0.00     0.002 A 
ATOM     93  C   UNL     1      -6.032  10.984   4.630  1.00  0.00     0.091 A 
ATOM     94  F   UNL     1      -5.723  11.031   2.308  1.00  0.00    -0.205 F 
ATOM     95  C   UNL     1      -6.806  10.639   5.736  1.00  0.00     0.022 A 
BRANCH  93  96
ATOM     96  S   UNL     1      -4.517  11.907   4.900  1.00  0.00     0.127 S 
ATOM     97  O   UNL     1      -5.008  13.282   4.941  1.00  0.00    -0.237 OA
ATOM     98  O   UNL     1      -4.062  11.381   6.189  1.00  0.00    -0.237 OA
ATOM     99  O   UNL     1      -3.649  11.570   3.780  1.00  0.00    -0.744 OA
ENDBRANCH  93  96
ENDBRANCH  66  89
ENDBRANCH  40  41
ENDBRANCH  33  35
ENDBRANCH  32  33
ENDBRANCH   1  32
TORSDOF 17
