REMARK SMILES C[C@@H](C(=O)OCCOC(=O)c1ccc(-c2c3nc(c(-c4cccc(S(=O)(=O)[O-])c4F)c4ccc([nH]4)c(-c4cccc(S(=O)(=O)[O-])c4F)c4nc(c(-c5cccc(S(=O)(=O)[O-])c5F)c5ccc2[nH]5)C=C4)C=C3)cc1)N(C)c1ccc(C(N)=O)nn1
REMARK SMILES IDX 6 1 5 2 3 3 4 4 2 5 1 6 74 7 75 8 76 9 77 10 84 11 78 12
REMARK SMILES IDX 83 13 79 14 80 15 81 16 82 17 7 20 8 21 9 22 10 23 11 24
REMARK SMILES IDX 12 25 73 26 13 27 72 28 14 29 15 30 16 31 66 32 17 33 71 34
REMARK SMILES IDX 65 35 67 36 18 37 70 38 64 39 63 40 19 42 51 43 31 44 50 45
REMARK SMILES IDX 32 46 35 47 49 48 68 49 33 50 34 51 48 53 69 54 36 55 20 56
REMARK SMILES IDX 21 57 29 58 22 59 24 60 30 61 23 62 25 63 26 64 27 65 28 66
REMARK SMILES IDX 52 67 53 68 61 69 54 70 56 71 62 72 55 73 57 74 58 75 59 76
REMARK SMILES IDX 60 77 37 78 38 79 46 80 39 81 41 82 47 83 40 84 42 85 43 86
REMARK SMILES IDX 44 87 45 88
REMARK H PARENT 81 18 81 19 67 41 35 52
REMARK Flexibility Score: inf
ROOT
ATOM      1  C   UNL     1       2.507   0.368   3.743  1.00  0.00     0.274 C 
ENDROOT
BRANCH   1   2
ATOM      2  O   UNL     1       2.135   0.213   2.357  1.00  0.00    -0.461 OA
BRANCH   2   3
ATOM      3  C   UNL     1       1.158  -0.698   2.089  1.00  0.00     0.328 C 
ATOM      4  O   UNL     1       0.556  -1.340   2.945  1.00  0.00    -0.250 OA
BRANCH   3   5
ATOM      5  C   UNL     1       0.925  -0.896   0.580  1.00  0.00     0.190 C 
ATOM      6  C   UNL     1       2.066  -0.426  -0.315  1.00  0.00     0.044 C 
BRANCH   5   7
ATOM      7  N   UNL     1      -0.430  -0.473   0.130  1.00  0.00    -0.345 N 
ATOM      8  C   UNL     1      -1.501  -1.443   0.410  1.00  0.00     0.146 C 
BRANCH   7   9
ATOM      9  C   UNL     1      -0.855   0.854   0.125  1.00  0.00     0.151 A 
ATOM     10  C   UNL     1      -0.072   1.911  -0.323  1.00  0.00     0.051 A 
ATOM     11  N   UNL     1      -2.105   1.159   0.530  1.00  0.00    -0.132 NA
ATOM     12  C   UNL     1      -0.518   3.237  -0.249  1.00  0.00     0.040 A 
ATOM     13  N   UNL     1      -2.559   2.471   0.638  1.00  0.00    -0.143 NA
ATOM     14  C   UNL     1      -1.763   3.486   0.276  1.00  0.00     0.150 A 
BRANCH  14  15
ATOM     15  C   UNL     1      -2.269   4.876   0.444  1.00  0.00     0.269 C 
ATOM     16  N   UNL     1      -3.370   5.047   1.238  1.00  0.00    -0.364 N 
ATOM     17  O   UNL     1      -1.711   5.828  -0.090  1.00  0.00    -0.268 OA
ATOM     18  H   UNL     1      -3.801   4.267   1.657  1.00  0.00     0.160 HD
ATOM     19  H   UNL     1      -3.732   5.949   1.390  1.00  0.00     0.160 HD
ENDBRANCH  14  15
ENDBRANCH   7   9
ENDBRANCH   5   7
ENDBRANCH   3   5
ENDBRANCH   2   3
ENDBRANCH   1   2
BRANCH   1  20
ATOM     20  C   UNL     1       1.905   1.639   4.329  1.00  0.00     0.275 C 
BRANCH  20  21
ATOM     21  O   UNL     1       0.479   1.491   4.411  1.00  0.00    -0.458 OA
BRANCH  21  22
ATOM     22  C   UNL     1      -0.253   2.482   3.856  1.00  0.00     0.338 C 
ATOM     23  O   UNL     1       0.177   3.513   3.352  1.00  0.00    -0.246 OA
BRANCH  22  24
ATOM     24  C   UNL     1      -1.690   2.153   3.913  1.00  0.00     0.060 A 
ATOM     25  C   UNL     1      -2.134   0.873   3.580  1.00  0.00     0.016 A 
ATOM     26  C   UNL     1      -2.617   3.174   4.142  1.00  0.00     0.016 A 
ATOM     27  C   UNL     1      -3.494   0.647   3.358  1.00  0.00     0.010 A 
ATOM     28  C   UNL     1      -3.986   2.922   3.996  1.00  0.00     0.010 A 
ATOM     29  C   UNL     1      -4.437   1.667   3.556  1.00  0.00    -0.014 A 
BRANCH  29  30
ATOM     30  C   UNL     1      -5.886   1.433   3.315  1.00  0.00     0.031 A 
ATOM     31  C   UNL     1      -6.651   2.263   2.325  1.00  0.00     0.074 A 
ATOM     32  C   UNL     1      -6.543   0.482   3.999  1.00  0.00     0.049 A 
ATOM     33  N   UNL     1      -7.912   2.603   2.307  1.00  0.00    -0.248 NA
ATOM     34  C   UNL     1      -5.877   2.815   1.214  1.00  0.00     0.031 C 
ATOM     35  C   UNL     1      -5.939  -0.450   4.947  1.00  0.00     0.029 A 
ATOM     36  N   UNL     1      -7.875   0.162   4.004  1.00  0.00    -0.354 N 
ATOM     37  C   UNL     1      -8.040   3.532   1.275  1.00  0.00     0.074 A 
ATOM     38  C   UNL     1      -6.733   3.672   0.672  1.00  0.00     0.031 C 
ATOM     39  C   UNL     1      -6.896  -1.247   5.441  1.00  0.00     0.029 A 
ATOM     40  C   UNL     1      -8.187  -0.812   4.919  1.00  0.00     0.049 A 
ATOM     41  H   UNL     1      -8.539   0.586   3.414  1.00  0.00     0.167 HD
ATOM     42  C   UNL     1      -9.159   4.172   0.858  1.00  0.00     0.034 A 
ATOM     43  C   UNL     1      -9.385  -1.260   5.337  1.00  0.00     0.034 A 
ATOM     44  C   UNL     1     -10.480   3.786   1.287  1.00  0.00     0.049 A 
ATOM     45  C   UNL     1     -10.626  -0.662   4.745  1.00  0.00     0.074 A 
ATOM     46  C   UNL     1     -11.704   4.307   0.907  1.00  0.00     0.029 A 
ATOM     47  N   UNL     1     -10.746   2.703   2.112  1.00  0.00    -0.354 N 
ATOM     48  N   UNL     1     -10.736   0.334   3.898  1.00  0.00    -0.248 NA
ATOM     49  C   UNL     1     -11.906  -1.258   5.146  1.00  0.00     0.031 C 
ATOM     50  C   UNL     1     -12.709   3.502   1.457  1.00  0.00     0.029 A 
ATOM     51  C   UNL     1     -12.110   2.491   2.192  1.00  0.00     0.049 A 
ATOM     52  H   UNL     1     -10.063   2.164   2.574  1.00  0.00     0.167 HD
ATOM     53  C   UNL     1     -12.095   0.484   3.660  1.00  0.00     0.074 A 
ATOM     54  C   UNL     1     -12.766  -0.550   4.424  1.00  0.00     0.031 C 
ATOM     55  C   UNL     1     -12.738   1.413   2.909  1.00  0.00     0.034 A 
BRANCH  42  56
ATOM     56  C   UNL     1      -9.039   5.287  -0.153  1.00  0.00     0.023 A 
ATOM     57  C   UNL     1      -8.736   5.005  -1.499  1.00  0.00     0.012 A 
ATOM     58  C   UNL     1      -9.332   6.619   0.215  1.00  0.00     0.148 A 
ATOM     59  C   UNL     1      -8.691   6.027  -2.450  1.00  0.00     0.002 A 
ATOM     60  C   UNL     1      -9.339   7.625  -0.748  1.00  0.00     0.091 A 
ATOM     61  F   UNL     1      -9.601   6.884   1.503  1.00  0.00    -0.205 F 
ATOM     62  C   UNL     1      -9.006   7.332  -2.079  1.00  0.00     0.022 A 
BRANCH  60  63
ATOM     63  S   UNL     1      -9.852   9.308  -0.375  1.00  0.00     0.127 S 
ATOM     64  O   UNL     1      -8.567   9.995  -0.260  1.00  0.00    -0.237 OA
ATOM     65  O   UNL     1     -10.631   9.671  -1.561  1.00  0.00    -0.237 OA
ATOM     66  O   UNL     1     -10.635   9.219   0.850  1.00  0.00    -0.744 OA
ENDBRANCH  60  63
ENDBRANCH  42  56
BRANCH  43  67
ATOM     67  C   UNL     1      -9.418  -2.343   6.354  1.00  0.00     0.023 A 
ATOM     68  C   UNL     1      -9.763  -3.649   5.962  1.00  0.00     0.012 A 
ATOM     69  C   UNL     1      -8.955  -2.116   7.666  1.00  0.00     0.148 A 
ATOM     70  C   UNL     1      -9.643  -4.711   6.859  1.00  0.00     0.002 A 
ATOM     71  C   UNL     1      -8.767  -3.189   8.528  1.00  0.00     0.091 A 
ATOM     72  F   UNL     1      -8.649  -0.862   8.028  1.00  0.00    -0.205 F 
ATOM     73  C   UNL     1      -9.124  -4.486   8.132  1.00  0.00     0.022 A 
BRANCH  71  74
ATOM     74  S   UNL     1      -7.907  -2.986  10.094  1.00  0.00     0.127 S 
ATOM     75  O   UNL     1      -9.016  -2.846  11.032  1.00  0.00    -0.237 OA
ATOM     76  O   UNL     1      -7.159  -4.239  10.206  1.00  0.00    -0.237 OA
ATOM     77  O   UNL     1      -7.064  -1.811   9.910  1.00  0.00    -0.744 OA
ENDBRANCH  71  74
ENDBRANCH  43  67
BRANCH  55  78
ATOM     78  C   UNL     1     -14.236   1.335   2.863  1.00  0.00     0.023 A 
ATOM     79  C   UNL     1     -14.982   1.841   3.945  1.00  0.00     0.012 A 
ATOM     80  C   UNL     1     -14.902   0.823   1.734  1.00  0.00     0.148 A 
ATOM     81  C   UNL     1     -16.374   1.815   3.915  1.00  0.00     0.002 A 
ATOM     82  C   UNL     1     -16.291   0.828   1.699  1.00  0.00     0.091 A 
ATOM     83  F   UNL     1     -14.170   0.327   0.726  1.00  0.00    -0.205 F 
ATOM     84  C   UNL     1     -17.028   1.317   2.790  1.00  0.00     0.022 A 
BRANCH  82  85
ATOM     85  S   UNL     1     -17.211   0.265   0.263  1.00  0.00     0.127 S 
ATOM     86  O   UNL     1     -17.633  -1.070   0.684  1.00  0.00    -0.237 OA
ATOM     87  O   UNL     1     -18.293   1.247   0.175  1.00  0.00    -0.237 OA
ATOM     88  O   UNL     1     -16.271   0.307  -0.850  1.00  0.00    -0.744 OA
ENDBRANCH  82  85
ENDBRANCH  55  78
ENDBRANCH  29  30
ENDBRANCH  22  24
ENDBRANCH  21  22
ENDBRANCH  20  21
ENDBRANCH   1  20
TORSDOF 17
