REMARK SMILES O=C(CCCc1nc(-c2cccc(Cl)c2)no1)OCCOC(=O)c1ccc(-c2c3nc(c(-c4cccc(S(=O)(=O)[O-])c4F)c4ccc([nH]4)c(-c4cccc(S(=O)(=O)[O-])c4F)c4nc(c(-c5cccc(S(=O)(=O)[O-])c5F)c5ccc2[nH]5)C=C4)C=C3)cc1
REMARK SMILES IDX 19 1 18 2 2 3 1 4 3 5 4 6 5 7 6 8 7 9 17 10 8 11 16 12 9 13
REMARK SMILES IDX 10 14 15 15 11 16 13 17 12 18 14 19 20 20 21 21 22 22 23 23
REMARK SMILES IDX 24 24 25 25 86 26 26 27 85 28 27 29 28 30 29 31 79 32 30 33
REMARK SMILES IDX 84 34 78 35 80 36 31 37 83 38 77 39 76 40 32 42 64 43 44 44
REMARK SMILES IDX 63 45 45 46 48 47 62 48 81 49 46 50 47 51 61 53 82 54 49 55
REMARK SMILES IDX 33 56 34 57 42 58 35 59 37 60 43 61 36 62 38 63 39 64 40 65
REMARK SMILES IDX 41 66 65 67 66 68 74 69 67 70 69 71 75 72 68 73 70 74 71 75
REMARK SMILES IDX 72 76 73 77 50 78 51 79 59 80 52 81 54 82 60 83 53 84 55 85
REMARK SMILES IDX 56 86 57 87 58 88
REMARK H PARENT 80 41 48 52
REMARK Flexibility Score: inf
ROOT
ATOM      1  C   UNL     1       3.734   1.033  -0.989  1.00  0.00     0.274 C 
ENDROOT
BRANCH   1   2
ATOM      2  O   UNL     1       2.532   0.243  -1.085  1.00  0.00    -0.462 OA
BRANCH   2   3
ATOM      3  C   UNL     1       2.497  -1.060  -0.708  1.00  0.00     0.305 C 
ATOM      4  O   UNL     1       1.884  -1.889  -1.374  1.00  0.00    -0.252 OA
BRANCH   3   5
ATOM      5  C   UNL     1       3.124  -1.425   0.618  1.00  0.00     0.123 C 
BRANCH   5   6
ATOM      6  C   UNL     1       4.253  -2.459   0.546  1.00  0.00     0.022 C 
BRANCH   6   7
ATOM      7  C   UNL     1       5.611  -1.980   0.009  1.00  0.00     0.101 C 
BRANCH   7   8
ATOM      8  C   UNL     1       6.326  -0.987   0.864  1.00  0.00     0.226 A 
ATOM      9  N   UNL     1       7.610  -0.709   0.954  1.00  0.00    -0.191 NA
ATOM     10  O   UNL     1       5.559  -0.159   1.621  1.00  0.00    -0.339 OA
ATOM     11  C   UNL     1       7.626   0.332   1.866  1.00  0.00     0.202 A 
ATOM     12  N   UNL     1       6.404   0.724   2.254  1.00  0.00    -0.057 NA
BRANCH  11  13
ATOM     13  C   UNL     1       8.841   0.948   2.384  1.00  0.00     0.024 A 
ATOM     14  C   UNL     1      10.094   0.661   1.827  1.00  0.00     0.012 A 
ATOM     15  C   UNL     1       8.768   1.827   3.478  1.00  0.00     0.032 A 
ATOM     16  C   UNL     1      11.253   1.236   2.360  1.00  0.00     0.002 A 
ATOM     17  C   UNL     1       9.925   2.392   4.007  1.00  0.00     0.041 A 
ATOM     18  C   UNL     1      11.168   2.098   3.454  1.00  0.00     0.020 A 
ATOM     19  Cl  UNL     1       9.816   3.454   5.356  1.00  0.00    -0.084 Cl
ENDBRANCH  11  13
ENDBRANCH   7   8
ENDBRANCH   6   7
ENDBRANCH   5   6
ENDBRANCH   3   5
ENDBRANCH   2   3
ENDBRANCH   1   2
BRANCH   1  20
ATOM     20  C   UNL     1       3.571   2.264  -0.099  1.00  0.00     0.275 C 
BRANCH  20  21
ATOM     21  O   UNL     1       3.294   1.873   1.254  1.00  0.00    -0.458 OA
BRANCH  21  22
ATOM     22  C   UNL     1       1.982   1.852   1.587  1.00  0.00     0.338 C 
ATOM     23  O   UNL     1       1.059   2.260   0.900  1.00  0.00    -0.246 OA
BRANCH  22  24
ATOM     24  C   UNL     1       1.784   1.122   2.863  1.00  0.00     0.060 A 
ATOM     25  C   UNL     1       0.552   0.482   3.044  1.00  0.00     0.016 A 
ATOM     26  C   UNL     1       2.759   1.055   3.866  1.00  0.00     0.016 A 
ATOM     27  C   UNL     1       0.266  -0.160   4.248  1.00  0.00     0.010 A 
ATOM     28  C   UNL     1       2.473   0.399   5.071  1.00  0.00     0.010 A 
ATOM     29  C   UNL     1       1.207  -0.170   5.286  1.00  0.00    -0.014 A 
BRANCH  29  30
ATOM     30  C   UNL     1       0.780  -0.643   6.626  1.00  0.00     0.031 A 
ATOM     31  C   UNL     1       0.384   0.369   7.668  1.00  0.00     0.074 A 
ATOM     32  C   UNL     1       0.671  -1.957   6.898  1.00  0.00     0.049 A 
ATOM     33  N   UNL     1      -0.196   0.179   8.825  1.00  0.00    -0.248 NA
ATOM     34  C   UNL     1       0.673   1.780   7.365  1.00  0.00     0.031 C 
ATOM     35  C   UNL     1       1.042  -3.043   5.994  1.00  0.00     0.029 A 
ATOM     36  N   UNL     1       0.207  -2.596   8.022  1.00  0.00    -0.354 N 
ATOM     37  C   UNL     1      -0.341   1.441   9.387  1.00  0.00     0.074 A 
ATOM     38  C   UNL     1       0.245   2.386   8.462  1.00  0.00     0.031 C 
ATOM     39  C   UNL     1       0.790  -4.218   6.599  1.00  0.00     0.029 A 
ATOM     40  C   UNL     1       0.235  -3.967   7.928  1.00  0.00     0.049 A 
ATOM     41  H   UNL     1      -0.116  -2.118   8.819  1.00  0.00     0.167 HD
ATOM     42  C   UNL     1      -0.938   1.791  10.551  1.00  0.00     0.034 A 
ATOM     43  C   UNL     1      -0.160  -4.911   8.807  1.00  0.00     0.034 A 
ATOM     44  C   UNL     1      -1.537   0.861  11.467  1.00  0.00     0.049 A 
ATOM     45  C   UNL     1      -0.806  -4.495  10.105  1.00  0.00     0.074 A 
ATOM     46  C   UNL     1      -2.224   1.128  12.639  1.00  0.00     0.029 A 
ATOM     47  N   UNL     1      -1.506  -0.517  11.328  1.00  0.00    -0.354 N 
ATOM     48  N   UNL     1      -1.107  -3.293  10.534  1.00  0.00    -0.248 NA
ATOM     49  C   UNL     1      -1.212  -5.574  11.021  1.00  0.00     0.031 C 
ATOM     50  C   UNL     1      -2.587  -0.091  13.221  1.00  0.00     0.029 A 
ATOM     51  C   UNL     1      -2.143  -1.116  12.401  1.00  0.00     0.049 A 
ATOM     52  H   UNL     1      -1.092  -0.999  10.576  1.00  0.00     0.167 HD
ATOM     53  C   UNL     1      -1.774  -3.473  11.742  1.00  0.00     0.074 A 
ATOM     54  C   UNL     1      -1.848  -4.901  11.970  1.00  0.00     0.031 C 
ATOM     55  C   UNL     1      -2.270  -2.539  12.591  1.00  0.00     0.034 A 
BRANCH  42  56
ATOM     56  C   UNL     1      -1.014   3.258  10.874  1.00  0.00     0.023 A 
ATOM     57  C   UNL     1      -1.923   4.075  10.170  1.00  0.00     0.012 A 
ATOM     58  C   UNL     1      -0.225   3.821  11.894  1.00  0.00     0.148 A 
ATOM     59  C   UNL     1      -2.023   5.435  10.455  1.00  0.00     0.002 A 
ATOM     60  C   UNL     1      -0.358   5.170  12.200  1.00  0.00     0.091 A 
ATOM     61  F   UNL     1       0.654   3.034  12.533  1.00  0.00    -0.205 F 
ATOM     62  C   UNL     1      -1.248   5.980  11.476  1.00  0.00     0.022 A 
BRANCH  60  63
ATOM     63  S   UNL     1       0.547   5.944  13.544  1.00  0.00     0.127 S 
ATOM     64  O   UNL     1       1.578   6.684  12.819  1.00  0.00    -0.237 OA
ATOM     65  O   UNL     1      -0.478   6.781  14.169  1.00  0.00    -0.237 OA
ATOM     66  O   UNL     1       1.025   4.852  14.381  1.00  0.00    -0.744 OA
ENDBRANCH  60  63
ENDBRANCH  42  56
BRANCH  43  67
ATOM     67  C   UNL     1      -0.035  -6.355   8.459  1.00  0.00     0.023 A 
ATOM     68  C   UNL     1      -1.198  -7.110   8.211  1.00  0.00     0.012 A 
ATOM     69  C   UNL     1       1.223  -6.982   8.376  1.00  0.00     0.148 A 
ATOM     70  C   UNL     1      -1.113  -8.472   7.919  1.00  0.00     0.002 A 
ATOM     71  C   UNL     1       1.303  -8.328   8.036  1.00  0.00     0.091 A 
ATOM     72  F   UNL     1       2.316  -6.250   8.634  1.00  0.00    -0.205 F 
ATOM     73  C   UNL     1       0.137  -9.078   7.824  1.00  0.00     0.022 A 
BRANCH  71  74
ATOM     74  S   UNL     1       2.873  -9.163   7.780  1.00  0.00     0.127 S 
ATOM     75  O   UNL     1       2.946 -10.030   8.954  1.00  0.00    -0.237 OA
ATOM     76  O   UNL     1       2.643  -9.858   6.513  1.00  0.00    -0.237 OA
ATOM     77  O   UNL     1       3.872  -8.106   7.710  1.00  0.00    -0.744 OA
ENDBRANCH  71  74
ENDBRANCH  43  67
BRANCH  55  78
ATOM     78  C   UNL     1      -2.970  -3.017  13.838  1.00  0.00     0.023 A 
ATOM     79  C   UNL     1      -2.219  -3.572  14.893  1.00  0.00     0.012 A 
ATOM     80  C   UNL     1      -4.360  -2.845  13.999  1.00  0.00     0.148 A 
ATOM     81  C   UNL     1      -2.842  -3.976  16.074  1.00  0.00     0.002 A 
ATOM     82  C   UNL     1      -4.968  -3.207  15.197  1.00  0.00     0.091 A 
ATOM     83  F   UNL     1      -5.065  -2.334  12.979  1.00  0.00    -0.205 F 
ATOM     84  C   UNL     1      -4.213  -3.783  16.230  1.00  0.00     0.022 A 
BRANCH  82  85
ATOM     85  S   UNL     1      -6.710  -2.901  15.517  1.00  0.00     0.127 S 
ATOM     86  O   UNL     1      -7.286  -4.231  15.330  1.00  0.00    -0.237 OA
ATOM     87  O   UNL     1      -6.697  -2.432  16.904  1.00  0.00    -0.237 OA
ATOM     88  O   UNL     1      -7.120  -1.893  14.548  1.00  0.00    -0.744 OA
ENDBRANCH  82  85
ENDBRANCH  55  78
ENDBRANCH  29  30
ENDBRANCH  22  24
ENDBRANCH  21  22
ENDBRANCH  20  21
ENDBRANCH   1  20
TORSDOF 18
