REMARK SMILES Cc1ccccc1NC(=O)CSc1nc(C(=O)OCCOC(=O)c2ccc(-c3c4nc(c(-c5cccc(S(=O)(=O)[O-])c5F)c5ccc([nH]5)c(-c5cccc(S(=O)(=O)[O-])c5F)c5nc(c(-c6cccc(S(=O)(=O)[O-])c6F)c6ccc3[nH]6)C=C5)C=C4)cc2)c2ccccc2n1
REMARK SMILES IDX 19 1 18 2 16 3 17 4 15 5 13 6 14 7 93 8 92 9 87 10 91 11
REMARK SMILES IDX 88 12 90 13 89 14 12 15 11 16 9 17 8 18 10 20 7 21 1 22 2 23
REMARK SMILES IDX 3 24 4 25 6 26 5 27 20 28 21 29 22 30 23 31 24 32 25 33
REMARK SMILES IDX 86 34 26 35 85 36 27 37 28 38 29 39 79 40 30 41 84 42 78 43
REMARK SMILES IDX 80 44 31 45 83 46 77 47 76 48 32 50 64 51 44 52 63 53 45 54
REMARK SMILES IDX 48 55 62 56 81 57 46 58 47 59 61 61 82 62 49 63 33 64 34 65
REMARK SMILES IDX 42 66 35 67 37 68 43 69 36 70 38 71 39 72 40 73 41 74 65 75
REMARK SMILES IDX 66 76 74 77 67 78 69 79 75 80 68 81 70 82 71 83 72 84 73 85
REMARK SMILES IDX 50 86 51 87 59 88 52 89 54 90 60 91 53 92 55 93 56 94 57 95
REMARK SMILES IDX 58 96
REMARK H PARENT 8 19 80 49 48 60
REMARK Flexibility Score: inf
ROOT
ATOM      1  C   UNL     1      -3.111   7.986  -7.049  1.00  0.00     0.275 C 
ENDROOT
BRANCH   1   2
ATOM      2  O   UNL     1      -2.401   6.938  -6.390  1.00  0.00    -0.457 OA
BRANCH   2   3
ATOM      3  C   UNL     1      -3.015   5.731  -6.356  1.00  0.00     0.357 C 
ATOM      4  O   UNL     1      -4.118   5.480  -6.814  1.00  0.00    -0.244 OA
BRANCH   3   5
ATOM      5  C   UNL     1      -2.099   4.737  -5.729  1.00  0.00     0.160 A 
ATOM      6  C   UNL     1      -1.816   3.173  -4.103  1.00  0.00     0.189 A 
ATOM      7  N   UNL     1      -2.578   4.148  -4.608  1.00  0.00    -0.215 NA
ATOM      8  N   UNL     1      -0.724   2.675  -4.695  1.00  0.00    -0.222 NA
ATOM      9  C   UNL     1      -0.282   3.273  -5.805  1.00  0.00     0.076 A 
ATOM     10  C   UNL     1      -0.917   4.372  -6.385  1.00  0.00     0.034 A 
ATOM     11  C   UNL     1       0.842   2.752  -6.431  1.00  0.00     0.029 A 
ATOM     12  C   UNL     1      -0.366   4.966  -7.555  1.00  0.00     0.013 A 
ATOM     13  C   UNL     1       1.371   3.315  -7.596  1.00  0.00     0.002 A 
ATOM     14  C   UNL     1       0.777   4.441  -8.148  1.00  0.00     0.001 A 
BRANCH   6  15
ATOM     15  S   UNL     1      -2.402   2.316  -2.669  1.00  0.00    -0.076 SA
BRANCH  15  16
ATOM     16  C   UNL     1      -1.609   3.330  -1.379  1.00  0.00     0.178 C 
BRANCH  16  17
ATOM     17  C   UNL     1      -0.125   3.069  -1.262  1.00  0.00     0.234 C 
ATOM     18  N   UNL     1       0.437   2.004  -0.617  1.00  0.00    -0.325 N 
ATOM     19  H   UNL     1       1.391   2.144  -0.417  1.00  0.00     0.169 HD
ATOM     20  O   UNL     1       0.682   3.820  -1.828  1.00  0.00    -0.274 OA
BRANCH  18  21
ATOM     21  C   UNL     1      -0.029   0.752  -0.172  1.00  0.00     0.044 A 
ATOM     22  C   UNL     1       2.399  -0.139  -0.165  1.00  0.00     0.046 C 
ATOM     23  C   UNL     1       0.905  -0.306  -0.049  1.00  0.00    -0.027 A 
ATOM     24  C   UNL     1       0.437  -1.626   0.110  1.00  0.00     0.005 A 
ATOM     25  C   UNL     1      -0.920  -1.896   0.240  1.00  0.00     0.000 A 
ATOM     26  C   UNL     1      -1.376   0.470   0.069  1.00  0.00     0.026 A 
ATOM     27  C   UNL     1      -1.821  -0.842   0.264  1.00  0.00     0.002 A 
ENDBRANCH  18  21
ENDBRANCH  16  17
ENDBRANCH  15  16
ENDBRANCH   6  15
ENDBRANCH   3   5
ENDBRANCH   2   3
ENDBRANCH   1   2
BRANCH   1  28
ATOM     28  C   UNL     1      -4.329   8.574  -6.314  1.00  0.00     0.275 C 
BRANCH  28  29
ATOM     29  O   UNL     1      -4.825   7.933  -5.111  1.00  0.00    -0.458 OA
BRANCH  29  30
ATOM     30  C   UNL     1      -4.229   7.800  -3.893  1.00  0.00     0.338 C 
ATOM     31  O   UNL     1      -4.845   7.391  -2.918  1.00  0.00    -0.246 OA
BRANCH  30  32
ATOM     32  C   UNL     1      -2.798   8.121  -3.810  1.00  0.00     0.060 A 
ATOM     33  C   UNL     1      -1.880   7.175  -3.327  1.00  0.00     0.016 A 
ATOM     34  C   UNL     1      -2.366   9.334  -4.321  1.00  0.00     0.016 A 
ATOM     35  C   UNL     1      -0.508   7.414  -3.437  1.00  0.00     0.010 A 
ATOM     36  C   UNL     1      -1.031   9.499  -4.586  1.00  0.00     0.010 A 
ATOM     37  C   UNL     1      -0.094   8.583  -4.071  1.00  0.00    -0.014 A 
BRANCH  37  38
ATOM     38  C   UNL     1       1.234   9.165  -3.914  1.00  0.00     0.031 A 
ATOM     39  C   UNL     1       2.454   8.687  -4.569  1.00  0.00     0.074 A 
ATOM     40  C   UNL     1       1.214  10.308  -3.191  1.00  0.00     0.049 A 
ATOM     41  N   UNL     1       3.627   8.898  -4.077  1.00  0.00    -0.248 NA
ATOM     42  C   UNL     1       2.472   7.932  -5.813  1.00  0.00     0.031 C 
ATOM     43  C   UNL     1       2.156  11.403  -3.137  1.00  0.00     0.029 A 
ATOM     44  N   UNL     1       0.225  10.654  -2.262  1.00  0.00    -0.354 N 
ATOM     45  C   UNL     1       4.548   8.588  -5.054  1.00  0.00     0.074 A 
ATOM     46  C   UNL     1       3.789   7.886  -6.067  1.00  0.00     0.031 C 
ATOM     47  C   UNL     1       1.826  12.200  -2.103  1.00  0.00     0.029 A 
ATOM     48  C   UNL     1       0.758  11.554  -1.348  1.00  0.00     0.049 A 
ATOM     49  H   UNL     1      -0.699  10.315  -2.258  1.00  0.00     0.167 HD
ATOM     50  C   UNL     1       5.796   9.138  -4.973  1.00  0.00     0.034 A 
ATOM     51  C   UNL     1       0.704  11.315  -0.005  1.00  0.00     0.034 A 
ATOM     52  C   UNL     1       5.899   9.998  -3.777  1.00  0.00     0.049 A 
ATOM     53  C   UNL     1       2.109  11.038   0.515  1.00  0.00     0.074 A 
ATOM     54  C   UNL     1       5.736  11.366  -3.620  1.00  0.00     0.029 A 
ATOM     55  N   UNL     1       5.861   9.452  -2.497  1.00  0.00    -0.354 N 
ATOM     56  N   UNL     1       3.176  11.015  -0.236  1.00  0.00    -0.248 NA
ATOM     57  C   UNL     1       2.407  10.688   1.901  1.00  0.00     0.031 C 
ATOM     58  C   UNL     1       5.493  11.627  -2.248  1.00  0.00     0.029 A 
ATOM     59  C   UNL     1       5.543  10.428  -1.556  1.00  0.00     0.049 A 
ATOM     60  H   UNL     1       6.035   8.506  -2.285  1.00  0.00     0.167 HD
ATOM     61  C   UNL     1       4.219  10.473   0.462  1.00  0.00     0.074 A 
ATOM     62  C   UNL     1       3.710  10.368   1.820  1.00  0.00     0.031 C 
ATOM     63  C   UNL     1       5.383  10.084  -0.144  1.00  0.00     0.034 A 
BRANCH  50  64
ATOM     64  C   UNL     1       6.778   9.245  -6.137  1.00  0.00     0.023 A 
ATOM     65  C   UNL     1       7.699  10.321  -6.106  1.00  0.00     0.012 A 
ATOM     66  C   UNL     1       6.835   8.423  -7.286  1.00  0.00     0.148 A 
ATOM     67  C   UNL     1       8.528  10.645  -7.185  1.00  0.00     0.002 A 
ATOM     68  C   UNL     1       7.626   8.775  -8.390  1.00  0.00     0.091 A 
ATOM     69  F   UNL     1       6.181   7.256  -7.296  1.00  0.00    -0.205 F 
ATOM     70  C   UNL     1       8.465   9.893  -8.345  1.00  0.00     0.022 A 
BRANCH  68  71
ATOM     71  S   UNL     1       7.568   7.889  -9.960  1.00  0.00     0.127 S 
ATOM     72  O   UNL     1       7.324   8.972 -10.916  1.00  0.00    -0.237 OA
ATOM     73  O   UNL     1       8.902   7.300 -10.040  1.00  0.00    -0.237 OA
ATOM     74  O   UNL     1       6.467   6.939  -9.847  1.00  0.00    -0.744 OA
ENDBRANCH  68  71
ENDBRANCH  50  64
BRANCH  51  75
ATOM     75  C   UNL     1      -0.532  10.556   0.416  1.00  0.00     0.023 A 
ATOM     76  C   UNL     1      -1.801  11.082   0.047  1.00  0.00     0.012 A 
ATOM     77  C   UNL     1      -0.467   9.203   0.769  1.00  0.00     0.148 A 
ATOM     78  C   UNL     1      -2.918  10.249  -0.108  1.00  0.00     0.002 A 
ATOM     79  C   UNL     1      -1.571   8.374   0.568  1.00  0.00     0.091 A 
ATOM     80  F   UNL     1       0.689   8.688   1.204  1.00  0.00    -0.205 F 
ATOM     81  C   UNL     1      -2.792   8.881   0.111  1.00  0.00     0.022 A 
BRANCH  79  82
ATOM     82  S   UNL     1      -1.301   6.604   0.643  1.00  0.00     0.127 S 
ATOM     83  O   UNL     1      -2.525   6.040   0.075  1.00  0.00    -0.237 OA
ATOM     84  O   UNL     1      -0.127   6.428  -0.199  1.00  0.00    -0.237 OA
ATOM     85  O   UNL     1      -1.129   6.362   2.071  1.00  0.00    -0.744 OA
ENDBRANCH  79  82
ENDBRANCH  51  75
BRANCH  63  86
ATOM     86  C   UNL     1       6.501   9.364   0.569  1.00  0.00     0.023 A 
ATOM     87  C   UNL     1       6.269   8.486   1.643  1.00  0.00     0.012 A 
ATOM     88  C   UNL     1       7.831   9.472   0.097  1.00  0.00     0.148 A 
ATOM     89  C   UNL     1       7.319   7.826   2.290  1.00  0.00     0.002 A 
ATOM     90  C   UNL     1       8.854   8.722   0.667  1.00  0.00     0.091 A 
ATOM     91  F   UNL     1       8.120  10.326  -0.897  1.00  0.00    -0.205 F 
ATOM     92  C   UNL     1       8.611   7.931   1.792  1.00  0.00     0.022 A 
BRANCH  90  93
ATOM     93  S   UNL     1      10.468   8.640  -0.117  1.00  0.00     0.127 S 
ATOM     94  O   UNL     1      11.172   9.756   0.509  1.00  0.00    -0.237 OA
ATOM     95  O   UNL     1      10.950   7.316   0.282  1.00  0.00    -0.237 OA
ATOM     96  O   UNL     1      10.196   8.766  -1.543  1.00  0.00    -0.744 OA
ENDBRANCH  90  93
ENDBRANCH  63  86
ENDBRANCH  37  38
ENDBRANCH  30  32
ENDBRANCH  29  30
ENDBRANCH  28  29
ENDBRANCH   1  28
TORSDOF 18
