REMARK SMILES COc1ccc(-c2cc(F)cc(C(=O)OCCOC(=O)c3ccc(-c4c5nc(c(-c6cccc(S(=O)(=O)[O-])c6F)c6ccc([nH]6)c(-c6cccc(S(=O)(=O)[O-])c6F)c6nc(c(-c7cccc(S(=O)(=O)[O-])c7F)c7ccc4[nH]7)C=C6)C=C5)cc3)c2)cc1C
REMARK SMILES IDX 17 1 16 2 15 3 13 4 14 5 12 6 7 7 8 8 84 9 9 10 10 11 11 12
REMARK SMILES IDX 6 13 3 14 4 15 86 16 5 17 85 18 87 19 2 20 1 21 18 22 19 23
REMARK SMILES IDX 20 24 21 25 22 26 83 27 23 28 82 29 24 30 25 31 26 32 76 33
REMARK SMILES IDX 27 34 81 35 75 36 77 37 28 38 80 39 74 40 73 41 29 43 61 44
REMARK SMILES IDX 41 45 60 46 42 47 45 48 59 49 78 50 43 51 44 52 58 54 79 55
REMARK SMILES IDX 46 56 30 57 31 58 39 59 32 60 34 61 40 62 33 63 35 64 36 65
REMARK SMILES IDX 37 66 38 67 62 68 63 69 71 70 64 71 66 72 72 73 65 74 67 75
REMARK SMILES IDX 68 76 69 77 70 78 47 79 48 80 56 81 49 82 51 83 57 84 50 85
REMARK SMILES IDX 52 86 53 87 54 88 55 89
REMARK H PARENT 77 42 45 53
REMARK Flexibility Score: inf
ROOT
ATOM      1  C   UNL     1      -2.157   1.874  11.898  1.00  0.00     0.275 C 
ENDROOT
BRANCH   1   2
ATOM      2  C   UNL     1      -0.936   1.019  12.261  1.00  0.00     0.275 C 
BRANCH   2   3
ATOM      3  O   UNL     1       0.200   1.552  11.568  1.00  0.00    -0.458 OA
BRANCH   3   4
ATOM      4  C   UNL     1       0.302   1.245  10.104  1.00  0.00     0.338 C 
ATOM      5  O   UNL     1      -0.380   0.178  10.068  1.00  0.00    -0.246 OA
BRANCH   4   6
ATOM      6  C   UNL     1       1.323   2.401   8.590  1.00  0.00     0.063 A 
ATOM      7  C   UNL     1       2.013   2.909   5.961  1.00  0.00    -0.015 A 
ATOM      8  C   UNL     1       2.871   3.930   6.293  1.00  0.00     0.048 A 
ATOM      9  C   UNL     1       1.347   2.216   7.040  1.00  0.00     0.024 A 
ATOM     10  C   UNL     1       2.996   4.250   7.626  1.00  0.00     0.124 A 
ATOM     11  F   UNL     1       3.830   5.244   7.971  1.00  0.00    -0.207 F 
ATOM     12  C   UNL     1       2.276   3.582   8.666  1.00  0.00     0.055 A 
BRANCH   7  13
ATOM     13  C   UNL     1       1.742   2.519   4.555  1.00  0.00    -0.018 A 
ATOM     14  C   UNL     1       1.139   1.681   1.905  1.00  0.00     0.121 A 
ATOM     15  C   UNL     1       0.136   2.170   2.743  1.00  0.00     0.047 A 
ATOM     16  C   UNL     1       2.461   1.622   2.368  1.00  0.00    -0.008 A 
ATOM     17  C   UNL     1       0.433   2.578   4.049  1.00  0.00     0.012 A 
ATOM     18  C   UNL     1       2.743   2.038   3.694  1.00  0.00     0.016 A 
ATOM     19  C   UNL     1       3.584   1.106   1.516  1.00  0.00     0.048 C 
BRANCH  14  20
ATOM     20  O   UNL     1       0.757   1.413   0.614  1.00  0.00    -0.496 OA
ATOM     21  C   UNL     1       0.940   0.053   0.223  1.00  0.00     0.278 C 
ENDBRANCH  14  20
ENDBRANCH   7  13
ENDBRANCH   4   6
ENDBRANCH   3   4
ENDBRANCH   2   3
ENDBRANCH   1   2
BRANCH   1  22
ATOM     22  O   UNL     1      -2.536   1.875  10.491  1.00  0.00    -0.458 OA
BRANCH  22  23
ATOM     23  C   UNL     1      -2.166   2.913   9.679  1.00  0.00     0.338 C 
ATOM     24  O   UNL     1      -2.934   3.735   9.210  1.00  0.00    -0.246 OA
BRANCH  23  25
ATOM     25  C   UNL     1      -0.770   2.753   9.198  1.00  0.00     0.060 A 
ATOM     26  C   UNL     1      -0.498   1.259   8.216  1.00  0.00     0.016 A 
ATOM     27  C   UNL     1       0.482   3.320  10.364  1.00  0.00     0.016 A 
ATOM     28  C   UNL     1       1.047   0.270   8.460  1.00  0.00     0.010 A 
ATOM     29  C   UNL     1       1.989   2.303  10.650  1.00  0.00     0.010 A 
ATOM     30  C   UNL     1       2.248   0.777   9.703  1.00  0.00    -0.014 A 
BRANCH  30  31
ATOM     31  C   UNL     1       3.032  -0.191  10.456  1.00  0.00     0.031 A 
ATOM     32  C   UNL     1       4.407   0.205  10.801  1.00  0.00     0.074 A 
ATOM     33  C   UNL     1       2.443  -1.269  11.039  1.00  0.00     0.049 A 
ATOM     34  N   UNL     1       5.208  -0.571  11.430  1.00  0.00    -0.248 NA
ATOM     35  C   UNL     1       5.024   1.483  10.440  1.00  0.00     0.031 C 
ATOM     36  C   UNL     1       2.908  -2.001  12.221  1.00  0.00     0.029 A 
ATOM     37  N   UNL     1       1.303  -1.985  10.705  1.00  0.00    -0.354 N 
ATOM     38  C   UNL     1       6.314   0.155  11.778  1.00  0.00     0.074 A 
ATOM     39  C   UNL     1       6.202   1.397  11.066  1.00  0.00     0.031 C 
ATOM     40  C   UNL     1       2.230  -3.155  12.341  1.00  0.00     0.029 A 
ATOM     41  C   UNL     1       1.409  -3.303  11.159  1.00  0.00     0.049 A 
ATOM     42  H   UNL     1       0.530  -1.618  10.217  1.00  0.00     0.167 HD
ATOM     43  C   UNL     1       7.129  -0.375  12.722  1.00  0.00     0.034 A 
ATOM     44  C   UNL     1       1.439  -4.401  10.338  1.00  0.00     0.034 A 
ATOM     45  C   UNL     1       6.812  -1.803  12.914  1.00  0.00     0.049 A 
ATOM     46  C   UNL     1       2.828  -5.059  10.304  1.00  0.00     0.074 A 
ATOM     47  C   UNL     1       6.135  -2.527  13.879  1.00  0.00     0.029 A 
ATOM     48  N   UNL     1       6.891  -2.641  11.802  1.00  0.00    -0.354 N 
ATOM     49  N   UNL     1       3.858  -4.700  11.025  1.00  0.00    -0.248 NA
ATOM     50  C   UNL     1       3.179  -6.112   9.357  1.00  0.00     0.031 C 
ATOM     51  C   UNL     1       5.770  -3.788  13.307  1.00  0.00     0.029 A 
ATOM     52  C   UNL     1       6.283  -3.867  12.022  1.00  0.00     0.049 A 
ATOM     53  H   UNL     1       7.330  -2.391  10.957  1.00  0.00     0.167 HD
ATOM     54  C   UNL     1       5.013  -5.253  10.514  1.00  0.00     0.074 A 
ATOM     55  C   UNL     1       4.516  -6.144   9.473  1.00  0.00     0.031 C 
ATOM     56  C   UNL     1       6.267  -4.877  10.950  1.00  0.00     0.034 A 
BRANCH  43  57
ATOM     57  C   UNL     1       8.123   0.409  13.547  1.00  0.00     0.023 A 
ATOM     58  C   UNL     1       8.979  -0.333  14.386  1.00  0.00     0.012 A 
ATOM     59  C   UNL     1       8.205   1.825  13.659  1.00  0.00     0.148 A 
ATOM     60  C   UNL     1       9.855   0.281  15.288  1.00  0.00     0.002 A 
ATOM     61  C   UNL     1       9.129   2.438  14.512  1.00  0.00     0.091 A 
ATOM     62  F   UNL     1       7.327   2.603  13.018  1.00  0.00    -0.205 F 
ATOM     63  C   UNL     1       9.942   1.666  15.343  1.00  0.00     0.022 A 
BRANCH  61  64
ATOM     64  S   UNL     1       9.337   4.229  14.604  1.00  0.00     0.127 S 
ATOM     65  O   UNL     1       8.827   4.530  15.942  1.00  0.00    -0.237 OA
ATOM     66  O   UNL     1      10.785   4.386  14.458  1.00  0.00    -0.237 OA
ATOM     67  O   UNL     1       8.559   4.789  13.506  1.00  0.00    -0.744 OA
ENDBRANCH  61  64
ENDBRANCH  43  57
BRANCH  44  68
ATOM     68  C   UNL     1       0.550  -4.248   9.139  1.00  0.00     0.023 A 
ATOM     69  C   UNL     1      -0.803  -3.912   9.390  1.00  0.00     0.012 A 
ATOM     70  C   UNL     1       1.106  -3.922   7.897  1.00  0.00     0.148 A 
ATOM     71  C   UNL     1      -1.463  -3.008   8.556  1.00  0.00     0.002 A 
ATOM     72  C   UNL     1       0.451  -3.021   7.075  1.00  0.00     0.091 A 
ATOM     73  F   UNL     1       2.308  -4.397   7.553  1.00  0.00    -0.205 F 
ATOM     74  C   UNL     1      -0.809  -2.515   7.428  1.00  0.00     0.022 A 
BRANCH  72  75
ATOM     75  S   UNL     1       1.406  -2.266   5.746  1.00  0.00     0.127 S 
ATOM     76  O   UNL     1       0.586  -1.110   5.382  1.00  0.00    -0.237 OA
ATOM     77  O   UNL     1       2.666  -1.920   6.392  1.00  0.00    -0.237 OA
ATOM     78  O   UNL     1       1.451  -3.331   4.750  1.00  0.00    -0.744 OA
ENDBRANCH  72  75
ENDBRANCH  44  68
BRANCH  56  79
ATOM     79  C   UNL     1       7.614  -5.403  10.406  1.00  0.00     0.023 A 
ATOM     80  C   UNL     1       7.711  -6.536   9.577  1.00  0.00     0.012 A 
ATOM     81  C   UNL     1       8.866  -4.817  10.761  1.00  0.00     0.148 A 
ATOM     82  C   UNL     1       8.927  -6.997   9.051  1.00  0.00     0.002 A 
ATOM     83  C   UNL     1      10.077  -5.272  10.242  1.00  0.00     0.091 A 
ATOM     84  F   UNL     1       8.923  -3.842  11.671  1.00  0.00    -0.205 F 
ATOM     85  C   UNL     1      10.111  -6.355   9.370  1.00  0.00     0.022 A 
BRANCH  83  86
ATOM     86  S   UNL     1      11.656  -4.524  10.682  1.00  0.00     0.127 S 
ATOM     87  O   UNL     1      12.266  -5.582  11.487  1.00  0.00    -0.237 OA
ATOM     88  O   UNL     1      12.271  -4.325   9.370  1.00  0.00    -0.237 OA
ATOM     89  O   UNL     1      11.344  -3.296  11.399  1.00  0.00    -0.744 OA
ENDBRANCH  83  86
ENDBRANCH  56  79
ENDBRANCH  30  31
ENDBRANCH  23  25
ENDBRANCH  22  23
ENDBRANCH   1  22
TORSDOF 16
