REMARK SMILES O=C(C[C@@H]1C(=O)NCCN1C(=O)OCC1c2ccccc2-c2ccccc21)OCCOC(=O)c1ccc(-c2c3nc(c(-c4cccc(S(=O)(=O)[O-])c4F)c4ccc([nH]4)c(-c4cccc(S(=O)(=O)[O-])c4F)c4nc(c(-c5cccc(S(=O)(=O)[O-])c5F)c5ccc2[nH]5)C=C4)C=C3)cc1
REMARK SMILES IDX 29 1 28 2 2 3 1 4 3 5 4 6 5 7 10 8 6 9 7 10 9 11 8 12 11 14
REMARK SMILES IDX 12 15 13 16 14 17 15 18 16 19 27 20 17 21 21 22 22 23 26 24
REMARK SMILES IDX 18 25 20 26 23 27 25 28 19 29 24 30 30 31 31 32 32 33 33 34
REMARK SMILES IDX 34 35 35 36 96 37 36 38 95 39 37 40 38 41 39 42 89 43 40 44
REMARK SMILES IDX 94 45 88 46 90 47 41 48 93 49 87 50 86 51 42 53 74 54 54 55
REMARK SMILES IDX 73 56 55 57 58 58 72 59 91 60 56 61 57 62 71 64 92 65 59 66
REMARK SMILES IDX 43 67 44 68 52 69 45 70 47 71 53 72 46 73 48 74 49 75 50 76
REMARK SMILES IDX 51 77 75 78 76 79 84 80 77 81 79 82 85 83 78 84 80 85 81 86
REMARK SMILES IDX 82 87 83 88 60 89 61 90 69 91 62 92 64 93 70 94 63 95 65 96
REMARK SMILES IDX 66 97 67 98 68 99
REMARK H PARENT 7 13 90 52 58 63
REMARK Flexibility Score: inf
ROOT
ATOM      1  C   UNL     1       4.569  -0.456  -1.016  1.00  0.00     0.274 C 
ENDROOT
BRANCH   1   2
ATOM      2  O   UNL     1       3.223  -0.903  -0.778  1.00  0.00    -0.462 OA
BRANCH   2   3
ATOM      3  C   UNL     1       2.537  -0.620   0.349  1.00  0.00     0.308 C 
ATOM      4  O   UNL     1       1.547  -1.279   0.666  1.00  0.00    -0.252 OA
BRANCH   3   5
ATOM      5  C   UNL     1       2.915   0.607   1.131  1.00  0.00     0.158 C 
BRANCH   5   6
ATOM      6  C   UNL     1       3.786   0.478   2.394  1.00  0.00     0.189 C 
ATOM      7  C   UNL     1       3.976  -1.016   2.771  1.00  0.00     0.243 C 
ATOM      8  N   UNL     1       3.452   1.364   3.562  1.00  0.00    -0.294 N 
ATOM      9  O   UNL     1       4.404  -1.844   1.966  1.00  0.00    -0.273 OA
ATOM     10  N   UNL     1       3.672  -1.413   4.044  1.00  0.00    -0.353 N 
ATOM     11  C   UNL     1       3.885   0.881   4.867  1.00  0.00     0.145 C 
ATOM     12  C   UNL     1       3.261  -0.492   5.085  1.00  0.00     0.137 C 
ATOM     13  H   UNL     1       3.735  -2.370   4.264  1.00  0.00     0.163 HD
BRANCH   8  14
ATOM     14  C   UNL     1       2.789   2.586   3.530  1.00  0.00     0.410 C 
ATOM     15  O   UNL     1       2.644   3.339   4.469  1.00  0.00    -0.224 OA
BRANCH  14  16
ATOM     16  O   UNL     1       2.275   2.792   2.312  1.00  0.00    -0.448 OA
BRANCH  16  17
ATOM     17  C   UNL     1       1.318   3.809   2.017  1.00  0.00     0.248 C 
BRANCH  17  18
ATOM     18  C   UNL     1      -0.171   3.672   2.356  1.00  0.00     0.088 C 
ATOM     19  C   UNL     1      -0.400   2.476   3.232  1.00  0.00    -0.029 A 
ATOM     20  C   UNL     1      -0.735   4.790   3.218  1.00  0.00    -0.029 A 
ATOM     21  C   UNL     1      -0.344   1.149   2.859  1.00  0.00     0.005 A 
ATOM     22  C   UNL     1      -0.644   2.895   4.553  1.00  0.00    -0.014 A 
ATOM     23  C   UNL     1      -0.917   4.320   4.536  1.00  0.00    -0.014 A 
ATOM     24  C   UNL     1      -1.221   6.028   2.819  1.00  0.00     0.005 A 
ATOM     25  C   UNL     1      -0.422   0.204   3.868  1.00  0.00     0.000 A 
ATOM     26  C   UNL     1      -0.695   1.957   5.560  1.00  0.00     0.009 A 
ATOM     27  C   UNL     1      -1.515   5.124   5.489  1.00  0.00     0.009 A 
ATOM     28  C   UNL     1      -1.888   6.809   3.762  1.00  0.00     0.000 A 
ATOM     29  C   UNL     1      -0.568   0.606   5.208  1.00  0.00     0.001 A 
ATOM     30  C   UNL     1      -2.032   6.358   5.082  1.00  0.00     0.001 A 
ENDBRANCH  17  18
ENDBRANCH  16  17
ENDBRANCH  14  16
ENDBRANCH   8  14
ENDBRANCH   5   6
ENDBRANCH   3   5
ENDBRANCH   2   3
ENDBRANCH   1   2
BRANCH   1  31
ATOM     31  C   UNL     1       4.624   0.525  -2.188  1.00  0.00     0.275 C 
BRANCH  31  32
ATOM     32  O   UNL     1       4.187   1.847  -1.801  1.00  0.00    -0.458 OA
BRANCH  32  33
ATOM     33  C   UNL     1       2.933   2.222  -2.171  1.00  0.00     0.338 C 
ATOM     34  O   UNL     1       2.136   1.531  -2.784  1.00  0.00    -0.246 OA
BRANCH  33  35
ATOM     35  C   UNL     1       2.603   3.574  -1.618  1.00  0.00     0.060 A 
ATOM     36  C   UNL     1       1.258   3.929  -1.480  1.00  0.00     0.016 A 
ATOM     37  C   UNL     1       3.582   4.476  -1.172  1.00  0.00     0.016 A 
ATOM     38  C   UNL     1       0.909   5.124  -0.816  1.00  0.00     0.010 A 
ATOM     39  C   UNL     1       3.230   5.674  -0.508  1.00  0.00     0.010 A 
ATOM     40  C   UNL     1       1.890   5.997  -0.269  1.00  0.00    -0.014 A 
BRANCH  40  41
ATOM     41  C   UNL     1       1.438   7.263   0.427  1.00  0.00     0.031 A 
ATOM     42  C   UNL     1       0.594   8.183  -0.411  1.00  0.00     0.074 A 
ATOM     43  C   UNL     1       1.648   7.597   1.730  1.00  0.00     0.049 A 
ATOM     44  N   UNL     1      -0.225   9.131  -0.051  1.00  0.00    -0.248 NA
ATOM     45  C   UNL     1       0.699   7.984  -1.868  1.00  0.00     0.031 C 
ATOM     46  C   UNL     1       2.498   6.885   2.679  1.00  0.00     0.029 A 
ATOM     47  N   UNL     1       1.055   8.570   2.531  1.00  0.00    -0.354 N 
ATOM     48  C   UNL     1      -0.682   9.684  -1.239  1.00  0.00     0.074 A 
ATOM     49  C   UNL     1      -0.134   8.902  -2.324  1.00  0.00     0.031 C 
ATOM     50  C   UNL     1       2.199   7.267   3.935  1.00  0.00     0.029 A 
ATOM     51  C   UNL     1       1.240   8.365   3.900  1.00  0.00     0.049 A 
ATOM     52  H   UNL     1       0.551   9.332   2.165  1.00  0.00     0.167 HD
ATOM     53  C   UNL     1      -1.428  10.794  -1.429  1.00  0.00     0.034 A 
ATOM     54  C   UNL     1       0.670   8.959   4.984  1.00  0.00     0.034 A 
ATOM     55  C   UNL     1      -1.895  11.647  -0.378  1.00  0.00     0.049 A 
ATOM     56  C   UNL     1      -0.272  10.127   4.734  1.00  0.00     0.074 A 
ATOM     57  C   UNL     1      -2.561  12.853  -0.488  1.00  0.00     0.029 A 
ATOM     58  N   UNL     1      -1.711  11.408   0.973  1.00  0.00    -0.354 N 
ATOM     59  N   UNL     1      -0.818  10.539   3.613  1.00  0.00    -0.248 NA
ATOM     60  C   UNL     1      -0.681  10.920   5.910  1.00  0.00     0.031 C 
ATOM     61  C   UNL     1      -2.751  13.363   0.799  1.00  0.00     0.029 A 
ATOM     62  C   UNL     1      -2.250  12.447   1.709  1.00  0.00     0.049 A 
ATOM     63  H   UNL     1      -1.263  10.617   1.352  1.00  0.00     0.167 HD
ATOM     64  C   UNL     1      -1.616  11.631   3.952  1.00  0.00     0.074 A 
ATOM     65  C   UNL     1      -1.581  11.743   5.393  1.00  0.00     0.031 C 
ATOM     66  C   UNL     1      -2.263  12.510   3.146  1.00  0.00     0.034 A 
BRANCH  53  67
ATOM     67  C   UNL     1      -1.666  11.202  -2.852  1.00  0.00     0.023 A 
ATOM     68  C   UNL     1      -2.596  10.503  -3.644  1.00  0.00     0.012 A 
ATOM     69  C   UNL     1      -0.934  12.270  -3.404  1.00  0.00     0.148 A 
ATOM     70  C   UNL     1      -2.774  10.848  -4.983  1.00  0.00     0.002 A 
ATOM     71  C   UNL     1      -1.153  12.638  -4.722  1.00  0.00     0.091 A 
ATOM     72  F   UNL     1      -0.024  12.885  -2.635  1.00  0.00    -0.205 F 
ATOM     73  C   UNL     1      -2.061  11.920  -5.517  1.00  0.00     0.022 A 
BRANCH  71  74
ATOM     74  S   UNL     1      -0.331  14.041  -5.480  1.00  0.00     0.127 S 
ATOM     75  O   UNL     1       0.446  13.393  -6.536  1.00  0.00    -0.237 OA
ATOM     76  O   UNL     1      -1.466  14.833  -5.953  1.00  0.00    -0.237 OA
ATOM     77  O   UNL     1       0.459  14.666  -4.429  1.00  0.00    -0.744 OA
ENDBRANCH  71  74
ENDBRANCH  53  67
BRANCH  54  78
ATOM     78  C   UNL     1       0.847   8.459   6.413  1.00  0.00     0.023 A 
ATOM     79  C   UNL     1      -0.307   8.239   7.209  1.00  0.00     0.012 A 
ATOM     80  C   UNL     1       2.091   8.241   7.033  1.00  0.00     0.148 A 
ATOM     81  C   UNL     1      -0.241   7.824   8.543  1.00  0.00     0.002 A 
ATOM     82  C   UNL     1       2.157   7.762   8.348  1.00  0.00     0.091 A 
ATOM     83  F   UNL     1       3.207   8.551   6.359  1.00  0.00    -0.205 F 
ATOM     84  C   UNL     1       0.995   7.566   9.108  1.00  0.00     0.022 A 
BRANCH  82  85
ATOM     85  S   UNL     1       3.713   7.304   9.125  1.00  0.00     0.127 S 
ATOM     86  O   UNL     1       3.971   8.456   9.985  1.00  0.00    -0.237 OA
ATOM     87  O   UNL     1       3.358   6.076   9.840  1.00  0.00    -0.237 OA
ATOM     88  O   UNL     1       4.648   7.105   8.026  1.00  0.00    -0.744 OA
ENDBRANCH  82  85
ENDBRANCH  54  78
BRANCH  66  89
ATOM     89  C   UNL     1      -2.974  13.680   3.787  1.00  0.00     0.023 A 
ATOM     90  C   UNL     1      -2.224  14.671   4.455  1.00  0.00     0.012 A 
ATOM     91  C   UNL     1      -4.366  13.852   3.650  1.00  0.00     0.148 A 
ATOM     92  C   UNL     1      -2.850  15.780   5.023  1.00  0.00     0.002 A 
ATOM     93  C   UNL     1      -4.976  14.991   4.166  1.00  0.00     0.091 A 
ATOM     94  F   UNL     1      -5.069  12.903   3.014  1.00  0.00    -0.205 F 
ATOM     95  C   UNL     1      -4.223  15.945   4.868  1.00  0.00     0.022 A 
BRANCH  93  96
ATOM     96  S   UNL     1      -6.719  15.350   3.921  1.00  0.00     0.127 S 
ATOM     97  O   UNL     1      -7.256  15.146   5.266  1.00  0.00    -0.237 OA
ATOM     98  O   UNL     1      -6.688  16.745   3.481  1.00  0.00    -0.237 OA
ATOM     99  O   UNL     1      -7.186  14.408   2.913  1.00  0.00    -0.744 OA
ENDBRANCH  93  96
ENDBRANCH  66  89
ENDBRANCH  40  41
ENDBRANCH  33  35
ENDBRANCH  32  33
ENDBRANCH  31  32
ENDBRANCH   1  31
TORSDOF 19
