REMARK SMILES CC(C)CN(C)c1cc2c(cc1Cl)C=C(C(=O)OCCOC(=O)c1ccc(-c3c4nc(c(-c5cccc(S(=O)(=O)[O-])c5F)c5ccc([nH]5)c(-c5cccc(S(=O)(=O)[O-])c5F)c5nc(c(-c6cccc(S(=O)(=O)[O-])c6F)c6ccc3[nH]6)C=C5)C=C4)cc1)[C@H](C(F)(F)F)O2
REMARK SMILES IDX 19 1 18 2 16 3 17 4 15 5 7 6 8 7 12 8 9 9 11 10 13 11 10 12
REMARK SMILES IDX 92 13 14 14 87 15 5 16 6 17 4 18 2 19 1 20 3 21 88 22 89 23
REMARK SMILES IDX 90 24 91 25 20 26 21 27 22 28 23 29 24 30 25 31 86 32 26 33
REMARK SMILES IDX 85 34 27 35 28 36 29 37 79 38 30 39 84 40 78 41 80 42 31 43
REMARK SMILES IDX 83 44 77 45 76 46 32 48 64 49 44 50 63 51 45 52 48 53 62 54
REMARK SMILES IDX 81 55 46 56 47 57 61 59 82 60 49 61 33 62 34 63 42 64 35 65
REMARK SMILES IDX 37 66 43 67 36 68 38 69 39 70 40 71 41 72 65 73 66 74 74 75
REMARK SMILES IDX 67 76 69 77 75 78 68 79 70 80 71 81 72 82 73 83 50 84 51 85
REMARK SMILES IDX 59 86 52 87 54 88 60 89 53 90 55 91 56 92 57 93 58 94
REMARK H PARENT 80 47 48 58
REMARK Flexibility Score: inf
ROOT
ATOM      1  C   UNL     1      -1.522   2.419  -9.356  1.00  0.00     0.275 C 
ENDROOT
BRANCH   1   2
ATOM      2  O   UNL     1      -1.859   2.001  -8.016  1.00  0.00    -0.459 OA
BRANCH   2   3
ATOM      3  C   UNL     1      -1.192   0.924  -7.557  1.00  0.00     0.338 C 
ATOM      4  O   UNL     1      -0.366   0.277  -8.185  1.00  0.00    -0.246 OA
BRANCH   3   5
ATOM      5  C   UNL     1      -1.511   0.637  -6.143  1.00  0.00     0.087 C 
ATOM      6  C   UNL     1      -1.060  -1.260  -1.481  1.00  0.00     0.059 A 
ATOM      7  C   UNL     1      -2.106  -0.632  -2.191  1.00  0.00     0.074 A 
ATOM      8  C   UNL     1       0.188  -1.383  -2.127  1.00  0.00     0.065 A 
ATOM      9  C   UNL     1      -1.915  -0.156  -3.494  1.00  0.00     0.130 A 
ATOM     10  C   UNL     1       0.397  -0.842  -3.394  1.00  0.00     0.034 A 
ATOM     11  Cl  UNL     1       1.502  -2.286  -1.457  1.00  0.00    -0.082 Cl
ATOM     12  C   UNL     1      -0.659  -0.249  -4.081  1.00  0.00     0.019 A 
ATOM     13  O   UNL     1      -2.984   0.411  -4.132  1.00  0.00    -0.475 OA
ATOM     14  C   UNL     1      -0.453   0.226  -5.430  1.00  0.00     0.027 C 
ATOM     15  C   UNL     1      -2.914   0.578  -5.588  1.00  0.00     0.316 C 
BRANCH   6  16
ATOM     16  N   UNL     1      -1.276  -1.774  -0.198  1.00  0.00    -0.373 N 
ATOM     17  C   UNL     1      -2.248  -2.853  -0.101  1.00  0.00     0.143 C 
BRANCH  16  18
ATOM     18  C   UNL     1      -1.138  -0.865   0.955  1.00  0.00     0.119 C 
BRANCH  18  19
ATOM     19  C   UNL     1       0.332  -0.664   1.380  1.00  0.00     0.002 C 
ATOM     20  C   UNL     1       0.919   0.622   0.793  1.00  0.00     0.009 C 
ATOM     21  C   UNL     1       0.475  -0.632   2.904  1.00  0.00     0.009 C 
ENDBRANCH  18  19
ENDBRANCH  16  18
ENDBRANCH   6  16
BRANCH  15  22
ATOM     22  C   UNL     1      -3.858   1.732  -5.971  1.00  0.00     0.430 C 
ATOM     23  F   UNL     1      -3.317   2.949  -5.766  1.00  0.00    -0.167 F 
ATOM     24  F   UNL     1      -4.241   1.649  -7.270  1.00  0.00    -0.167 F 
ATOM     25  F   UNL     1      -5.010   1.676  -5.251  1.00  0.00    -0.167 F 
ENDBRANCH  15  22
ENDBRANCH   3   5
ENDBRANCH   2   3
ENDBRANCH   1   2
BRANCH   1  26
ATOM     26  C   UNL     1      -0.779   3.750  -9.326  1.00  0.00     0.275 C 
BRANCH  26  27
ATOM     27  O   UNL     1       0.471   3.598  -8.627  1.00  0.00    -0.458 OA
BRANCH  27  28
ATOM     28  C   UNL     1       0.577   4.290  -7.469  1.00  0.00     0.338 C 
ATOM     29  O   UNL     1      -0.243   5.042  -6.977  1.00  0.00    -0.246 OA
BRANCH  28  30
ATOM     30  C   UNL     1       1.877   3.998  -6.845  1.00  0.00     0.060 A 
ATOM     31  C   UNL     1       2.827   5.005  -6.695  1.00  0.00     0.016 A 
ATOM     32  C   UNL     1       2.100   2.739  -6.295  1.00  0.00     0.016 A 
ATOM     33  C   UNL     1       4.015   4.727  -6.009  1.00  0.00     0.010 A 
ATOM     34  C   UNL     1       3.237   2.497  -5.524  1.00  0.00     0.010 A 
ATOM     35  C   UNL     1       4.226   3.479  -5.387  1.00  0.00    -0.014 A 
BRANCH  35  36
ATOM     36  C   UNL     1       5.458   3.226  -4.579  1.00  0.00     0.031 A 
ATOM     37  C   UNL     1       6.386   2.075  -4.888  1.00  0.00     0.074 A 
ATOM     38  C   UNL     1       5.731   4.014  -3.517  1.00  0.00     0.049 A 
ATOM     39  N   UNL     1       7.521   1.759  -4.314  1.00  0.00    -0.248 NA
ATOM     40  C   UNL     1       5.978   1.132  -5.943  1.00  0.00     0.031 C 
ATOM     41  C   UNL     1       4.863   5.079  -3.008  1.00  0.00     0.029 A 
ATOM     42  N   UNL     1       6.821   4.051  -2.680  1.00  0.00    -0.354 N 
ATOM     43  C   UNL     1       7.922   0.557  -4.887  1.00  0.00     0.074 A 
ATOM     44  C   UNL     1       6.899   0.185  -5.838  1.00  0.00     0.031 C 
ATOM     45  C   UNL     1       5.484   5.709  -2.000  1.00  0.00     0.029 A 
ATOM     46  C   UNL     1       6.783   5.084  -1.772  1.00  0.00     0.049 A 
ATOM     47  H   UNL     1       7.558   3.400  -2.726  1.00  0.00     0.167 HD
ATOM     48  C   UNL     1       9.057  -0.152  -4.679  1.00  0.00     0.034 A 
ATOM     49  C   UNL     1       7.700   5.510  -0.880  1.00  0.00     0.034 A 
ATOM     50  C   UNL     1      10.136   0.280  -3.836  1.00  0.00     0.049 A 
ATOM     51  C   UNL     1       9.023   4.805  -0.780  1.00  0.00     0.074 A 
ATOM     52  C   UNL     1      11.393  -0.283  -3.695  1.00  0.00     0.029 A 
ATOM     53  N   UNL     1      10.095   1.385  -3.004  1.00  0.00    -0.354 N 
ATOM     54  N   UNL     1       9.456   3.775  -1.463  1.00  0.00    -0.248 NA
ATOM     55  C   UNL     1       9.994   5.335   0.190  1.00  0.00     0.031 C 
ATOM     56  C   UNL     1      12.116   0.489  -2.781  1.00  0.00     0.029 A 
ATOM     57  C   UNL     1      11.306   1.527  -2.350  1.00  0.00     0.049 A 
ATOM     58  H   UNL     1       9.320   1.982  -2.894  1.00  0.00     0.167 HD
ATOM     59  C   UNL     1      10.751   3.539  -1.018  1.00  0.00     0.074 A 
ATOM     60  C   UNL     1      11.042   4.546  -0.019  1.00  0.00     0.031 C 
ATOM     61  C   UNL     1      11.609   2.561  -1.394  1.00  0.00     0.034 A 
BRANCH  48  62
ATOM     62  C   UNL     1       9.246  -1.426  -5.460  1.00  0.00     0.023 A 
ATOM     63  C   UNL     1       9.593  -1.349  -6.824  1.00  0.00     0.012 A 
ATOM     64  C   UNL     1       9.161  -2.686  -4.835  1.00  0.00     0.148 A 
ATOM     65  C   UNL     1       9.823  -2.507  -7.564  1.00  0.00     0.002 A 
ATOM     66  C   UNL     1       9.425  -3.836  -5.572  1.00  0.00     0.091 A 
ATOM     67  F   UNL     1       8.820  -2.736  -3.540  1.00  0.00    -0.205 F 
ATOM     68  C   UNL     1       9.748  -3.748  -6.937  1.00  0.00     0.022 A 
BRANCH  66  69
ATOM     69  S   UNL     1       9.419  -5.481  -4.849  1.00  0.00     0.127 S 
ATOM     70  O   UNL     1       8.230  -6.069  -5.465  1.00  0.00    -0.237 OA
ATOM     71  O   UNL     1      10.688  -6.032  -5.327  1.00  0.00    -0.237 OA
ATOM     72  O   UNL     1       9.345  -5.287  -3.408  1.00  0.00    -0.744 OA
ENDBRANCH  66  69
ENDBRANCH  48  62
BRANCH  49  73
ATOM     73  C   UNL     1       7.434   6.762  -0.119  1.00  0.00     0.023 A 
ATOM     74  C   UNL     1       8.036   7.957  -0.558  1.00  0.00     0.012 A 
ATOM     75  C   UNL     1       6.521   6.799   0.952  1.00  0.00     0.148 A 
ATOM     76  C   UNL     1       7.733   9.172   0.056  1.00  0.00     0.002 A 
ATOM     77  C   UNL     1       6.197   8.019   1.536  1.00  0.00     0.091 A 
ATOM     78  F   UNL     1       5.958   5.648   1.344  1.00  0.00    -0.205 F 
ATOM     79  C   UNL     1       6.807   9.204   1.094  1.00  0.00     0.022 A 
BRANCH  77  80
ATOM     80  S   UNL     1       4.942   8.187   2.810  1.00  0.00     0.127 S 
ATOM     81  O   UNL     1       5.708   8.770   3.910  1.00  0.00    -0.237 OA
ATOM     82  O   UNL     1       3.992   9.097   2.171  1.00  0.00    -0.237 OA
ATOM     83  O   UNL     1       4.436   6.843   3.051  1.00  0.00    -0.744 OA
ENDBRANCH  77  80
ENDBRANCH  49  73
BRANCH  61  84
ATOM     84  C   UNL     1      12.958   2.502  -0.735  1.00  0.00     0.023 A 
ATOM     85  C   UNL     1      13.071   1.903   0.535  1.00  0.00     0.012 A 
ATOM     86  C   UNL     1      14.120   2.896  -1.426  1.00  0.00     0.148 A 
ATOM     87  C   UNL     1      14.325   1.697   1.109  1.00  0.00     0.002 A 
ATOM     88  C   UNL     1      15.368   2.659  -0.861  1.00  0.00     0.091 A 
ATOM     89  F   UNL     1      13.982   3.472  -2.629  1.00  0.00    -0.205 F 
ATOM     90  C   UNL     1      15.472   2.063   0.407  1.00  0.00     0.022 A 
BRANCH  88  91
ATOM     91  S   UNL     1      16.904   3.020  -1.720  1.00  0.00     0.127 S 
ATOM     92  O   UNL     1      17.437   4.126  -0.926  1.00  0.00    -0.237 OA
ATOM     93  O   UNL     1      17.639   1.762  -1.584  1.00  0.00    -0.237 OA
ATOM     94  O   UNL     1      16.532   3.361  -3.087  1.00  0.00    -0.744 OA
ENDBRANCH  88  91
ENDBRANCH  61  84
ENDBRANCH  35  36
ENDBRANCH  28  30
ENDBRANCH  27  28
ENDBRANCH  26  27
ENDBRANCH   1  26
TORSDOF 18
