REMARK SMILES Cc1ccccc1OC1(C(=O)OCCOC(=O)c2ccc(-c3c4nc(c(-c5cccc(S(=O)(=O)[O-])c5F)c5ccc([nH]5)c(-c5cccc(S(=O)(=O)[O-])c5F)c5nc(c(-c6cccc(S(=O)(=O)[O-])c6F)c6ccc3[nH]6)C=C5)C=C4)cc2)CCN(C(=O)[C@H]2CCCCO2)CC1
REMARK SMILES IDX 14 1 13 2 12 3 10 4 11 5 9 6 81 7 93 8 82 9 92 10 83 11
REMARK SMILES IDX 84 12 85 13 8 14 7 15 1 16 2 17 3 18 4 19 6 20 5 21 86 22
REMARK SMILES IDX 87 23 91 24 88 25 90 26 89 27 15 28 16 29 17 30 18 31 19 32
REMARK SMILES IDX 80 33 20 34 79 35 21 36 22 37 23 38 73 39 24 40 78 41 72 42
REMARK SMILES IDX 74 43 25 44 77 45 71 46 70 47 26 49 58 50 38 51 57 52 39 53
REMARK SMILES IDX 42 54 56 55 75 56 40 57 41 58 55 60 76 61 43 62 27 63 28 64
REMARK SMILES IDX 36 65 29 66 31 67 37 68 30 69 32 70 33 71 34 72 35 73 59 74
REMARK SMILES IDX 60 75 68 76 61 77 63 78 69 79 62 80 64 81 65 82 66 83 67 84
REMARK SMILES IDX 44 85 45 86 53 87 46 88 48 89 54 90 47 91 49 92 50 93 51 94
REMARK SMILES IDX 52 95
REMARK H PARENT 74 48 42 59
REMARK Flexibility Score: inf
ROOT
ATOM      1  C   UNL     1       9.717  -7.389  -3.750  1.00  0.00     0.275 C 
ENDROOT
BRANCH   1   2
ATOM      2  C   UNL     1       9.137  -6.002  -3.395  1.00  0.00     0.274 C 
BRANCH   2   3
ATOM      3  O   UNL     1       7.955  -5.805  -2.604  1.00  0.00    -0.459 OA
BRANCH   3   4
ATOM      4  C   UNL     1       7.620  -6.589  -1.544  1.00  0.00     0.350 C 
ATOM      5  O   UNL     1       8.151  -7.668  -1.316  1.00  0.00    -0.247 OA
BRANCH   4   6
ATOM      6  C   UNL     1       6.725  -5.810  -0.519  1.00  0.00     0.209 C 
ATOM      7  C   UNL     1       7.876  -5.211   0.322  1.00  0.00     0.082 C 
ATOM      8  C   UNL     1       5.951  -4.634  -1.147  1.00  0.00     0.082 C 
ATOM      9  C   UNL     1       7.454  -4.181   1.328  1.00  0.00     0.124 C 
ATOM     10  C   UNL     1       5.590  -3.461  -0.235  1.00  0.00     0.124 C 
ATOM     11  N   UNL     1       6.484  -3.187   0.895  1.00  0.00    -0.340 N 
ATOM     12  C   UNL     1       6.233  -2.198   1.864  1.00  0.00     0.251 C 
ATOM     13  O   UNL     1       6.936  -2.150   2.885  1.00  0.00    -0.272 OA
BRANCH   6  14
ATOM     14  O   UNL     1       6.058  -6.700   0.402  1.00  0.00    -0.475 OA
BRANCH  14  15
ATOM     15  C   UNL     1       4.722  -6.989   0.487  1.00  0.00     0.123 A 
ATOM     16  C   UNL     1       4.486  -5.415   2.480  1.00  0.00     0.048 C 
ATOM     17  C   UNL     1       3.973  -6.473   1.566  1.00  0.00    -0.009 A 
ATOM     18  C   UNL     1       2.734  -7.035   1.933  1.00  0.00     0.007 A 
ATOM     19  C   UNL     1       2.236  -8.141   1.273  1.00  0.00     0.001 A 
ATOM     20  C   UNL     1       4.202  -8.107  -0.171  1.00  0.00     0.047 A 
ATOM     21  C   UNL     1       2.973  -8.677   0.226  1.00  0.00     0.004 A 
ENDBRANCH  14  15
ENDBRANCH   6  14
BRANCH  12  22
ATOM     22  C   UNL     1       5.026  -1.240   1.707  1.00  0.00     0.207 C 
ATOM     23  C   UNL     1       3.769  -1.923   2.273  1.00  0.00     0.042 C 
ATOM     24  O   UNL     1       5.361  -0.070   2.476  1.00  0.00    -0.368 OA
ATOM     25  C   UNL     1       2.632  -0.956   2.581  1.00  0.00     0.006 C 
ATOM     26  C   UNL     1       4.303   0.868   2.605  1.00  0.00     0.161 C 
ATOM     27  C   UNL     1       3.147   0.240   3.362  1.00  0.00     0.029 C 
ENDBRANCH  12  22
ENDBRANCH   4   6
ENDBRANCH   3   4
ENDBRANCH   2   3
ENDBRANCH   1   2
BRANCH   1  28
ATOM     28  O   UNL     1       8.988  -8.648  -3.750  1.00  0.00    -0.458 OA
BRANCH  28  29
ATOM     29  C   UNL     1       7.711  -8.986  -4.064  1.00  0.00     0.338 C 
ATOM     30  O   UNL     1       7.291 -10.119  -4.008  1.00  0.00    -0.246 OA
BRANCH  29  31
ATOM     31  C   UNL     1       6.860  -7.884  -4.507  1.00  0.00     0.060 A 
ATOM     32  C   UNL     1       5.651  -7.609  -3.848  1.00  0.00     0.016 A 
ATOM     33  C   UNL     1       7.346  -7.080  -5.525  1.00  0.00     0.016 A 
ATOM     34  C   UNL     1       4.957  -6.441  -4.153  1.00  0.00     0.010 A 
ATOM     35  C   UNL     1       6.743  -5.867  -5.727  1.00  0.00     0.010 A 
ATOM     36  C   UNL     1       5.523  -5.569  -5.083  1.00  0.00    -0.014 A 
BRANCH  36  37
ATOM     37  C   UNL     1       4.767  -4.563  -5.814  1.00  0.00     0.031 A 
ATOM     38  C   UNL     1       4.629  -3.158  -5.426  1.00  0.00     0.074 A 
ATOM     39  C   UNL     1       4.499  -5.004  -7.061  1.00  0.00     0.049 A 
ATOM     40  N   UNL     1       3.717  -2.389  -5.909  1.00  0.00    -0.248 NA
ATOM     41  C   UNL     1       5.491  -2.498  -4.456  1.00  0.00     0.031 C 
ATOM     42  C   UNL     1       4.293  -4.274  -8.292  1.00  0.00     0.029 A 
ATOM     43  N   UNL     1       4.353  -6.348  -7.426  1.00  0.00    -0.354 N 
ATOM     44  C   UNL     1       4.029  -1.093  -5.546  1.00  0.00     0.074 A 
ATOM     45  C   UNL     1       5.061  -1.231  -4.543  1.00  0.00     0.031 C 
ATOM     46  C   UNL     1       3.825  -5.138  -9.215  1.00  0.00     0.029 A 
ATOM     47  C   UNL     1       3.520  -6.394  -8.534  1.00  0.00     0.049 A 
ATOM     48  H   UNL     1       4.766  -7.120  -6.976  1.00  0.00     0.167 HD
ATOM     49  C   UNL     1       3.510  -0.061  -6.275  1.00  0.00     0.034 A 
ATOM     50  C   UNL     1       2.316  -7.037  -8.474  1.00  0.00     0.034 A 
ATOM     51  C   UNL     1       2.738  -0.593  -7.414  1.00  0.00     0.049 A 
ATOM     52  C   UNL     1       1.183  -6.046  -8.659  1.00  0.00     0.074 A 
ATOM     53  C   UNL     1       3.112  -0.840  -8.725  1.00  0.00     0.029 A 
ATOM     54  N   UNL     1       1.524  -1.241  -7.221  1.00  0.00    -0.354 N 
ATOM     55  N   UNL     1       1.338  -4.752  -8.648  1.00  0.00    -0.248 NA
ATOM     56  C   UNL     1      -0.214  -6.438  -8.803  1.00  0.00     0.031 C 
ATOM     57  C   UNL     1       2.168  -1.737  -9.287  1.00  0.00     0.029 A 
ATOM     58  C   UNL     1       1.194  -2.001  -8.338  1.00  0.00     0.049 A 
ATOM     59  H   UNL     1       0.975  -1.173  -6.407  1.00  0.00     0.167 HD
ATOM     60  C   UNL     1       0.118  -4.144  -8.615  1.00  0.00     0.074 A 
ATOM     61  C   UNL     1      -0.821  -5.239  -8.801  1.00  0.00     0.031 C 
ATOM     62  C   UNL     1      -0.022  -2.810  -8.354  1.00  0.00     0.034 A 
BRANCH  49  63
ATOM     63  C   UNL     1       3.948   1.402  -6.233  1.00  0.00     0.023 A 
ATOM     64  C   UNL     1       3.590   2.209  -7.342  1.00  0.00     0.012 A 
ATOM     65  C   UNL     1       4.706   2.049  -5.230  1.00  0.00     0.148 A 
ATOM     66  C   UNL     1       4.044   3.523  -7.508  1.00  0.00     0.002 A 
ATOM     67  C   UNL     1       5.203   3.348  -5.415  1.00  0.00     0.091 A 
ATOM     68  F   UNL     1       4.901   1.445  -4.055  1.00  0.00    -0.205 F 
ATOM     69  C   UNL     1       4.880   4.084  -6.559  1.00  0.00     0.022 A 
BRANCH  67  70
ATOM     70  S   UNL     1       6.322   4.147  -4.246  1.00  0.00     0.127 S 
ATOM     71  O   UNL     1       7.499   4.402  -5.078  1.00  0.00    -0.237 OA
ATOM     72  O   UNL     1       5.576   5.345  -3.864  1.00  0.00    -0.237 OA
ATOM     73  O   UNL     1       6.542   3.185  -3.173  1.00  0.00    -0.744 OA
ENDBRANCH  67  70
ENDBRANCH  49  63
BRANCH  50  74
ATOM     74  C   UNL     1       2.276  -8.181  -7.489  1.00  0.00     0.023 A 
ATOM     75  C   UNL     1       3.257  -9.202  -7.607  1.00  0.00     0.012 A 
ATOM     76  C   UNL     1       1.579  -8.076  -6.274  1.00  0.00     0.148 A 
ATOM     77  C   UNL     1       3.620  -9.995  -6.512  1.00  0.00     0.002 A 
ATOM     78  C   UNL     1       1.953  -8.864  -5.187  1.00  0.00     0.091 A 
ATOM     79  F   UNL     1       0.613  -7.157  -6.146  1.00  0.00    -0.205 F 
ATOM     80  C   UNL     1       2.984  -9.807  -5.292  1.00  0.00     0.022 A 
BRANCH  78  81
ATOM     81  S   UNL     1       1.248  -8.524  -3.574  1.00  0.00     0.127 S 
ATOM     82  O   UNL     1       2.161  -9.235  -2.681  1.00  0.00    -0.237 OA
ATOM     83  O   UNL     1       1.326  -7.073  -3.472  1.00  0.00    -0.237 OA
ATOM     84  O   UNL     1      -0.081  -9.114  -3.683  1.00  0.00    -0.744 OA
ENDBRANCH  78  81
ENDBRANCH  50  74
BRANCH  62  85
ATOM     85  C   UNL     1      -1.349  -2.148  -8.092  1.00  0.00     0.023 A 
ATOM     86  C   UNL     1      -2.424  -2.841  -7.503  1.00  0.00     0.012 A 
ATOM     87  C   UNL     1      -1.511  -0.759  -8.301  1.00  0.00     0.148 A 
ATOM     88  C   UNL     1      -3.637  -2.209  -7.223  1.00  0.00     0.002 A 
ATOM     89  C   UNL     1      -2.676  -0.112  -7.907  1.00  0.00     0.091 A 
ATOM     90  F   UNL     1      -0.537  -0.053  -8.896  1.00  0.00    -0.205 F 
ATOM     91  C   UNL     1      -3.758  -0.839  -7.407  1.00  0.00     0.022 A 
BRANCH  89  92
ATOM     92  S   UNL     1      -2.743   1.683  -7.876  1.00  0.00     0.127 S 
ATOM     93  O   UNL     1      -3.164   2.000  -9.237  1.00  0.00    -0.237 OA
ATOM     94  O   UNL     1      -3.752   1.949  -6.848  1.00  0.00    -0.237 OA
ATOM     95  O   UNL     1      -1.394   2.091  -7.502  1.00  0.00    -0.744 OA
ENDBRANCH  89  92
ENDBRANCH  62  85
ENDBRANCH  36  37
ENDBRANCH  29  31
ENDBRANCH  28  29
ENDBRANCH   1  28
TORSDOF 17
