REMARK SMILES COc1ccc(NC(=O)[C@H](CC(=O)OCCOC(=O)c2ccc(-c3c4nc(c(-c5cccc(S(=O)(=O)[O-])c5F)c5ccc([nH]5)c(-c5cccc(S(=O)(=O)[O-])c5F)c5nc(c(-c6cccc(S(=O)(=O)[O-])c6F)c6ccc3[nH]6)C=C5)C=C4)cc2)Cc2ccccc2)cc1
REMARK SMILES IDX 15 1 14 2 12 3 13 4 11 5 10 6 8 7 7 8 9 10 6 11 3 12 4 13
REMARK SMILES IDX 91 14 5 15 90 16 2 17 1 18 83 19 84 20 85 21 89 22 86 23
REMARK SMILES IDX 88 24 87 25 16 26 17 27 18 28 19 29 20 30 21 31 82 32 22 33
REMARK SMILES IDX 81 34 23 35 24 36 25 37 75 38 26 39 80 40 74 41 76 42 27 43
REMARK SMILES IDX 79 44 73 45 72 46 28 48 60 49 40 50 59 51 41 52 44 53 58 54
REMARK SMILES IDX 77 55 42 56 43 57 57 59 78 60 45 61 29 62 30 63 38 64 31 65
REMARK SMILES IDX 33 66 39 67 32 68 34 69 35 70 36 71 37 72 61 73 62 74 70 75
REMARK SMILES IDX 63 76 65 77 71 78 64 79 66 80 67 81 68 82 69 83 46 84 47 85
REMARK SMILES IDX 55 86 48 87 50 88 56 89 49 90 51 91 52 92 53 93 54 94
REMARK H PARENT 7 9 76 47 44 58
REMARK Flexibility Score: inf
ROOT
ATOM      1  C   UNL     1       1.930   9.620  -2.618  1.00  0.00     0.274 C 
ENDROOT
BRANCH   1   2
ATOM      2  O   UNL     1       1.139   8.494  -3.049  1.00  0.00    -0.462 OA
BRANCH   2   3
ATOM      3  C   UNL     1       1.835   7.391  -3.423  1.00  0.00     0.306 C 
ATOM      4  O   UNL     1       3.038   7.368  -3.644  1.00  0.00    -0.252 OA
BRANCH   3   5
ATOM      5  C   UNL     1       0.985   6.141  -3.375  1.00  0.00     0.136 C 
BRANCH   5   6
ATOM      6  C   UNL     1      -0.281   6.155  -4.242  1.00  0.00     0.094 C 
BRANCH   6   7
ATOM      7  C   UNL     1      -0.184   5.052  -5.306  1.00  0.00     0.228 C 
ATOM      8  N   UNL     1       0.790   5.041  -6.264  1.00  0.00    -0.326 N 
ATOM      9  H   UNL     1       0.822   4.204  -6.782  1.00  0.00     0.169 HD
ATOM     10  O   UNL     1      -0.944   4.078  -5.287  1.00  0.00    -0.274 OA
BRANCH   8  11
ATOM     11  C   UNL     1       1.754   5.979  -6.659  1.00  0.00     0.041 A 
ATOM     12  C   UNL     1       3.874   7.697  -7.265  1.00  0.00     0.119 A 
ATOM     13  C   UNL     1       2.664   8.216  -6.818  1.00  0.00     0.048 A 
ATOM     14  C   UNL     1       4.017   6.330  -7.477  1.00  0.00     0.048 A 
ATOM     15  C   UNL     1       1.596   7.358  -6.546  1.00  0.00     0.030 A 
ATOM     16  C   UNL     1       2.948   5.474  -7.194  1.00  0.00     0.030 A 
BRANCH  12  17
ATOM     17  O   UNL     1       4.939   8.544  -7.376  1.00  0.00    -0.497 OA
ATOM     18  C   UNL     1       5.199   8.864  -8.737  1.00  0.00     0.278 C 
ENDBRANCH  12  17
ENDBRANCH   8  11
ENDBRANCH   6   7
BRANCH   6  19
ATOM     19  C   UNL     1      -1.538   5.884  -3.366  1.00  0.00     0.049 C 
BRANCH  19  20
ATOM     20  C   UNL     1      -1.949   6.956  -2.377  1.00  0.00    -0.047 A 
ATOM     21  C   UNL     1      -2.569   6.573  -1.177  1.00  0.00     0.004 A 
ATOM     22  C   UNL     1      -1.795   8.324  -2.632  1.00  0.00     0.004 A 
ATOM     23  C   UNL     1      -2.968   7.528  -0.239  1.00  0.00     0.000 A 
ATOM     24  C   UNL     1      -2.166   9.278  -1.682  1.00  0.00     0.000 A 
ATOM     25  C   UNL     1      -2.750   8.880  -0.484  1.00  0.00     0.000 A 
ENDBRANCH  19  20
ENDBRANCH   6  19
ENDBRANCH   5   6
ENDBRANCH   3   5
ENDBRANCH   2   3
ENDBRANCH   1   2
BRANCH   1  26
ATOM     26  C   UNL     1       2.016   9.636  -1.091  1.00  0.00     0.275 C 
BRANCH  26  27
ATOM     27  O   UNL     1       2.511   8.366  -0.638  1.00  0.00    -0.458 OA
BRANCH  27  28
ATOM     28  C   UNL     1       1.715   7.684   0.215  1.00  0.00     0.338 C 
ATOM     29  O   UNL     1       0.697   8.095   0.758  1.00  0.00    -0.246 OA
BRANCH  28  30
ATOM     30  C   UNL     1       2.252   6.324   0.427  1.00  0.00     0.060 A 
ATOM     31  C   UNL     1       2.902   5.627  -0.596  1.00  0.00     0.016 A 
ATOM     32  C   UNL     1       2.072   5.719   1.670  1.00  0.00     0.016 A 
ATOM     33  C   UNL     1       3.323   4.316  -0.401  1.00  0.00     0.010 A 
ATOM     34  C   UNL     1       2.607   4.453   1.905  1.00  0.00     0.010 A 
ATOM     35  C   UNL     1       3.243   3.743   0.873  1.00  0.00    -0.014 A 
BRANCH  35  36
ATOM     36  C   UNL     1       3.940   2.466   1.169  1.00  0.00     0.031 A 
ATOM     37  C   UNL     1       3.190   1.292   1.724  1.00  0.00     0.074 A 
ATOM     38  C   UNL     1       5.281   2.422   1.030  1.00  0.00     0.049 A 
ATOM     39  N   UNL     1       3.658   0.178   2.223  1.00  0.00    -0.248 NA
ATOM     40  C   UNL     1       1.722   1.391   1.745  1.00  0.00     0.031 C 
ATOM     41  C   UNL     1       6.115   3.518   0.525  1.00  0.00     0.029 A 
ATOM     42  N   UNL     1       6.184   1.434   1.323  1.00  0.00    -0.354 N 
ATOM     43  C   UNL     1       2.552  -0.527   2.682  1.00  0.00     0.074 A 
ATOM     44  C   UNL     1       1.387   0.282   2.392  1.00  0.00     0.031 C 
ATOM     45  C   UNL     1       7.398   3.137   0.523  1.00  0.00     0.029 A 
ATOM     46  C   UNL     1       7.491   1.805   1.102  1.00  0.00     0.049 A 
ATOM     47  H   UNL     1       5.924   0.545   1.659  1.00  0.00     0.167 HD
ATOM     48  C   UNL     1       2.518  -1.740   3.285  1.00  0.00     0.034 A 
ATOM     49  C   UNL     1       8.643   1.165   1.371  1.00  0.00     0.034 A 
ATOM     50  C   UNL     1       3.686  -2.548   3.522  1.00  0.00     0.049 A 
ATOM     51  C   UNL     1       8.575  -0.185   2.018  1.00  0.00     0.074 A 
ATOM     52  C   UNL     1       3.762  -3.817   4.066  1.00  0.00     0.029 A 
ATOM     53  N   UNL     1       4.987  -2.163   3.226  1.00  0.00    -0.354 N 
ATOM     54  N   UNL     1       7.517  -0.873   2.372  1.00  0.00    -0.248 NA
ATOM     55  C   UNL     1       9.853  -0.852   2.292  1.00  0.00     0.031 C 
ATOM     56  C   UNL     1       5.110  -4.193   4.113  1.00  0.00     0.029 A 
ATOM     57  C   UNL     1       5.874  -3.165   3.582  1.00  0.00     0.049 A 
ATOM     58  H   UNL     1       5.242  -1.302   2.822  1.00  0.00     0.167 HD
ATOM     59  C   UNL     1       7.997  -2.066   2.893  1.00  0.00     0.074 A 
ATOM     60  C   UNL     1       9.443  -2.014   2.785  1.00  0.00     0.031 C 
ATOM     61  C   UNL     1       7.307  -3.103   3.428  1.00  0.00     0.034 A 
BRANCH  48  62
ATOM     62  C   UNL     1       1.172  -2.271   3.708  1.00  0.00     0.023 A 
ATOM     63  C   UNL     1       0.257  -2.717   2.732  1.00  0.00     0.012 A 
ATOM     64  C   UNL     1       0.818  -2.356   5.070  1.00  0.00     0.148 A 
ATOM     65  C   UNL     1      -1.000  -3.199   3.100  1.00  0.00     0.002 A 
ATOM     66  C   UNL     1      -0.421  -2.876   5.431  1.00  0.00     0.091 A 
ATOM     67  F   UNL     1       1.685  -1.905   5.988  1.00  0.00    -0.205 F 
ATOM     68  C   UNL     1      -1.335  -3.287   4.449  1.00  0.00     0.022 A 
BRANCH  66  69
ATOM     69  S   UNL     1      -0.904  -3.091   7.149  1.00  0.00     0.127 S 
ATOM     70  O   UNL     1      -1.752  -1.921   7.369  1.00  0.00    -0.237 OA
ATOM     71  O   UNL     1      -1.623  -4.366   7.117  1.00  0.00    -0.237 OA
ATOM     72  O   UNL     1       0.340  -3.124   7.905  1.00  0.00    -0.744 OA
ENDBRANCH  66  69
ENDBRANCH  48  62
BRANCH  49  73
ATOM     73  C   UNL     1       9.936   1.786   0.967  1.00  0.00     0.023 A 
ATOM     74  C   UNL     1      10.636   1.246  -0.128  1.00  0.00     0.012 A 
ATOM     75  C   UNL     1      10.416   2.962   1.578  1.00  0.00     0.148 A 
ATOM     76  C   UNL     1      11.794   1.861  -0.604  1.00  0.00     0.002 A 
ATOM     77  C   UNL     1      11.538   3.601   1.063  1.00  0.00     0.091 A 
ATOM     78  F   UNL     1       9.740   3.455   2.626  1.00  0.00    -0.205 F 
ATOM     79  C   UNL     1      12.236   3.045  -0.021  1.00  0.00     0.022 A 
BRANCH  77  80
ATOM     80  S   UNL     1      12.091   5.207   1.652  1.00  0.00     0.127 S 
ATOM     81  O   UNL     1      13.335   4.863   2.335  1.00  0.00    -0.237 OA
ATOM     82  O   UNL     1      12.260   5.947   0.400  1.00  0.00    -0.237 OA
ATOM     83  O   UNL     1      11.018   5.705   2.502  1.00  0.00    -0.744 OA
ENDBRANCH  77  80
ENDBRANCH  49  73
BRANCH  61  84
ATOM     84  C   UNL     1       8.112  -4.274   3.921  1.00  0.00     0.023 A 
ATOM     85  C   UNL     1       8.827  -4.167   5.130  1.00  0.00     0.012 A 
ATOM     86  C   UNL     1       8.117  -5.492   3.215  1.00  0.00     0.148 A 
ATOM     87  C   UNL     1       9.561  -5.248   5.614  1.00  0.00     0.002 A 
ATOM     88  C   UNL     1       8.815  -6.579   3.726  1.00  0.00     0.091 A 
ATOM     89  F   UNL     1       7.451  -5.562   2.053  1.00  0.00    -0.205 F 
ATOM     90  C   UNL     1       9.546  -6.456   4.920  1.00  0.00     0.022 A 
BRANCH  88  91
ATOM     91  S   UNL     1       8.779  -8.194   2.941  1.00  0.00     0.127 S 
ATOM     92  O   UNL     1      10.094  -8.246   2.305  1.00  0.00    -0.237 OA
ATOM     93  O   UNL     1       8.617  -9.093   4.084  1.00  0.00    -0.237 OA
ATOM     94  O   UNL     1       7.641  -8.168   2.032  1.00  0.00    -0.744 OA
ENDBRANCH  88  91
ENDBRANCH  61  84
ENDBRANCH  35  36
ENDBRANCH  28  30
ENDBRANCH  27  28
ENDBRANCH  26  27
ENDBRANCH   1  26
TORSDOF 20
