REMARK SMILES Cc1cc(C[N@H+]2CC[C@@H](C(=O)OCCOC(=O)c3ccc(-c4c5nc(c(-c6cccc(S(=O)(=O)[O-])c6F)c6ccc([nH]6)c(-c6cccc(S(=O)(=O)[O-])c6F)c6nc(c(-c7cccc(S(=O)(=O)[O-])c7F)c7ccc4[nH]7)C=C6)C=C5)cc3)[C@@H]2C)ccc1Br
REMARK SMILES IDX 14 1 13 2 12 3 10 4 11 5 9 6 6 7 7 8 81 9 8 11 82 12 5 13
REMARK SMILES IDX 4 14 1 15 2 16 3 17 85 18 84 19 86 20 83 21 15 22 16 23
REMARK SMILES IDX 17 24 18 25 19 26 80 27 20 28 79 29 21 30 22 31 23 32 73 33
REMARK SMILES IDX 24 34 78 35 72 36 74 37 25 38 77 39 71 40 70 41 26 43 58 44
REMARK SMILES IDX 38 45 57 46 39 47 42 48 56 49 75 50 40 51 41 52 55 54 76 55
REMARK SMILES IDX 43 56 27 57 28 58 36 59 29 60 31 61 37 62 30 63 32 64 33 65
REMARK SMILES IDX 34 66 35 67 59 68 60 69 68 70 61 71 63 72 69 73 62 74 64 75
REMARK SMILES IDX 65 76 66 77 67 78 44 79 45 80 53 81 46 82 48 83 54 84 47 85
REMARK SMILES IDX 49 86 50 87 51 88 52 89
REMARK H PARENT 6 10 74 42 42 53
REMARK Flexibility Score: inf
ROOT
ATOM      1  C   UNL     1       0.213   4.308  -0.407  1.00  0.00     0.275 C 
ENDROOT
BRANCH   1   2
ATOM      2  C   UNL     1       0.166   3.014  -1.223  1.00  0.00     0.274 C 
BRANCH   2   3
ATOM      3  O   UNL     1       1.496   2.470  -1.358  1.00  0.00    -0.462 OA
BRANCH   3   4
ATOM      4  C   UNL     1       2.027   2.415  -2.601  1.00  0.00     0.315 C 
ATOM      5  O   UNL     1       1.421   2.705  -3.626  1.00  0.00    -0.252 OA
BRANCH   4   6
ATOM      6  C   UNL     1       3.454   1.901  -2.642  1.00  0.00     0.162 C 
ATOM      7  N   UNL     1       4.954   0.776  -1.119  1.00  0.00    -0.328 N 
ATOM      8  C   UNL     1       4.742  -0.069  -2.289  1.00  0.00     0.263 C 
ATOM      9  C   UNL     1       4.324   2.087  -1.386  1.00  0.00     0.195 C 
ATOM     10  H   UNL     1       5.958   0.907  -0.995  1.00  0.00     0.348 HD
ATOM     11  C   UNL     1       3.452   0.408  -2.918  1.00  0.00     0.083 C 
ATOM     12  C   UNL     1       5.462   3.091  -1.616  1.00  0.00     0.076 C 
BRANCH   7  13
ATOM     13  C   UNL     1       4.622   0.173   0.176  1.00  0.00     0.299 C 
BRANCH  13  14
ATOM     14  C   UNL     1       3.158  -0.056   0.492  1.00  0.00     0.007 A 
ATOM     15  C   UNL     1       0.476  -2.682  -0.165  1.00  0.00     0.045 C 
ATOM     16  C   UNL     1       1.127  -1.419   0.322  1.00  0.00    -0.036 A 
ATOM     17  C   UNL     1       2.502  -1.229   0.090  1.00  0.00     0.014 A 
ATOM     18  C   UNL     1       0.407  -0.395   0.954  1.00  0.00     0.020 A 
ATOM     19  C   UNL     1       1.058   0.754   1.405  1.00  0.00     0.016 A 
ATOM     20  Br  UNL     1      -1.474  -0.483   1.198  1.00  0.00    -0.051 Br
ATOM     21  C   UNL     1       2.425   0.916   1.185  1.00  0.00     0.011 A 
ENDBRANCH  13  14
ENDBRANCH   7  13
ENDBRANCH   4   6
ENDBRANCH   3   4
ENDBRANCH   2   3
ENDBRANCH   1   2
BRANCH   1  22
ATOM     22  O   UNL     1       0.752   5.369  -1.209  1.00  0.00    -0.458 OA
BRANCH  22  23
ATOM     23  C   UNL     1       2.101   5.468  -1.208  1.00  0.00     0.338 C 
ATOM     24  O   UNL     1       2.891   4.885  -0.486  1.00  0.00    -0.246 OA
BRANCH  23  25
ATOM     25  C   UNL     1       2.486   6.266  -2.375  1.00  0.00     0.060 A 
ATOM     26  C   UNL     1       3.194   5.644  -3.408  1.00  0.00     0.016 A 
ATOM     27  C   UNL     1       2.138   7.611  -2.454  1.00  0.00     0.016 A 
ATOM     28  C   UNL     1       3.567   6.362  -4.535  1.00  0.00     0.010 A 
ATOM     29  C   UNL     1       2.502   8.330  -3.587  1.00  0.00     0.010 A 
ATOM     30  C   UNL     1       3.223   7.710  -4.625  1.00  0.00    -0.014 A 
BRANCH  30  31
ATOM     31  C   UNL     1       3.660   8.522  -5.774  1.00  0.00     0.031 A 
ATOM     32  C   UNL     1       4.715   9.558  -5.550  1.00  0.00     0.074 A 
ATOM     33  C   UNL     1       3.041   8.389  -6.959  1.00  0.00     0.049 A 
ATOM     34  N   UNL     1       5.076  10.547  -6.318  1.00  0.00    -0.248 NA
ATOM     35  C   UNL     1       5.445   9.481  -4.272  1.00  0.00     0.031 C 
ATOM     36  C   UNL     1       2.021   7.386  -7.271  1.00  0.00     0.029 A 
ATOM     37  N   UNL     1       3.139   9.139  -8.101  1.00  0.00    -0.354 N 
ATOM     38  C   UNL     1       6.024  11.255  -5.591  1.00  0.00     0.074 A 
ATOM     39  C   UNL     1       6.193  10.573  -4.327  1.00  0.00     0.031 C 
ATOM     40  C   UNL     1       1.548   7.617  -8.506  1.00  0.00     0.029 A 
ATOM     41  C   UNL     1       2.191   8.812  -9.042  1.00  0.00     0.049 A 
ATOM     42  H   UNL     1       3.818   9.840  -8.235  1.00  0.00     0.167 HD
ATOM     43  C   UNL     1       6.683  12.379  -5.953  1.00  0.00     0.034 A 
ATOM     44  C   UNL     1       1.843   9.446 -10.178  1.00  0.00     0.034 A 
ATOM     45  C   UNL     1       6.505  13.021  -7.225  1.00  0.00     0.049 A 
ATOM     46  C   UNL     1       2.583  10.701 -10.556  1.00  0.00     0.074 A 
ATOM     47  C   UNL     1       7.155  14.133  -7.727  1.00  0.00     0.029 A 
ATOM     48  N   UNL     1       5.597  12.613  -8.193  1.00  0.00    -0.354 N 
ATOM     49  N   UNL     1       3.537  11.322  -9.903  1.00  0.00    -0.248 NA
ATOM     50  C   UNL     1       2.222  11.329 -11.833  1.00  0.00     0.031 C 
ATOM     51  C   UNL     1       6.614  14.418  -8.984  1.00  0.00     0.029 A 
ATOM     52  C   UNL     1       5.661  13.456  -9.286  1.00  0.00     0.049 A 
ATOM     53  H   UNL     1       4.997  11.837  -8.112  1.00  0.00     0.167 HD
ATOM     54  C   UNL     1       3.922  12.387 -10.708  1.00  0.00     0.074 A 
ATOM     55  C   UNL     1       3.098  12.325 -11.899  1.00  0.00     0.031 C 
ATOM     56  C   UNL     1       4.868  13.332 -10.483  1.00  0.00     0.034 A 
BRANCH  43  57
ATOM     57  C   UNL     1       7.637  12.982  -4.958  1.00  0.00     0.023 A 
ATOM     58  C   UNL     1       8.847  12.328  -4.651  1.00  0.00     0.012 A 
ATOM     59  C   UNL     1       7.343  14.215  -4.344  1.00  0.00     0.148 A 
ATOM     60  C   UNL     1       9.731  12.871  -3.719  1.00  0.00     0.002 A 
ATOM     61  C   UNL     1       8.252  14.775  -3.454  1.00  0.00     0.091 A 
ATOM     62  F   UNL     1       6.175  14.809  -4.626  1.00  0.00    -0.205 F 
ATOM     63  C   UNL     1       9.438  14.098  -3.129  1.00  0.00     0.022 A 
BRANCH  61  64
ATOM     64  S   UNL     1       8.001  16.387  -2.704  1.00  0.00     0.127 S 
ATOM     65  O   UNL     1       7.732  16.027  -1.312  1.00  0.00    -0.237 OA
ATOM     66  O   UNL     1       9.295  17.033  -2.926  1.00  0.00    -0.237 OA
ATOM     67  O   UNL     1       6.888  16.996  -3.419  1.00  0.00    -0.744 OA
ENDBRANCH  61  64
ENDBRANCH  43  57
BRANCH  44  68
ATOM     68  C   UNL     1       0.757   8.892 -11.033  1.00  0.00     0.023 A 
ATOM     69  C   UNL     1       1.083   8.314 -12.275  1.00  0.00     0.012 A 
ATOM     70  C   UNL     1      -0.585   8.884 -10.602  1.00  0.00     0.148 A 
ATOM     71  C   UNL     1       0.089   7.761 -13.083  1.00  0.00     0.002 A 
ATOM     72  C   UNL     1      -1.561   8.284 -11.387  1.00  0.00     0.091 A 
ATOM     73  F   UNL     1      -0.874   9.446  -9.419  1.00  0.00    -0.205 F 
ATOM     74  C   UNL     1      -1.229   7.736 -12.636  1.00  0.00     0.022 A 
BRANCH  72  75
ATOM     75  S   UNL     1      -3.262   8.092 -10.841  1.00  0.00     0.127 S 
ATOM     76  O   UNL     1      -3.975   8.966 -11.770  1.00  0.00    -0.237 OA
ATOM     77  O   UNL     1      -3.485   6.661 -11.050  1.00  0.00    -0.237 OA
ATOM     78  O   UNL     1      -3.280   8.508  -9.446  1.00  0.00    -0.744 OA
ENDBRANCH  72  75
ENDBRANCH  44  68
BRANCH  56  79
ATOM     79  C   UNL     1       5.125  14.340 -11.570  1.00  0.00     0.023 A 
ATOM     80  C   UNL     1       4.215  15.390 -11.793  1.00  0.00     0.012 A 
ATOM     81  C   UNL     1       6.340  14.306 -12.284  1.00  0.00     0.148 A 
ATOM     82  C   UNL     1       4.505  16.386 -12.725  1.00  0.00     0.002 A 
ATOM     83  C   UNL     1       6.645  15.330 -13.169  1.00  0.00     0.091 A 
ATOM     84  F   UNL     1       7.181  13.285 -12.064  1.00  0.00    -0.205 F 
ATOM     85  C   UNL     1       5.724  16.365 -13.400  1.00  0.00     0.022 A 
BRANCH  83  86
ATOM     86  S   UNL     1       8.234  15.444 -13.998  1.00  0.00     0.127 S 
ATOM     87  O   UNL     1       7.861  15.203 -15.392  1.00  0.00    -0.237 OA
ATOM     88  O   UNL     1       8.637  16.819 -13.703  1.00  0.00    -0.237 OA
ATOM     89  O   UNL     1       9.079  14.421 -13.398  1.00  0.00    -0.744 OA
ENDBRANCH  83  86
ENDBRANCH  56  79
ENDBRANCH  30  31
ENDBRANCH  23  25
ENDBRANCH  22  23
ENDBRANCH   1  22
TORSDOF 16
