REMARK SMILES C[C@@H](C(=O)OCCOC(=O)c1ccc(-c2c3nc(c(-c4cccc(S(=O)(=O)[O-])c4F)c4ccc([nH]4)c(-c4cccc(S(=O)(=O)[O-])c4F)c4nc(c(-c5cccc(S(=O)(=O)[O-])c5F)c5ccc2[nH]5)C=C4)C=C3)cc1)N1C(=O)/C(=C/c2ccc(N(C)C)cc2)SC1=S
REMARK SMILES IDX 6 1 5 2 3 3 4 4 2 5 1 6 74 7 75 8 89 9 76 10 77 11 88 12
REMARK SMILES IDX 90 13 78 14 79 15 80 16 87 17 81 18 86 19 82 20 83 21 84 22
REMARK SMILES IDX 85 23 7 24 8 25 9 26 10 27 11 28 12 29 73 30 13 31 72 32
REMARK SMILES IDX 14 33 15 34 16 35 66 36 17 37 71 38 65 39 67 40 18 41 70 42
REMARK SMILES IDX 64 43 63 44 19 46 51 47 31 48 50 49 32 50 35 51 49 52 68 53
REMARK SMILES IDX 33 54 34 55 48 57 69 58 36 59 20 60 21 61 29 62 22 63 24 64
REMARK SMILES IDX 30 65 23 66 25 67 26 68 27 69 28 70 52 71 53 72 61 73 54 74
REMARK SMILES IDX 56 75 62 76 55 77 57 78 58 79 59 80 60 81 37 82 38 83 46 84
REMARK SMILES IDX 39 85 41 86 47 87 40 88 42 89 43 90 44 91 45 92
REMARK H PARENT 67 45 35 56
REMARK Flexibility Score: inf
ROOT
ATOM      1  C   UNL     1       2.723  -2.102  -2.993  1.00  0.00     0.274 C 
ENDROOT
BRANCH   1   2
ATOM      2  O   UNL     1       2.299  -1.178  -1.969  1.00  0.00    -0.461 OA
BRANCH   2   3
ATOM      3  C   UNL     1       1.188  -0.432  -2.232  1.00  0.00     0.329 C 
ATOM      4  O   UNL     1       0.563  -0.469  -3.286  1.00  0.00    -0.250 OA
BRANCH   3   5
ATOM      5  C   UNL     1       0.896   0.582  -1.114  1.00  0.00     0.199 C 
ATOM      6  C   UNL     1       1.441   0.177   0.255  1.00  0.00     0.044 C 
BRANCH   5   7
ATOM      7  N   UNL     1      -0.551   0.906  -1.112  1.00  0.00    -0.279 N 
ATOM      8  C   UNL     1      -1.462   0.026  -0.550  1.00  0.00     0.266 C 
ATOM      9  C   UNL     1      -1.095   2.003  -1.754  1.00  0.00     0.149 C 
ATOM     10  O   UNL     1      -1.180  -1.011   0.033  1.00  0.00    -0.268 OA
ATOM     11  C   UNL     1      -2.862   0.483  -0.784  1.00  0.00     0.081 C 
ATOM     12  S   UNL     1      -2.847   1.981  -1.613  1.00  0.00    -0.054 SA
ATOM     13  S   UNL     1      -0.299   3.244  -2.539  1.00  0.00    -0.052 S 
ATOM     14  C   UNL     1      -3.913  -0.256  -0.396  1.00  0.00     0.029 C 
BRANCH  14  15
ATOM     15  C   UNL     1      -5.351  -0.039  -0.638  1.00  0.00    -0.024 A 
ATOM     16  C   UNL     1      -6.271  -0.411   0.343  1.00  0.00     0.010 A 
ATOM     17  C   UNL     1      -5.859   0.392  -1.863  1.00  0.00     0.010 A 
ATOM     18  C   UNL     1      -7.654  -0.306   0.117  1.00  0.00     0.026 A 
ATOM     19  C   UNL     1      -7.244   0.504  -2.073  1.00  0.00     0.026 A 
ATOM     20  C   UNL     1      -8.188   0.168  -1.091  1.00  0.00     0.036 A 
BRANCH  20  21
ATOM     21  N   UNL     1      -9.552   0.273  -1.313  1.00  0.00    -0.378 N 
ATOM     22  C   UNL     1     -10.533  -0.060  -0.281  1.00  0.00     0.143 C 
ATOM     23  C   UNL     1     -10.083   0.852  -2.538  1.00  0.00     0.143 C 
ENDBRANCH  20  21
ENDBRANCH  14  15
ENDBRANCH   5   7
ENDBRANCH   3   5
ENDBRANCH   2   3
ENDBRANCH   1   2
BRANCH   1  24
ATOM     24  C   UNL     1       2.302  -3.526  -2.643  1.00  0.00     0.275 C 
BRANCH  24  25
ATOM     25  O   UNL     1       0.874  -3.628  -2.744  1.00  0.00    -0.458 OA
BRANCH  25  26
ATOM     26  C   UNL     1       0.218  -3.958  -1.607  1.00  0.00     0.338 C 
ATOM     27  O   UNL     1       0.713  -4.244  -0.532  1.00  0.00    -0.246 OA
BRANCH  26  28
ATOM     28  C   UNL     1      -1.234  -3.952  -1.870  1.00  0.00     0.060 A 
ATOM     29  C   UNL     1      -1.836  -2.845  -2.464  1.00  0.00     0.016 A 
ATOM     30  C   UNL     1      -2.018  -5.019  -1.432  1.00  0.00     0.016 A 
ATOM     31  C   UNL     1      -3.227  -2.759  -2.513  1.00  0.00     0.010 A 
ATOM     32  C   UNL     1      -3.411  -4.967  -1.574  1.00  0.00     0.010 A 
ATOM     33  C   UNL     1      -4.043  -3.810  -2.060  1.00  0.00    -0.014 A 
BRANCH  33  34
ATOM     34  C   UNL     1      -5.535  -3.660  -2.029  1.00  0.00     0.031 A 
ATOM     35  C   UNL     1      -6.309  -3.885  -0.748  1.00  0.00     0.074 A 
ATOM     36  C   UNL     1      -6.213  -3.263  -3.126  1.00  0.00     0.049 A 
ATOM     37  N   UNL     1      -7.605  -3.928  -0.560  1.00  0.00    -0.248 NA
ATOM     38  C   UNL     1      -5.529  -4.105   0.482  1.00  0.00     0.031 C 
ATOM     39  C   UNL     1      -5.617  -2.965  -4.428  1.00  0.00     0.029 A 
ATOM     40  N   UNL     1      -7.552  -3.006  -3.314  1.00  0.00    -0.354 N 
ATOM     41  C   UNL     1      -7.793  -4.225   0.784  1.00  0.00     0.074 A 
ATOM     42  C   UNL     1      -6.478  -4.377   1.367  1.00  0.00     0.031 C 
ATOM     43  C   UNL     1      -6.561  -2.482  -5.247  1.00  0.00     0.029 A 
ATOM     44  C   UNL     1      -7.854  -2.537  -4.572  1.00  0.00     0.049 A 
ATOM     45  H   UNL     1      -8.230  -3.146  -2.615  1.00  0.00     0.167 HD
ATOM     46  C   UNL     1      -8.949  -4.331   1.484  1.00  0.00     0.034 A 
ATOM     47  C   UNL     1      -9.033  -2.204  -5.137  1.00  0.00     0.034 A 
ATOM     48  C   UNL     1     -10.260  -4.082   0.943  1.00  0.00     0.049 A 
ATOM     49  C   UNL     1     -10.305  -2.373  -4.354  1.00  0.00     0.074 A 
ATOM     50  C   UNL     1     -11.480  -4.135   1.597  1.00  0.00     0.029 A 
ATOM     51  N   UNL     1     -10.526  -3.700  -0.363  1.00  0.00    -0.354 N 
ATOM     52  N   UNL     1     -10.469  -2.770  -3.118  1.00  0.00    -0.248 NA
ATOM     53  C   UNL     1     -11.559  -2.039  -5.047  1.00  0.00     0.031 C 
ATOM     54  C   UNL     1     -12.483  -3.778   0.690  1.00  0.00     0.029 A 
ATOM     55  C   UNL     1     -11.886  -3.477  -0.522  1.00  0.00     0.049 A 
ATOM     56  H   UNL     1      -9.850  -3.601  -1.072  1.00  0.00     0.167 HD
ATOM     57  C   UNL     1     -11.834  -2.700  -2.869  1.00  0.00     0.074 A 
ATOM     58  C   UNL     1     -12.455  -2.218  -4.086  1.00  0.00     0.031 C 
ATOM     59  C   UNL     1     -12.507  -3.005  -1.733  1.00  0.00     0.034 A 
BRANCH  46  60
ATOM     60  C   UNL     1      -8.857  -4.691   2.944  1.00  0.00     0.023 A 
ATOM     61  C   UNL     1      -8.445  -3.721   3.880  1.00  0.00     0.012 A 
ATOM     62  C   UNL     1      -9.260  -5.962   3.399  1.00  0.00     0.148 A 
ATOM     63  C   UNL     1      -8.415  -4.018   5.242  1.00  0.00     0.002 A 
ATOM     64  C   UNL     1      -9.268  -6.237   4.762  1.00  0.00     0.091 A 
ATOM     65  F   UNL     1      -9.626  -6.880   2.493  1.00  0.00    -0.205 F 
ATOM     66  C   UNL     1      -8.838  -5.269   5.684  1.00  0.00     0.022 A 
BRANCH  64  67
ATOM     67  S   UNL     1      -9.881  -7.792   5.420  1.00  0.00     0.127 S 
ATOM     68  O   UNL     1      -8.637  -8.503   5.710  1.00  0.00    -0.237 OA
ATOM     69  O   UNL     1     -10.626  -7.361   6.604  1.00  0.00    -0.237 OA
ATOM     70  O   UNL     1     -10.708  -8.367   4.367  1.00  0.00    -0.744 OA
ENDBRANCH  64  67
ENDBRANCH  46  60
BRANCH  47  71
ATOM     71  C   UNL     1      -9.047  -1.622  -6.512  1.00  0.00     0.023 A 
ATOM     72  C   UNL     1      -9.399  -0.269  -6.686  1.00  0.00     0.012 A 
ATOM     73  C   UNL     1      -8.635  -2.368  -7.631  1.00  0.00     0.148 A 
ATOM     74  C   UNL     1      -9.340   0.327  -7.947  1.00  0.00     0.002 A 
ATOM     75  C   UNL     1      -8.503  -1.748  -8.868  1.00  0.00     0.091 A 
ATOM     76  F   UNL     1      -8.343  -3.667  -7.464  1.00  0.00    -0.205 F 
ATOM     77  C   UNL     1      -8.870  -0.405  -9.034  1.00  0.00     0.022 A 
BRANCH  75  78
ATOM     78  S   UNL     1      -7.713  -2.588 -10.246  1.00  0.00     0.127 S 
ATOM     79  O   UNL     1      -8.860  -3.124 -10.972  1.00  0.00    -0.237 OA
ATOM     80  O   UNL     1      -7.011  -1.496 -10.921  1.00  0.00    -0.237 OA
ATOM     81  O   UNL     1      -6.826  -3.565  -9.627  1.00  0.00    -0.744 OA
ENDBRANCH  75  78
ENDBRANCH  47  71
BRANCH  59  82
ATOM     82  C   UNL     1     -14.002  -2.817  -1.739  1.00  0.00     0.023 A 
ATOM     83  C   UNL     1     -14.816  -3.723  -2.446  1.00  0.00     0.012 A 
ATOM     84  C   UNL     1     -14.604  -1.771  -1.011  1.00  0.00     0.148 A 
ATOM     85  C   UNL     1     -16.203  -3.570  -2.458  1.00  0.00     0.002 A 
ATOM     86  C   UNL     1     -15.988  -1.647  -0.996  1.00  0.00     0.091 A 
ATOM     87  F   UNL     1     -13.813  -0.913  -0.352  1.00  0.00    -0.205 F 
ATOM     88  C   UNL     1     -16.789  -2.538  -1.727  1.00  0.00     0.022 A 
BRANCH  86  89
ATOM     89  S   UNL     1     -16.833  -0.390  -0.030  1.00  0.00     0.127 S 
ATOM     90  O   UNL     1     -17.345   0.494  -1.077  1.00  0.00    -0.237 OA
ATOM     91  O   UNL     1     -17.857  -1.170   0.665  1.00  0.00    -0.237 OA
ATOM     92  O   UNL     1     -15.822   0.196   0.839  1.00  0.00    -0.744 OA
ENDBRANCH  86  89
ENDBRANCH  59  82
ENDBRANCH  33  34
ENDBRANCH  26  28
ENDBRANCH  25  26
ENDBRANCH  24  25
ENDBRANCH   1  24
TORSDOF 17
