REMARK SMILES CCC(CC)([NH2+]Cc1ccc(I)cc1)C(=O)OCCOC(=O)c1ccc(-c2c3nc(c(-c4cccc(S(=O)(=O)[O-])c4F)c4ccc([nH]4)c(-c4cccc(S(=O)(=O)[O-])c4F)c4nc(c(-c5cccc(S(=O)(=O)[O-])c5F)c5ccc2[nH]5)C=C4)C=C3)cc1
REMARK SMILES IDX 18 1 17 2 15 3 16 4 3 5 2 6 1 7 4 8 5 9 6 10 7 13 8 14 9 15
REMARK SMILES IDX 14 16 10 17 13 18 11 19 12 20 19 21 20 22 21 23 22 24 23 25
REMARK SMILES IDX 24 26 85 27 25 28 84 29 26 30 27 31 28 32 78 33 29 34 83 35
REMARK SMILES IDX 77 36 79 37 30 38 82 39 76 40 75 41 31 43 63 44 43 45 62 46
REMARK SMILES IDX 44 47 47 48 61 49 80 50 45 51 46 52 60 54 81 55 48 56 32 57
REMARK SMILES IDX 33 58 41 59 34 60 36 61 42 62 35 63 37 64 38 65 39 66 40 67
REMARK SMILES IDX 64 68 65 69 73 70 66 71 68 72 74 73 67 74 69 75 70 76 71 77
REMARK SMILES IDX 72 78 49 79 50 80 58 81 51 82 53 83 59 84 52 85 54 86 55 87
REMARK SMILES IDX 56 88 57 89
REMARK H PARENT 6 11 6 12 79 42 47 53
REMARK Flexibility Score: inf
ROOT
ATOM      1  C   UNL     1       4.427  -1.628  -2.850  1.00  0.00     0.274 C 
ENDROOT
BRANCH   1   2
ATOM      2  O   UNL     1       2.985  -1.552  -2.930  1.00  0.00    -0.457 OA
BRANCH   2   3
ATOM      3  C   UNL     1       2.293  -1.523  -1.760  1.00  0.00     0.368 C 
ATOM      4  O   UNL     1       2.847  -1.547  -0.664  1.00  0.00    -0.245 OA
BRANCH   3   5
ATOM      5  C   UNL     1       0.734  -1.539  -1.917  1.00  0.00     0.194 C 
BRANCH   5   6
ATOM      6  C   UNL     1       0.126  -0.266  -1.233  1.00  0.00     0.077 C 
ATOM      7  C   UNL     1       0.401  -0.064   0.256  1.00  0.00     0.011 C 
ENDBRANCH   5   6
BRANCH   5   8
ATOM      8  C   UNL     1       0.235  -2.814  -1.178  1.00  0.00     0.077 C 
ATOM      9  C   UNL     1      -1.272  -2.924  -0.964  1.00  0.00     0.011 C 
ENDBRANCH   5   8
BRANCH   5  10
ATOM     10  N   UNL     1       0.236  -1.389  -3.324  1.00  0.00    -0.328 N 
ATOM     11  H   UNL     1       0.482  -0.441  -3.608  1.00  0.00     0.347 HD
ATOM     12  H   UNL     1      -0.743  -1.655  -3.222  1.00  0.00     0.347 HD
BRANCH  10  13
ATOM     13  C   UNL     1       0.660  -2.258  -4.418  1.00  0.00     0.298 C 
BRANCH  13  14
ATOM     14  C   UNL     1       0.337  -3.718  -4.252  1.00  0.00     0.006 A 
ATOM     15  C   UNL     1      -0.991  -4.147  -4.114  1.00  0.00     0.010 A 
ATOM     16  C   UNL     1       1.370  -4.664  -4.173  1.00  0.00     0.010 A 
ATOM     17  C   UNL     1      -1.277  -5.475  -3.796  1.00  0.00     0.015 A 
ATOM     18  C   UNL     1       1.085  -5.998  -3.879  1.00  0.00     0.015 A 
ATOM     19  C   UNL     1      -0.235  -6.392  -3.665  1.00  0.00     0.013 A 
ATOM     20  I   UNL     1      -0.652  -8.349  -3.106  1.00  0.00    -0.044 I 
ENDBRANCH  13  14
ENDBRANCH  10  13
ENDBRANCH   5  10
ENDBRANCH   3   5
ENDBRANCH   2   3
ENDBRANCH   1   2
BRANCH   1  21
ATOM     21  C   UNL     1       5.038  -0.358  -3.433  1.00  0.00     0.275 C 
BRANCH  21  22
ATOM     22  O   UNL     1       4.627   0.736  -2.605  1.00  0.00    -0.458 OA
BRANCH  22  23
ATOM     23  C   UNL     1       4.517   1.941  -3.212  1.00  0.00     0.338 C 
ATOM     24  O   UNL     1       4.915   2.241  -4.322  1.00  0.00    -0.246 OA
BRANCH  23  25
ATOM     25  C   UNL     1       3.770   2.841  -2.304  1.00  0.00     0.060 A 
ATOM     26  C   UNL     1       2.682   2.337  -1.593  1.00  0.00     0.016 A 
ATOM     27  C   UNL     1       4.092   4.191  -2.203  1.00  0.00     0.016 A 
ATOM     28  C   UNL     1       1.880   3.179  -0.827  1.00  0.00     0.010 A 
ATOM     29  C   UNL     1       3.336   5.022  -1.362  1.00  0.00     0.010 A 
ATOM     30  C   UNL     1       2.202   4.533  -0.685  1.00  0.00    -0.014 A 
BRANCH  30  31
ATOM     31  C   UNL     1       1.314   5.430   0.111  1.00  0.00     0.031 A 
ATOM     32  C   UNL     1       0.662   6.620  -0.545  1.00  0.00     0.074 A 
ATOM     33  C   UNL     1       1.056   5.177   1.412  1.00  0.00     0.049 A 
ATOM     34  N   UNL     1      -0.023   7.593  -0.001  1.00  0.00    -0.248 NA
ATOM     35  C   UNL     1       0.806   6.735  -2.006  1.00  0.00     0.031 C 
ATOM     36  C   UNL     1       1.588   4.051   2.182  1.00  0.00     0.029 A 
ATOM     37  N   UNL     1       0.279   5.857   2.321  1.00  0.00    -0.354 N 
ATOM     38  C   UNL     1      -0.327   8.469  -1.035  1.00  0.00     0.074 A 
ATOM     39  C   UNL     1       0.240   7.910  -2.243  1.00  0.00     0.031 C 
ATOM     40  C   UNL     1       1.108   4.105   3.434  1.00  0.00     0.029 A 
ATOM     41  C   UNL     1       0.289   5.304   3.582  1.00  0.00     0.049 A 
ATOM     42  H   UNL     1      -0.237   6.663   2.091  1.00  0.00     0.167 HD
ATOM     43  C   UNL     1      -1.029   9.627  -0.993  1.00  0.00     0.034 A 
ATOM     44  C   UNL     1      -0.267   5.727   4.736  1.00  0.00     0.034 A 
ATOM     45  C   UNL     1      -1.666  10.152   0.184  1.00  0.00     0.049 A 
ATOM     46  C   UNL     1      -1.061   7.005   4.750  1.00  0.00     0.074 A 
ATOM     47  C   UNL     1      -2.398  11.320   0.318  1.00  0.00     0.029 A 
ATOM     48  N   UNL     1      -1.672   9.534   1.424  1.00  0.00    -0.354 N 
ATOM     49  N   UNL     1      -1.353   7.807   3.755  1.00  0.00    -0.248 NA
ATOM     50  C   UNL     1      -1.613   7.431   6.045  1.00  0.00     0.031 C 
ATOM     51  C   UNL     1      -2.854  11.403   1.638  1.00  0.00     0.029 A 
ATOM     52  C   UNL     1      -2.407  10.287   2.325  1.00  0.00     0.049 A 
ATOM     53  H   UNL     1      -1.220   8.685   1.634  1.00  0.00     0.167 HD
ATOM     54  C   UNL     1      -2.126   8.826   4.302  1.00  0.00     0.074 A 
ATOM     55  C   UNL     1      -2.296   8.515   5.706  1.00  0.00     0.031 C 
ATOM     56  C   UNL     1      -2.618   9.939   3.705  1.00  0.00     0.034 A 
BRANCH  43  57
ATOM     57  C   UNL     1      -1.179  10.394  -2.278  1.00  0.00     0.023 A 
ATOM     58  C   UNL     1      -2.105   9.954  -3.245  1.00  0.00     0.012 A 
ATOM     59  C   UNL     1      -0.447  11.575  -2.506  1.00  0.00     0.148 A 
ATOM     60  C   UNL     1      -2.283  10.665  -4.430  1.00  0.00     0.002 A 
ATOM     61  C   UNL     1      -0.656  12.299  -3.674  1.00  0.00     0.091 A 
ATOM     62  F   UNL     1       0.447  11.962  -1.584  1.00  0.00    -0.205 F 
ATOM     63  C   UNL     1      -1.567  11.842  -4.640  1.00  0.00     0.022 A 
BRANCH  61  64
ATOM     64  S   UNL     1       0.167  13.862  -4.002  1.00  0.00     0.127 S 
ATOM     65  O   UNL     1       1.135  13.475  -5.028  1.00  0.00    -0.237 OA
ATOM     66  O   UNL     1      -0.933  14.697  -4.486  1.00  0.00    -0.237 OA
ATOM     67  O   UNL     1       0.736  14.289  -2.732  1.00  0.00    -0.744 OA
ENDBRANCH  61  64
ENDBRANCH  43  57
BRANCH  44  68
ATOM     68  C   UNL     1      -0.102   4.924   5.983  1.00  0.00     0.023 A 
ATOM     69  C   UNL     1      -1.220   4.286   6.552  1.00  0.00     0.012 A 
ATOM     70  C   UNL     1       1.156   4.777   6.599  1.00  0.00     0.148 A 
ATOM     71  C   UNL     1      -1.094   3.537   7.723  1.00  0.00     0.002 A 
ATOM     72  C   UNL     1       1.286   3.977   7.729  1.00  0.00     0.091 A 
ATOM     73  F   UNL     1       2.207   5.419   6.069  1.00  0.00    -0.205 F 
ATOM     74  C   UNL     1       0.161   3.370   8.303  1.00  0.00     0.022 A 
BRANCH  72  75
ATOM     75  S   UNL     1       2.897   3.603   8.430  1.00  0.00     0.127 S 
ATOM     76  O   UNL     1       2.993   4.582   9.508  1.00  0.00    -0.237 OA
ATOM     77  O   UNL     1       2.733   2.216   8.870  1.00  0.00    -0.237 OA
ATOM     78  O   UNL     1       3.835   3.765   7.326  1.00  0.00    -0.744 OA
ENDBRANCH  72  75
ENDBRANCH  44  68
BRANCH  56  79
ATOM     79  C   UNL     1      -3.392  10.903   4.565  1.00  0.00     0.023 A 
ATOM     80  C   UNL     1      -2.697  11.726   5.474  1.00  0.00     0.012 A 
ATOM     81  C   UNL     1      -4.788  11.034   4.443  1.00  0.00     0.148 A 
ATOM     82  C   UNL     1      -3.383  12.643   6.269  1.00  0.00     0.002 A 
ATOM     83  C   UNL     1      -5.461  11.977   5.212  1.00  0.00     0.091 A 
ATOM     84  F   UNL     1      -5.438  10.226   3.591  1.00  0.00    -0.205 F 
ATOM     85  C   UNL     1      -4.763  12.775   6.132  1.00  0.00     0.022 A 
BRANCH  83  86
ATOM     86  S   UNL     1      -7.226  12.260   5.031  1.00  0.00     0.127 S 
ATOM     87  O   UNL     1      -7.774  11.447   6.115  1.00  0.00    -0.237 OA
ATOM     88  O   UNL     1      -7.342  13.705   5.236  1.00  0.00    -0.237 OA
ATOM     89  O   UNL     1      -7.553  11.822   3.680  1.00  0.00    -0.744 OA
ENDBRANCH  83  86
ENDBRANCH  56  79
ENDBRANCH  30  31
ENDBRANCH  23  25
ENDBRANCH  22  23
ENDBRANCH  21  22
ENDBRANCH   1  21
TORSDOF 19
