REMARK SMILES Cc1cccc(S(=O)(=O)Nc2cc(C(=O)OCCOC(=O)c3ccc(-c4c5nc(c(-c6cccc(S(=O)(=O)[O-])c6F)c6ccc([nH]6)c(-c6cccc(S(=O)(=O)[O-])c6F)c6nc(c(-c7cccc(S(=O)(=O)[O-])c7F)c7ccc4[nH]7)C=C6)C=C5)cc3)cnc2N2CCC[C@H](C)C2)c1
REMARK SMILES IDX 17 1 16 2 14 3 15 4 13 5 11 6 12 7 87 8 86 9 85 10 10 11
REMARK SMILES IDX 7 13 8 14 9 15 6 16 1 17 2 18 3 19 95 20 4 21 5 22 88 23
REMARK SMILES IDX 89 24 94 25 90 26 92 27 91 28 93 29 18 30 19 31 20 32 21 33
REMARK SMILES IDX 22 34 23 35 84 36 24 37 83 38 25 39 26 40 27 41 77 42 28 43
REMARK SMILES IDX 82 44 76 45 78 46 29 47 81 48 75 49 74 50 30 52 62 53 42 54
REMARK SMILES IDX 61 55 43 56 46 57 60 58 79 59 44 60 45 61 59 63 80 64 47 65
REMARK SMILES IDX 31 66 32 67 40 68 33 69 35 70 41 71 34 72 36 73 37 74 38 75
REMARK SMILES IDX 39 76 63 77 64 78 72 79 65 80 67 81 73 82 66 83 68 84 69 85
REMARK SMILES IDX 70 86 71 87 48 88 49 89 57 90 50 91 52 92 58 93 51 94 53 95
REMARK SMILES IDX 54 96 55 97 56 98
REMARK H PARENT 10 12 78 51 46 62
REMARK Flexibility Score: inf
ROOT
ATOM      1  C   UNL     1       2.360   1.119  -4.388  1.00  0.00     0.275 C 
ENDROOT
BRANCH   1   2
ATOM      2  O   UNL     1       1.953   1.968  -3.316  1.00  0.00    -0.458 OA
BRANCH   2   3
ATOM      3  C   UNL     1       1.961   3.311  -3.485  1.00  0.00     0.339 C 
ATOM      4  O   UNL     1       2.309   3.930  -4.453  1.00  0.00    -0.246 OA
BRANCH   3   5
ATOM      5  C   UNL     1       1.510   3.887  -2.208  1.00  0.00     0.080 A 
ATOM      6  C   UNL     1      -0.011   3.904  -0.318  1.00  0.00     0.092 A 
ATOM      7  C   UNL     1       0.362   3.427  -1.581  1.00  0.00     0.048 A 
ATOM      8  C   UNL     1       0.800   4.905   0.290  1.00  0.00     0.153 A 
ATOM      9  N   UNL     1       1.882   5.383  -0.393  1.00  0.00    -0.236 NA
ATOM     10  C   UNL     1       2.242   4.861  -1.586  1.00  0.00     0.129 A 
BRANCH   6  11
ATOM     11  N   UNL     1      -1.104   3.273   0.373  1.00  0.00    -0.276 N 
ATOM     12  H   UNL     1      -1.069   3.272   1.357  1.00  0.00     0.180 HD
BRANCH  11  13
ATOM     13  S   UNL     1      -2.429   2.542  -0.341  1.00  0.00     0.262 S 
ATOM     14  O   UNL     1      -2.744   3.262  -1.558  1.00  0.00    -0.201 OA
ATOM     15  O   UNL     1      -3.392   2.484   0.742  1.00  0.00    -0.201 OA
BRANCH  13  16
ATOM     16  C   UNL     1      -2.047   0.868  -0.789  1.00  0.00     0.088 A 
ATOM     17  C   UNL     1       0.788  -1.452  -1.833  1.00  0.00     0.044 C 
ATOM     18  C   UNL     1      -0.566  -0.908  -1.526  1.00  0.00    -0.050 A 
ATOM     19  C   UNL     1      -1.663  -1.715  -1.806  1.00  0.00     0.003 A 
ATOM     20  C   UNL     1      -0.754   0.374  -0.970  1.00  0.00     0.025 A 
ATOM     21  C   UNL     1      -2.943  -1.234  -1.589  1.00  0.00     0.002 A 
ATOM     22  C   UNL     1      -3.140   0.048  -1.085  1.00  0.00     0.022 A 
ENDBRANCH  13  16
ENDBRANCH  11  13
ENDBRANCH   6  11
BRANCH   8  23
ATOM     23  N   UNL     1       0.582   5.519   1.510  1.00  0.00    -0.355 N 
ATOM     24  C   UNL     1      -0.269   5.130   2.625  1.00  0.00     0.118 C 
ATOM     25  C   UNL     1       1.139   6.870   1.693  1.00  0.00     0.121 C 
ATOM     26  C   UNL     1      -1.507   6.039   2.620  1.00  0.00     0.022 C 
ATOM     27  C   UNL     1      -0.019   7.883   1.605  1.00  0.00     0.005 C 
ATOM     28  C   UNL     1      -1.115   7.528   2.630  1.00  0.00     0.007 C 
ATOM     29  C   UNL     1      -0.580   7.971   0.181  1.00  0.00     0.009 C 
ENDBRANCH   8  23
ENDBRANCH   3   5
ENDBRANCH   2   3
ENDBRANCH   1   2
BRANCH   1  30
ATOM     30  C   UNL     1       3.621   1.474  -5.196  1.00  0.00     0.275 C 
BRANCH  30  31
ATOM     31  O   UNL     1       4.767   2.205  -4.657  1.00  0.00    -0.458 OA
BRANCH  31  32
ATOM     32  C   UNL     1       5.129   2.545  -3.395  1.00  0.00     0.338 C 
ATOM     33  O   UNL     1       5.833   3.517  -3.167  1.00  0.00    -0.246 OA
BRANCH  32  34
ATOM     34  C   UNL     1       4.709   1.638  -2.323  1.00  0.00     0.060 A 
ATOM     35  C   UNL     1       4.309   2.106  -1.058  1.00  0.00     0.016 A 
ATOM     36  C   UNL     1       4.665   0.293  -2.629  1.00  0.00     0.016 A 
ATOM     37  C   UNL     1       3.803   1.220  -0.096  1.00  0.00     0.010 A 
ATOM     38  C   UNL     1       4.023  -0.535  -1.753  1.00  0.00     0.010 A 
ATOM     39  C   UNL     1       3.688  -0.117  -0.437  1.00  0.00    -0.014 A 
BRANCH  39  40
ATOM     40  C   UNL     1       3.470  -1.259   0.466  1.00  0.00     0.031 A 
ATOM     41  C   UNL     1       2.167  -1.662   1.048  1.00  0.00     0.074 A 
ATOM     42  C   UNL     1       4.495  -2.136   0.315  1.00  0.00     0.049 A 
ATOM     43  N   UNL     1       1.854  -2.907   1.140  1.00  0.00    -0.248 NA
ATOM     44  C   UNL     1       1.070  -0.792   1.485  1.00  0.00     0.031 C 
ATOM     45  C   UNL     1       4.583  -3.581   0.426  1.00  0.00     0.029 A 
ATOM     46  N   UNL     1       5.819  -1.774   0.024  1.00  0.00    -0.354 N 
ATOM     47  C   UNL     1       0.548  -3.023   1.564  1.00  0.00     0.074 A 
ATOM     48  C   UNL     1       0.063  -1.673   1.680  1.00  0.00     0.031 C 
ATOM     49  C   UNL     1       5.882  -3.919   0.572  1.00  0.00     0.029 A 
ATOM     50  C   UNL     1       6.625  -2.672   0.719  1.00  0.00     0.049 A 
ATOM     51  H   UNL     1       6.117  -1.035  -0.554  1.00  0.00     0.167 HD
ATOM     52  C   UNL     1       0.095  -4.287   1.781  1.00  0.00     0.034 A 
ATOM     53  C   UNL     1       7.175  -2.173   1.871  1.00  0.00     0.034 A 
ATOM     54  C   UNL     1       1.252  -5.082   2.214  1.00  0.00     0.049 A 
ATOM     55  C   UNL     1       6.548  -2.833   3.088  1.00  0.00     0.074 A 
ATOM     56  C   UNL     1       2.126  -5.968   1.616  1.00  0.00     0.029 A 
ATOM     57  N   UNL     1       1.836  -4.698   3.416  1.00  0.00    -0.354 N 
ATOM     58  N   UNL     1       5.416  -3.489   3.079  1.00  0.00    -0.248 NA
ATOM     59  C   UNL     1       7.200  -2.887   4.388  1.00  0.00     0.031 C 
ATOM     60  C   UNL     1       3.325  -5.964   2.402  1.00  0.00     0.029 A 
ATOM     61  C   UNL     1       3.154  -5.109   3.484  1.00  0.00     0.049 A 
ATOM     62  H   UNL     1       1.371  -4.199   4.126  1.00  0.00     0.167 HD
ATOM     63  C   UNL     1       5.154  -4.013   4.310  1.00  0.00     0.074 A 
ATOM     64  C   UNL     1       6.334  -3.647   5.081  1.00  0.00     0.031 C 
ATOM     65  C   UNL     1       3.985  -4.668   4.608  1.00  0.00     0.034 A 
BRANCH  52  66
ATOM     66  C   UNL     1      -1.289  -4.893   1.630  1.00  0.00     0.023 A 
ATOM     67  C   UNL     1      -1.367  -6.293   1.853  1.00  0.00     0.012 A 
ATOM     68  C   UNL     1      -2.452  -4.280   1.100  1.00  0.00     0.148 A 
ATOM     69  C   UNL     1      -2.485  -7.061   1.520  1.00  0.00     0.002 A 
ATOM     70  C   UNL     1      -3.584  -5.056   0.771  1.00  0.00     0.091 A 
ATOM     71  F   UNL     1      -2.452  -2.959   0.888  1.00  0.00    -0.205 F 
ATOM     72  C   UNL     1      -3.589  -6.444   0.967  1.00  0.00     0.022 A 
BRANCH  70  73
ATOM     73  S   UNL     1      -5.101  -4.411   0.032  1.00  0.00     0.127 S 
ATOM     74  O   UNL     1      -5.102  -5.063  -1.280  1.00  0.00    -0.237 OA
ATOM     75  O   UNL     1      -6.135  -4.897   0.946  1.00  0.00    -0.237 OA
ATOM     76  O   UNL     1      -4.963  -2.964  -0.006  1.00  0.00    -0.744 OA
ENDBRANCH  70  73
ENDBRANCH  52  66
BRANCH  53  77
ATOM     77  C   UNL     1       7.554  -0.705   1.708  1.00  0.00     0.023 A 
ATOM     78  C   UNL     1       8.342  -0.376   0.563  1.00  0.00     0.012 A 
ATOM     79  C   UNL     1       6.865   0.347   2.341  1.00  0.00     0.148 A 
ATOM     80  C   UNL     1       8.288   0.889  -0.032  1.00  0.00     0.002 A 
ATOM     81  C   UNL     1       6.863   1.630   1.769  1.00  0.00     0.091 A 
ATOM     82  F   UNL     1       6.179   0.088   3.463  1.00  0.00    -0.205 F 
ATOM     83  C   UNL     1       7.526   1.887   0.558  1.00  0.00     0.022 A 
BRANCH  81  84
ATOM     84  S   UNL     1       5.927   2.979   2.513  1.00  0.00     0.127 S 
ATOM     85  O   UNL     1       6.865   3.473   3.517  1.00  0.00    -0.237 OA
ATOM     86  O   UNL     1       5.703   3.891   1.391  1.00  0.00    -0.237 OA
ATOM     87  O   UNL     1       4.714   2.347   3.015  1.00  0.00    -0.744 OA
ENDBRANCH  81  84
ENDBRANCH  53  77
BRANCH  65  88
ATOM     88  C   UNL     1       3.500  -4.903   6.030  1.00  0.00     0.023 A 
ATOM     89  C   UNL     1       4.024  -4.176   7.117  1.00  0.00     0.012 A 
ATOM     90  C   UNL     1       2.382  -5.729   6.311  1.00  0.00     0.148 A 
ATOM     91  C   UNL     1       3.556  -4.338   8.422  1.00  0.00     0.002 A 
ATOM     92  C   UNL     1       1.821  -5.768   7.585  1.00  0.00     0.091 A 
ATOM     93  F   UNL     1       1.847  -6.493   5.347  1.00  0.00    -0.205 F 
ATOM     94  C   UNL     1       2.437  -5.118   8.655  1.00  0.00     0.022 A 
BRANCH  92  95
ATOM     95  S   UNL     1       0.192  -6.480   7.858  1.00  0.00     0.127 S 
ATOM     96  O   UNL     1       0.521  -7.836   8.287  1.00  0.00    -0.237 OA
ATOM     97  O   UNL     1      -0.352  -5.621   8.912  1.00  0.00    -0.237 OA
ATOM     98  O   UNL     1      -0.489  -6.352   6.577  1.00  0.00    -0.744 OA
ENDBRANCH  92  95
ENDBRANCH  65  88
ENDBRANCH  39  40
ENDBRANCH  32  34
ENDBRANCH  31  32
ENDBRANCH  30  31
ENDBRANCH   1  30
TORSDOF 18
