REMARK SMILES CO[C@@H]1C[C@@H](C(=O)OCCOC(=O)c2ccc(-c3c4nc(c(-c5cccc(S(=O)(=O)[O-])c5F)c5ccc([nH]5)c(-c5cccc(S(=O)(=O)[O-])c5F)c5nc(c(-c6cccc(S(=O)(=O)[O-])c6F)c6ccc3[nH]6)C=C5)C=C4)cc2)N(S(=O)(=O)c2ccc(Cl)cc2F)C1
REMARK SMILES IDX 10 1 9 2 8 3 6 4 7 5 5 6 3 7 4 8 89 9 77 10 2 11 1 12 78 13
REMARK SMILES IDX 79 14 80 15 81 16 82 17 87 18 83 19 86 20 88 21 84 22 85 23
REMARK SMILES IDX 11 24 12 25 13 26 14 27 15 28 76 29 16 30 75 31 17 32 18 33
REMARK SMILES IDX 19 34 69 35 20 36 74 37 68 38 70 39 21 40 73 41 67 42 66 43
REMARK SMILES IDX 22 45 54 46 34 47 53 48 35 49 38 50 52 51 71 52 36 53 37 54
REMARK SMILES IDX 51 56 72 57 39 58 23 59 24 60 32 61 25 62 27 63 33 64 26 65
REMARK SMILES IDX 28 66 29 67 30 68 31 69 55 70 56 71 64 72 57 73 59 74 65 75
REMARK SMILES IDX 58 76 60 77 61 78 62 79 63 80 40 81 41 82 49 83 42 84 44 85
REMARK SMILES IDX 50 86 43 87 45 88 46 89 47 90 48 91
REMARK H PARENT 70 44 38 55
REMARK Flexibility Score: inf
ROOT
ATOM      1  C   UNL     1       3.573   4.555   4.005  1.00  0.00     0.275 C 
ENDROOT
BRANCH   1   2
ATOM      2  C   UNL     1       4.317   3.591   3.083  1.00  0.00     0.274 C 
BRANCH   2   3
ATOM      3  O   UNL     1       3.760   3.689   1.756  1.00  0.00    -0.461 OA
BRANCH   3   4
ATOM      4  C   UNL     1       2.893   2.728   1.416  1.00  0.00     0.324 C 
ATOM      5  O   UNL     1       2.710   1.715   2.094  1.00  0.00    -0.250 OA
BRANCH   4   6
ATOM      6  C   UNL     1       2.122   2.952   0.164  1.00  0.00     0.185 C 
ATOM      7  C   UNL     1       1.224   1.765  -1.637  1.00  0.00     0.135 C 
ATOM      8  C   UNL     1       2.506   1.858  -0.833  1.00  0.00     0.065 C 
ATOM      9  C   UNL     1       0.831   3.258  -1.795  1.00  0.00     0.135 C 
ATOM     10  N   UNL     1       1.598   4.042  -0.707  1.00  0.00    -0.181 NA
BRANCH   7  11
ATOM     11  O   UNL     1       0.167   1.083  -0.943  1.00  0.00    -0.380 OA
ATOM     12  C   UNL     1       0.515  -0.186  -0.398  1.00  0.00     0.195 C 
ENDBRANCH   7  11
BRANCH  10  13
ATOM     13  S   UNL     1       2.571   5.258  -1.386  1.00  0.00     0.246 S 
ATOM     14  O   UNL     1       3.799   4.644  -1.843  1.00  0.00    -0.207 OA
ATOM     15  O   UNL     1       1.730   5.931  -2.365  1.00  0.00    -0.207 OA
BRANCH  13  16
ATOM     16  C   UNL     1       2.954   6.507  -0.195  1.00  0.00     0.118 A 
ATOM     17  C   UNL     1       2.304   7.755  -0.246  1.00  0.00     0.026 A 
ATOM     18  C   UNL     1       4.077   6.384   0.606  1.00  0.00     0.144 A 
ATOM     19  C   UNL     1       2.733   8.812   0.569  1.00  0.00     0.022 A 
ATOM     20  C   UNL     1       4.456   7.398   1.485  1.00  0.00     0.061 A 
ATOM     21  F   UNL     1       4.894   5.331   0.501  1.00  0.00    -0.205 F 
ATOM     22  C   UNL     1       3.784   8.614   1.461  1.00  0.00     0.044 A 
ATOM     23  Cl  UNL     1       4.308   9.895   2.482  1.00  0.00    -0.084 Cl
ENDBRANCH  13  16
ENDBRANCH  10  13
ENDBRANCH   4   6
ENDBRANCH   3   4
ENDBRANCH   2   3
ENDBRANCH   1   2
BRANCH   1  24
ATOM     24  O   UNL     1       2.267   4.062   4.341  1.00  0.00    -0.458 OA
BRANCH  24  25
ATOM     25  C   UNL     1       1.250   4.394   3.502  1.00  0.00     0.338 C 
ATOM     26  O   UNL     1       1.303   5.070   2.501  1.00  0.00    -0.246 OA
BRANCH  25  27
ATOM     27  C   UNL     1       0.067   3.648   3.965  1.00  0.00     0.060 A 
ATOM     28  C   UNL     1      -0.497   2.672   3.140  1.00  0.00     0.016 A 
ATOM     29  C   UNL     1      -0.423   3.870   5.252  1.00  0.00     0.016 A 
ATOM     30  C   UNL     1      -1.524   1.869   3.620  1.00  0.00     0.010 A 
ATOM     31  C   UNL     1      -1.447   3.062   5.735  1.00  0.00     0.010 A 
ATOM     32  C   UNL     1      -1.988   2.050   4.926  1.00  0.00    -0.014 A 
BRANCH  32  33
ATOM     33  C   UNL     1      -3.052   1.177   5.457  1.00  0.00     0.031 A 
ATOM     34  C   UNL     1      -4.433   1.728   5.619  1.00  0.00     0.074 A 
ATOM     35  C   UNL     1      -2.743  -0.078   5.831  1.00  0.00     0.049 A 
ATOM     36  N   UNL     1      -5.492   1.161   6.127  1.00  0.00    -0.248 NA
ATOM     37  C   UNL     1      -4.648   3.111   5.160  1.00  0.00     0.031 C 
ATOM     38  C   UNL     1      -1.414  -0.685   5.729  1.00  0.00     0.029 A 
ATOM     39  N   UNL     1      -3.515  -1.058   6.397  1.00  0.00    -0.354 N 
ATOM     40  C   UNL     1      -6.490   2.124   6.085  1.00  0.00     0.074 A 
ATOM     41  C   UNL     1      -5.908   3.318   5.512  1.00  0.00     0.031 C 
ATOM     42  C   UNL     1      -1.459  -1.929   6.233  1.00  0.00     0.029 A 
ATOM     43  C   UNL     1      -2.809  -2.194   6.718  1.00  0.00     0.049 A 
ATOM     44  H   UNL     1      -4.481  -0.959   6.557  1.00  0.00     0.167 HD
ATOM     45  C   UNL     1      -7.779   2.013   6.480  1.00  0.00     0.034 A 
ATOM     46  C   UNL     1      -3.212  -3.312   7.351  1.00  0.00     0.034 A 
ATOM     47  C   UNL     1      -8.335   0.808   7.034  1.00  0.00     0.049 A 
ATOM     48  C   UNL     1      -4.657  -3.416   7.761  1.00  0.00     0.074 A 
ATOM     49  C   UNL     1      -9.635   0.562   7.433  1.00  0.00     0.029 A 
ATOM     50  N   UNL     1      -7.613  -0.353   7.275  1.00  0.00    -0.354 N 
ATOM     51  N   UNL     1      -5.620  -2.538   7.613  1.00  0.00    -0.248 NA
ATOM     52  C   UNL     1      -5.081  -4.674   8.389  1.00  0.00     0.031 C 
ATOM     53  C   UNL     1      -9.694  -0.742   7.937  1.00  0.00     0.029 A 
ATOM     54  C   UNL     1      -8.438  -1.319   7.821  1.00  0.00     0.049 A 
ATOM     55  H   UNL     1      -6.654  -0.471   7.085  1.00  0.00     0.167 HD
ATOM     56  C   UNL     1      -6.772  -3.148   8.093  1.00  0.00     0.074 A 
ATOM     57  C   UNL     1      -6.387  -4.479   8.520  1.00  0.00     0.031 C 
ATOM     58  C   UNL     1      -8.032  -2.653   8.187  1.00  0.00     0.034 A 
BRANCH  45  59
ATOM     59  C   UNL     1      -8.665   3.218   6.312  1.00  0.00     0.023 A 
ATOM     60  C   UNL     1      -9.057   3.624   5.019  1.00  0.00     0.012 A 
ATOM     61  C   UNL     1      -9.127   3.938   7.431  1.00  0.00     0.148 A 
ATOM     62  C   UNL     1      -9.862   4.749   4.841  1.00  0.00     0.002 A 
ATOM     63  C   UNL     1      -9.966   5.030   7.248  1.00  0.00     0.091 A 
ATOM     64  F   UNL     1      -8.723   3.552   8.650  1.00  0.00    -0.205 F 
ATOM     65  C   UNL     1     -10.323   5.446   5.955  1.00  0.00     0.022 A 
BRANCH  63  66
ATOM     66  S   UNL     1     -10.671   5.952   8.619  1.00  0.00     0.127 S 
ATOM     67  O   UNL     1      -9.972   7.231   8.506  1.00  0.00    -0.237 OA
ATOM     68  O   UNL     1     -12.089   5.998   8.259  1.00  0.00    -0.237 OA
ATOM     69  O   UNL     1     -10.373   5.182   9.818  1.00  0.00    -0.744 OA
ENDBRANCH  63  66
ENDBRANCH  45  59
BRANCH  46  70
ATOM     70  C   UNL     1      -2.253  -4.430   7.582  1.00  0.00     0.023 A 
ATOM     71  C   UNL     1      -2.408  -5.636   6.871  1.00  0.00     0.012 A 
ATOM     72  C   UNL     1      -1.170  -4.296   8.473  1.00  0.00     0.148 A 
ATOM     73  C   UNL     1      -1.523  -6.698   7.066  1.00  0.00     0.002 A 
ATOM     74  C   UNL     1      -0.260  -5.337   8.622  1.00  0.00     0.091 A 
ATOM     75  F   UNL     1      -1.044  -3.146   9.151  1.00  0.00    -0.205 F 
ATOM     76  C   UNL     1      -0.444  -6.545   7.932  1.00  0.00     0.022 A 
BRANCH  74  77
ATOM     77  S   UNL     1       1.228  -5.183   9.617  1.00  0.00     0.127 S 
ATOM     78  O   UNL     1       0.922  -6.052  10.750  1.00  0.00    -0.237 OA
ATOM     79  O   UNL     1       2.255  -5.695   8.707  1.00  0.00    -0.237 OA
ATOM     80  O   UNL     1       1.352  -3.764   9.922  1.00  0.00    -0.744 OA
ENDBRANCH  74  77
ENDBRANCH  46  70
BRANCH  58  81
ATOM     81  C   UNL     1      -9.095  -3.570   8.729  1.00  0.00     0.023 A 
ATOM     82  C   UNL     1      -9.123  -3.881  10.102  1.00  0.00     0.012 A 
ATOM     83  C   UNL     1     -10.110  -4.059   7.885  1.00  0.00     0.148 A 
ATOM     84  C   UNL     1     -10.129  -4.694  10.621  1.00  0.00     0.002 A 
ATOM     85  C   UNL     1     -11.138  -4.825   8.418  1.00  0.00     0.091 A 
ATOM     86  F   UNL     1     -10.052  -3.767   6.577  1.00  0.00    -0.205 F 
ATOM     87  C   UNL     1     -11.142  -5.155   9.783  1.00  0.00     0.022 A 
BRANCH  85  88
ATOM     88  S   UNL     1     -12.537  -5.370   7.432  1.00  0.00     0.127 S 
ATOM     89  O   UNL     1     -12.248  -6.793   7.267  1.00  0.00    -0.237 OA
ATOM     90  O   UNL     1     -13.670  -5.075   8.310  1.00  0.00    -0.237 OA
ATOM     91  O   UNL     1     -12.499  -4.576   6.212  1.00  0.00    -0.744 OA
ENDBRANCH  85  88
ENDBRANCH  58  81
ENDBRANCH  32  33
ENDBRANCH  25  27
ENDBRANCH  24  25
ENDBRANCH   1  24
TORSDOF 17
