REMARK SMILES CS(=O)(=O)c1ccc(/C=C(/C(=O)OCCOC(=O)c2ccc(-c3c4nc(c(-c5cccc(S(=O)(=O)[O-])c5F)c5ccc([nH]5)c(-c5cccc(S(=O)(=O)[O-])c5F)c5nc(c(-c6cccc(S(=O)(=O)[O-])c6F)c6ccc3[nH]6)C=C5)C=C4)cc2)c2ccc(-c3ccc(F)cc3F)cc2)cc1
REMARK SMILES IDX 15 1 14 2 13 3 11 4 12 5 10 6 9 7 8 8 5 9 6 10 97 11 7 12
REMARK SMILES IDX 96 13 2 14 1 15 3 16 4 17 82 18 83 19 95 20 84 21 94 22
REMARK SMILES IDX 85 23 86 24 87 25 92 26 88 27 91 28 93 29 89 30 90 31 16 32
REMARK SMILES IDX 17 33 18 34 19 35 20 36 81 37 21 38 80 39 22 40 23 41 24 42
REMARK SMILES IDX 74 43 25 44 79 45 73 46 75 47 26 48 78 49 72 50 71 51 27 53
REMARK SMILES IDX 59 54 39 55 58 56 40 57 43 58 57 59 76 60 41 61 42 62 56 64
REMARK SMILES IDX 77 65 44 66 28 67 29 68 37 69 30 70 32 71 38 72 31 73 33 74
REMARK SMILES IDX 34 75 35 76 36 77 60 78 61 79 69 80 62 81 64 82 70 83 63 84
REMARK SMILES IDX 65 85 66 86 67 87 68 88 45 89 46 90 54 91 47 92 49 93 55 94
REMARK SMILES IDX 48 95 50 96 51 97 52 98 53 99
REMARK H PARENT 75 52 43 63
REMARK Flexibility Score: inf
ROOT
ATOM      1  C   UNL     1       1.481  -7.692   8.719  1.00  0.00     0.275 C 
ENDROOT
BRANCH   1   2
ATOM      2  C   UNL     1       2.472  -6.579   8.387  1.00  0.00     0.275 C 
BRANCH   2   3
ATOM      3  O   UNL     1       1.900  -5.640   7.453  1.00  0.00    -0.458 OA
BRANCH   3   4
ATOM      4  C   UNL     1       2.304  -5.787   6.164  1.00  0.00     0.338 C 
ATOM      5  O   UNL     1       3.137  -6.589   5.766  1.00  0.00    -0.246 OA
BRANCH   4   6
ATOM      6  C   UNL     1       1.583  -4.856   5.245  1.00  0.00     0.067 C 
ATOM      7  C   UNL     1       1.471  -3.555   5.597  1.00  0.00     0.024 C 
BRANCH   7   8
ATOM      8  C   UNL     1       1.046  -2.427   4.736  1.00  0.00    -0.025 A 
ATOM      9  C   UNL     1       0.569  -0.322   2.944  1.00  0.00     0.067 A 
ATOM     10  C   UNL     1      -0.205  -1.476   2.872  1.00  0.00     0.021 A 
ATOM     11  C   UNL     1       1.510  -0.162   3.961  1.00  0.00     0.021 A 
ATOM     12  C   UNL     1       0.019  -2.507   3.785  1.00  0.00     0.009 A 
ATOM     13  C   UNL     1       1.747  -1.216   4.849  1.00  0.00     0.009 A 
BRANCH   9  14
ATOM     14  S   UNL     1       0.354   0.934   1.710  1.00  0.00     0.175 S 
ATOM     15  C   UNL     1       1.024   0.188   0.243  1.00  0.00     0.163 C 
ATOM     16  O   UNL     1       1.207   2.054   2.064  1.00  0.00    -0.224 OA
ATOM     17  O   UNL     1      -1.072   1.117   1.525  1.00  0.00    -0.224 OA
ENDBRANCH   9  14
ENDBRANCH   7   8
BRANCH   6  18
ATOM     18  C   UNL     1       1.174  -5.371   3.926  1.00  0.00    -0.011 A 
ATOM     19  C   UNL     1      -0.112  -5.899   3.766  1.00  0.00     0.009 A 
ATOM     20  C   UNL     1       2.013  -5.290   2.814  1.00  0.00     0.009 A 
ATOM     21  C   UNL     1      -0.558  -6.313   2.506  1.00  0.00     0.009 A 
ATOM     22  C   UNL     1       1.555  -5.701   1.555  1.00  0.00     0.009 A 
ATOM     23  C   UNL     1       0.259  -6.217   1.366  1.00  0.00    -0.015 A 
BRANCH  23  24
ATOM     24  C   UNL     1      -0.238  -6.632   0.029  1.00  0.00     0.018 A 
ATOM     25  C   UNL     1      -1.593  -6.458  -0.324  1.00  0.00     0.015 A 
ATOM     26  C   UNL     1       0.602  -7.201  -0.950  1.00  0.00     0.133 A 
ATOM     27  C   UNL     1      -2.073  -6.827  -1.585  1.00  0.00     0.040 A 
ATOM     28  C   UNL     1       0.134  -7.562  -2.212  1.00  0.00     0.079 A 
ATOM     29  F   UNL     1       1.903  -7.407  -0.695  1.00  0.00    -0.206 F 
ATOM     30  C   UNL     1      -1.202  -7.367  -2.519  1.00  0.00     0.126 A 
ATOM     31  F   UNL     1      -1.654  -7.681  -3.739  1.00  0.00    -0.207 F 
ENDBRANCH  23  24
ENDBRANCH   6  18
ENDBRANCH   4   6
ENDBRANCH   3   4
ENDBRANCH   2   3
ENDBRANCH   1   2
BRANCH   1  32
ATOM     32  O   UNL     1       1.200  -8.472   7.545  1.00  0.00    -0.458 OA
BRANCH  32  33
ATOM     33  C   UNL     1      -0.049  -8.341   7.044  1.00  0.00     0.338 C 
ATOM     34  O   UNL     1      -0.960  -7.668   7.495  1.00  0.00    -0.246 OA
BRANCH  33  35
ATOM     35  C   UNL     1      -0.184  -9.128   5.807  1.00  0.00     0.060 A 
ATOM     36  C   UNL     1       0.657  -8.874   4.727  1.00  0.00     0.016 A 
ATOM     37  C   UNL     1      -1.263  -9.999   5.665  1.00  0.00     0.016 A 
ATOM     38  C   UNL     1       0.342  -9.391   3.470  1.00  0.00     0.010 A 
ATOM     39  C   UNL     1      -1.501 -10.608   4.429  1.00  0.00     0.010 A 
ATOM     40  C   UNL     1      -0.735 -10.272   3.298  1.00  0.00    -0.014 A 
BRANCH  40  41
ATOM     41  C   UNL     1      -1.087 -10.830   1.957  1.00  0.00     0.031 A 
ATOM     42  C   UNL     1      -2.508 -10.750   1.450  1.00  0.00     0.074 A 
ATOM     43  C   UNL     1      -0.160 -11.460   1.206  1.00  0.00     0.049 A 
ATOM     44  N   UNL     1      -3.085 -11.429   0.492  1.00  0.00    -0.248 NA
ATOM     45  C   UNL     1      -3.405  -9.797   2.126  1.00  0.00     0.031 C 
ATOM     46  C   UNL     1       1.260 -11.587   1.536  1.00  0.00     0.029 A 
ATOM     47  N   UNL     1      -0.283 -12.142   0.018  1.00  0.00    -0.354 N 
ATOM     48  C   UNL     1      -4.428 -11.066   0.520  1.00  0.00     0.074 A 
ATOM     49  C   UNL     1      -4.575 -10.078   1.566  1.00  0.00     0.031 C 
ATOM     50  C   UNL     1       1.878 -12.288   0.577  1.00  0.00     0.029 A 
ATOM     51  C   UNL     1       0.883 -12.759  -0.378  1.00  0.00     0.049 A 
ATOM     52  H   UNL     1      -1.120 -12.186  -0.498  1.00  0.00     0.167 HD
ATOM     53  C   UNL     1      -5.443 -11.520  -0.254  1.00  0.00     0.034 A 
ATOM     54  C   UNL     1       1.126 -13.661  -1.349  1.00  0.00     0.034 A 
ATOM     55  C   UNL     1      -5.271 -12.429  -1.357  1.00  0.00     0.049 A 
ATOM     56  C   UNL     1      -0.010 -14.136  -2.207  1.00  0.00     0.074 A 
ATOM     57  C   UNL     1      -6.230 -12.914  -2.229  1.00  0.00     0.029 A 
ATOM     58  N   UNL     1      -4.059 -12.972  -1.754  1.00  0.00    -0.354 N 
ATOM     59  N   UNL     1      -1.271 -13.784  -2.169  1.00  0.00    -0.248 NA
ATOM     60  C   UNL     1       0.308 -15.130  -3.242  1.00  0.00     0.031 C 
ATOM     61  C   UNL     1      -5.599 -13.752  -3.153  1.00  0.00     0.029 A 
ATOM     62  C   UNL     1      -4.244 -13.779  -2.863  1.00  0.00     0.049 A 
ATOM     63  H   UNL     1      -3.195 -12.808  -1.312  1.00  0.00     0.167 HD
ATOM     64  C   UNL     1      -1.894 -14.493  -3.188  1.00  0.00     0.074 A 
ATOM     65  C   UNL     1      -0.867 -15.283  -3.838  1.00  0.00     0.031 C 
ATOM     66  C   UNL     1      -3.202 -14.505  -3.540  1.00  0.00     0.034 A 
BRANCH  53  67
ATOM     67  C   UNL     1      -6.838 -11.031   0.036  1.00  0.00     0.023 A 
ATOM     68  C   UNL     1      -7.223  -9.733  -0.350  1.00  0.00     0.012 A 
ATOM     69  C   UNL     1      -7.797 -11.895   0.607  1.00  0.00     0.148 A 
ATOM     70  C   UNL     1      -8.533  -9.293  -0.153  1.00  0.00     0.002 A 
ATOM     71  C   UNL     1      -9.110 -11.463   0.763  1.00  0.00     0.091 A 
ATOM     72  F   UNL     1      -7.408 -13.120   0.989  1.00  0.00    -0.205 F 
ATOM     73  C   UNL     1      -9.477 -10.161   0.391  1.00  0.00     0.022 A 
BRANCH  71  74
ATOM     74  S   UNL     1     -10.411 -12.541   1.377  1.00  0.00     0.127 S 
ATOM     75  O   UNL     1     -10.575 -12.055   2.746  1.00  0.00    -0.237 OA
ATOM     76  O   UNL     1     -11.526 -12.226   0.481  1.00  0.00    -0.237 OA
ATOM     77  O   UNL     1      -9.898 -13.897   1.246  1.00  0.00    -0.744 OA
ENDBRANCH  71  74
ENDBRANCH  53  67
BRANCH  54  78
ATOM     78  C   UNL     1       2.513 -14.170  -1.542  1.00  0.00     0.023 A 
ATOM     79  C   UNL     1       3.237 -13.781  -2.684  1.00  0.00     0.012 A 
ATOM     80  C   UNL     1       3.147 -14.964  -0.564  1.00  0.00     0.148 A 
ATOM     81  C   UNL     1       4.565 -14.178  -2.851  1.00  0.00     0.002 A 
ATOM     82  C   UNL     1       4.488 -15.298  -0.705  1.00  0.00     0.091 A 
ATOM     83  F   UNL     1       2.433 -15.350   0.503  1.00  0.00    -0.205 F 
ATOM     84  C   UNL     1       5.196 -14.918  -1.854  1.00  0.00     0.022 A 
BRANCH  82  85
ATOM     85  S   UNL     1       5.408 -16.100   0.615  1.00  0.00     0.127 S 
ATOM     86  O   UNL     1       5.464 -17.481   0.145  1.00  0.00    -0.237 OA
ATOM     87  O   UNL     1       6.685 -15.385   0.580  1.00  0.00    -0.237 OA
ATOM     88  O   UNL     1       4.630 -15.865   1.824  1.00  0.00    -0.744 OA
ENDBRANCH  82  85
ENDBRANCH  54  78
BRANCH  66  89
ATOM     89  C   UNL     1      -3.605 -15.361  -4.708  1.00  0.00     0.023 A 
ATOM     90  C   UNL     1      -3.735 -16.753  -4.540  1.00  0.00     0.012 A 
ATOM     91  C   UNL     1      -3.945 -14.774  -5.942  1.00  0.00     0.148 A 
ATOM     92  C   UNL     1      -4.185 -17.552  -5.590  1.00  0.00     0.002 A 
ATOM     93  C   UNL     1      -4.430 -15.571  -6.972  1.00  0.00     0.091 A 
ATOM     94  F   UNL     1      -3.795 -13.449  -6.082  1.00  0.00    -0.205 F 
ATOM     95  C   UNL     1      -4.543 -16.960  -6.800  1.00  0.00     0.022 A 
BRANCH  93  96
ATOM     96  S   UNL     1      -4.994 -14.889  -8.535  1.00  0.00     0.127 S 
ATOM     97  O   UNL     1      -3.944 -15.335  -9.450  1.00  0.00    -0.237 OA
ATOM     98  O   UNL     1      -6.284 -15.555  -8.716  1.00  0.00    -0.237 OA
ATOM     99  O   UNL     1      -5.079 -13.448  -8.338  1.00  0.00    -0.744 OA
ENDBRANCH  93  96
ENDBRANCH  66  89
ENDBRANCH  40  41
ENDBRANCH  33  35
ENDBRANCH  32  33
ENDBRANCH   1  32
TORSDOF 18
