REMARK SMILES CCC[N@@H+]1CC2(CC[NH+](C(=O)Cn3nnnc3C)CC2)C[C@H]1C(=O)OCCOC(=O)c1ccc(-c2c3nc(c(-c4cccc(S(=O)(=O)[O-])c4F)c4ccc([nH]4)c(-c4cccc(S(=O)(=O)[O-])c4F)c4nc(c(-c5cccc(S(=O)(=O)[O-])c5F)c5ccc2[nH]5)C=C4)C=C3)cc1
REMARK SMILES IDX 26 1 25 2 23 3 24 4 22 5 4 6 5 7 6 9 21 10 7 11 20 12 8 13
REMARK SMILES IDX 19 14 9 15 3 17 2 18 1 19 10 20 11 21 12 22 13 23 14 24
REMARK SMILES IDX 17 25 15 26 16 27 18 28 27 29 28 30 29 31 30 32 31 33 32 34
REMARK SMILES IDX 93 35 33 36 92 37 34 38 35 39 36 40 86 41 37 42 91 43 85 44
REMARK SMILES IDX 87 45 38 46 90 47 84 48 83 49 39 51 71 52 51 53 70 54 52 55
REMARK SMILES IDX 55 56 69 57 88 58 53 59 54 60 68 62 89 63 56 64 40 65 41 66
REMARK SMILES IDX 49 67 42 68 44 69 50 70 43 71 45 72 46 73 47 74 48 75 72 76
REMARK SMILES IDX 73 77 81 78 74 79 76 80 82 81 75 82 77 83 78 84 79 85 80 86
REMARK SMILES IDX 57 87 58 88 66 89 59 90 61 91 67 92 60 93 62 94 63 95 64 96
REMARK SMILES IDX 65 97
REMARK H PARENT 4 8 9 16 87 50 55 61
REMARK Flexibility Score: inf
ROOT
ATOM      1  C   UNL     1      -0.464  -6.073  -1.560  1.00  0.00     0.274 C 
ENDROOT
BRANCH   1   2
ATOM      2  O   UNL     1       0.122  -4.773  -1.377  1.00  0.00    -0.458 OA
BRANCH   2   3
ATOM      3  C   UNL     1       1.283  -4.525  -2.043  1.00  0.00     0.365 C 
ATOM      4  O   UNL     1       1.929  -5.386  -2.636  1.00  0.00    -0.245 OA
BRANCH   3   5
ATOM      5  C   UNL     1       1.814  -3.095  -1.873  1.00  0.00     0.295 C 
ATOM      6  N   UNL     1       0.794  -2.019  -1.712  1.00  0.00    -0.323 N 
ATOM      7  C   UNL     1       0.421  -2.034  -0.305  1.00  0.00     0.270 C 
ATOM      8  H   UNL     1      -0.053  -2.171  -2.261  1.00  0.00     0.348 HD
ATOM      9  C   UNL     1       1.660  -2.507   0.484  1.00  0.00     0.036 C 
ATOM     10  C   UNL     1       2.629  -3.042  -0.590  1.00  0.00     0.091 C 
ATOM     11  C   UNL     1       1.270  -3.607   1.494  1.00  0.00     0.075 C 
ATOM     12  C   UNL     1       2.346  -1.365   1.256  1.00  0.00     0.075 C 
ATOM     13  C   UNL     1       0.400  -3.059   2.623  1.00  0.00     0.271 C 
ATOM     14  C   UNL     1       1.492  -0.847   2.406  1.00  0.00     0.271 C 
ATOM     15  N   UNL     1       1.059  -1.929   3.286  1.00  0.00    -0.270 N 
ATOM     16  H   UNL     1       1.937  -1.921   2.840  1.00  0.00     0.356 HD
BRANCH   6  17
ATOM     17  C   UNL     1       1.293  -0.740  -2.246  1.00  0.00     0.262 C 
BRANCH  17  18
ATOM     18  C   UNL     1       0.443   0.523  -2.001  1.00  0.00     0.058 C 
ATOM     19  C   UNL     1       0.892   1.354  -0.803  1.00  0.00     0.010 C 
ENDBRANCH  17  18
ENDBRANCH   6  17
BRANCH  15  20
ATOM     20  C   UNL     1       1.188  -1.759   4.654  1.00  0.00     0.333 C 
ATOM     21  O   UNL     1       1.825  -0.818   5.138  1.00  0.00    -0.229 OA
BRANCH  20  22
ATOM     22  C   UNL     1       0.528  -2.743   5.585  1.00  0.00     0.293 C 
BRANCH  22  23
ATOM     23  N   UNL     1      -0.912  -2.740   5.491  1.00  0.00    -0.216 N 
ATOM     24  N   UNL     1      -1.565  -3.918   5.493  1.00  0.00    -0.044 NA
ATOM     25  C   UNL     1      -1.819  -1.715   5.417  1.00  0.00     0.149 A 
ATOM     26  N   UNL     1      -2.847  -3.611   5.386  1.00  0.00    -0.024 NA
ATOM     27  N   UNL     1      -3.021  -2.253   5.340  1.00  0.00    -0.114 NA
ATOM     28  C   UNL     1      -1.523  -0.267   5.406  1.00  0.00     0.091 C 
ENDBRANCH  22  23
ENDBRANCH  20  22
ENDBRANCH  15  20
ENDBRANCH   3   5
ENDBRANCH   2   3
ENDBRANCH   1   2
BRANCH   1  29
ATOM     29  C   UNL     1      -1.455  -6.068  -2.712  1.00  0.00     0.275 C 
BRANCH  29  30
ATOM     30  O   UNL     1      -0.783  -5.858  -3.950  1.00  0.00    -0.458 OA
BRANCH  30  31
ATOM     31  C   UNL     1      -0.704  -4.561  -4.324  1.00  0.00     0.338 C 
ATOM     32  O   UNL     1      -0.968  -3.580  -3.654  1.00  0.00    -0.246 OA
BRANCH  31  33
ATOM     33  C   UNL     1      -0.423  -4.482  -5.755  1.00  0.00     0.060 A 
ATOM     34  C   UNL     1      -0.112  -3.221  -6.276  1.00  0.00     0.016 A 
ATOM     35  C   UNL     1      -0.782  -5.564  -6.566  1.00  0.00     0.016 A 
ATOM     36  C   UNL     1      -0.332  -2.998  -7.617  1.00  0.00     0.010 A 
ATOM     37  C   UNL     1      -1.022  -5.334  -7.895  1.00  0.00     0.010 A 
ATOM     38  C   UNL     1      -0.862  -4.038  -8.384  1.00  0.00    -0.014 A 
BRANCH  38  39
ATOM     39  C   UNL     1      -1.224  -3.765  -9.754  1.00  0.00     0.031 A 
ATOM     40  C   UNL     1      -0.080  -3.731 -10.685  1.00  0.00     0.074 A 
ATOM     41  C   UNL     1      -2.511  -3.719 -10.143  1.00  0.00     0.049 A 
ATOM     42  N   UNL     1       0.331  -2.729 -11.386  1.00  0.00    -0.248 NA
ATOM     43  C   UNL     1       0.795  -4.912 -10.738  1.00  0.00     0.031 C 
ATOM     44  C   UNL     1      -3.696  -4.053  -9.348  1.00  0.00     0.029 A 
ATOM     45  N   UNL     1      -3.012  -3.529 -11.393  1.00  0.00    -0.354 N 
ATOM     46  C   UNL     1       1.384  -3.226 -12.144  1.00  0.00     0.074 A 
ATOM     47  C   UNL     1       1.748  -4.494 -11.570  1.00  0.00     0.031 C 
ATOM     48  C   UNL     1      -4.727  -4.298 -10.185  1.00  0.00     0.029 A 
ATOM     49  C   UNL     1      -4.300  -4.024 -11.547  1.00  0.00     0.049 A 
ATOM     50  H   UNL     1      -2.511  -3.086 -12.116  1.00  0.00     0.167 HD
ATOM     51  C   UNL     1       1.712  -2.681 -13.344  1.00  0.00     0.034 A 
ATOM     52  C   UNL     1      -4.919  -4.288 -12.722  1.00  0.00     0.034 A 
ATOM     53  C   UNL     1       1.108  -1.390 -13.535  1.00  0.00     0.049 A 
ATOM     54  C   UNL     1      -4.209  -3.533 -13.782  1.00  0.00     0.074 A 
ATOM     55  C   UNL     1       1.146  -0.184 -12.864  1.00  0.00     0.029 A 
ATOM     56  N   UNL     1       0.017  -1.332 -14.367  1.00  0.00    -0.354 N 
ATOM     57  N   UNL     1      -4.220  -2.232 -13.874  1.00  0.00    -0.248 NA
ATOM     58  C   UNL     1      -3.148  -4.199 -14.522  1.00  0.00     0.031 C 
ATOM     59  C   UNL     1      -0.165   0.357 -13.000  1.00  0.00     0.029 A 
ATOM     60  C   UNL     1      -0.919  -0.530 -13.771  1.00  0.00     0.049 A 
ATOM     61  H   UNL     1      -0.076  -1.786 -15.236  1.00  0.00     0.167 HD
ATOM     62  C   UNL     1      -2.934  -1.902 -14.283  1.00  0.00     0.074 A 
ATOM     63  C   UNL     1      -2.373  -3.146 -14.801  1.00  0.00     0.031 C 
ATOM     64  C   UNL     1      -2.349  -0.733 -13.885  1.00  0.00     0.034 A 
BRANCH  51  65
ATOM     65  C   UNL     1       2.287  -3.461 -14.495  1.00  0.00     0.023 A 
ATOM     66  C   UNL     1       2.823  -2.728 -15.574  1.00  0.00     0.012 A 
ATOM     67  C   UNL     1       2.094  -4.848 -14.688  1.00  0.00     0.148 A 
ATOM     68  C   UNL     1       3.121  -3.340 -16.795  1.00  0.00     0.002 A 
ATOM     69  C   UNL     1       2.478  -5.467 -15.870  1.00  0.00     0.091 A 
ATOM     70  F   UNL     1       1.406  -5.562 -13.790  1.00  0.00    -0.205 F 
ATOM     71  C   UNL     1       2.963  -4.713 -16.939  1.00  0.00     0.022 A 
BRANCH  69  72
ATOM     72  S   UNL     1       2.357  -7.248 -16.069  1.00  0.00     0.127 S 
ATOM     73  O   UNL     1       1.137  -7.373 -16.860  1.00  0.00    -0.237 OA
ATOM     74  O   UNL     1       3.596  -7.558 -16.783  1.00  0.00    -0.237 OA
ATOM     75  O   UNL     1       2.306  -7.779 -14.712  1.00  0.00    -0.744 OA
ENDBRANCH  69  72
ENDBRANCH  51  65
BRANCH  52  76
ATOM     76  C   UNL     1      -5.927  -5.326 -13.032  1.00  0.00     0.023 A 
ATOM     77  C   UNL     1      -6.731  -5.191 -14.180  1.00  0.00     0.012 A 
ATOM     78  C   UNL     1      -5.936  -6.567 -12.355  1.00  0.00     0.148 A 
ATOM     79  C   UNL     1      -7.495  -6.263 -14.655  1.00  0.00     0.002 A 
ATOM     80  C   UNL     1      -6.711  -7.625 -12.821  1.00  0.00     0.091 A 
ATOM     81  F   UNL     1      -5.114  -6.746 -11.313  1.00  0.00    -0.205 F 
ATOM     82  C   UNL     1      -7.482  -7.480 -13.979  1.00  0.00     0.022 A 
BRANCH  80  83
ATOM     83  S   UNL     1      -6.729  -9.224 -11.998  1.00  0.00     0.127 S 
ATOM     84  O   UNL     1      -8.155  -9.553 -11.999  1.00  0.00    -0.237 OA
ATOM     85  O   UNL     1      -5.913 -10.036 -12.896  1.00  0.00    -0.237 OA
ATOM     86  O   UNL     1      -6.173  -8.991 -10.671  1.00  0.00    -0.744 OA
ENDBRANCH  80  83
ENDBRANCH  52  76
BRANCH  64  87
ATOM     87  C   UNL     1      -3.224   0.309 -13.229  1.00  0.00     0.023 A 
ATOM     88  C   UNL     1      -3.911   0.055 -12.023  1.00  0.00     0.012 A 
ATOM     89  C   UNL     1      -3.224   1.618 -13.741  1.00  0.00     0.148 A 
ATOM     90  C   UNL     1      -4.610   1.068 -11.364  1.00  0.00     0.002 A 
ATOM     91  C   UNL     1      -3.879   2.636 -13.056  1.00  0.00     0.091 A 
ATOM     92  F   UNL     1      -2.559   1.855 -14.883  1.00  0.00    -0.205 F 
ATOM     93  C   UNL     1      -4.584   2.362 -11.874  1.00  0.00     0.022 A 
BRANCH  91  94
ATOM     94  S   UNL     1      -3.767   4.346 -13.589  1.00  0.00     0.127 S 
ATOM     95  O   UNL     1      -5.045   4.541 -14.270  1.00  0.00    -0.237 OA
ATOM     96  O   UNL     1      -3.633   5.067 -12.321  1.00  0.00    -0.237 OA
ATOM     97  O   UNL     1      -2.582   4.419 -14.436  1.00  0.00    -0.744 OA
ENDBRANCH  91  94
ENDBRANCH  64  87
ENDBRANCH  38  39
ENDBRANCH  31  33
ENDBRANCH  30  31
ENDBRANCH  29  30
ENDBRANCH   1  29
TORSDOF 19
