REMARK SMILES CN(CCOCC1CC1)C(=O)N1CC[C@H](C(=O)OCCOC(=O)c2ccc(-c3c4nc(c(-c5cccc(S(=O)(=O)[O-])c5F)c5ccc([nH]5)c(-c5cccc(S(=O)(=O)[O-])c5F)c5nc(c(-c6cccc(S(=O)(=O)[O-])c6F)c6ccc3[nH]6)C=C5)C=C4)cc2)C1
REMARK SMILES IDX 16 1 17 2 15 3 12 4 13 5 87 6 14 7 10 8 11 9 2 10 1 11 3 12
REMARK SMILES IDX 4 13 5 14 6 15 7 16 8 17 9 18 18 19 19 20 20 21 21 22 22 23
REMARK SMILES IDX 23 24 24 25 25 26 86 27 26 28 85 29 27 30 28 31 29 32 79 33
REMARK SMILES IDX 30 34 84 35 78 36 80 37 31 38 83 39 77 40 76 41 32 43 64 44
REMARK SMILES IDX 44 45 63 46 45 47 48 48 62 49 81 50 46 51 47 52 61 54 82 55
REMARK SMILES IDX 49 56 33 57 34 58 42 59 35 60 37 61 43 62 36 63 38 64 39 65
REMARK SMILES IDX 40 66 41 67 65 68 66 69 74 70 67 71 69 72 75 73 68 74 70 75
REMARK SMILES IDX 71 76 72 77 73 78 50 79 51 80 59 81 52 82 54 83 60 84 53 85
REMARK SMILES IDX 55 86 56 87 57 88 58 89
REMARK H PARENT 80 42 48 53
REMARK Flexibility Score: inf
ROOT
ATOM      1  C   UNL     1       2.108   5.921  -4.260  1.00  0.00     0.310 C 
ATOM      2  O   UNL     1       2.590   7.041  -4.179  1.00  0.00    -0.252 OA
ENDROOT
BRANCH   1   3
ATOM      3  C   UNL     1       1.237   5.318  -3.192  1.00  0.00     0.120 C 
ATOM      4  N   UNL     1       1.089   3.176  -2.155  1.00  0.00    -0.324 N 
ATOM      5  C   UNL     1      -0.234   3.552  -2.632  1.00  0.00     0.122 C 
ATOM      6  C   UNL     1       1.996   4.310  -2.346  1.00  0.00     0.136 C 
ATOM      7  C   UNL     1       0.044   4.537  -3.738  1.00  0.00     0.039 C 
BRANCH   4   8
ATOM      8  C   UNL     1       1.547   2.127  -1.403  1.00  0.00     0.319 C 
ATOM      9  O   UNL     1       2.654   2.228  -0.857  1.00  0.00    -0.248 OA
BRANCH   8  10
ATOM     10  N   UNL     1       0.802   0.982  -1.220  1.00  0.00    -0.325 N 
ATOM     11  C   UNL     1       1.238   0.063  -0.172  1.00  0.00     0.148 C 
BRANCH  10  12
ATOM     12  C   UNL     1      -0.382   0.552  -1.959  1.00  0.00     0.149 C 
BRANCH  12  13
ATOM     13  C   UNL     1      -1.710   0.680  -1.192  1.00  0.00     0.181 C 
BRANCH  13  14
ATOM     14  O   UNL     1      -2.139   1.990  -0.832  1.00  0.00    -0.379 OA
BRANCH  14  15
ATOM     15  C   UNL     1      -1.524   2.567   0.321  1.00  0.00     0.163 C 
BRANCH  15  16
ATOM     16  C   UNL     1      -2.247   2.327   1.608  1.00  0.00     0.015 C 
ATOM     17  C   UNL     1      -3.735   2.104   1.665  1.00  0.00     0.006 C 
ATOM     18  C   UNL     1      -2.793   0.996   2.058  1.00  0.00     0.006 C 
ENDBRANCH  15  16
ENDBRANCH  14  15
ENDBRANCH  13  14
ENDBRANCH  12  13
ENDBRANCH  10  12
ENDBRANCH   8  10
ENDBRANCH   4   8
ENDBRANCH   1   3
BRANCH   1  19
ATOM     19  O   UNL     1       2.252   5.080  -5.317  1.00  0.00    -0.462 OA
BRANCH  19  20
ATOM     20  C   UNL     1       2.698   5.680  -6.543  1.00  0.00     0.274 C 
BRANCH  20  21
ATOM     21  C   UNL     1       1.479   6.053  -7.390  1.00  0.00     0.275 C 
BRANCH  21  22
ATOM     22  O   UNL     1       0.749   7.137  -6.778  1.00  0.00    -0.458 OA
BRANCH  22  23
ATOM     23  C   UNL     1      -0.538   6.886  -6.451  1.00  0.00     0.338 C 
ATOM     24  O   UNL     1      -1.160   5.848  -6.633  1.00  0.00    -0.246 OA
BRANCH  23  25
ATOM     25  C   UNL     1      -1.109   8.038  -5.735  1.00  0.00     0.060 A 
ATOM     26  C   UNL     1      -1.156   8.007  -4.341  1.00  0.00     0.016 A 
ATOM     27  C   UNL     1      -1.694   9.095  -6.431  1.00  0.00     0.016 A 
ATOM     28  C   UNL     1      -1.814   9.007  -3.633  1.00  0.00     0.010 A 
ATOM     29  C   UNL     1      -2.317  10.127  -5.715  1.00  0.00     0.010 A 
ATOM     30  C   UNL     1      -2.395  10.083  -4.312  1.00  0.00    -0.014 A 
BRANCH  30  31
ATOM     31  C   UNL     1      -3.073  11.151  -3.534  1.00  0.00     0.031 A 
ATOM     32  C   UNL     1      -4.561  11.338  -3.630  1.00  0.00     0.074 A 
ATOM     33  C   UNL     1      -2.343  11.947  -2.728  1.00  0.00     0.049 A 
ATOM     34  N   UNL     1      -5.315  12.243  -3.061  1.00  0.00    -0.248 NA
ATOM     35  C   UNL     1      -5.299  10.388  -4.477  1.00  0.00     0.031 C 
ATOM     36  C   UNL     1      -0.892  11.862  -2.549  1.00  0.00     0.029 A 
ATOM     37  N   UNL     1      -2.718  12.990  -1.919  1.00  0.00    -0.354 N 
ATOM     38  C   UNL     1      -6.606  12.005  -3.515  1.00  0.00     0.074 A 
ATOM     39  C   UNL     1      -6.534  10.866  -4.407  1.00  0.00     0.031 C 
ATOM     40  C   UNL     1      -0.500  12.815  -1.689  1.00  0.00     0.029 A 
ATOM     41  C   UNL     1      -1.661  13.605  -1.292  1.00  0.00     0.049 A 
ATOM     42  H   UNL     1      -3.654  13.271  -1.800  1.00  0.00     0.167 HD
ATOM     43  C   UNL     1      -7.749  12.665  -3.208  1.00  0.00     0.034 A 
ATOM     44  C   UNL     1      -1.623  14.698  -0.506  1.00  0.00     0.034 A 
ATOM     45  C   UNL     1      -7.825  13.770  -2.288  1.00  0.00     0.049 A 
ATOM     46  C   UNL     1      -2.908  15.407  -0.178  1.00  0.00     0.074 A 
ATOM     47  C   UNL     1      -8.945  14.472  -1.877  1.00  0.00     0.029 A 
ATOM     48  N   UNL     1      -6.739  14.338  -1.638  1.00  0.00    -0.354 N 
ATOM     49  N   UNL     1      -4.132  15.107  -0.539  1.00  0.00    -0.248 NA
ATOM     50  C   UNL     1      -2.810  16.591   0.687  1.00  0.00     0.031 C 
ATOM     51  C   UNL     1      -8.534  15.476  -0.993  1.00  0.00     0.029 A 
ATOM     52  C   UNL     1      -7.160  15.386  -0.836  1.00  0.00     0.049 A 
ATOM     53  H   UNL     1      -5.806  14.039  -1.732  1.00  0.00     0.167 HD
ATOM     54  C   UNL     1      -4.951  16.050   0.069  1.00  0.00     0.074 A 
ATOM     55  C   UNL     1      -4.086  16.910   0.852  1.00  0.00     0.031 C 
ATOM     56  C   UNL     1      -6.295  16.208  -0.029  1.00  0.00     0.034 A 
BRANCH  43  57
ATOM     57  C   UNL     1      -9.024  12.194  -3.856  1.00  0.00     0.023 A 
ATOM     58  C   UNL     1      -9.630  10.999  -3.418  1.00  0.00     0.012 A 
ATOM     59  C   UNL     1      -9.654  12.962  -4.856  1.00  0.00     0.148 A 
ATOM     60  C   UNL     1     -10.828  10.561  -3.983  1.00  0.00     0.002 A 
ATOM     61  C   UNL     1     -10.867  12.539  -5.387  1.00  0.00     0.091 A 
ATOM     62  F   UNL     1      -9.050  14.083  -5.276  1.00  0.00    -0.205 F 
ATOM     63  C   UNL     1     -11.450  11.335  -4.959  1.00  0.00     0.022 A 
BRANCH  61  64
ATOM     64  S   UNL     1     -11.783  13.503  -6.595  1.00  0.00     0.127 S 
ATOM     65  O   UNL     1     -11.593  12.711  -7.809  1.00  0.00    -0.237 OA
ATOM     66  O   UNL     1     -13.141  13.470  -6.052  1.00  0.00    -0.237 OA
ATOM     67  O   UNL     1     -11.167  14.823  -6.605  1.00  0.00    -0.744 OA
ENDBRANCH  61  64
ENDBRANCH  43  57
BRANCH  44  68
ATOM     68  C   UNL     1      -0.323  15.172   0.047  1.00  0.00     0.023 A 
ATOM     69  C   UNL     1      -0.075  15.064   1.429  1.00  0.00     0.012 A 
ATOM     70  C   UNL     1       0.678  15.700  -0.791  1.00  0.00     0.148 A 
ATOM     71  C   UNL     1       1.136  15.498   1.969  1.00  0.00     0.002 A 
ATOM     72  C   UNL     1       1.904  16.075  -0.255  1.00  0.00     0.091 A 
ATOM     73  F   UNL     1       0.416  15.816  -2.101  1.00  0.00    -0.205 F 
ATOM     74  C   UNL     1       2.129  15.991   1.127  1.00  0.00     0.022 A 
BRANCH  72  75
ATOM     75  S   UNL     1       3.282  16.591  -1.286  1.00  0.00     0.127 S 
ATOM     76  O   UNL     1       3.310  18.032  -1.049  1.00  0.00    -0.237 OA
ATOM     77  O   UNL     1       4.397  15.848  -0.698  1.00  0.00    -0.237 OA
ATOM     78  O   UNL     1       2.934  16.175  -2.638  1.00  0.00    -0.744 OA
ENDBRANCH  72  75
ENDBRANCH  44  68
BRANCH  56  79
ATOM     79  C   UNL     1      -6.913  17.346   0.740  1.00  0.00     0.023 A 
ATOM     80  C   UNL     1      -6.708  18.672   0.306  1.00  0.00     0.012 A 
ATOM     81  C   UNL     1      -7.727  17.106   1.864  1.00  0.00     0.148 A 
ATOM     82  C   UNL     1      -7.269  19.741   1.003  1.00  0.00     0.002 A 
ATOM     83  C   UNL     1      -8.322  18.175   2.525  1.00  0.00     0.091 A 
ATOM     84  F   UNL     1      -7.895  15.841   2.277  1.00  0.00    -0.205 F 
ATOM     85  C   UNL     1      -8.083  19.493   2.105  1.00  0.00     0.022 A 
BRANCH  83  86
ATOM     86  S   UNL     1      -9.456  17.935   3.898  1.00  0.00     0.127 S 
ATOM     87  O   UNL     1      -8.601  18.226   5.047  1.00  0.00    -0.237 OA
ATOM     88  O   UNL     1     -10.486  18.942   3.635  1.00  0.00    -0.237 OA
ATOM     89  O   UNL     1      -9.922  16.559   3.788  1.00  0.00    -0.744 OA
ENDBRANCH  83  86
ENDBRANCH  56  79
ENDBRANCH  30  31
ENDBRANCH  23  25
ENDBRANCH  22  23
ENDBRANCH  21  22
ENDBRANCH  20  21
ENDBRANCH  19  20
ENDBRANCH   1  19
TORSDOF 21
