REMARK SMILES [NH3+][C@@]1(C(=O)OCCOC(=O)c2ccc(-c3c4nc(c(-c5cccc(S(=O)(=O)[O-])c5F)c5ccc([nH]5)c(-c5cccc(S(=O)(=O)[O-])c5F)c5nc(c(-c6cccc(S(=O)(=O)[O-])c6F)c6ccc3[nH]6)C=C5)C=C4)cc2)CCC[C@H]1CCOC1CCCCCC1
REMARK SMILES IDX 3 1 4 2 2 3 74 4 77 5 75 6 76 7 1 8 78 12 79 13 80 14 81 15
REMARK SMILES IDX 82 16 83 17 84 18 87 20 86 21 85 22 5 24 6 25 7 26 8 27 9 28
REMARK SMILES IDX 10 29 11 30 12 31 73 32 13 33 72 34 14 35 15 36 16 37 66 38
REMARK SMILES IDX 17 39 71 40 65 41 67 42 18 43 70 44 64 45 63 46 19 48 51 49
REMARK SMILES IDX 31 50 50 51 32 52 35 53 49 54 68 55 33 56 34 57 48 59 69 60
REMARK SMILES IDX 36 61 20 62 21 63 29 64 22 65 24 66 30 67 23 68 25 69 26 70
REMARK SMILES IDX 27 71 28 72 52 73 53 74 61 75 54 76 56 77 62 78 55 79 57 80
REMARK SMILES IDX 58 81 59 82 60 83 37 84 38 85 46 86 39 87 41 88 47 89 40 90
REMARK SMILES IDX 42 91 43 92 44 93 45 94
REMARK H PARENT 1 9 1 10 1 11 67 47 35 58
REMARK Flexibility Score: 80.00
ROOT
ATOM      1  C   UNL     1      -0.558  -1.572   0.431  1.00  0.00     0.368 C 
ATOM      2  O   UNL     1      -1.194  -1.727  -0.610  1.00  0.00    -0.245 OA
ENDROOT
BRANCH   1   3
ATOM      3  C   UNL     1       1.039  -1.700   0.487  1.00  0.00     0.195 C 
ATOM      4  C   UNL     1       1.296  -3.211   0.736  1.00  0.00     0.081 C 
ATOM      5  C   UNL     1       1.875  -0.998   1.618  1.00  0.00     0.065 C 
ATOM      6  C   UNL     1       1.664  -3.309   2.208  1.00  0.00     0.008 C 
ATOM      7  C   UNL     1       2.596  -2.128   2.373  1.00  0.00     0.011 C 
BRANCH   3   8
ATOM      8  N   UNL     1       1.552  -1.359  -0.854  1.00  0.00    -0.343 N 
ATOM      9  H   UNL     1       0.990  -1.829  -1.563  1.00  0.00     0.345 HD
ATOM     10  H   UNL     1       2.523  -1.662  -0.934  1.00  0.00     0.345 HD
ATOM     11  H   UNL     1       1.499  -0.350  -0.992  1.00  0.00     0.345 HD
ENDBRANCH   3   8
BRANCH   5  12
ATOM     12  C   UNL     1       2.854   0.172   1.331  1.00  0.00     0.039 C 
BRANCH  12  13
ATOM     13  C   UNL     1       2.252   1.581   1.484  1.00  0.00     0.161 C 
BRANCH  13  14
ATOM     14  O   UNL     1       1.973   1.863   2.866  1.00  0.00    -0.378 OA
BRANCH  14  15
ATOM     15  C   UNL     1       0.630   2.307   3.144  1.00  0.00     0.118 C 
BRANCH  15  16
ATOM     16  C   UNL     1      -0.333   1.142   3.008  1.00  0.00     0.032 C 
BRANCH  16  17
ATOM     17  C   UNL     1      -0.123   0.066   4.088  1.00  0.00     0.003 C 
BRANCH  17  18
ATOM     18  C   UNL     1      -1.144   0.176   5.195  1.00  0.00     0.000 CG0
ATOM     19  G   UNL     1      -0.961   1.420   6.048  1.00  0.00     0.000 G0
ENDBRANCH  17  18
ENDBRANCH  16  17
ENDBRANCH  15  16
BRANCH  15  20
ATOM     20  C   UNL     1       0.564   2.902   4.566  1.00  0.00     0.032 C 
BRANCH  20  21
ATOM     21  C   UNL     1      -0.789   2.750   5.298  1.00  0.00     0.003 C 
BRANCH  21  22
ATOM     22  C   UNL     1      -0.961   1.420   6.048  1.00  0.00     0.000 CG0
ATOM     23  G   UNL     1      -1.144   0.176   5.195  1.00  0.00     0.000 G0
ENDBRANCH  21  22
ENDBRANCH  20  21
ENDBRANCH  15  20
ENDBRANCH  14  15
ENDBRANCH  13  14
ENDBRANCH  12  13
ENDBRANCH   5  12
ENDBRANCH   1   3
BRANCH   1  24
ATOM     24  O   UNL     1      -1.180  -1.371   1.628  1.00  0.00    -0.457 OA
BRANCH  24  25
ATOM     25  C   UNL     1      -2.642  -1.381   1.643  1.00  0.00     0.274 C 
BRANCH  25  26
ATOM     26  C   UNL     1      -3.296   0.012   1.702  1.00  0.00     0.275 C 
BRANCH  26  27
ATOM     27  O   UNL     1      -2.834   0.779   0.590  1.00  0.00    -0.458 OA
BRANCH  27  28
ATOM     28  C   UNL     1      -2.707   2.116   0.725  1.00  0.00     0.338 C 
ATOM     29  O   UNL     1      -3.124   2.812   1.645  1.00  0.00    -0.246 OA
BRANCH  28  30
ATOM     30  C   UNL     1      -1.895   2.601  -0.413  1.00  0.00     0.060 A 
ATOM     31  C   UNL     1      -0.988   1.730  -1.032  1.00  0.00     0.016 A 
ATOM     32  C   UNL     1      -2.025   3.906  -0.881  1.00  0.00     0.016 A 
ATOM     33  C   UNL     1      -0.242   2.127  -2.130  1.00  0.00     0.010 A 
ATOM     34  C   UNL     1      -1.329   4.285  -2.033  1.00  0.00     0.010 A 
ATOM     35  C   UNL     1      -0.456   3.388  -2.682  1.00  0.00    -0.014 A 
BRANCH  35  36
ATOM     36  C   UNL     1       0.159   3.759  -3.979  1.00  0.00     0.031 A 
ATOM     37  C   UNL     1       1.016   4.982  -4.067  1.00  0.00     0.074 A 
ATOM     38  C   UNL     1      -0.166   3.066  -5.090  1.00  0.00     0.049 A 
ATOM     39  N   UNL     1       1.379   5.659  -5.122  1.00  0.00    -0.248 NA
ATOM     40  C   UNL     1       1.503   5.533  -2.793  1.00  0.00     0.031 C 
ATOM     41  C   UNL     1      -0.981   1.848  -5.126  1.00  0.00     0.029 A 
ATOM     42  N   UNL     1       0.100   3.325  -6.413  1.00  0.00    -0.354 N 
ATOM     43  C   UNL     1       2.054   6.771  -4.637  1.00  0.00     0.074 A 
ATOM     44  C   UNL     1       2.076   6.659  -3.194  1.00  0.00     0.031 C 
ATOM     45  C   UNL     1      -1.184   1.490  -6.402  1.00  0.00     0.029 A 
ATOM     46  C   UNL     1      -0.589   2.496  -7.270  1.00  0.00     0.049 A 
ATOM     47  H   UNL     1       0.717   4.029  -6.716  1.00  0.00     0.167 HD
ATOM     48  C   UNL     1       2.591   7.795  -5.340  1.00  0.00     0.034 A 
ATOM     49  C   UNL     1      -0.790   2.576  -8.600  1.00  0.00     0.034 A 
ATOM     50  C   UNL     1       2.597   7.859  -6.776  1.00  0.00     0.049 A 
ATOM     51  C   UNL     1      -0.174   3.714  -9.359  1.00  0.00     0.074 A 
ATOM     52  C   UNL     1       3.190   8.807  -7.591  1.00  0.00     0.029 A 
ATOM     53  N   UNL     1       1.970   6.947  -7.613  1.00  0.00    -0.354 N 
ATOM     54  N   UNL     1       0.534   4.718  -8.903  1.00  0.00    -0.248 NA
ATOM     55  C   UNL     1      -0.366   3.725 -10.815  1.00  0.00     0.031 C 
ATOM     56  C   UNL     1       2.890   8.488  -8.918  1.00  0.00     0.029 A 
ATOM     57  C   UNL     1       2.148   7.317  -8.934  1.00  0.00     0.049 A 
ATOM     58  H   UNL     1       1.471   6.154  -7.311  1.00  0.00     0.167 HD
ATOM     59  C   UNL     1       0.903   5.462 -10.016  1.00  0.00     0.074 A 
ATOM     60  C   UNL     1       0.346   4.787 -11.171  1.00  0.00     0.031 C 
ATOM     61  C   UNL     1       1.631   6.603 -10.075  1.00  0.00     0.034 A 
BRANCH  48  62
ATOM     62  C   UNL     1       3.203   8.932  -4.566  1.00  0.00     0.023 A 
ATOM     63  C   UNL     1       4.409   8.746  -3.861  1.00  0.00     0.012 A 
ATOM     64  C   UNL     1       2.597  10.205  -4.574  1.00  0.00     0.148 A 
ATOM     65  C   UNL     1       4.979   9.796  -3.141  1.00  0.00     0.002 A 
ATOM     66  C   UNL     1       3.197  11.258  -3.895  1.00  0.00     0.091 A 
ATOM     67  F   UNL     1       1.437  10.358  -5.229  1.00  0.00    -0.205 F 
ATOM     68  C   UNL     1       4.379  11.052  -3.166  1.00  0.00     0.022 A 
BRANCH  66  69
ATOM     69  S   UNL     1       2.546  12.932  -3.942  1.00  0.00     0.127 S 
ATOM     70  O   UNL     1       2.004  13.075  -2.592  1.00  0.00    -0.237 OA
ATOM     71  O   UNL     1       3.749  13.723  -4.203  1.00  0.00    -0.237 OA
ATOM     72  O   UNL     1       1.565  12.950  -5.018  1.00  0.00    -0.744 OA
ENDBRANCH  66  69
ENDBRANCH  48  62
BRANCH  49  73
ATOM     73  C   UNL     1      -1.624   1.544  -9.278  1.00  0.00     0.023 A 
ATOM     74  C   UNL     1      -1.006   0.596 -10.114  1.00  0.00     0.012 A 
ATOM     75  C   UNL     1      -3.011   1.454  -9.041  1.00  0.00     0.148 A 
ATOM     76  C   UNL     1      -1.757  -0.414 -10.716  1.00  0.00     0.002 A 
ATOM     77  C   UNL     1      -3.742   0.411  -9.597  1.00  0.00     0.091 A 
ATOM     78  F   UNL     1      -3.580   2.372  -8.247  1.00  0.00    -0.205 F 
ATOM     79  C   UNL     1      -3.120  -0.515 -10.448  1.00  0.00     0.022 A 
BRANCH  77  80
ATOM     80  S   UNL     1      -5.471   0.120  -9.200  1.00  0.00     0.127 S 
ATOM     81  O   UNL     1      -6.120   0.393 -10.480  1.00  0.00    -0.237 OA
ATOM     82  O   UNL     1      -5.455  -1.289  -8.806  1.00  0.00    -0.237 OA
ATOM     83  O   UNL     1      -5.791   1.044  -8.122  1.00  0.00    -0.744 OA
ENDBRANCH  77  80
ENDBRANCH  49  73
BRANCH  61  84
ATOM     84  C   UNL     1       1.930   7.176 -11.433  1.00  0.00     0.023 A 
ATOM     85  C   UNL     1       0.924   7.843 -12.158  1.00  0.00     0.012 A 
ATOM     86  C   UNL     1       3.246   7.146 -11.937  1.00  0.00     0.148 A 
ATOM     87  C   UNL     1       1.220   8.458 -13.373  1.00  0.00     0.002 A 
ATOM     88  C   UNL     1       3.545   7.805 -13.122  1.00  0.00     0.091 A 
ATOM     89  F   UNL     1       4.182   6.488 -11.237  1.00  0.00    -0.205 F 
ATOM     90  C   UNL     1       2.531   8.452 -13.847  1.00  0.00     0.022 A 
BRANCH  88  91
ATOM     91  S   UNL     1       5.220   7.940 -13.754  1.00  0.00     0.127 S 
ATOM     92  O   UNL     1       5.145   7.132 -14.971  1.00  0.00    -0.237 OA
ATOM     93  O   UNL     1       5.348   9.379 -13.983  1.00  0.00    -0.237 OA
ATOM     94  O   UNL     1       6.090   7.411 -12.712  1.00  0.00    -0.744 OA
ENDBRANCH  88  91
ENDBRANCH  61  84
ENDBRANCH  35  36
ENDBRANCH  28  30
ENDBRANCH  27  28
ENDBRANCH  26  27
ENDBRANCH  25  26
ENDBRANCH  24  25
ENDBRANCH   1  24
TORSDOF 19
