REMARK SMILES Cc1c(C(=O)Nc2ccc(C(=O)Nc3ccccc3C(=O)OCCOC(=O)c3ccc(-c4c5nc(c(-c6cccc(S(=O)(=O)[O-])c6F)c6ccc([nH]6)c(-c6cccc(S(=O)(=O)[O-])c6F)c6nc(c(-c7cccc(S(=O)(=O)[O-])c7F)c7ccc4[nH]7)C=C6)C=C5)cc3)cc2)cccc1[N+](=O)[O-]
REMARK SMILES IDX 23 1 22 2 20 3 21 4 19 5 14 6 15 7 16 8 18 9 17 10 13 11
REMARK SMILES IDX 11 12 12 13 10 15 7 16 8 17 92 18 9 19 91 20 6 21 4 22 5 23
REMARK SMILES IDX 3 25 1 26 2 27 96 28 93 29 95 30 94 31 97 32 98 33 99 34
REMARK SMILES IDX 24 35 25 36 26 37 27 38 28 39 29 40 90 41 30 42 89 43 31 44
REMARK SMILES IDX 32 45 33 46 83 47 34 48 88 49 82 50 84 51 35 52 87 53 81 54
REMARK SMILES IDX 80 55 36 57 68 58 48 59 67 60 49 61 52 62 66 63 85 64 50 65
REMARK SMILES IDX 51 66 65 68 86 69 53 70 37 71 38 72 46 73 39 74 41 75 47 76
REMARK SMILES IDX 40 77 42 78 43 79 44 80 45 81 69 82 70 83 78 84 71 85 73 86
REMARK SMILES IDX 79 87 72 88 74 89 75 90 76 91 77 92 54 93 55 94 63 95 56 96
REMARK SMILES IDX 58 97 64 98 57 99 59 100 60 101 61 102 62 103
REMARK H PARENT 13 14 6 24 84 56 52 67
REMARK Flexibility Score: inf
ROOT
ATOM      1  C   UNL     1       4.552  -1.792   3.176  1.00  0.00     0.275 C 
ENDROOT
BRANCH   1   2
ATOM      2  O   UNL     1       3.671  -0.642   3.329  1.00  0.00    -0.458 OA
BRANCH   2   3
ATOM      3  C   UNL     1       3.843   0.385   2.474  1.00  0.00     0.340 C 
ATOM      4  O   UNL     1       4.549   0.242   1.512  1.00  0.00    -0.246 OA
BRANCH   3   5
ATOM      5  C   UNL     1       3.072   1.648   2.714  1.00  0.00     0.083 A 
ATOM      6  C   UNL     1       3.231   2.834   1.926  1.00  0.00     0.056 A 
ATOM      7  C   UNL     1       2.472   3.968   2.275  1.00  0.00     0.027 A 
ATOM      8  C   UNL     1       1.515   3.927   3.287  1.00  0.00     0.002 A 
ATOM      9  C   UNL     1       2.127   1.642   3.760  1.00  0.00     0.018 A 
ATOM     10  C   UNL     1       1.340   2.765   4.027  1.00  0.00     0.001 A 
BRANCH   6  11
ATOM     11  N   UNL     1       4.016   3.067   0.748  1.00  0.00    -0.321 N 
ATOM     12  C   UNL     1       4.300   2.329  -0.399  1.00  0.00     0.255 C 
ATOM     13  O   UNL     1       5.092   2.754  -1.243  1.00  0.00    -0.269 OA
ATOM     14  H   UNL     1       4.452   3.950   0.750  1.00  0.00     0.170 HD
BRANCH  12  15
ATOM     15  C   UNL     1       3.636   1.031  -0.681  1.00  0.00     0.040 A 
ATOM     16  C   UNL     1       2.578  -1.541  -0.672  1.00  0.00     0.041 A 
ATOM     17  C   UNL     1       2.039  -0.553   0.130  1.00  0.00     0.027 A 
ATOM     18  C   UNL     1       3.769  -1.302  -1.363  1.00  0.00     0.027 A 
ATOM     19  C   UNL     1       2.430   0.757  -0.056  1.00  0.00     0.016 A 
ATOM     20  C   UNL     1       4.314  -0.006  -1.349  1.00  0.00     0.016 A 
BRANCH  16  21
ATOM     21  N   UNL     1       1.809  -2.684  -0.930  1.00  0.00    -0.322 N 
ATOM     22  C   UNL     1       0.415  -2.748  -0.989  1.00  0.00     0.256 C 
ATOM     23  O   UNL     1      -0.135  -3.843  -1.111  1.00  0.00    -0.269 OA
ATOM     24  H   UNL     1       2.300  -3.524  -1.085  1.00  0.00     0.170 HD
BRANCH  22  25
ATOM     25  C   UNL     1      -0.461  -1.508  -0.882  1.00  0.00     0.049 A 
ATOM     26  C   UNL     1       0.676  -0.185  -2.738  1.00  0.00     0.053 C 
ATOM     27  C   UNL     1      -0.214  -0.251  -1.518  1.00  0.00     0.039 A 
ATOM     28  C   UNL     1      -0.855   0.898  -0.967  1.00  0.00     0.273 A 
ATOM     29  C   UNL     1      -1.502  -1.621   0.058  1.00  0.00     0.014 A 
ATOM     30  C   UNL     1      -1.877   0.752  -0.009  1.00  0.00     0.086 A 
ATOM     31  C   UNL     1      -2.236  -0.507   0.455  1.00  0.00     0.008 A 
BRANCH  28  32
ATOM     32  N   UNL     1      -0.412   2.300  -1.222  1.00  0.00     0.063 N 
ATOM     33  O   UNL     1      -0.902   3.188  -0.506  1.00  0.00    -0.258 OA
ATOM     34  O   UNL     1       0.420   2.521  -2.106  1.00  0.00    -0.258 OA
ENDBRANCH  28  32
ENDBRANCH  22  25
ENDBRANCH  16  21
ENDBRANCH  12  15
ENDBRANCH   6  11
ENDBRANCH   3   5
ENDBRANCH   2   3
ENDBRANCH   1   2
BRANCH   1  35
ATOM     35  C   UNL     1       5.186  -2.347   1.838  1.00  0.00     0.275 C 
BRANCH  35  36
ATOM     36  O   UNL     1       6.119  -1.779   0.832  1.00  0.00    -0.458 OA
BRANCH  36  37
ATOM     37  C   UNL     1       6.975  -0.733   0.712  1.00  0.00     0.338 C 
ATOM     38  O   UNL     1       7.606  -0.485  -0.308  1.00  0.00    -0.246 OA
BRANCH  37  39
ATOM     39  C   UNL     1       7.106   0.093   1.893  1.00  0.00     0.060 A 
ATOM     40  C   UNL     1       6.741   1.457   1.832  1.00  0.00     0.016 A 
ATOM     41  C   UNL     1       7.304  -0.601   3.074  1.00  0.00     0.016 A 
ATOM     42  C   UNL     1       6.412   2.116   3.001  1.00  0.00     0.010 A 
ATOM     43  C   UNL     1       6.926   0.018   4.226  1.00  0.00     0.010 A 
ATOM     44  C   UNL     1       6.596   1.395   4.173  1.00  0.00    -0.014 A 
BRANCH  44  45
ATOM     45  C   UNL     1       7.203   2.060   5.309  1.00  0.00     0.031 A 
ATOM     46  C   UNL     1       6.418   2.098   6.551  1.00  0.00     0.074 A 
ATOM     47  C   UNL     1       8.539   1.928   5.071  1.00  0.00     0.049 A 
ATOM     48  N   UNL     1       6.800   2.659   7.638  1.00  0.00    -0.248 NA
ATOM     49  C   UNL     1       5.065   1.527   6.666  1.00  0.00     0.031 C 
ATOM     50  C   UNL     1       9.632   1.429   5.881  1.00  0.00     0.029 A 
ATOM     51  N   UNL     1       9.168   2.049   3.813  1.00  0.00    -0.354 N 
ATOM     52  C   UNL     1       6.044   2.066   8.634  1.00  0.00     0.074 A 
ATOM     53  C   UNL     1       4.841   1.621   7.982  1.00  0.00     0.031 C 
ATOM     54  C   UNL     1      10.791   1.653   5.213  1.00  0.00     0.029 A 
ATOM     55  C   UNL     1      10.471   2.444   4.024  1.00  0.00     0.049 A 
ATOM     56  H   UNL     1       8.750   1.879   2.938  1.00  0.00     0.167 HD
ATOM     57  C   UNL     1       6.679   1.700   9.786  1.00  0.00     0.034 A 
ATOM     58  C   UNL     1      10.763   3.761   3.775  1.00  0.00     0.034 A 
ATOM     59  C   UNL     1       8.121   2.024   9.657  1.00  0.00     0.049 A 
ATOM     60  C   UNL     1      10.962   4.470   5.102  1.00  0.00     0.074 A 
ATOM     61  C   UNL     1       9.230   1.239   9.383  1.00  0.00     0.029 A 
ATOM     62  N   UNL     1       8.517   3.339   9.419  1.00  0.00    -0.354 N 
ATOM     63  N   UNL     1      10.536   4.013   6.247  1.00  0.00    -0.248 NA
ATOM     64  C   UNL     1      11.681   5.726   5.239  1.00  0.00     0.031 C 
ATOM     65  C   UNL     1      10.274   2.095   8.919  1.00  0.00     0.029 A 
ATOM     66  C   UNL     1       9.799   3.397   8.884  1.00  0.00     0.049 A 
ATOM     67  H   UNL     1       7.959   4.128   9.607  1.00  0.00     0.167 HD
ATOM     68  C   UNL     1      10.839   4.876   7.251  1.00  0.00     0.074 A 
ATOM     69  C   UNL     1      11.617   5.907   6.570  1.00  0.00     0.031 C 
ATOM     70  C   UNL     1      10.383   4.696   8.531  1.00  0.00     0.034 A 
BRANCH  57  71
ATOM     71  C   UNL     1       6.155   0.764  10.877  1.00  0.00     0.023 A 
ATOM     72  C   UNL     1       7.112   0.296  11.811  1.00  0.00     0.012 A 
ATOM     73  C   UNL     1       4.827   0.310  11.090  1.00  0.00     0.148 A 
ATOM     74  C   UNL     1       6.803  -0.594  12.845  1.00  0.00     0.002 A 
ATOM     75  C   UNL     1       4.517  -0.595  12.119  1.00  0.00     0.091 A 
ATOM     76  F   UNL     1       3.831   0.778  10.337  1.00  0.00    -0.205 F 
ATOM     77  C   UNL     1       5.506  -1.050  12.995  1.00  0.00     0.022 A 
BRANCH  75  78
ATOM     78  S   UNL     1       2.856  -1.251  12.398  1.00  0.00     0.127 S 
ATOM     79  O   UNL     1       3.087  -2.697  12.368  1.00  0.00    -0.237 OA
ATOM     80  O   UNL     1       2.527  -0.719  13.720  1.00  0.00    -0.237 OA
ATOM     81  O   UNL     1       2.029  -0.755  11.305  1.00  0.00    -0.744 OA
ENDBRANCH  75  78
ENDBRANCH  57  71
BRANCH  58  82
ATOM     82  C   UNL     1       9.992   4.358   2.600  1.00  0.00     0.023 A 
ATOM     83  C   UNL     1      10.098   3.712   1.337  1.00  0.00     0.012 A 
ATOM     84  C   UNL     1       8.904   5.235   2.791  1.00  0.00     0.148 A 
ATOM     85  C   UNL     1       9.098   3.839   0.361  1.00  0.00     0.002 A 
ATOM     86  C   UNL     1       7.894   5.332   1.821  1.00  0.00     0.091 A 
ATOM     87  F   UNL     1       8.820   5.922   3.937  1.00  0.00    -0.205 F 
ATOM     88  C   UNL     1       7.981   4.625   0.615  1.00  0.00     0.022 A 
BRANCH  86  89
ATOM     89  S   UNL     1       6.339   6.164   2.204  1.00  0.00     0.127 S 
ATOM     90  O   UNL     1       5.382   5.532   1.288  1.00  0.00    -0.237 OA
ATOM     91  O   UNL     1       6.102   5.830   3.601  1.00  0.00    -0.237 OA
ATOM     92  O   UNL     1       6.652   7.556   1.902  1.00  0.00    -0.744 OA
ENDBRANCH  86  89
ENDBRANCH  58  82
BRANCH  70  93
ATOM     93  C   UNL     1      10.441   5.770   9.594  1.00  0.00     0.023 A 
ATOM     94  C   UNL     1      10.604   7.129   9.270  1.00  0.00     0.012 A 
ATOM     95  C   UNL     1      10.185   5.468  10.955  1.00  0.00     0.148 A 
ATOM     96  C   UNL     1      10.644   8.123  10.247  1.00  0.00     0.002 A 
ATOM     97  C   UNL     1      10.062   6.478  11.898  1.00  0.00     0.091 A 
ATOM     98  F   UNL     1      10.078   4.194  11.360  1.00  0.00    -0.205 F 
ATOM     99  C   UNL     1      10.349   7.801  11.561  1.00  0.00     0.022 A 
BRANCH  97 100
ATOM    100  S   UNL     1       9.369   6.147  13.521  1.00  0.00     0.127 S 
ATOM    101  O   UNL     1      10.572   5.990  14.335  1.00  0.00    -0.237 OA
ATOM    102  O   UNL     1       8.607   7.369  13.786  1.00  0.00    -0.237 OA
ATOM    103  O   UNL     1       8.545   4.958  13.351  1.00  0.00    -0.744 OA
ENDBRANCH  97 100
ENDBRANCH  70  93
ENDBRANCH  44  45
ENDBRANCH  37  39
ENDBRANCH  36  37
ENDBRANCH  35  36
ENDBRANCH   1  35
TORSDOF 19
