REMARK SMILES CS(=O)(=O)c1ccc(/C=C(/C(=O)OCCOC(=O)c2ccc(-c3c4nc(c(-c5cccc(S(=O)(=O)[O-])c5F)c5ccc([nH]5)c(-c5cccc(S(=O)(=O)[O-])c5F)c5nc(c(-c6cccc(S(=O)(=O)[O-])c6F)c6ccc3[nH]6)C=C5)C=C4)cc2)c2ccccc2)cc1
REMARK SMILES IDX 15 1 14 2 13 3 11 4 12 5 10 6 9 7 8 8 5 9 6 10 89 11 7 12
REMARK SMILES IDX 88 13 2 14 1 15 3 16 4 17 82 18 83 19 87 20 84 21 86 22
REMARK SMILES IDX 85 23 16 24 17 25 18 26 19 27 20 28 81 29 21 30 80 31 22 32
REMARK SMILES IDX 23 33 24 34 74 35 25 36 79 37 73 38 75 39 26 40 78 41 72 42
REMARK SMILES IDX 71 43 27 45 59 46 39 47 58 48 40 49 43 50 57 51 76 52 41 53
REMARK SMILES IDX 42 54 56 56 77 57 44 58 28 59 29 60 37 61 30 62 32 63 38 64
REMARK SMILES IDX 31 65 33 66 34 67 35 68 36 69 60 70 61 71 69 72 62 73 64 74
REMARK SMILES IDX 70 75 63 76 65 77 66 78 67 79 68 80 45 81 46 82 54 83 47 84
REMARK SMILES IDX 49 85 55 86 48 87 50 88 51 89 52 90 53 91
REMARK H PARENT 75 44 43 55
REMARK Flexibility Score: inf
ROOT
ATOM      1  C   UNL     1       3.488 -11.186  -2.363  1.00  0.00     0.275 C 
ENDROOT
BRANCH   1   2
ATOM      2  C   UNL     1       3.275  -9.915  -3.183  1.00  0.00     0.275 C 
BRANCH   2   3
ATOM      3  O   UNL     1       3.014  -8.789  -2.319  1.00  0.00    -0.458 OA
BRANCH   3   4
ATOM      4  C   UNL     1       1.706  -8.433  -2.217  1.00  0.00     0.338 C 
ATOM      5  O   UNL     1       0.783  -8.940  -2.838  1.00  0.00    -0.246 OA
BRANCH   4   6
ATOM      6  C   UNL     1       1.503  -7.332  -1.228  1.00  0.00     0.067 C 
ATOM      7  C   UNL     1       2.322  -6.257  -1.288  1.00  0.00     0.024 C 
BRANCH   7   8
ATOM      8  C   UNL     1       2.114  -4.939  -0.645  1.00  0.00    -0.025 A 
ATOM      9  C   UNL     1       1.399  -2.384   0.283  1.00  0.00     0.067 A 
ATOM     10  C   UNL     1       1.193  -3.500   1.090  1.00  0.00     0.021 A 
ATOM     11  C   UNL     1       2.049  -2.516  -0.943  1.00  0.00     0.021 A 
ATOM     12  C   UNL     1       1.585  -4.761   0.638  1.00  0.00     0.009 A 
ATOM     13  C   UNL     1       2.399  -3.792  -1.402  1.00  0.00     0.009 A 
BRANCH   9  14
ATOM     14  S   UNL     1       0.757  -0.837   0.868  1.00  0.00     0.175 S 
ATOM     15  C   UNL     1       1.257   0.407  -0.283  1.00  0.00     0.163 C 
ATOM     16  O   UNL     1       1.432  -0.552   2.122  1.00  0.00    -0.224 OA
ATOM     17  O   UNL     1      -0.686  -0.932   0.791  1.00  0.00    -0.224 OA
ENDBRANCH   9  14
ENDBRANCH   7   8
BRANCH   6  18
ATOM     18  C   UNL     1       0.305  -7.387  -0.368  1.00  0.00    -0.011 A 
ATOM     19  C   UNL     1       0.419  -7.889   0.939  1.00  0.00     0.009 A 
ATOM     20  C   UNL     1      -0.928  -6.890  -0.805  1.00  0.00     0.009 A 
ATOM     21  C   UNL     1      -0.673  -7.851   1.808  1.00  0.00     0.001 A 
ATOM     22  C   UNL     1      -2.023  -6.870   0.062  1.00  0.00     0.001 A 
ATOM     23  C   UNL     1      -1.893  -7.341   1.369  1.00  0.00     0.000 A 
ENDBRANCH   6  18
ENDBRANCH   4   6
ENDBRANCH   3   4
ENDBRANCH   2   3
ENDBRANCH   1   2
BRANCH   1  24
ATOM     24  O   UNL     1       2.288 -11.500  -1.636  1.00  0.00    -0.458 OA
BRANCH  24  25
ATOM     25  C   UNL     1       2.413 -11.573  -0.292  1.00  0.00     0.338 C 
ATOM     26  O   UNL     1       3.446 -11.470   0.355  1.00  0.00    -0.246 OA
BRANCH  25  27
ATOM     27  C   UNL     1       1.095 -11.773   0.341  1.00  0.00     0.060 A 
ATOM     28  C   UNL     1       0.005 -10.997  -0.043  1.00  0.00     0.016 A 
ATOM     29  C   UNL     1       0.979 -12.632   1.434  1.00  0.00     0.016 A 
ATOM     30  C   UNL     1      -1.143 -10.976   0.751  1.00  0.00     0.010 A 
ATOM     31  C   UNL     1      -0.221 -12.688   2.157  1.00  0.00     0.010 A 
ATOM     32  C   UNL     1      -1.280 -11.809   1.872  1.00  0.00    -0.014 A 
BRANCH  32  33
ATOM     33  C   UNL     1      -2.480 -11.719   2.768  1.00  0.00     0.031 A 
ATOM     34  C   UNL     1      -2.316 -11.595   4.269  1.00  0.00     0.074 A 
ATOM     35  C   UNL     1      -3.733 -11.738   2.264  1.00  0.00     0.049 A 
ATOM     36  N   UNL     1      -3.213 -11.734   5.215  1.00  0.00    -0.248 NA
ATOM     37  C   UNL     1      -0.966 -11.297   4.778  1.00  0.00     0.031 C 
ATOM     38  C   UNL     1      -4.078 -11.831   0.846  1.00  0.00     0.029 A 
ATOM     39  N   UNL     1      -4.957 -11.681   2.893  1.00  0.00    -0.354 N 
ATOM     40  C   UNL     1      -2.520 -11.656   6.420  1.00  0.00     0.074 A 
ATOM     41  C   UNL     1      -1.131 -11.424   6.088  1.00  0.00     0.031 C 
ATOM     42  C   UNL     1      -5.409 -11.768   0.706  1.00  0.00     0.029 A 
ATOM     43  C   UNL     1      -6.025 -11.746   2.027  1.00  0.00     0.049 A 
ATOM     44  H   UNL     1      -5.058 -11.600   3.869  1.00  0.00     0.167 HD
ATOM     45  C   UNL     1      -2.994 -11.760   7.685  1.00  0.00     0.034 A 
ATOM     46  C   UNL     1      -7.351 -11.832   2.253  1.00  0.00     0.034 A 
ATOM     47  C   UNL     1      -4.389 -11.859   8.027  1.00  0.00     0.049 A 
ATOM     48  C   UNL     1      -7.859 -11.887   3.665  1.00  0.00     0.074 A 
ATOM     49  C   UNL     1      -4.963 -11.919   9.287  1.00  0.00     0.029 A 
ATOM     50  N   UNL     1      -5.431 -11.874   7.115  1.00  0.00    -0.354 N 
ATOM     51  N   UNL     1      -7.185 -11.822   4.786  1.00  0.00    -0.248 NA
ATOM     52  C   UNL     1      -9.311 -12.034   3.843  1.00  0.00     0.031 C 
ATOM     53  C   UNL     1      -6.353 -11.967   9.135  1.00  0.00     0.029 A 
ATOM     54  C   UNL     1      -6.644 -11.931   7.782  1.00  0.00     0.049 A 
ATOM     55  H   UNL     1      -5.326 -11.849   6.136  1.00  0.00     0.167 HD
ATOM     56  C   UNL     1      -8.128 -11.916   5.802  1.00  0.00     0.074 A 
ATOM     57  C   UNL     1      -9.425 -12.002   5.165  1.00  0.00     0.031 C 
ATOM     58  C   UNL     1      -7.933 -11.964   7.142  1.00  0.00     0.034 A 
BRANCH  45  59
ATOM     59  C   UNL     1      -2.001 -11.741   8.820  1.00  0.00     0.023 A 
ATOM     60  C   UNL     1      -1.419 -10.525   9.226  1.00  0.00     0.012 A 
ATOM     61  C   UNL     1      -1.718 -12.918   9.544  1.00  0.00     0.148 A 
ATOM     62  C   UNL     1      -0.552 -10.484  10.319  1.00  0.00     0.002 A 
ATOM     63  C   UNL     1      -0.886 -12.862  10.657  1.00  0.00     0.091 A 
ATOM     64  F   UNL     1      -2.264 -14.071   9.132  1.00  0.00    -0.205 F 
ATOM     65  C   UNL     1      -0.296 -11.647  11.041  1.00  0.00     0.022 A 
BRANCH  63  66
ATOM     66  S   UNL     1      -0.572 -14.295  11.696  1.00  0.00     0.127 S 
ATOM     67  O   UNL     1       0.767 -14.688  11.261  1.00  0.00    -0.237 OA
ATOM     68  O   UNL     1      -0.631 -13.726  13.043  1.00  0.00    -0.237 OA
ATOM     69  O   UNL     1      -1.637 -15.242  11.396  1.00  0.00    -0.744 OA
ENDBRANCH  63  66
ENDBRANCH  45  59
BRANCH  46  70
ATOM     70  C   UNL     1      -8.292 -11.868   1.096  1.00  0.00     0.023 A 
ATOM     71  C   UNL     1      -9.133 -10.766   0.854  1.00  0.00     0.012 A 
ATOM     72  C   UNL     1      -8.304 -12.951   0.195  1.00  0.00     0.148 A 
ATOM     73  C   UNL     1      -9.972 -10.744  -0.261  1.00  0.00     0.002 A 
ATOM     74  C   UNL     1      -9.086 -12.889  -0.952  1.00  0.00     0.091 A 
ATOM     75  F   UNL     1      -7.526 -14.010   0.459  1.00  0.00    -0.205 F 
ATOM     76  C   UNL     1      -9.933 -11.795  -1.175  1.00  0.00     0.022 A 
BRANCH  74  77
ATOM     77  S   UNL     1      -8.941 -14.121  -2.252  1.00  0.00     0.127 S 
ATOM     78  O   UNL     1     -10.079 -14.991  -1.974  1.00  0.00    -0.237 OA
ATOM     79  O   UNL     1      -9.067 -13.310  -3.465  1.00  0.00    -0.237 OA
ATOM     80  O   UNL     1      -7.620 -14.709  -2.071  1.00  0.00    -0.744 OA
ENDBRANCH  74  77
ENDBRANCH  46  70
BRANCH  58  81
ATOM     81  C   UNL     1      -9.150 -12.106   8.016  1.00  0.00     0.023 A 
ATOM     82  C   UNL     1      -9.784 -13.360   8.115  1.00  0.00     0.012 A 
ATOM     83  C   UNL     1      -9.630 -11.024   8.778  1.00  0.00     0.148 A 
ATOM     84  C   UNL     1     -10.897 -13.528   8.938  1.00  0.00     0.002 A 
ATOM     85  C   UNL     1     -10.717 -11.209   9.625  1.00  0.00     0.091 A 
ATOM     86  F   UNL     1      -9.027  -9.833   8.653  1.00  0.00    -0.205 F 
ATOM     87  C   UNL     1     -11.357 -12.457   9.700  1.00  0.00     0.022 A 
BRANCH  85  88
ATOM     88  S   UNL     1     -11.326  -9.902  10.697  1.00  0.00     0.127 S 
ATOM     89  O   UNL     1     -12.504  -9.440   9.966  1.00  0.00    -0.237 OA
ATOM     90  O   UNL     1     -11.622 -10.622  11.937  1.00  0.00    -0.237 OA
ATOM     91  O   UNL     1     -10.236  -8.942  10.807  1.00  0.00    -0.744 OA
ENDBRANCH  85  88
ENDBRANCH  58  81
ENDBRANCH  32  33
ENDBRANCH  25  27
ENDBRANCH  24  25
ENDBRANCH   1  24
TORSDOF 17
