REMARK SMILES C[N@H+](Cc1cc(Cl)ccc1[N+](=O)[O-])[C@H]1COC[C@@H]1C(=O)OCCOC(=O)c1ccc(-c2c3nc(c(-c4cccc(S(=O)(=O)[O-])c4F)c4ccc([nH]4)c(-c4cccc(S(=O)(=O)[O-])c4F)c4nc(c(-c5cccc(S(=O)(=O)[O-])c5F)c5ccc2[nH]5)C=C4)C=C3)cc1
REMARK SMILES IDX 22 1 21 2 19 3 20 4 18 5 14 6 15 7 16 8 17 9 2 10 1 11 3 13
REMARK SMILES IDX 4 14 5 15 10 16 6 17 9 18 7 19 8 20 11 21 12 22 13 23 23 24
REMARK SMILES IDX 24 25 25 26 26 27 27 28 28 29 89 30 29 31 88 32 30 33 31 34
REMARK SMILES IDX 32 35 82 36 33 37 87 38 81 39 83 40 34 41 86 42 80 43 79 44
REMARK SMILES IDX 35 46 67 47 47 48 66 49 48 50 51 51 65 52 84 53 49 54 50 55
REMARK SMILES IDX 64 57 85 58 52 59 36 60 37 61 45 62 38 63 40 64 46 65 39 66
REMARK SMILES IDX 41 67 42 68 43 69 44 70 68 71 69 72 77 73 70 74 72 75 78 76
REMARK SMILES IDX 71 77 73 78 74 79 75 80 76 81 53 82 54 83 62 84 55 85 57 86
REMARK SMILES IDX 63 87 56 88 58 89 59 90 60 91 61 92
REMARK H PARENT 2 12 83 45 51 56
REMARK Flexibility Score: inf
ROOT
ATOM      1  C   UNL     1      -3.024   3.072   0.637  1.00  0.00     0.274 C 
ENDROOT
BRANCH   1   2
ATOM      2  O   UNL     1      -2.130   3.219  -0.486  1.00  0.00    -0.462 OA
BRANCH   2   3
ATOM      3  C   UNL     1      -0.840   3.550  -0.195  1.00  0.00     0.317 C 
ATOM      4  O   UNL     1      -0.385   3.657   0.934  1.00  0.00    -0.252 OA
BRANCH   3   5
ATOM      5  C   UNL     1      -0.056   3.796  -1.469  1.00  0.00     0.185 C 
ATOM      6  C   UNL     1       0.936   2.659  -1.768  1.00  0.00     0.227 C 
ATOM      7  C   UNL     1       2.168   3.185  -0.997  1.00  0.00     0.226 C 
ATOM      8  O   UNL     1       2.186   4.598  -1.212  1.00  0.00    -0.374 OA
ATOM      9  C   UNL     1       0.822   5.033  -1.284  1.00  0.00     0.182 C 
BRANCH   6  10
ATOM     10  N   UNL     1       1.160   2.285  -3.204  1.00  0.00    -0.328 N 
ATOM     11  C   UNL     1       2.470   1.666  -3.425  1.00  0.00     0.333 C 
ATOM     12  H   UNL     1       0.473   1.556  -3.395  1.00  0.00     0.348 HD
BRANCH  10  13
ATOM     13  C   UNL     1       0.802   3.315  -4.181  1.00  0.00     0.306 C 
BRANCH  13  14
ATOM     14  C   UNL     1       1.182   3.037  -5.621  1.00  0.00     0.085 A 
ATOM     15  C   UNL     1       0.524   1.997  -6.310  1.00  0.00     0.037 A 
ATOM     16  C   UNL     1       2.180   3.749  -6.314  1.00  0.00     0.278 A 
ATOM     17  C   UNL     1       0.854   1.693  -7.634  1.00  0.00     0.042 A 
ATOM     18  C   UNL     1       2.519   3.437  -7.640  1.00  0.00     0.088 A 
ATOM     19  Cl  UNL     1       0.025   0.429  -8.456  1.00  0.00    -0.084 Cl
ATOM     20  C   UNL     1       1.849   2.407  -8.299  1.00  0.00     0.027 A 
BRANCH  16  21
ATOM     21  N   UNL     1       2.894   4.866  -5.704  1.00  0.00     0.063 N 
ATOM     22  O   UNL     1       4.131   4.839  -5.758  1.00  0.00    -0.258 OA
ATOM     23  O   UNL     1       2.214   5.795  -5.249  1.00  0.00    -0.258 OA
ENDBRANCH  16  21
ENDBRANCH  13  14
ENDBRANCH  10  13
ENDBRANCH   6  10
ENDBRANCH   3   5
ENDBRANCH   2   3
ENDBRANCH   1   2
BRANCH   1  24
ATOM     24  C   UNL     1      -3.325   1.601   0.899  1.00  0.00     0.275 C 
BRANCH  24  25
ATOM     25  O   UNL     1      -2.126   0.956   1.353  1.00  0.00    -0.458 OA
BRANCH  25  26
ATOM     26  C   UNL     1      -1.742  -0.138   0.667  1.00  0.00     0.338 C 
ATOM     27  O   UNL     1      -2.345  -0.692  -0.250  1.00  0.00    -0.246 OA
BRANCH  26  28
ATOM     28  C   UNL     1      -0.421  -0.572   1.138  1.00  0.00     0.060 A 
ATOM     29  C   UNL     1       0.655   0.306   1.034  1.00  0.00     0.016 A 
ATOM     30  C   UNL     1      -0.214  -1.882   1.561  1.00  0.00     0.016 A 
ATOM     31  C   UNL     1       1.955  -0.150   1.221  1.00  0.00     0.010 A 
ATOM     32  C   UNL     1       1.083  -2.304   1.873  1.00  0.00     0.010 A 
ATOM     33  C   UNL     1       2.190  -1.460   1.659  1.00  0.00    -0.014 A 
BRANCH  33  34
ATOM     34  C   UNL     1       3.584  -1.956   1.844  1.00  0.00     0.031 A 
ATOM     35  C   UNL     1       4.048  -3.192   1.117  1.00  0.00     0.074 A 
ATOM     36  C   UNL     1       4.444  -1.305   2.655  1.00  0.00     0.049 A 
ATOM     37  N   UNL     1       5.143  -3.887   1.286  1.00  0.00    -0.248 NA
ATOM     38  C   UNL     1       3.156  -3.729   0.075  1.00  0.00     0.031 C 
ATOM     39  C   UNL     1       4.149  -0.080   3.401  1.00  0.00     0.029 A 
ATOM     40  N   UNL     1       5.748  -1.585   2.990  1.00  0.00    -0.354 N 
ATOM     41  C   UNL     1       5.029  -4.988   0.445  1.00  0.00     0.074 A 
ATOM     42  C   UNL     1       3.768  -4.858  -0.253  1.00  0.00     0.031 C 
ATOM     43  C   UNL     1       5.244   0.305   4.072  1.00  0.00     0.029 A 
ATOM     44  C   UNL     1       6.291  -0.692   3.884  1.00  0.00     0.049 A 
ATOM     45  H   UNL     1       6.245  -2.353   2.624  1.00  0.00     0.167 HD
ATOM     46  C   UNL     1       5.897  -6.012   0.264  1.00  0.00     0.034 A 
ATOM     47  C   UNL     1       7.480  -0.692   4.519  1.00  0.00     0.034 A 
ATOM     48  C   UNL     1       7.193  -6.091   0.882  1.00  0.00     0.049 A 
ATOM     49  C   UNL     1       8.439  -1.823   4.278  1.00  0.00     0.074 A 
ATOM     50  C   UNL     1       8.157  -7.073   0.733  1.00  0.00     0.029 A 
ATOM     51  N   UNL     1       7.718  -5.143   1.745  1.00  0.00    -0.354 N 
ATOM     52  N   UNL     1       8.319  -2.847   3.467  1.00  0.00    -0.248 NA
ATOM     53  C   UNL     1       9.697  -1.801   5.037  1.00  0.00     0.031 C 
ATOM     54  C   UNL     1       9.267  -6.717   1.508  1.00  0.00     0.029 A 
ATOM     55  C   UNL     1       8.994  -5.511   2.133  1.00  0.00     0.049 A 
ATOM     56  H   UNL     1       7.251  -4.327   2.039  1.00  0.00     0.167 HD
ATOM     57  C   UNL     1       9.488  -3.584   3.611  1.00  0.00     0.074 A 
ATOM     58  C   UNL     1      10.319  -2.871   4.559  1.00  0.00     0.031 C 
ATOM     59  C   UNL     1       9.831  -4.761   3.033  1.00  0.00     0.034 A 
BRANCH  46  60
ATOM     60  C   UNL     1       5.483  -7.126  -0.659  1.00  0.00     0.023 A 
ATOM     61  C   UNL     1       5.537  -6.939  -2.053  1.00  0.00     0.012 A 
ATOM     62  C   UNL     1       5.093  -8.377  -0.142  1.00  0.00     0.148 A 
ATOM     63  C   UNL     1       5.184  -7.973  -2.921  1.00  0.00     0.002 A 
ATOM     64  C   UNL     1       4.779  -9.415  -1.012  1.00  0.00     0.091 A 
ATOM     65  F   UNL     1       5.021  -8.527   1.189  1.00  0.00    -0.205 F 
ATOM     66  C   UNL     1       4.816  -9.212  -2.401  1.00  0.00     0.022 A 
BRANCH  64  67
ATOM     67  S   UNL     1       4.363 -11.063  -0.431  1.00  0.00     0.127 S 
ATOM     68  O   UNL     1       2.911 -11.079  -0.601  1.00  0.00    -0.237 OA
ATOM     69  O   UNL     1       5.095 -11.919  -1.366  1.00  0.00    -0.237 OA
ATOM     70  O   UNL     1       4.838 -11.130   0.944  1.00  0.00    -0.744 OA
ENDBRANCH  64  67
ENDBRANCH  46  60
BRANCH  47  71
ATOM     71  C   UNL     1       7.829   0.429   5.439  1.00  0.00     0.023 A 
ATOM     72  C   UNL     1       8.848   1.329   5.076  1.00  0.00     0.012 A 
ATOM     73  C   UNL     1       7.130   0.636   6.644  1.00  0.00     0.148 A 
ATOM     74  C   UNL     1       9.173   2.407   5.901  1.00  0.00     0.002 A 
ATOM     75  C   UNL     1       7.414   1.747   7.430  1.00  0.00     0.091 A 
ATOM     76  F   UNL     1       6.184  -0.248   6.993  1.00  0.00    -0.205 F 
ATOM     77  C   UNL     1       8.446   2.625   7.069  1.00  0.00     0.022 A 
BRANCH  75  78
ATOM     78  S   UNL     1       6.416   2.174   8.862  1.00  0.00     0.127 S 
ATOM     79  O   UNL     1       7.251   1.702   9.962  1.00  0.00    -0.237 OA
ATOM     80  O   UNL     1       6.314   3.629   8.745  1.00  0.00    -0.237 OA
ATOM     81  O   UNL     1       5.152   1.474   8.670  1.00  0.00    -0.744 OA
ENDBRANCH  75  78
ENDBRANCH  47  71
BRANCH  59  82
ATOM     82  C   UNL     1      11.167  -5.349   3.396  1.00  0.00     0.023 A 
ATOM     83  C   UNL     1      11.330  -5.974   4.647  1.00  0.00     0.012 A 
ATOM     84  C   UNL     1      12.233  -5.348   2.476  1.00  0.00     0.148 A 
ATOM     85  C   UNL     1      12.544  -6.569   4.988  1.00  0.00     0.002 A 
ATOM     86  C   UNL     1      13.427  -5.977   2.808  1.00  0.00     0.091 A 
ATOM     87  F   UNL     1      12.065  -4.726   1.300  1.00  0.00    -0.205 F 
ATOM     88  C   UNL     1      13.588  -6.581   4.066  1.00  0.00     0.022 A 
BRANCH  86  89
ATOM     89  S   UNL     1      14.789  -6.111   1.643  1.00  0.00     0.127 S 
ATOM     90  O   UNL     1      15.687  -5.058   2.110  1.00  0.00    -0.237 OA
ATOM     91  O   UNL     1      15.272  -7.473   1.877  1.00  0.00    -0.237 OA
ATOM     92  O   UNL     1      14.202  -5.903   0.326  1.00  0.00    -0.744 OA
ENDBRANCH  86  89
ENDBRANCH  59  82
ENDBRANCH  33  34
ENDBRANCH  26  28
ENDBRANCH  25  26
ENDBRANCH  24  25
ENDBRANCH   1  24
TORSDOF 18
