REMARK SMILES COCCS(=O)(=O)N1C[C@@H](C(=O)OCCOC(=O)c2ccc(-c3c4nc(c(-c5cccc(S(=O)(=O)[O-])c5F)c5ccc([nH]5)c(-c5cccc(S(=O)(=O)[O-])c5F)c5nc(c(-c6cccc(S(=O)(=O)[O-])c6F)c6ccc3[nH]6)C=C5)C=C4)cc2)c2ccccc21
REMARK SMILES IDX 14 1 13 2 11 3 12 4 10 5 8 6 9 7 87 8 82 9 86 10 83 11 85 12
REMARK SMILES IDX 84 13 5 14 6 15 7 16 4 17 3 18 2 19 1 20 15 21 16 22 17 23
REMARK SMILES IDX 18 24 19 25 20 26 81 27 21 28 80 29 22 30 23 31 24 32 74 33
REMARK SMILES IDX 25 34 79 35 73 36 75 37 26 38 78 39 72 40 71 41 27 43 59 44
REMARK SMILES IDX 39 45 58 46 40 47 43 48 57 49 76 50 41 51 42 52 56 54 77 55
REMARK SMILES IDX 44 56 28 57 29 58 37 59 30 60 32 61 38 62 31 63 33 64 34 65
REMARK SMILES IDX 35 66 36 67 60 68 61 69 69 70 62 71 64 72 70 73 63 74 65 75
REMARK SMILES IDX 66 76 67 77 68 78 45 79 46 80 54 81 47 82 49 83 55 84 48 85
REMARK SMILES IDX 50 86 51 87 52 88 53 89
REMARK H PARENT 75 42 43 53
REMARK Flexibility Score: inf
ROOT
ATOM      1  C   UNL     1      -1.409  -4.488   3.958  1.00  0.00     0.274 C 
ENDROOT
BRANCH   1   2
ATOM      2  O   UNL     1      -1.198  -3.393   3.045  1.00  0.00    -0.462 OA
BRANCH   2   3
ATOM      3  C   UNL     1       0.095  -3.054   2.804  1.00  0.00     0.315 C 
ATOM      4  O   UNL     1       1.063  -3.579   3.345  1.00  0.00    -0.251 OA
BRANCH   3   5
ATOM      5  C   UNL     1       0.263  -1.939   1.806  1.00  0.00     0.152 C 
ATOM      6  N   UNL     1       0.060   0.444   1.926  1.00  0.00    -0.269 N 
ATOM      7  C   UNL     1       0.783  -0.688   2.544  1.00  0.00     0.155 C 
ATOM      8  C   UNL     1      -1.076  -0.043   1.236  1.00  0.00     0.056 A 
ATOM      9  C   UNL     1      -0.958  -1.425   1.089  1.00  0.00    -0.008 A 
ATOM     10  C   UNL     1      -2.113   0.656   0.649  1.00  0.00     0.027 A 
ATOM     11  C   UNL     1      -1.818  -2.121   0.250  1.00  0.00     0.007 A 
ATOM     12  C   UNL     1      -2.996  -0.041  -0.179  1.00  0.00     0.002 A 
ATOM     13  C   UNL     1      -2.836  -1.416  -0.394  1.00  0.00     0.000 A 
BRANCH   6  14
ATOM     14  S   UNL     1       0.442   2.016   2.238  1.00  0.00     0.237 S 
ATOM     15  O   UNL     1       1.779   2.045   2.802  1.00  0.00    -0.206 OA
ATOM     16  O   UNL     1      -0.657   2.619   2.967  1.00  0.00    -0.206 OA
BRANCH  14  17
ATOM     17  C   UNL     1       0.534   2.825   0.640  1.00  0.00     0.188 C 
BRANCH  17  18
ATOM     18  C   UNL     1       1.501   2.161  -0.316  1.00  0.00     0.178 C 
BRANCH  18  19
ATOM     19  O   UNL     1       0.871   1.046  -0.943  1.00  0.00    -0.384 OA
ATOM     20  C   UNL     1       1.783  -0.008  -1.221  1.00  0.00     0.194 C 
ENDBRANCH  18  19
ENDBRANCH  17  18
ENDBRANCH  14  17
ENDBRANCH   6  14
ENDBRANCH   3   5
ENDBRANCH   2   3
ENDBRANCH   1   2
BRANCH   1  21
ATOM     21  C   UNL     1      -1.751  -5.768   3.199  1.00  0.00     0.275 C 
BRANCH  21  22
ATOM     22  O   UNL     1      -0.688  -6.112   2.294  1.00  0.00    -0.458 OA
BRANCH  22  23
ATOM     23  C   UNL     1      -0.982  -6.008   0.981  1.00  0.00     0.338 C 
ATOM     24  O   UNL     1      -2.048  -5.683   0.475  1.00  0.00    -0.246 OA
BRANCH  23  25
ATOM     25  C   UNL     1       0.209  -6.323   0.187  1.00  0.00     0.060 A 
ATOM     26  C   UNL     1       1.192  -5.348  -0.000  1.00  0.00     0.016 A 
ATOM     27  C   UNL     1       0.300  -7.559  -0.450  1.00  0.00     0.016 A 
ATOM     28  C   UNL     1       2.266  -5.599  -0.852  1.00  0.00     0.010 A 
ATOM     29  C   UNL     1       1.398  -7.824  -1.269  1.00  0.00     0.010 A 
ATOM     30  C   UNL     1       2.380  -6.842  -1.491  1.00  0.00    -0.014 A 
BRANCH  30  31
ATOM     31  C   UNL     1       3.519  -7.133  -2.395  1.00  0.00     0.031 A 
ATOM     32  C   UNL     1       3.282  -7.337  -3.865  1.00  0.00     0.074 A 
ATOM     33  C   UNL     1       4.755  -7.283  -1.881  1.00  0.00     0.049 A 
ATOM     34  N   UNL     1       4.114  -7.749  -4.786  1.00  0.00    -0.248 NA
ATOM     35  C   UNL     1       1.927  -7.049  -4.364  1.00  0.00     0.031 C 
ATOM     36  C   UNL     1       5.106  -7.117  -0.470  1.00  0.00     0.029 A 
ATOM     37  N   UNL     1       5.934  -7.647  -2.480  1.00  0.00    -0.354 N 
ATOM     38  C   UNL     1       3.377  -7.818  -5.961  1.00  0.00     0.074 A 
ATOM     39  C   UNL     1       2.029  -7.400  -5.639  1.00  0.00     0.031 C 
ATOM     40  C   UNL     1       6.408  -7.403  -0.307  1.00  0.00     0.029 A 
ATOM     41  C   UNL     1       6.969  -7.816  -1.589  1.00  0.00     0.049 A 
ATOM     42  H   UNL     1       6.031  -7.774  -3.451  1.00  0.00     0.167 HD
ATOM     43  C   UNL     1       3.789  -8.184  -7.198  1.00  0.00     0.034 A 
ATOM     44  C   UNL     1       8.217  -8.287  -1.776  1.00  0.00     0.034 A 
ATOM     45  C   UNL     1       5.141  -8.556  -7.521  1.00  0.00     0.049 A 
ATOM     46  C   UNL     1       8.646  -8.696  -3.158  1.00  0.00     0.074 A 
ATOM     47  C   UNL     1       5.670  -8.883  -8.758  1.00  0.00     0.029 A 
ATOM     48  N   UNL     1       6.175  -8.657  -6.604  1.00  0.00    -0.354 N 
ATOM     49  N   UNL     1       7.967  -8.653  -4.278  1.00  0.00    -0.248 NA
ATOM     50  C   UNL     1      10.020  -9.198  -3.306  1.00  0.00     0.031 C 
ATOM     51  C   UNL     1       7.024  -9.193  -8.585  1.00  0.00     0.029 A 
ATOM     52  C   UNL     1       7.339  -9.049  -7.244  1.00  0.00     0.049 A 
ATOM     53  H   UNL     1       6.094  -8.476  -5.640  1.00  0.00     0.167 HD
ATOM     54  C   UNL     1       8.835  -9.100  -5.268  1.00  0.00     0.074 A 
ATOM     55  C   UNL     1      10.098  -9.385  -4.617  1.00  0.00     0.031 C 
ATOM     56  C   UNL     1       8.602  -9.278  -6.591  1.00  0.00     0.034 A 
BRANCH  43  57
ATOM     57  C   UNL     1       2.775  -8.164  -8.310  1.00  0.00     0.023 A 
ATOM     58  C   UNL     1       2.377  -6.931  -8.862  1.00  0.00     0.012 A 
ATOM     59  C   UNL     1       2.267  -9.361  -8.850  1.00  0.00     0.148 A 
ATOM     60  C   UNL     1       1.470  -6.887  -9.921  1.00  0.00     0.002 A 
ATOM     61  C   UNL     1       1.390  -9.312  -9.928  1.00  0.00     0.091 A 
ATOM     62  F   UNL     1       2.637 -10.524  -8.294  1.00  0.00    -0.205 F 
ATOM     63  C   UNL     1       0.985  -8.076 -10.460  1.00  0.00     0.022 A 
BRANCH  61  64
ATOM     64  S   UNL     1       0.766 -10.793 -10.733  1.00  0.00     0.127 S 
ATOM     65  O   UNL     1      -0.606 -10.844 -10.232  1.00  0.00    -0.237 OA
ATOM     66  O   UNL     1       0.885 -10.451 -12.151  1.00  0.00    -0.237 OA
ATOM     67  O   UNL     1       1.636 -11.877 -10.298  1.00  0.00    -0.744 OA
ENDBRANCH  61  64
ENDBRANCH  43  57
BRANCH  44  68
ATOM     68  C   UNL     1       9.156  -8.368  -0.623  1.00  0.00     0.023 A 
ATOM     69  C   UNL     1      10.244  -7.478  -0.556  1.00  0.00     0.012 A 
ATOM     70  C   UNL     1       8.952  -9.284   0.428  1.00  0.00     0.148 A 
ATOM     71  C   UNL     1      11.122  -7.509   0.527  1.00  0.00     0.002 A 
ATOM     72  C   UNL     1       9.799  -9.274   1.530  1.00  0.00     0.091 A 
ATOM     73  F   UNL     1       7.924 -10.140   0.336  1.00  0.00    -0.205 F 
ATOM     74  C   UNL     1      10.893  -8.397   1.575  1.00  0.00     0.022 A 
BRANCH  72  75
ATOM     75  S   UNL     1       9.491 -10.288   2.981  1.00  0.00     0.127 S 
ATOM     76  O   UNL     1      10.483 -11.348   2.821  1.00  0.00    -0.237 OA
ATOM     77  O   UNL     1       9.759  -9.352   4.073  1.00  0.00    -0.237 OA
ATOM     78  O   UNL     1       8.097 -10.698   2.877  1.00  0.00    -0.744 OA
ENDBRANCH  72  75
ENDBRANCH  44  68
BRANCH  56  79
ATOM     79  C   UNL     1       9.739  -9.789  -7.435  1.00  0.00     0.023 A 
ATOM     80  C   UNL     1      10.100 -11.148  -7.362  1.00  0.00     0.012 A 
ATOM     81  C   UNL     1      10.397  -8.945  -8.352  1.00  0.00     0.148 A 
ATOM     82  C   UNL     1      11.115 -11.656  -8.172  1.00  0.00     0.002 A 
ATOM     83  C   UNL     1      11.379  -9.468  -9.185  1.00  0.00     0.091 A 
ATOM     84  F   UNL     1      10.053  -7.649  -8.390  1.00  0.00    -0.205 F 
ATOM     85  C   UNL     1      11.745 -10.820  -9.091  1.00  0.00     0.022 A 
BRANCH  83  86
ATOM     86  S   UNL     1      12.181  -8.483 -10.456  1.00  0.00     0.127 S 
ATOM     87  O   UNL     1      13.492  -8.235  -9.859  1.00  0.00    -0.237 OA
ATOM     88  O   UNL     1      12.194  -9.397 -11.599  1.00  0.00    -0.237 OA
ATOM     89  O   UNL     1      11.340  -7.307 -10.638  1.00  0.00    -0.744 OA
ENDBRANCH  83  86
ENDBRANCH  56  79
ENDBRANCH  30  31
ENDBRANCH  23  25
ENDBRANCH  22  23
ENDBRANCH  21  22
ENDBRANCH   1  21
TORSDOF 18
