REMARK SMILES O=C(OCCOC(=O)c1ccc(-c2c3nc(c(-c4cccc(S(=O)(=O)[O-])c4F)c4ccc([nH]4)c(-c4cccc(S(=O)(=O)[O-])c4F)c4nc(c(-c5cccc(S(=O)(=O)[O-])c5F)c5ccc2[nH]5)C=C4)C=C3)cc1)C1=Cc2c(ccc(Cl)c2Cl)O[C@H]1C(F)(F)F
REMARK SMILES IDX 5 1 4 2 3 3 2 4 1 5 72 6 73 7 83 8 74 9 82 10 75 11 80 12
REMARK SMILES IDX 76 13 78 14 81 15 77 16 79 17 84 18 85 19 86 20 87 21 6 22
REMARK SMILES IDX 7 23 8 24 9 25 10 26 71 27 11 28 70 29 12 30 13 31 14 32
REMARK SMILES IDX 64 33 15 34 69 35 63 36 65 37 16 38 68 39 62 40 61 41 17 43
REMARK SMILES IDX 49 44 29 45 48 46 30 47 33 48 47 49 66 50 31 51 32 52 46 54
REMARK SMILES IDX 67 55 34 56 18 57 19 58 27 59 20 60 22 61 28 62 21 63 23 64
REMARK SMILES IDX 24 65 25 66 26 67 50 68 51 69 59 70 52 71 54 72 60 73 53 74
REMARK SMILES IDX 55 75 56 76 57 77 58 78 35 79 36 80 44 81 37 82 39 83 45 84
REMARK SMILES IDX 38 85 40 86 41 87 42 88 43 89
REMARK H PARENT 65 42 33 53
REMARK Flexibility Score: inf
ROOT
ATOM      1  C   UNL     1       2.570  -2.225  -1.685  1.00  0.00     0.275 C 
ENDROOT
BRANCH   1   2
ATOM      2  C   UNL     1       2.423  -1.786  -0.221  1.00  0.00     0.275 C 
BRANCH   2   3
ATOM      3  O   UNL     1       1.946  -0.431  -0.056  1.00  0.00    -0.459 OA
BRANCH   3   4
ATOM      4  C   UNL     1       2.627   0.737  -0.088  1.00  0.00     0.338 C 
ATOM      5  O   UNL     1       2.036   1.769   0.222  1.00  0.00    -0.246 OA
BRANCH   4   6
ATOM      6  C   UNL     1       4.081   0.814  -0.369  1.00  0.00     0.087 C 
ATOM      7  C   UNL     1       4.850  -0.245  -0.645  1.00  0.00     0.029 C 
ATOM      8  C   UNL     1       4.722   2.142  -0.009  1.00  0.00     0.316 C 
ATOM      9  C   UNL     1       6.084  -0.360   0.124  1.00  0.00     0.037 A 
ATOM     10  O   UNL     1       6.105   2.047   0.438  1.00  0.00    -0.475 OA
ATOM     11  C   UNL     1       6.613   0.804   0.681  1.00  0.00     0.129 A 
ATOM     12  C   UNL     1       6.652  -1.612   0.440  1.00  0.00     0.070 A 
ATOM     13  C   UNL     1       7.710   0.738   1.534  1.00  0.00     0.049 A 
ATOM     14  C   UNL     1       7.724  -1.675   1.339  1.00  0.00     0.060 A 
ATOM     15  Cl  UNL     1       5.996  -3.072  -0.240  1.00  0.00    -0.082 Cl
ATOM     16  C   UNL     1       8.250  -0.500   1.881  1.00  0.00     0.026 A 
ATOM     17  Cl  UNL     1       8.419  -3.174   1.853  1.00  0.00    -0.083 Cl
BRANCH   8  18
ATOM     18  C   UNL     1       4.651   3.080  -1.232  1.00  0.00     0.430 C 
ATOM     19  F   UNL     1       3.390   3.205  -1.700  1.00  0.00    -0.167 F 
ATOM     20  F   UNL     1       5.098   4.317  -0.934  1.00  0.00    -0.167 F 
ATOM     21  F   UNL     1       5.403   2.602  -2.257  1.00  0.00    -0.167 F 
ENDBRANCH   8  18
ENDBRANCH   4   6
ENDBRANCH   3   4
ENDBRANCH   2   3
ENDBRANCH   1   2
BRANCH   1  22
ATOM     22  O   UNL     1       2.493  -1.118  -2.588  1.00  0.00    -0.458 OA
BRANCH  22  23
ATOM     23  C   UNL     1       1.221  -0.717  -2.836  1.00  0.00     0.338 C 
ATOM     24  O   UNL     1       0.203  -1.328  -2.546  1.00  0.00    -0.246 OA
BRANCH  23  25
ATOM     25  C   UNL     1       1.241   0.673  -3.329  1.00  0.00     0.060 A 
ATOM     26  C   UNL     1       0.244   1.536  -2.861  1.00  0.00     0.016 A 
ATOM     27  C   UNL     1       2.215   1.131  -4.222  1.00  0.00     0.016 A 
ATOM     28  C   UNL     1       0.181   2.845  -3.331  1.00  0.00     0.010 A 
ATOM     29  C   UNL     1       2.156   2.448  -4.684  1.00  0.00     0.010 A 
ATOM     30  C   UNL     1       1.114   3.297  -4.272  1.00  0.00    -0.014 A 
BRANCH  30  31
ATOM     31  C   UNL     1       0.908   4.609  -4.927  1.00  0.00     0.031 A 
ATOM     32  C   UNL     1       0.332   4.639  -6.317  1.00  0.00     0.074 A 
ATOM     33  C   UNL     1       1.218   5.755  -4.293  1.00  0.00     0.049 A 
ATOM     34  N   UNL     1       0.022   5.669  -7.059  1.00  0.00    -0.248 NA
ATOM     35  C   UNL     1       0.068   3.338  -6.956  1.00  0.00     0.031 C 
ATOM     36  C   UNL     1       1.794   5.850  -2.953  1.00  0.00     0.029 A 
ATOM     37  N   UNL     1       1.114   7.059  -4.706  1.00  0.00    -0.354 N 
ATOM     38  C   UNL     1      -0.453   5.144  -8.254  1.00  0.00     0.074 A 
ATOM     39  C   UNL     1      -0.372   3.704  -8.151  1.00  0.00     0.031 C 
ATOM     40  C   UNL     1       2.035   7.143  -2.670  1.00  0.00     0.029 A 
ATOM     41  C   UNL     1       1.628   7.964  -3.807  1.00  0.00     0.049 A 
ATOM     42  H   UNL     1       0.710   7.322  -5.564  1.00  0.00     0.167 HD
ATOM     43  C   UNL     1      -0.939   5.802  -9.331  1.00  0.00     0.034 A 
ATOM     44  C   UNL     1       1.762   9.302  -3.900  1.00  0.00     0.034 A 
ATOM     45  C   UNL     1      -1.047   7.231  -9.417  1.00  0.00     0.049 A 
ATOM     46  C   UNL     1       1.228  10.006  -5.122  1.00  0.00     0.074 A 
ATOM     47  C   UNL     1      -1.610   7.990 -10.427  1.00  0.00     0.029 A 
ATOM     48  N   UNL     1      -0.564   8.117  -8.468  1.00  0.00    -0.354 N 
ATOM     49  N   UNL     1       0.601   9.502  -6.158  1.00  0.00    -0.248 NA
ATOM     50  C   UNL     1       1.382  11.468  -5.170  1.00  0.00     0.031 C 
ATOM     51  C   UNL     1      -1.433   9.339 -10.105  1.00  0.00     0.029 A 
ATOM     52  C   UNL     1      -0.783   9.418  -8.883  1.00  0.00     0.049 A 
ATOM     53  H   UNL     1      -0.128   7.859  -7.624  1.00  0.00     0.167 HD
ATOM     54  C   UNL     1       0.259  10.584  -6.962  1.00  0.00     0.074 A 
ATOM     55  C   UNL     1       0.723  11.774  -6.280  1.00  0.00     0.031 C 
ATOM     56  C   UNL     1      -0.365  10.593  -8.165  1.00  0.00     0.034 A 
BRANCH  43  57
ATOM     57  C   UNL     1      -1.424   4.984 -10.495  1.00  0.00     0.023 A 
ATOM     58  C   UNL     1      -2.656   4.305 -10.404  1.00  0.00     0.012 A 
ATOM     59  C   UNL     1      -0.700   4.951 -11.702  1.00  0.00     0.148 A 
ATOM     60  C   UNL     1      -3.151   3.587 -11.491  1.00  0.00     0.002 A 
ATOM     61  C   UNL     1      -1.218   4.264 -12.794  1.00  0.00     0.091 A 
ATOM     62  F   UNL     1       0.477   5.588 -11.758  1.00  0.00    -0.205 F 
ATOM     63  C   UNL     1      -2.438   3.575 -12.688  1.00  0.00     0.022 A 
BRANCH  61  64
ATOM     64  S   UNL     1      -0.413   4.241 -14.399  1.00  0.00     0.127 S 
ATOM     65  O   UNL     1      -0.061   2.827 -14.531  1.00  0.00    -0.237 OA
ATOM     66  O   UNL     1      -1.487   4.687 -15.285  1.00  0.00    -0.237 OA
ATOM     67  O   UNL     1       0.718   5.152 -14.299  1.00  0.00    -0.744 OA
ENDBRANCH  61  64
ENDBRANCH  43  57
BRANCH  44  68
ATOM     68  C   UNL     1       2.401  10.077  -2.797  1.00  0.00     0.023 A 
ATOM     69  C   UNL     1       1.626  10.971  -2.033  1.00  0.00     0.012 A 
ATOM     70  C   UNL     1       3.777   9.953  -2.520  1.00  0.00     0.148 A 
ATOM     71  C   UNL     1       2.218  11.761  -1.046  1.00  0.00     0.002 A 
ATOM     72  C   UNL     1       4.350  10.706  -1.501  1.00  0.00     0.091 A 
ATOM     73  F   UNL     1       4.505   9.112  -3.269  1.00  0.00    -0.205 F 
ATOM     74  C   UNL     1       3.576  11.624  -0.776  1.00  0.00     0.022 A 
BRANCH  72  75
ATOM     75  S   UNL     1       6.070  10.515  -1.016  1.00  0.00     0.127 S 
ATOM     76  O   UNL     1       6.676  11.717  -1.582  1.00  0.00    -0.237 OA
ATOM     77  O   UNL     1       5.976  10.503   0.444  1.00  0.00    -0.237 OA
ATOM     78  O   UNL     1       6.501   9.251  -1.597  1.00  0.00    -0.744 OA
ENDBRANCH  72  75
ENDBRANCH  44  68
BRANCH  56  79
ATOM     79  C   UNL     1      -0.602  11.926  -8.825  1.00  0.00     0.023 A 
ATOM     80  C   UNL     1       0.483  12.622  -9.392  1.00  0.00     0.012 A 
ATOM     81  C   UNL     1      -1.907  12.437  -8.973  1.00  0.00     0.148 A 
ATOM     82  C   UNL     1       0.278  13.820 -10.074  1.00  0.00     0.002 A 
ATOM     83  C   UNL     1      -2.110  13.605  -9.698  1.00  0.00     0.091 A 
ATOM     84  F   UNL     1      -2.924  11.765  -8.414  1.00  0.00    -0.205 F 
ATOM     85  C   UNL     1      -1.018  14.304 -10.239  1.00  0.00     0.022 A 
BRANCH  83  86
ATOM     86  S   UNL     1      -3.749  14.251 -10.051  1.00  0.00     0.127 S 
ATOM     87  O   UNL     1      -3.778  15.458  -9.227  1.00  0.00    -0.237 OA
ATOM     88  O   UNL     1      -3.681  14.497 -11.492  1.00  0.00    -0.237 OA
ATOM     89  O   UNL     1      -4.686  13.207  -9.659  1.00  0.00    -0.744 OA
ENDBRANCH  83  86
ENDBRANCH  56  79
ENDBRANCH  30  31
ENDBRANCH  23  25
ENDBRANCH  22  23
ENDBRANCH   1  22
TORSDOF 15
