REMARK SMILES CC(=O)Nc1nc(C[N@@H+]2CCO[C@@H](CC(=O)OCCOC(=O)c3ccc(-c4c5nc(c(-c6cccc(S(=O)(=O)[O-])c6F)c6ccc([nH]6)c(-c6cccc(S(=O)(=O)[O-])c6F)c6nc(c(-c7cccc(S(=O)(=O)[O-])c7F)c7ccc4[nH]7)C=C6)C=C5)cc3)C2)cs1
REMARK SMILES IDX 18 1 17 2 15 3 16 4 14 5 13 6 9 7 10 8 86 9 11 11 12 12 8 13
REMARK SMILES IDX 7 14 5 15 6 16 88 17 87 18 4 19 1 20 2 21 3 22 19 24 20 25
REMARK SMILES IDX 21 26 22 27 23 28 24 29 85 30 25 31 84 32 26 33 27 34 28 35
REMARK SMILES IDX 78 36 29 37 83 38 77 39 79 40 30 41 82 42 76 43 75 44 31 46
REMARK SMILES IDX 63 47 43 48 62 49 44 50 47 51 61 52 80 53 45 54 46 55 60 57
REMARK SMILES IDX 81 58 48 59 32 60 33 61 41 62 34 63 36 64 42 65 35 66 37 67
REMARK SMILES IDX 38 68 39 69 40 70 64 71 65 72 73 73 66 74 68 75 74 76 67 77
REMARK SMILES IDX 69 78 70 79 71 80 72 81 49 82 50 83 58 84 51 85 53 86 59 87
REMARK SMILES IDX 52 88 54 89 55 90 56 91 57 92
REMARK H PARENT 9 10 4 23 79 45 47 56
REMARK Flexibility Score: inf
ROOT
ATOM      1  C   UNL     1       6.897  -0.335   3.456  1.00  0.00     0.274 C 
ENDROOT
BRANCH   1   2
ATOM      2  O   UNL     1       6.706  -1.673   2.954  1.00  0.00    -0.462 OA
BRANCH   2   3
ATOM      3  C   UNL     1       5.898  -2.476   3.694  1.00  0.00     0.308 C 
ATOM      4  O   UNL     1       5.341  -2.141   4.732  1.00  0.00    -0.252 OA
BRANCH   3   5
ATOM      5  C   UNL     1       5.861  -3.881   3.167  1.00  0.00     0.160 C 
BRANCH   5   6
ATOM      6  C   UNL     1       5.230  -4.128   1.796  1.00  0.00     0.184 C 
ATOM      7  N   UNL     1       5.601  -3.908  -0.726  1.00  0.00    -0.326 N 
ATOM      8  C   UNL     1       5.506  -5.364  -0.786  1.00  0.00     0.291 C 
ATOM      9  C   UNL     1       5.944  -3.417   0.620  1.00  0.00     0.295 C 
ATOM     10  H   UNL     1       6.417  -3.683  -1.295  1.00  0.00     0.348 HD
ATOM     11  C   UNL     1       4.793  -6.013   0.406  1.00  0.00     0.222 C 
ATOM     12  O   UNL     1       5.336  -5.567   1.643  1.00  0.00    -0.366 OA
BRANCH   7  13
ATOM     13  C   UNL     1       4.612  -3.140  -1.489  1.00  0.00     0.320 C 
BRANCH  13  14
ATOM     14  C   UNL     1       3.197  -3.195  -0.994  1.00  0.00     0.108 A 
ATOM     15  C   UNL     1       1.419  -2.259  -0.079  1.00  0.00     0.189 A 
ATOM     16  N   UNL     1       2.612  -2.017  -0.554  1.00  0.00    -0.219 NA
ATOM     17  S   UNL     1       0.881  -3.870  -0.169  1.00  0.00    -0.105 S 
ATOM     18  C   UNL     1       2.316  -4.263  -1.030  1.00  0.00     0.098 A 
BRANCH  15  19
ATOM     19  N   UNL     1       0.534  -1.385   0.472  1.00  0.00    -0.302 N 
ATOM     20  C   UNL     1       1.524   0.586  -0.667  1.00  0.00     0.114 C 
ATOM     21  C   UNL     1       0.608  -0.030   0.354  1.00  0.00     0.223 C 
ATOM     22  O   UNL     1      -0.124   0.688   1.038  1.00  0.00    -0.275 OA
ATOM     23  H   UNL     1      -0.213  -1.758   0.994  1.00  0.00     0.172 HD
ENDBRANCH  15  19
ENDBRANCH  13  14
ENDBRANCH   7  13
ENDBRANCH   5   6
ENDBRANCH   3   5
ENDBRANCH   2   3
ENDBRANCH   1   2
BRANCH   1  24
ATOM     24  C   UNL     1       5.910   0.673   2.854  1.00  0.00     0.275 C 
BRANCH  24  25
ATOM     25  O   UNL     1       4.592   0.570   3.425  1.00  0.00    -0.458 OA
BRANCH  25  26
ATOM     26  C   UNL     1       3.793  -0.349   2.835  1.00  0.00     0.338 C 
ATOM     27  O   UNL     1       4.088  -1.051   1.883  1.00  0.00    -0.246 OA
BRANCH  26  28
ATOM     28  C   UNL     1       2.524  -0.511   3.563  1.00  0.00     0.060 A 
ATOM     29  C   UNL     1       2.086  -1.816   3.823  1.00  0.00     0.016 A 
ATOM     30  C   UNL     1       1.729   0.584   3.901  1.00  0.00     0.016 A 
ATOM     31  C   UNL     1       0.841  -2.031   4.408  1.00  0.00     0.010 A 
ATOM     32  C   UNL     1       0.479   0.365   4.489  1.00  0.00     0.010 A 
ATOM     33  C   UNL     1       0.022  -0.941   4.732  1.00  0.00    -0.014 A 
BRANCH  33  34
ATOM     34  C   UNL     1      -1.310  -1.172   5.338  1.00  0.00     0.031 A 
ATOM     35  C   UNL     1      -2.559  -1.047   4.514  1.00  0.00     0.074 A 
ATOM     36  C   UNL     1      -1.388  -1.474   6.646  1.00  0.00     0.049 A 
ATOM     37  N   UNL     1      -3.807  -1.226   4.860  1.00  0.00    -0.248 NA
ATOM     38  C   UNL     1      -2.379  -0.682   3.104  1.00  0.00     0.031 C 
ATOM     39  C   UNL     1      -0.245  -1.602   7.549  1.00  0.00     0.029 A 
ATOM     40  N   UNL     1      -2.479  -1.696   7.446  1.00  0.00    -0.354 N 
ATOM     41  C   UNL     1      -4.559  -0.978   3.716  1.00  0.00     0.074 A 
ATOM     42  C   UNL     1      -3.628  -0.638   2.663  1.00  0.00     0.031 C 
ATOM     43  C   UNL     1      -0.696  -1.849   8.789  1.00  0.00     0.029 A 
ATOM     44  C   UNL     1      -2.156  -1.875   8.769  1.00  0.00     0.049 A 
ATOM     45  H   UNL     1      -3.402  -1.725   7.106  1.00  0.00     0.167 HD
ATOM     46  C   UNL     1      -5.902  -1.032   3.557  1.00  0.00     0.034 A 
ATOM     47  C   UNL     1      -2.952  -2.022   9.845  1.00  0.00     0.034 A 
ATOM     48  C   UNL     1      -6.822  -1.348   4.616  1.00  0.00     0.049 A 
ATOM     49  C   UNL     1      -4.442  -2.063   9.648  1.00  0.00     0.074 A 
ATOM     50  C   UNL     1      -8.199  -1.461   4.558  1.00  0.00     0.029 A 
ATOM     51  N   UNL     1      -6.456  -1.580   5.933  1.00  0.00    -0.354 N 
ATOM     52  N   UNL     1      -5.131  -1.973   8.535  1.00  0.00    -0.248 NA
ATOM     53  C   UNL     1      -5.265  -2.263  10.849  1.00  0.00     0.031 C 
ATOM     54  C   UNL     1      -8.668  -1.745   5.845  1.00  0.00     0.029 A 
ATOM     55  C   UNL     1      -7.580  -1.827   6.701  1.00  0.00     0.049 A 
ATOM     56  H   UNL     1      -5.532  -1.570   6.272  1.00  0.00     0.167 HD
ATOM     57  C   UNL     1      -6.463  -2.134   8.896  1.00  0.00     0.074 A 
ATOM     58  C   UNL     1      -6.483  -2.349  10.329  1.00  0.00     0.031 C 
ATOM     59  C   UNL     1      -7.572  -2.091   8.117  1.00  0.00     0.034 A 
BRANCH  46  60
ATOM     60  C   UNL     1      -6.457  -0.776   2.180  1.00  0.00     0.023 A 
ATOM     61  C   UNL     1      -6.330  -1.773   1.192  1.00  0.00     0.012 A 
ATOM     62  C   UNL     1      -7.154   0.411   1.879  1.00  0.00     0.148 A 
ATOM     63  C   UNL     1      -6.867  -1.585  -0.081  1.00  0.00     0.002 A 
ATOM     64  C   UNL     1      -7.717   0.577   0.618  1.00  0.00     0.091 A 
ATOM     65  F   UNL     1      -7.247   1.356   2.825  1.00  0.00    -0.205 F 
ATOM     66  C   UNL     1      -7.568  -0.416  -0.365  1.00  0.00     0.022 A 
BRANCH  64  67
ATOM     67  S   UNL     1      -8.697   2.016   0.174  1.00  0.00     0.127 S 
ATOM     68  O   UNL     1      -7.798   2.716  -0.741  1.00  0.00    -0.237 OA
ATOM     69  O   UNL     1      -9.864   1.409  -0.467  1.00  0.00    -0.237 OA
ATOM     70  O   UNL     1      -8.984   2.707   1.423  1.00  0.00    -0.744 OA
ENDBRANCH  64  67
ENDBRANCH  46  60
BRANCH  47  71
ATOM     71  C   UNL     1      -2.341  -2.190  11.192  1.00  0.00     0.023 A 
ATOM     72  C   UNL     1      -2.402  -3.443  11.829  1.00  0.00     0.012 A 
ATOM     73  C   UNL     1      -1.654  -1.131  11.819  1.00  0.00     0.148 A 
ATOM     74  C   UNL     1      -1.809  -3.634  13.077  1.00  0.00     0.002 A 
ATOM     75  C   UNL     1      -1.020  -1.344  13.037  1.00  0.00     0.091 A 
ATOM     76  F   UNL     1      -1.624   0.061  11.206  1.00  0.00    -0.205 F 
ATOM     77  C   UNL     1      -1.108  -2.590  13.675  1.00  0.00     0.022 A 
BRANCH  75  78
ATOM     78  S   UNL     1       0.015  -0.091  13.805  1.00  0.00     0.127 S 
ATOM     79  O   UNL     1      -0.856   0.409  14.865  1.00  0.00    -0.237 OA
ATOM     80  O   UNL     1       1.159  -0.878  14.268  1.00  0.00    -0.237 OA
ATOM     81  O   UNL     1       0.334   0.852  12.742  1.00  0.00    -0.744 OA
ENDBRANCH  75  78
ENDBRANCH  47  71
BRANCH  59  82
ATOM     82  C   UNL     1      -8.903  -2.303   8.788  1.00  0.00     0.023 A 
ATOM     83  C   UNL     1      -9.457  -1.275   9.574  1.00  0.00     0.012 A 
ATOM     84  C   UNL     1      -9.637  -3.486   8.574  1.00  0.00     0.148 A 
ATOM     85  C   UNL     1     -10.712  -1.431  10.160  1.00  0.00     0.002 A 
ATOM     86  C   UNL     1     -10.906  -3.616   9.125  1.00  0.00     0.091 A 
ATOM     87  F   UNL     1      -9.082  -4.461   7.839  1.00  0.00    -0.205 F 
ATOM     88  C   UNL     1     -11.441  -2.595   9.926  1.00  0.00     0.022 A 
BRANCH  86  89
ATOM     89  S   UNL     1     -11.948  -5.042   8.796  1.00  0.00     0.127 S 
ATOM     90  O   UNL     1     -11.820  -5.799  10.040  1.00  0.00    -0.237 OA
ATOM     91  O   UNL     1     -13.262  -4.431   8.587  1.00  0.00    -0.237 OA
ATOM     92  O   UNL     1     -11.388  -5.679   7.611  1.00  0.00    -0.744 OA
ENDBRANCH  86  89
ENDBRANCH  59  82
ENDBRANCH  33  34
ENDBRANCH  26  28
ENDBRANCH  25  26
ENDBRANCH  24  25
ENDBRANCH   1  24
TORSDOF 18
