REMARK SMILES Cc1nc(S[C@@H](C(=O)OCCOC(=O)c2ccc(-c3c4nc(c(-c5cccc(S(=O)(=O)[O-])c5F)c5ccc([nH]5)c(-c5cccc(S(=O)(=O)[O-])c5F)c5nc(c(-c6cccc(S(=O)(=O)[O-])c6F)c6ccc3[nH]6)C=C5)C=C4)cc2)c2ccccc2)nc2ccccc12
REMARK SMILES IDX 11 1 10 2 9 3 7 4 8 5 6 6 5 7 4 8 1 9 2 10 3 11 90 12 85 13
REMARK SMILES IDX 89 14 84 15 86 16 88 17 87 18 78 19 79 20 83 21 80 22 82 23
REMARK SMILES IDX 81 24 12 25 13 26 14 27 15 28 16 29 77 30 17 31 76 32 18 33
REMARK SMILES IDX 19 34 20 35 70 36 21 37 75 38 69 39 71 40 22 41 74 42 68 43
REMARK SMILES IDX 67 44 23 46 55 47 35 48 54 49 36 50 39 51 53 52 72 53 37 54
REMARK SMILES IDX 38 55 52 57 73 58 40 59 24 60 25 61 33 62 26 63 28 64 34 65
REMARK SMILES IDX 27 66 29 67 30 68 31 69 32 70 56 71 57 72 65 73 58 74 60 75
REMARK SMILES IDX 66 76 59 77 61 78 62 79 63 80 64 81 41 82 42 83 50 84 43 85
REMARK SMILES IDX 45 86 51 87 44 88 46 89 47 90 48 91 49 92
REMARK H PARENT 71 45 39 56
REMARK Flexibility Score: inf
ROOT
ATOM      1  C   UNL     1       1.473   1.244   4.579  1.00  0.00     0.275 C 
ENDROOT
BRANCH   1   2
ATOM      2  C   UNL     1       0.455   0.670   5.561  1.00  0.00     0.274 C 
BRANCH   2   3
ATOM      3  O   UNL     1      -0.365  -0.334   4.924  1.00  0.00    -0.461 OA
BRANCH   3   4
ATOM      4  C   UNL     1      -1.533   0.118   4.378  1.00  0.00     0.324 C 
ATOM      5  O   UNL     1      -1.868   1.299   4.454  1.00  0.00    -0.251 OA
BRANCH   4   6
ATOM      6  C   UNL     1      -2.456  -0.990   3.836  1.00  0.00     0.194 C 
BRANCH   6   7
ATOM      7  S   UNL     1      -1.681  -2.647   3.792  1.00  0.00    -0.066 SA
BRANCH   7   8
ATOM      8  C   UNL     1      -0.576  -2.640   2.401  1.00  0.00     0.189 A 
ATOM      9  C   UNL     1       0.375  -0.618  -0.496  1.00  0.00     0.067 C 
ATOM     10  C   UNL     1       0.311  -1.764   0.475  1.00  0.00     0.050 A 
ATOM     11  N   UNL     1      -0.438  -1.577   1.601  1.00  0.00    -0.227 NA
ATOM     12  C   UNL     1       0.976  -2.964   0.177  1.00  0.00     0.022 A 
ATOM     13  C   UNL     1       0.750  -3.994   1.089  1.00  0.00     0.075 A 
ATOM     14  C   UNL     1       1.806  -3.199  -0.953  1.00  0.00     0.012 A 
ATOM     15  N   UNL     1      -0.005  -3.839   2.180  1.00  0.00    -0.222 NA
ATOM     16  C   UNL     1       1.313  -5.240   0.836  1.00  0.00     0.029 A 
ATOM     17  C   UNL     1       2.368  -4.453  -1.180  1.00  0.00     0.001 A 
ATOM     18  C   UNL     1       2.111  -5.481  -0.287  1.00  0.00     0.002 A 
ENDBRANCH   7   8
ENDBRANCH   6   7
BRANCH   6  19
ATOM     19  C   UNL     1      -3.407  -0.587   2.697  1.00  0.00    -0.023 A 
ATOM     20  C   UNL     1      -3.630  -1.363   1.547  1.00  0.00     0.005 A 
ATOM     21  C   UNL     1      -4.172   0.596   2.815  1.00  0.00     0.005 A 
ATOM     22  C   UNL     1      -4.513  -0.948   0.542  1.00  0.00     0.000 A 
ATOM     23  C   UNL     1      -5.051   1.014   1.811  1.00  0.00     0.000 A 
ATOM     24  C   UNL     1      -5.215   0.245   0.668  1.00  0.00     0.000 A 
ENDBRANCH   6  19
ENDBRANCH   4   6
ENDBRANCH   3   4
ENDBRANCH   2   3
ENDBRANCH   1   2
BRANCH   1  25
ATOM     25  O   UNL     1       0.774   1.893   3.507  1.00  0.00    -0.458 OA
BRANCH  25  26
ATOM     26  C   UNL     1       1.353   1.819   2.291  1.00  0.00     0.338 C 
ATOM     27  O   UNL     1       2.464   1.380   2.032  1.00  0.00    -0.246 OA
BRANCH  26  28
ATOM     28  C   UNL     1       0.441   2.393   1.280  1.00  0.00     0.060 A 
ATOM     29  C   UNL     1       0.966   3.182   0.255  1.00  0.00     0.016 A 
ATOM     30  C   UNL     1      -0.917   2.062   1.276  1.00  0.00     0.016 A 
ATOM     31  C   UNL     1       0.127   3.651  -0.760  1.00  0.00     0.010 A 
ATOM     32  C   UNL     1      -1.746   2.493   0.242  1.00  0.00     0.010 A 
ATOM     33  C   UNL     1      -1.233   3.303  -0.776  1.00  0.00    -0.014 A 
BRANCH  33  34
ATOM     34  C   UNL     1      -2.131   3.777  -1.851  1.00  0.00     0.031 A 
ATOM     35  C   UNL     1      -3.088   4.902  -1.583  1.00  0.00     0.074 A 
ATOM     36  C   UNL     1      -2.146   3.151  -3.043  1.00  0.00     0.049 A 
ATOM     37  N   UNL     1      -3.857   5.539  -2.425  1.00  0.00    -0.248 NA
ATOM     38  C   UNL     1      -3.208   5.364  -0.189  1.00  0.00     0.031 C 
ATOM     39  C   UNL     1      -1.371   1.956  -3.383  1.00  0.00     0.029 A 
ATOM     40  N   UNL     1      -2.866   3.416  -4.180  1.00  0.00    -0.354 N 
ATOM     41  C   UNL     1      -4.542   6.482  -1.672  1.00  0.00     0.074 A 
ATOM     42  C   UNL     1      -4.134   6.308  -0.296  1.00  0.00     0.031 C 
ATOM     43  C   UNL     1      -1.678   1.577  -4.636  1.00  0.00     0.029 A 
ATOM     44  C   UNL     1      -2.643   2.519  -5.197  1.00  0.00     0.049 A 
ATOM     45  H   UNL     1      -3.485   4.177  -4.260  1.00  0.00     0.167 HD
ATOM     46  C   UNL     1      -5.399   7.436  -2.100  1.00  0.00     0.034 A 
ATOM     47  C   UNL     1      -3.139   2.482  -6.450  1.00  0.00     0.034 A 
ATOM     48  C   UNL     1      -5.783   7.619  -3.471  1.00  0.00     0.049 A 
ATOM     49  C   UNL     1      -4.019   3.606  -6.926  1.00  0.00     0.074 A 
ATOM     50  C   UNL     1      -6.562   8.623  -4.019  1.00  0.00     0.029 A 
ATOM     51  N   UNL     1      -5.426   6.774  -4.508  1.00  0.00    -0.354 N 
ATOM     52  N   UNL     1      -4.465   4.640  -6.255  1.00  0.00    -0.248 NA
ATOM     53  C   UNL     1      -4.408   3.599  -8.345  1.00  0.00     0.031 C 
ATOM     54  C   UNL     1      -6.673   8.386  -5.392  1.00  0.00     0.029 A 
ATOM     55  C   UNL     1      -5.962   7.235  -5.695  1.00  0.00     0.049 A 
ATOM     56  H   UNL     1      -4.872   5.966  -4.413  1.00  0.00     0.167 HD
ATOM     57  C   UNL     1      -5.148   5.426  -7.176  1.00  0.00     0.074 A 
ATOM     58  C   UNL     1      -5.055   4.753  -8.454  1.00  0.00     0.031 C 
ATOM     59  C   UNL     1      -5.799   6.597  -6.974  1.00  0.00     0.034 A 
BRANCH  46  60
ATOM     60  C   UNL     1      -5.897   8.435  -1.097  1.00  0.00     0.023 A 
ATOM     61  C   UNL     1      -5.043   9.493  -0.725  1.00  0.00     0.012 A 
ATOM     62  C   UNL     1      -7.220   8.407  -0.620  1.00  0.00     0.148 A 
ATOM     63  C   UNL     1      -5.496  10.509   0.112  1.00  0.00     0.002 A 
ATOM     64  C   UNL     1      -7.673   9.438   0.195  1.00  0.00     0.091 A 
ATOM     65  F   UNL     1      -8.010   7.389  -0.989  1.00  0.00    -0.205 F 
ATOM     66  C   UNL     1      -6.812  10.486   0.564  1.00  0.00     0.022 A 
BRANCH  64  67
ATOM     67  S   UNL     1      -9.361   9.536   0.800  1.00  0.00     0.127 S 
ATOM     68  O   UNL     1      -9.156   9.591   2.248  1.00  0.00    -0.237 OA
ATOM     69  O   UNL     1      -9.824  10.787   0.202  1.00  0.00    -0.237 OA
ATOM     70  O   UNL     1     -10.032   8.335   0.325  1.00  0.00    -0.744 OA
ENDBRANCH  64  67
ENDBRANCH  46  60
BRANCH  47  71
ATOM     71  C   UNL     1      -2.707   1.406  -7.381  1.00  0.00     0.023 A 
ATOM     72  C   UNL     1      -1.727   1.692  -8.351  1.00  0.00     0.012 A 
ATOM     73  C   UNL     1      -3.233   0.104  -7.292  1.00  0.00     0.148 A 
ATOM     74  C   UNL     1      -1.294   0.704  -9.235  1.00  0.00     0.002 A 
ATOM     75  C   UNL     1      -2.773  -0.885  -8.155  1.00  0.00     0.091 A 
ATOM     76  F   UNL     1      -4.169  -0.141  -6.364  1.00  0.00    -0.205 F 
ATOM     77  C   UNL     1      -1.812  -0.584  -9.134  1.00  0.00     0.022 A 
BRANCH  75  78
ATOM     78  S   UNL     1      -3.314  -2.595  -8.046  1.00  0.00     0.127 S 
ATOM     79  O   UNL     1      -4.111  -2.733  -9.262  1.00  0.00    -0.237 OA
ATOM     80  O   UNL     1      -2.039  -3.314  -8.060  1.00  0.00    -0.237 OA
ATOM     81  O   UNL     1      -4.048  -2.696  -6.793  1.00  0.00    -0.744 OA
ENDBRANCH  75  78
ENDBRANCH  47  71
BRANCH  59  82
ATOM     82  C   UNL     1      -6.444   7.267  -8.153  1.00  0.00     0.023 A 
ATOM     83  C   UNL     1      -7.694   6.808  -8.609  1.00  0.00     0.012 A 
ATOM     84  C   UNL     1      -5.880   8.429  -8.714  1.00  0.00     0.148 A 
ATOM     85  C   UNL     1      -8.374   7.496  -9.613  1.00  0.00     0.002 A 
ATOM     86  C   UNL     1      -6.579   9.128  -9.692  1.00  0.00     0.091 A 
ATOM     87  F   UNL     1      -4.681   8.835  -8.273  1.00  0.00    -0.205 F 
ATOM     88  C   UNL     1      -7.824   8.661 -10.144  1.00  0.00     0.022 A 
BRANCH  86  89
ATOM     89  S   UNL     1      -5.984  10.681 -10.373  1.00  0.00     0.127 S 
ATOM     90  O   UNL     1      -5.536  10.271 -11.702  1.00  0.00    -0.237 OA
ATOM     91  O   UNL     1      -7.191  11.509 -10.364  1.00  0.00    -0.237 OA
ATOM     92  O   UNL     1      -4.934  11.137  -9.471  1.00  0.00    -0.744 OA
ENDBRANCH  86  89
ENDBRANCH  59  82
ENDBRANCH  33  34
ENDBRANCH  26  28
ENDBRANCH  25  26
ENDBRANCH   1  25
TORSDOF 17
