REMARK SMILES O=C(OCCOC(=O)[C@H]1CC2=c3ccccc3=N[C@H]2[C@@H](c2ccccc2)[NH2+]1)c1ccc(-c2c3nc(c(-c4cccc(S(=O)(=O)[O-])c4F)c4ccc([nH]4)c(-c4cccc(S(=O)(=O)[O-])c4F)c4nc(c(-c5cccc(S(=O)(=O)[O-])c5F)c5ccc2[nH]5)C=C4)C=C3)cc1
REMARK SMILES IDX 4 1 3 2 2 3 1 4 28 5 29 6 90 7 30 8 89 9 31 10 32 11 33 12
REMARK SMILES IDX 83 13 34 14 88 15 82 16 84 17 35 18 87 19 81 20 80 21 36 23
REMARK SMILES IDX 68 24 48 25 67 26 49 27 52 28 66 29 85 30 50 31 51 32 65 34
REMARK SMILES IDX 86 35 53 36 37 37 38 38 46 39 39 40 41 41 47 42 40 43 42 44
REMARK SMILES IDX 43 45 44 46 45 47 69 48 70 49 78 50 71 51 73 52 79 53 72 54
REMARK SMILES IDX 74 55 75 56 76 57 77 58 54 59 55 60 63 61 56 62 58 63 64 64
REMARK SMILES IDX 57 65 59 66 60 67 61 68 62 69 5 70 6 71 7 72 8 73 9 74 10 75
REMARK SMILES IDX 27 76 11 77 20 78 12 81 19 82 13 83 17 84 18 85 14 86 16 87
REMARK SMILES IDX 15 88 21 89 22 90 26 91 23 92 25 93 24 94
REMARK H PARENT 84 22 52 33 27 79 27 80
REMARK Flexibility Score: inf
ROOT
ATOM      1  C   UNL     1       4.297  -1.302   0.143  1.00  0.00     0.275 C 
ENDROOT
BRANCH   1   2
ATOM      2  O   UNL     1       3.270  -0.383   0.559  1.00  0.00    -0.458 OA
BRANCH   2   3
ATOM      3  C   UNL     1       3.337   0.976   0.539  1.00  0.00     0.338 C 
ATOM      4  O   UNL     1       2.560   1.625   1.235  1.00  0.00    -0.246 OA
BRANCH   3   5
ATOM      5  C   UNL     1       4.147   1.689  -0.499  1.00  0.00     0.060 A 
ATOM      6  C   UNL     1       3.502   2.740  -1.144  1.00  0.00     0.016 A 
ATOM      7  C   UNL     1       5.441   1.355  -0.928  1.00  0.00     0.016 A 
ATOM      8  C   UNL     1       4.064   3.290  -2.296  1.00  0.00     0.010 A 
ATOM      9  C   UNL     1       5.985   1.878  -2.122  1.00  0.00     0.010 A 
ATOM     10  C   UNL     1       5.272   2.809  -2.869  1.00  0.00    -0.014 A 
BRANCH  10  11
ATOM     11  C   UNL     1       5.777   3.429  -4.144  1.00  0.00     0.031 A 
ATOM     12  C   UNL     1       5.807   2.750  -5.533  1.00  0.00     0.074 A 
ATOM     13  C   UNL     1       5.999   4.753  -4.038  1.00  0.00     0.049 A 
ATOM     14  N   UNL     1       5.839   3.315  -6.726  1.00  0.00    -0.248 NA
ATOM     15  C   UNL     1       5.718   1.283  -5.626  1.00  0.00     0.031 C 
ATOM     16  C   UNL     1       5.959   5.509  -2.776  1.00  0.00     0.029 A 
ATOM     17  N   UNL     1       6.253   5.702  -4.985  1.00  0.00    -0.354 N 
ATOM     18  C   UNL     1       5.563   2.312  -7.679  1.00  0.00     0.074 A 
ATOM     19  C   UNL     1       5.522   1.075  -6.932  1.00  0.00     0.031 C 
ATOM     20  C   UNL     1       6.159   6.803  -3.031  1.00  0.00     0.029 A 
ATOM     21  C   UNL     1       6.438   6.951  -4.450  1.00  0.00     0.049 A 
ATOM     22  H   UNL     1       6.298   5.510  -5.950  1.00  0.00     0.167 HD
ATOM     23  C   UNL     1       5.297   2.473  -9.013  1.00  0.00     0.034 A 
ATOM     24  C   UNL     1       6.870   8.086  -5.020  1.00  0.00     0.034 A 
ATOM     25  C   UNL     1       5.500   3.740  -9.690  1.00  0.00     0.049 A 
ATOM     26  C   UNL     1       7.057   8.098  -6.491  1.00  0.00     0.074 A 
ATOM     27  C   UNL     1       5.361   4.027 -11.040  1.00  0.00     0.029 A 
ATOM     28  N   UNL     1       5.943   4.903  -9.084  1.00  0.00    -0.354 N 
ATOM     29  N   UNL     1       6.633   7.212  -7.357  1.00  0.00    -0.248 NA
ATOM     30  C   UNL     1       7.765   9.239  -7.071  1.00  0.00     0.031 C 
ATOM     31  C   UNL     1       5.733   5.352 -11.251  1.00  0.00     0.029 A 
ATOM     32  C   UNL     1       6.160   5.874 -10.043  1.00  0.00     0.049 A 
ATOM     33  H   UNL     1       6.082   5.020  -8.116  1.00  0.00     0.167 HD
ATOM     34  C   UNL     1       7.011   7.694  -8.595  1.00  0.00     0.074 A 
ATOM     35  C   UNL     1       7.694   8.953  -8.366  1.00  0.00     0.031 C 
ATOM     36  C   UNL     1       6.808   7.134  -9.807  1.00  0.00     0.034 A 
BRANCH  23  37
ATOM     37  C   UNL     1       4.682   1.381  -9.904  1.00  0.00     0.023 A 
ATOM     38  C   UNL     1       3.423   1.683 -10.499  1.00  0.00     0.012 A 
ATOM     39  C   UNL     1       5.320   0.207 -10.336  1.00  0.00     0.148 A 
ATOM     40  C   UNL     1       2.772   0.824 -11.389  1.00  0.00     0.002 A 
ATOM     41  C   UNL     1       4.683  -0.638 -11.265  1.00  0.00     0.091 A 
ATOM     42  F   UNL     1       6.537  -0.077  -9.853  1.00  0.00    -0.205 F 
ATOM     43  C   UNL     1       3.402  -0.347 -11.766  1.00  0.00     0.022 A 
BRANCH  41  44
ATOM     44  S   UNL     1       5.478  -2.106 -11.940  1.00  0.00     0.127 S 
ATOM     45  O   UNL     1       4.966  -3.151 -11.063  1.00  0.00    -0.237 OA
ATOM     46  O   UNL     1       4.971  -2.152 -13.310  1.00  0.00    -0.237 OA
ATOM     47  O   UNL     1       6.912  -1.835 -11.842  1.00  0.00    -0.744 OA
ENDBRANCH  41  44
ENDBRANCH  23  37
BRANCH  24  48
ATOM     48  C   UNL     1       7.262   9.192  -4.117  1.00  0.00     0.023 A 
ATOM     49  C   UNL     1       6.435  10.311  -3.952  1.00  0.00     0.012 A 
ATOM     50  C   UNL     1       8.364   8.997  -3.254  1.00  0.00     0.148 A 
ATOM     51  C   UNL     1       6.683  11.207  -2.911  1.00  0.00     0.002 A 
ATOM     52  C   UNL     1       8.567   9.857  -2.189  1.00  0.00     0.091 A 
ATOM     53  F   UNL     1       9.135   7.916  -3.449  1.00  0.00    -0.205 F 
ATOM     54  C   UNL     1       7.730  10.969  -2.017  1.00  0.00     0.022 A 
BRANCH  52  55
ATOM     55  S   UNL     1       9.787   9.527  -0.912  1.00  0.00     0.127 S 
ATOM     56  O   UNL     1      10.734  10.618  -1.120  1.00  0.00    -0.237 OA
ATOM     57  O   UNL     1       8.982   9.628   0.305  1.00  0.00    -0.237 OA
ATOM     58  O   UNL     1      10.299   8.190  -1.186  1.00  0.00    -0.744 OA
ENDBRANCH  52  55
ENDBRANCH  24  48
BRANCH  36  59
ATOM     59  C   UNL     1       7.335   7.859 -11.005  1.00  0.00     0.023 A 
ATOM     60  C   UNL     1       8.704   7.768 -11.311  1.00  0.00     0.012 A 
ATOM     61  C   UNL     1       6.457   8.507 -11.890  1.00  0.00     0.148 A 
ATOM     62  C   UNL     1       9.197   8.324 -12.488  1.00  0.00     0.002 A 
ATOM     63  C   UNL     1       6.945   9.015 -13.084  1.00  0.00     0.091 A 
ATOM     64  F   UNL     1       5.159   8.585 -11.561  1.00  0.00    -0.205 F 
ATOM     65  C   UNL     1       8.316   8.932 -13.382  1.00  0.00     0.022 A 
BRANCH  63  66
ATOM     66  S   UNL     1       5.859   9.705 -14.335  1.00  0.00     0.127 S 
ATOM     67  O   UNL     1       6.103  11.137 -14.181  1.00  0.00    -0.237 OA
ATOM     68  O   UNL     1       6.391   9.120 -15.567  1.00  0.00    -0.237 OA
ATOM     69  O   UNL     1       4.518   9.253 -13.987  1.00  0.00    -0.744 OA
ENDBRANCH  63  66
ENDBRANCH  36  59
ENDBRANCH  10  11
ENDBRANCH   3   5
ENDBRANCH   2   3
ENDBRANCH   1   2
BRANCH   1  70
ATOM     70  C   UNL     1       4.205  -1.740  -1.327  1.00  0.00     0.274 C 
BRANCH  70  71
ATOM     71  O   UNL     1       3.780  -0.661  -2.176  1.00  0.00    -0.458 OA
BRANCH  71  72
ATOM     72  C   UNL     1       2.709  -0.895  -2.991  1.00  0.00     0.365 C 
ATOM     73  O   UNL     1       2.297  -2.007  -3.294  1.00  0.00    -0.245 OA
BRANCH  72  74
ATOM     74  C   UNL     1       1.978   0.424  -3.302  1.00  0.00     0.298 C 
ATOM     75  C   UNL     1       2.660   1.352  -4.357  1.00  0.00     0.111 C 
ATOM     76  N   UNL     1       0.507   0.160  -3.505  1.00  0.00    -0.326 N 
ATOM     77  C   UNL     1       1.877   2.653  -4.478  1.00  0.00    -0.024 C 
ATOM     78  C   UNL     1      -0.107   1.112  -4.496  1.00  0.00     0.243 C 
ATOM     79  H   UNL     1       0.028   0.263  -2.610  1.00  0.00     0.347 HD
ATOM     80  H   UNL     1       0.406  -0.786  -3.873  1.00  0.00     0.347 HD
ATOM     81  C   UNL     1       2.033   3.884  -4.976  1.00  0.00     0.002 A 
ATOM     82  C   UNL     1       0.457   2.497  -4.000  1.00  0.00     0.196 C 
ATOM     83  C   UNL     1       2.976   4.637  -5.737  1.00  0.00     0.010 A 
ATOM     84  C   UNL     1       0.744   4.531  -4.627  1.00  0.00     0.066 A 
ATOM     85  N   UNL     1      -0.257   3.760  -4.310  1.00  0.00    -0.270 NA
ATOM     86  C   UNL     1       2.858   5.974  -5.819  1.00  0.00     0.001 A 
ATOM     87  C   UNL     1       0.739   6.016  -4.617  1.00  0.00     0.028 A 
ATOM     88  C   UNL     1       1.797   6.672  -5.123  1.00  0.00     0.002 A 
BRANCH  78  89
ATOM     89  C   UNL     1       0.252   0.655  -5.937  1.00  0.00     0.012 A 
ATOM     90  C   UNL     1       0.602   1.597  -6.908  1.00  0.00     0.010 A 
ATOM     91  C   UNL     1       0.523  -0.704  -6.224  1.00  0.00     0.010 A 
ATOM     92  C   UNL     1       1.499   1.245  -7.909  1.00  0.00     0.001 A 
ATOM     93  C   UNL     1       1.379  -1.062  -7.264  1.00  0.00     0.001 A 
ATOM     94  C   UNL     1       1.922  -0.073  -8.062  1.00  0.00     0.000 A 
ENDBRANCH  78  89
ENDBRANCH  72  74
ENDBRANCH  71  72
ENDBRANCH  70  71
ENDBRANCH   1  70
TORSDOF 15
