REMARK SMILES O=C(CNC(=O)[C@@H](CC1=c2ccccc2=NC1)N1C(=O)N=C2C=CC=C[C@@H]2C1=O)OCCOC(=O)c1ccc(-c2c3nc(c(-c4cccc(S(=O)(=O)[O-])c4F)c4ccc([nH]4)c(-c4cccc(S(=O)(=O)[O-])c4F)c4nc(c(-c5cccc(S(=O)(=O)[O-])c5F)c5ccc2[nH]5)C=C4)C=C3)cc1
REMARK SMILES IDX 31 1 30 2 2 3 1 4 3 5 4 6 5 7 6 9 7 10 8 11 9 12 10 13 17 14
REMARK SMILES IDX 11 15 15 16 16 17 12 18 14 19 13 20 18 21 19 22 28 23 21 24
REMARK SMILES IDX 20 25 27 26 29 27 22 28 26 29 23 30 25 31 24 32 32 33 33 34
REMARK SMILES IDX 34 35 35 36 36 37 37 38 98 39 38 40 97 41 39 42 40 43 41 44
REMARK SMILES IDX 91 45 42 46 96 47 90 48 92 49 43 50 95 51 89 52 88 53 44 55
REMARK SMILES IDX 76 56 56 57 75 58 57 59 60 60 74 61 93 62 58 63 59 64 73 66
REMARK SMILES IDX 94 67 61 68 45 69 46 70 54 71 47 72 49 73 55 74 48 75 50 76
REMARK SMILES IDX 51 77 52 78 53 79 77 80 78 81 86 82 79 83 81 84 87 85 80 86
REMARK SMILES IDX 82 87 83 88 84 89 85 90 62 91 63 92 71 93 64 94 66 95 72 96
REMARK SMILES IDX 65 97 67 98 68 99 69 100 70 101
REMARK H PARENT 4 8 92 54 60 65
REMARK Flexibility Score: inf
ROOT
ATOM      1  C   UNL     1       5.513   0.892   1.568  1.00  0.00     0.274 C 
ENDROOT
BRANCH   1   2
ATOM      2  O   UNL     1       4.487   1.781   0.633  1.00  0.00    -0.461 OA
BRANCH   2   3
ATOM      3  C   UNL     1       3.831   2.065  -0.585  1.00  0.00     0.325 C 
ATOM      4  O   UNL     1       2.998   2.982  -0.578  1.00  0.00    -0.250 OA
BRANCH   3   5
ATOM      5  C   UNL     1       3.837   1.105  -1.915  1.00  0.00     0.238 C 
BRANCH   5   6
ATOM      6  N   UNL     1       5.145   0.605  -2.407  1.00  0.00    -0.343 N 
ATOM      7  C   UNL     1       5.913  -0.518  -2.132  1.00  0.00     0.244 C 
ATOM      8  H   UNL     1       5.559   1.200  -3.074  1.00  0.00     0.164 HD
ATOM      9  O   UNL     1       7.034  -0.575  -2.649  1.00  0.00    -0.273 OA
BRANCH   7  10
ATOM     10  C   UNL     1       5.364  -1.719  -1.251  1.00  0.00     0.188 C 
BRANCH  10  11
ATOM     11  C   UNL     1       4.400  -0.778  -0.021  1.00  0.00     0.069 C 
BRANCH  11  12
ATOM     12  C   UNL     1       3.113  -0.614   1.350  1.00  0.00    -0.037 C 
ATOM     13  C   UNL     1       2.729  -1.262   2.540  1.00  0.00     0.001 A 
ATOM     14  C   UNL     1       2.153   0.585   1.360  1.00  0.00     0.174 C 
ATOM     15  C   UNL     1       3.140  -2.376   3.441  1.00  0.00     0.010 A 
ATOM     16  C   UNL     1       1.287  -0.932   2.619  1.00  0.00     0.065 A 
ATOM     17  N   UNL     1       0.911   0.163   2.052  1.00  0.00    -0.280 NA
ATOM     18  C   UNL     1       2.256  -3.288   3.888  1.00  0.00     0.001 A 
ATOM     19  C   UNL     1       0.360  -1.999   3.101  1.00  0.00     0.028 A 
ATOM     20  C   UNL     1       0.854  -3.149   3.588  1.00  0.00     0.002 A 
ENDBRANCH  11  12
ENDBRANCH  10  11
BRANCH  10  21
ATOM     21  N   UNL     1       4.967  -3.039  -2.056  1.00  0.00    -0.249 N 
ATOM     22  C   UNL     1       4.675  -2.747  -3.371  1.00  0.00     0.351 C 
ATOM     23  C   UNL     1       4.770  -4.450  -1.457  1.00  0.00     0.244 C 
ATOM     24  N   UNL     1       4.179  -3.783  -4.027  1.00  0.00    -0.197 NA
ATOM     25  O   UNL     1       4.725  -1.669  -3.937  1.00  0.00    -0.246 OA
ATOM     26  C   UNL     1       3.551  -5.654  -2.235  1.00  0.00     0.151 C 
ATOM     27  O   UNL     1       5.404  -4.809  -0.452  1.00  0.00    -0.273 OA
ATOM     28  C   UNL     1       3.120  -4.128  -3.393  1.00  0.00     0.062 C 
ATOM     29  C   UNL     1       1.780  -6.683  -1.780  1.00  0.00    -0.007 C 
ATOM     30  C   UNL     1       1.258  -3.821  -3.793  1.00  0.00     0.025 C 
ATOM     31  C   UNL     1       0.358  -6.200  -2.347  1.00  0.00    -0.003 C 
ATOM     32  C   UNL     1       0.156  -4.744  -3.417  1.00  0.00     0.002 C 
ENDBRANCH  10  21
ENDBRANCH   7  10
ENDBRANCH   5   6
ENDBRANCH   3   5
ENDBRANCH   2   3
ENDBRANCH   1   2
BRANCH   1  33
ATOM     33  C   UNL     1       5.490  -0.837   2.255  1.00  0.00     0.275 C 
BRANCH  33  34
ATOM     34  O   UNL     1       4.864  -2.387   1.622  1.00  0.00    -0.458 OA
BRANCH  34  35
ATOM     35  C   UNL     1       3.747  -2.902   0.805  1.00  0.00     0.338 C 
ATOM     36  O   UNL     1       3.615  -2.640  -0.392  1.00  0.00    -0.246 OA
BRANCH  35  37
ATOM     37  C   UNL     1       2.353  -3.475   0.956  1.00  0.00     0.060 A 
ATOM     38  C   UNL     1       2.515  -4.792   0.988  1.00  0.00     0.016 A 
ATOM     39  C   UNL     1       1.373  -2.973  -0.030  1.00  0.00     0.016 A 
ATOM     40  C   UNL     1       2.429  -5.256  -0.310  1.00  0.00     0.010 A 
ATOM     41  C   UNL     1       1.216  -3.497  -1.377  1.00  0.00     0.010 A 
ATOM     42  C   UNL     1       1.876  -4.710  -1.846  1.00  0.00    -0.014 A 
BRANCH  42  43
ATOM     43  C   UNL     1       2.092  -5.865  -3.621  1.00  0.00     0.031 A 
ATOM     44  C   UNL     1       2.189  -5.436  -5.394  1.00  0.00     0.074 A 
ATOM     45  C   UNL     1       2.471  -7.319  -3.874  1.00  0.00     0.049 A 
ATOM     46  N   UNL     1       2.044  -6.256  -6.436  1.00  0.00    -0.248 NA
ATOM     47  C   UNL     1       2.535  -4.064  -5.936  1.00  0.00     0.031 C 
ATOM     48  C   UNL     1       3.100  -8.327  -2.891  1.00  0.00     0.029 A 
ATOM     49  N   UNL     1       1.712  -8.246  -4.618  1.00  0.00    -0.354 N 
ATOM     50  C   UNL     1       2.374  -5.529  -7.595  1.00  0.00     0.074 A 
ATOM     51  C   UNL     1       2.541  -4.168  -7.238  1.00  0.00     0.031 C 
ATOM     52  C   UNL     1       2.315  -9.408  -2.782  1.00  0.00     0.029 A 
ATOM     53  C   UNL     1       1.429  -9.426  -3.916  1.00  0.00     0.049 A 
ATOM     54  H   UNL     1       1.409  -8.080  -5.540  1.00  0.00     0.167 HD
ATOM     55  C   UNL     1       2.643  -5.901  -8.866  1.00  0.00     0.034 A 
ATOM     56  C   UNL     1       0.656 -10.511  -4.146  1.00  0.00     0.034 A 
ATOM     57  C   UNL     1       2.434  -7.208  -9.367  1.00  0.00     0.049 A 
ATOM     58  C   UNL     1       0.561 -10.852  -5.589  1.00  0.00     0.074 A 
ATOM     59  C   UNL     1       2.560  -7.651 -10.666  1.00  0.00     0.029 A 
ATOM     60  N   UNL     1       2.001  -8.265  -8.593  1.00  0.00    -0.354 N 
ATOM     61  N   UNL     1       0.909 -10.099  -6.598  1.00  0.00    -0.248 NA
ATOM     62  C   UNL     1       0.207 -12.232  -5.942  1.00  0.00     0.031 C 
ATOM     63  C   UNL     1       2.123  -8.974 -10.695  1.00  0.00     0.029 A 
ATOM     64  C   UNL     1       1.778  -9.354  -9.406  1.00  0.00     0.049 A 
ATOM     65  H   UNL     1       1.872  -8.244  -7.617  1.00  0.00     0.167 HD
ATOM     66  C   UNL     1       0.915 -10.928  -7.696  1.00  0.00     0.074 A 
ATOM     67  C   UNL     1       0.483 -12.236  -7.242  1.00  0.00     0.031 C 
ATOM     68  C   UNL     1       1.294 -10.625  -8.955  1.00  0.00     0.034 A 
BRANCH  55  69
ATOM     69  C   UNL     1       3.197  -4.830  -9.786  1.00  0.00     0.023 A 
ATOM     70  C   UNL     1       4.546  -4.426  -9.648  1.00  0.00     0.012 A 
ATOM     71  C   UNL     1       2.356  -4.131 -10.671  1.00  0.00     0.148 A 
ATOM     72  C   UNL     1       5.035  -3.324 -10.352  1.00  0.00     0.002 A 
ATOM     73  C   UNL     1       2.856  -3.048 -11.385  1.00  0.00     0.091 A 
ATOM     74  F   UNL     1       1.070  -4.501 -10.747  1.00  0.00    -0.205 F 
ATOM     75  C   UNL     1       4.191  -2.637 -11.221  1.00  0.00     0.022 A 
BRANCH  73  76
ATOM     76  S   UNL     1       1.843  -2.075 -12.502  1.00  0.00     0.127 S 
ATOM     77  O   UNL     1       1.933  -0.742 -11.905  1.00  0.00    -0.237 OA
ATOM     78  O   UNL     1       2.558  -2.226 -13.769  1.00  0.00    -0.237 OA
ATOM     79  O   UNL     1       0.514  -2.670 -12.467  1.00  0.00    -0.744 OA
ENDBRANCH  73  76
ENDBRANCH  55  69
BRANCH  56  80
ATOM     80  C   UNL     1       0.325 -11.495  -3.058  1.00  0.00     0.023 A 
ATOM     81  C   UNL     1       1.233 -12.505  -2.679  1.00  0.00     0.012 A 
ATOM     82  C   UNL     1      -0.870 -11.352  -2.315  1.00  0.00     0.148 A 
ATOM     83  C   UNL     1       0.982 -13.323  -1.570  1.00  0.00     0.002 A 
ATOM     84  C   UNL     1      -1.122 -12.181  -1.218  1.00  0.00     0.091 A 
ATOM     85  F   UNL     1      -1.732 -10.395  -2.684  1.00  0.00    -0.205 F 
ATOM     86  C   UNL     1      -0.190 -13.158  -0.838  1.00  0.00     0.022 A 
BRANCH  84  87
ATOM     87  S   UNL     1      -2.603 -12.056  -0.201  1.00  0.00     0.127 S 
ATOM     88  O   UNL     1      -3.178 -13.393  -0.341  1.00  0.00    -0.237 OA
ATOM     89  O   UNL     1      -2.038 -11.768   1.118  1.00  0.00    -0.237 OA
ATOM     90  O   UNL     1      -3.393 -10.979  -0.779  1.00  0.00    -0.744 OA
ENDBRANCH  84  87
ENDBRANCH  56  80
BRANCH  68  91
ATOM     91  C   UNL     1       1.153 -11.686  -9.983  1.00  0.00     0.023 A 
ATOM     92  C   UNL     1      -0.135 -11.984 -10.459  1.00  0.00     0.012 A 
ATOM     93  C   UNL     1       2.291 -12.248 -10.583  1.00  0.00     0.148 A 
ATOM     94  C   UNL     1      -0.292 -12.843 -11.537  1.00  0.00     0.002 A 
ATOM     95  C   UNL     1       2.128 -13.071 -11.682  1.00  0.00     0.091 A 
ATOM     96  F   UNL     1       3.498 -11.930 -10.094  1.00  0.00    -0.205 F 
ATOM     97  C   UNL     1       0.839 -13.371 -12.158  1.00  0.00     0.022 A 
BRANCH  95  98
ATOM     98  S   UNL     1       3.521 -13.735 -12.591  1.00  0.00     0.127 S 
ATOM     99  O   UNL     1       3.396 -15.165 -12.312  1.00  0.00    -0.237 OA
ATOM    100  O   UNL     1       3.203 -13.348 -13.965  1.00  0.00    -0.237 OA
ATOM    101  O   UNL     1       4.710 -13.100 -12.039  1.00  0.00    -0.744 OA
ENDBRANCH  95  98
ENDBRANCH  68  91
ENDBRANCH  42  43
ENDBRANCH  35  37
ENDBRANCH  34  35
ENDBRANCH  33  34
ENDBRANCH   1  33
TORSDOF 19
