REMARK SMILES CCN(C(=O)c1ccccc1C(=O)OCCOC(=O)c1ccc(-c2c3nc(c(-c4cccc(S(=O)(=O)[O-])c4F)c4ccc([nH]4)c(-c4cccc(S(=O)(=O)[O-])c4F)c4nc(c(-c5cccc(S(=O)(=O)[O-])c5F)c5ccc2[nH]5)C=C4)C=C3)cc1)[C@H](CCO)c1ccccc1
REMARK SMILES IDX 14 1 12 2 13 3 11 4 6 5 7 6 8 7 10 8 9 9 4 10 5 11 3 12 2 13
REMARK SMILES IDX 1 14 83 15 87 16 88 17 92 18 89 19 91 20 90 21 84 22 85 23
REMARK SMILES IDX 86 24 15 26 16 27 17 28 18 29 19 30 20 31 21 32 82 33 22 34
REMARK SMILES IDX 81 35 23 36 24 37 25 38 75 39 26 40 80 41 74 42 76 43 27 44
REMARK SMILES IDX 79 45 73 46 72 47 28 49 60 50 40 51 59 52 41 53 44 54 58 55
REMARK SMILES IDX 77 56 42 57 43 58 57 60 78 61 45 62 29 63 30 64 38 65 31 66
REMARK SMILES IDX 33 67 39 68 32 69 34 70 35 71 36 72 37 73 61 74 62 75 70 76
REMARK SMILES IDX 63 77 65 78 71 79 64 80 66 81 67 82 68 83 69 84 46 85 47 86
REMARK SMILES IDX 55 87 48 88 50 89 56 90 49 91 51 92 52 93 53 94 54 95
REMARK H PARENT 86 25 76 48 44 59
REMARK Flexibility Score: inf
ROOT
ATOM      1  O   UNL     1       4.697   2.417   0.404  1.00  0.00    -0.458 OA
ENDROOT
BRANCH   1   2
ATOM      2  C   UNL     1       4.347   3.700   0.628  1.00  0.00     0.339 C 
ATOM      3  O   UNL     1       3.838   4.140   1.648  1.00  0.00    -0.246 OA
BRANCH   2   4
ATOM      4  C   UNL     1       4.652   4.594  -0.513  1.00  0.00     0.072 A 
ATOM      5  C   UNL     1       4.303   4.341  -1.849  1.00  0.00     0.054 A 
ATOM      6  C   UNL     1       4.610   5.320  -2.820  1.00  0.00     0.015 A 
ATOM      7  C   UNL     1       5.203   6.537  -2.470  1.00  0.00     0.001 A 
ATOM      8  C   UNL     1       5.207   5.846  -0.170  1.00  0.00     0.016 A 
ATOM      9  C   UNL     1       5.495   6.803  -1.140  1.00  0.00     0.001 A 
BRANCH   5  10
ATOM     10  C   UNL     1       3.632   3.119  -2.381  1.00  0.00     0.255 C 
ATOM     11  O   UNL     1       4.144   2.642  -3.398  1.00  0.00    -0.269 OA
BRANCH  10  12
ATOM     12  N   UNL     1       2.455   2.573  -1.812  1.00  0.00    -0.332 N 
BRANCH  12  13
ATOM     13  C   UNL     1       1.721   3.279  -0.733  1.00  0.00     0.117 C 
ATOM     14  C   UNL     1       0.341   3.846  -1.020  1.00  0.00     0.027 C 
ENDBRANCH  12  13
BRANCH  12  15
ATOM     15  C   UNL     1       1.959   1.279  -2.431  1.00  0.00     0.118 C 
BRANCH  15  16
ATOM     16  C   UNL     1       2.770  -0.012  -2.139  1.00  0.00    -0.025 A 
ATOM     17  C   UNL     1       2.245  -1.277  -2.485  1.00  0.00     0.006 A 
ATOM     18  C   UNL     1       4.069  -0.016  -1.620  1.00  0.00     0.006 A 
ATOM     19  C   UNL     1       2.897  -2.473  -2.167  1.00  0.00     0.000 A 
ATOM     20  C   UNL     1       4.742  -1.211  -1.321  1.00  0.00     0.000 A 
ATOM     21  C   UNL     1       4.140  -2.439  -1.556  1.00  0.00     0.000 A 
ENDBRANCH  15  16
BRANCH  15  22
ATOM     22  C   UNL     1       0.431   1.029  -2.332  1.00  0.00     0.058 C 
BRANCH  22  23
ATOM     23  C   UNL     1      -0.118   0.330  -1.079  1.00  0.00     0.158 C 
BRANCH  23  24
ATOM     24  O   UNL     1       0.473   0.741   0.136  1.00  0.00    -0.396 OA
ATOM     25  H   UNL     1       1.417   0.520   0.128  1.00  0.00     0.210 HD
ENDBRANCH  23  24
ENDBRANCH  22  23
ENDBRANCH  15  22
ENDBRANCH  12  15
ENDBRANCH  10  12
ENDBRANCH   5  10
ENDBRANCH   2   4
ENDBRANCH   1   2
BRANCH   1  26
ATOM     26  C   UNL     1       4.324   1.469   1.434  1.00  0.00     0.275 C 
BRANCH  26  27
ATOM     27  C   UNL     1       5.500   0.564   1.802  1.00  0.00     0.275 C 
BRANCH  27  28
ATOM     28  O   UNL     1       6.421   1.295   2.621  1.00  0.00    -0.458 OA
BRANCH  28  29
ATOM     29  C   UNL     1       7.378   1.956   1.938  1.00  0.00     0.338 C 
ATOM     30  O   UNL     1       7.685   1.836   0.759  1.00  0.00    -0.246 OA
BRANCH  29  31
ATOM     31  C   UNL     1       7.820   3.058   2.787  1.00  0.00     0.060 A 
ATOM     32  C   UNL     1       7.231   4.299   2.554  1.00  0.00     0.016 A 
ATOM     33  C   UNL     1       8.783   2.895   3.775  1.00  0.00     0.016 A 
ATOM     34  C   UNL     1       7.615   5.411   3.281  1.00  0.00     0.010 A 
ATOM     35  C   UNL     1       9.153   4.007   4.530  1.00  0.00     0.010 A 
ATOM     36  C   UNL     1       8.585   5.272   4.273  1.00  0.00    -0.014 A 
BRANCH  36  37
ATOM     37  C   UNL     1       9.083   6.472   4.977  1.00  0.00     0.031 A 
ATOM     38  C   UNL     1      10.511   6.875   4.771  1.00  0.00     0.074 A 
ATOM     39  C   UNL     1       8.267   7.175   5.784  1.00  0.00     0.049 A 
ATOM     40  N   UNL     1      11.239   7.716   5.450  1.00  0.00    -0.248 NA
ATOM     41  C   UNL     1      11.224   6.221   3.658  1.00  0.00     0.031 C 
ATOM     42  C   UNL     1       6.846   6.894   6.006  1.00  0.00     0.029 A 
ATOM     43  N   UNL     1       8.523   8.254   6.589  1.00  0.00    -0.354 N 
ATOM     44  C   UNL     1      12.514   7.633   4.905  1.00  0.00     0.074 A 
ATOM     45  C   UNL     1      12.458   6.671   3.828  1.00  0.00     0.031 C 
ATOM     46  C   UNL     1       6.362   7.764   6.906  1.00  0.00     0.029 A 
ATOM     47  C   UNL     1       7.452   8.611   7.375  1.00  0.00     0.049 A 
ATOM     48  H   UNL     1       9.387   8.726   6.604  1.00  0.00     0.167 HD
ATOM     49  C   UNL     1      13.626   8.306   5.278  1.00  0.00     0.034 A 
ATOM     50  C   UNL     1       7.379   9.483   8.399  1.00  0.00     0.034 A 
ATOM     51  C   UNL     1      13.633   9.301   6.314  1.00  0.00     0.049 A 
ATOM     52  C   UNL     1       8.627  10.232   8.782  1.00  0.00     0.074 A 
ATOM     53  C   UNL     1      14.691  10.056   6.781  1.00  0.00     0.029 A 
ATOM     54  N   UNL     1      12.511   9.691   7.033  1.00  0.00    -0.354 N 
ATOM     55  N   UNL     1       9.829  10.152   8.260  1.00  0.00    -0.248 NA
ATOM     56  C   UNL     1       8.510  11.200   9.879  1.00  0.00     0.031 C 
ATOM     57  C   UNL     1      14.209  10.903   7.785  1.00  0.00     0.029 A 
ATOM     58  C   UNL     1      12.846  10.688   7.929  1.00  0.00     0.049 A 
ATOM     59  H   UNL     1      11.609   9.313   6.921  1.00  0.00     0.167 HD
ATOM     60  C   UNL     1      10.607  11.072   8.950  1.00  0.00     0.074 A 
ATOM     61  C   UNL     1       9.730  11.720   9.907  1.00  0.00     0.031 C 
ATOM     62  C   UNL     1      11.929  11.345   8.826  1.00  0.00     0.034 A 
BRANCH  49  63
ATOM     63  C   UNL     1      14.908   7.996   4.553  1.00  0.00     0.023 A 
ATOM     64  C   UNL     1      15.087   8.432   3.225  1.00  0.00     0.012 A 
ATOM     65  C   UNL     1      15.949   7.296   5.195  1.00  0.00     0.148 A 
ATOM     66  C   UNL     1      16.266   8.149   2.536  1.00  0.00     0.002 A 
ATOM     67  C   UNL     1      17.139   7.056   4.518  1.00  0.00     0.091 A 
ATOM     68  F   UNL     1      15.752   6.867   6.450  1.00  0.00    -0.205 F 
ATOM     69  C   UNL     1      17.295   7.471   3.185  1.00  0.00     0.022 A 
BRANCH  67  70
ATOM     70  S   UNL     1      18.551   6.252   5.285  1.00  0.00     0.127 S 
ATOM     71  O   UNL     1      18.607   4.989   4.550  1.00  0.00    -0.237 OA
ATOM     72  O   UNL     1      19.637   7.184   4.979  1.00  0.00    -0.237 OA
ATOM     73  O   UNL     1      18.229   6.135   6.700  1.00  0.00    -0.744 OA
ENDBRANCH  67  70
ENDBRANCH  49  63
BRANCH  50  74
ATOM     74  C   UNL     1       6.093   9.679   9.126  1.00  0.00     0.023 A 
ATOM     75  C   UNL     1       5.410  10.906   9.018  1.00  0.00     0.012 A 
ATOM     76  C   UNL     1       5.518   8.643   9.891  1.00  0.00     0.148 A 
ATOM     77  C   UNL     1       4.196  11.106   9.677  1.00  0.00     0.002 A 
ATOM     78  C   UNL     1       4.279   8.828  10.493  1.00  0.00     0.091 A 
ATOM     79  F   UNL     1       6.190   7.489  10.006  1.00  0.00    -0.205 F 
ATOM     80  C   UNL     1       3.623  10.064  10.402  1.00  0.00     0.022 A 
BRANCH  78  81
ATOM     81  S   UNL     1       3.411   7.487  11.317  1.00  0.00     0.127 S 
ATOM     82  O   UNL     1       3.642   7.800  12.725  1.00  0.00    -0.237 OA
ATOM     83  O   UNL     1       2.035   7.684  10.860  1.00  0.00    -0.237 OA
ATOM     84  O   UNL     1       4.033   6.265  10.823  1.00  0.00    -0.744 OA
ENDBRANCH  78  81
ENDBRANCH  50  74
BRANCH  62  85
ATOM     85  C   UNL     1      12.494  12.414   9.719  1.00  0.00     0.023 A 
ATOM     86  C   UNL     1      12.716  12.141  11.082  1.00  0.00     0.012 A 
ATOM     87  C   UNL     1      12.874  13.661   9.186  1.00  0.00     0.148 A 
ATOM     88  C   UNL     1      13.282  13.107  11.911  1.00  0.00     0.002 A 
ATOM     89  C   UNL     1      13.481  14.600  10.008  1.00  0.00     0.091 A 
ATOM     90  F   UNL     1      12.633  13.904   7.889  1.00  0.00    -0.205 F 
ATOM     91  C   UNL     1      13.675  14.330  11.373  1.00  0.00     0.022 A 
BRANCH  89  92
ATOM     92  S   UNL     1      14.106  16.162   9.378  1.00  0.00     0.127 S 
ATOM     93  O   UNL     1      13.112  17.106   9.886  1.00  0.00    -0.237 OA
ATOM     94  O   UNL     1      15.418  16.253  10.018  1.00  0.00    -0.237 OA
ATOM     95  O   UNL     1      14.151  16.019   7.929  1.00  0.00    -0.744 OA
ENDBRANCH  89  92
ENDBRANCH  62  85
ENDBRANCH  36  37
ENDBRANCH  29  31
ENDBRANCH  28  29
ENDBRANCH  27  28
ENDBRANCH  26  27
ENDBRANCH   1  26
TORSDOF 22
