REMARK SMILES Cc1cccc(NC(=O)C[C@@H]2CCCCO2)c1C(=O)OCCOC(=O)c1ccc(-c2c3nc(c(-c4cccc(S(=O)(=O)[O-])c4F)c4ccc([nH]4)c(-c4cccc(S(=O)(=O)[O-])c4F)c4nc(c(-c5cccc(S(=O)(=O)[O-])c5F)c5ccc2[nH]5)C=C4)C=C3)cc1
REMARK SMILES IDX 21 1 20 2 18 3 19 4 17 5 1 6 2 7 3 8 4 9 6 10 5 11 7 12 8 13
REMARK SMILES IDX 9 15 10 16 11 17 12 18 16 19 13 20 15 21 14 22 22 23 23 24
REMARK SMILES IDX 24 25 25 26 26 27 27 28 88 29 28 30 87 31 29 32 30 33 31 34
REMARK SMILES IDX 81 35 32 36 86 37 80 38 82 39 33 40 85 41 79 42 78 43 34 45
REMARK SMILES IDX 66 46 46 47 65 48 47 49 50 50 64 51 83 52 48 53 49 54 63 56
REMARK SMILES IDX 84 57 51 58 35 59 36 60 44 61 37 62 39 63 45 64 38 65 40 66
REMARK SMILES IDX 41 67 42 68 43 69 67 70 68 71 76 72 69 73 71 74 77 75 70 76
REMARK SMILES IDX 72 77 73 78 74 79 75 80 52 81 53 82 61 83 54 84 56 85 62 86
REMARK SMILES IDX 55 87 57 88 58 89 59 90 60 91
REMARK H PARENT 7 14 82 44 50 55
REMARK Flexibility Score: inf
ROOT
ATOM      1  C   UNL     1       3.582   3.015  -1.776  1.00  0.00     0.275 C 
ENDROOT
BRANCH   1   2
ATOM      2  O   UNL     1       2.612   2.180  -1.128  1.00  0.00    -0.458 OA
BRANCH   2   3
ATOM      3  C   UNL     1       1.665   1.519  -1.827  1.00  0.00     0.340 C 
ATOM      4  O   UNL     1       1.375   1.703  -2.993  1.00  0.00    -0.246 OA
BRANCH   3   5
ATOM      5  C   UNL     1       1.030   0.530  -0.908  1.00  0.00     0.086 A 
ATOM      6  C   UNL     1       3.339  -0.565  -0.562  1.00  0.00     0.045 C 
ATOM      7  C   UNL     1       1.859  -0.462  -0.307  1.00  0.00    -0.034 A 
ATOM      8  C   UNL     1       1.293  -1.379   0.585  1.00  0.00     0.004 A 
ATOM      9  C   UNL     1      -0.033  -1.249   0.960  1.00  0.00     0.002 A 
ATOM     10  C   UNL     1      -0.361   0.587  -0.625  1.00  0.00     0.056 A 
ATOM     11  C   UNL     1      -0.824  -0.243   0.402  1.00  0.00     0.027 A 
BRANCH  10  12
ATOM     12  N   UNL     1      -1.214   1.452  -1.371  1.00  0.00    -0.325 N 
ATOM     13  C   UNL     1      -2.566   1.653  -1.494  1.00  0.00     0.227 C 
ATOM     14  H   UNL     1      -0.700   2.063  -1.946  1.00  0.00     0.169 HD
ATOM     15  O   UNL     1      -2.914   2.603  -2.216  1.00  0.00    -0.275 OA
BRANCH  13  16
ATOM     16  C   UNL     1      -3.648   0.765  -0.912  1.00  0.00     0.132 C 
BRANCH  16  17
ATOM     17  C   UNL     1      -4.339  -0.138  -1.946  1.00  0.00     0.127 C 
ATOM     18  C   UNL     1      -5.165  -1.255  -1.288  1.00  0.00     0.033 C 
ATOM     19  O   UNL     1      -3.468  -0.749  -2.906  1.00  0.00    -0.378 OA
ATOM     20  C   UNL     1      -4.276  -2.308  -0.625  1.00  0.00     0.005 C 
ATOM     21  C   UNL     1      -2.526  -1.653  -2.348  1.00  0.00     0.160 C 
ATOM     22  C   UNL     1      -3.168  -2.781  -1.560  1.00  0.00     0.029 C 
ENDBRANCH  16  17
ENDBRANCH  13  16
ENDBRANCH  10  12
ENDBRANCH   3   5
ENDBRANCH   2   3
ENDBRANCH   1   2
BRANCH   1  23
ATOM     23  C   UNL     1       3.158   4.095  -2.794  1.00  0.00     0.275 C 
BRANCH  23  24
ATOM     24  O   UNL     1       2.131   5.107  -2.611  1.00  0.00    -0.458 OA
BRANCH  24  25
ATOM     25  C   UNL     1       0.978   4.981  -1.903  1.00  0.00     0.338 C 
ATOM     26  O   UNL     1      -0.111   5.280  -2.319  1.00  0.00    -0.246 OA
BRANCH  25  27
ATOM     27  C   UNL     1       1.225   4.647  -0.498  1.00  0.00     0.060 A 
ATOM     28  C   UNL     1       0.315   3.839   0.195  1.00  0.00     0.016 A 
ATOM     29  C   UNL     1       2.432   5.056   0.059  1.00  0.00     0.016 A 
ATOM     30  C   UNL     1       0.665   3.325   1.429  1.00  0.00     0.010 A 
ATOM     31  C   UNL     1       2.837   4.464   1.217  1.00  0.00     0.010 A 
ATOM     32  C   UNL     1       1.920   3.665   1.921  1.00  0.00    -0.014 A 
BRANCH  32  33
ATOM     33  C   UNL     1       2.212   3.648   3.336  1.00  0.00     0.031 A 
ATOM     34  C   UNL     1       2.764   2.442   3.951  1.00  0.00     0.074 A 
ATOM     35  C   UNL     1       2.111   4.908   3.825  1.00  0.00     0.049 A 
ATOM     36  N   UNL     1       2.734   2.214   5.211  1.00  0.00    -0.248 NA
ATOM     37  C   UNL     1       3.332   1.331   3.185  1.00  0.00     0.031 C 
ATOM     38  C   UNL     1       2.702   5.566   4.968  1.00  0.00     0.029 A 
ATOM     39  N   UNL     1       1.266   5.901   3.281  1.00  0.00    -0.354 N 
ATOM     40  C   UNL     1       3.599   1.161   5.447  1.00  0.00     0.074 A 
ATOM     41  C   UNL     1       3.782   0.534   4.163  1.00  0.00     0.031 C 
ATOM     42  C   UNL     1       2.004   6.699   5.208  1.00  0.00     0.029 A 
ATOM     43  C   UNL     1       0.825   6.680   4.339  1.00  0.00     0.049 A 
ATOM     44  H   UNL     1       1.035   6.017   2.331  1.00  0.00     0.167 HD
ATOM     45  C   UNL     1       4.228   1.121   6.656  1.00  0.00     0.034 A 
ATOM     46  C   UNL     1      -0.483   6.612   4.740  1.00  0.00     0.034 A 
ATOM     47  C   UNL     1       3.745   2.251   7.472  1.00  0.00     0.049 A 
ATOM     48  C   UNL     1      -0.552   6.022   6.137  1.00  0.00     0.074 A 
ATOM     49  C   UNL     1       4.239   3.538   7.616  1.00  0.00     0.029 A 
ATOM     50  N   UNL     1       2.427   2.279   7.912  1.00  0.00    -0.354 N 
ATOM     51  N   UNL     1       0.368   5.255   6.651  1.00  0.00    -0.248 NA
ATOM     52  C   UNL     1      -1.688   6.219   7.027  1.00  0.00     0.031 C 
ATOM     53  C   UNL     1       3.164   4.367   8.038  1.00  0.00     0.029 A 
ATOM     54  C   UNL     1       2.028   3.585   8.169  1.00  0.00     0.049 A 
ATOM     55  H   UNL     1       1.855   1.486   8.025  1.00  0.00     0.167 HD
ATOM     56  C   UNL     1      -0.045   4.796   7.866  1.00  0.00     0.074 A 
ATOM     57  C   UNL     1      -1.323   5.463   8.075  1.00  0.00     0.031 C 
ATOM     58  C   UNL     1       0.657   3.867   8.581  1.00  0.00     0.034 A 
BRANCH  45  59
ATOM     59  C   UNL     1       5.496   0.357   7.022  1.00  0.00     0.023 A 
ATOM     60  C   UNL     1       6.153   0.783   8.204  1.00  0.00     0.012 A 
ATOM     61  C   UNL     1       6.135  -0.688   6.310  1.00  0.00     0.148 A 
ATOM     62  C   UNL     1       7.386   0.274   8.620  1.00  0.00     0.002 A 
ATOM     63  C   UNL     1       7.375  -1.199   6.724  1.00  0.00     0.091 A 
ATOM     64  F   UNL     1       5.550  -1.219   5.235  1.00  0.00    -0.205 F 
ATOM     65  C   UNL     1       8.006  -0.711   7.872  1.00  0.00     0.022 A 
BRANCH  63  66
ATOM     66  S   UNL     1       8.265  -2.491   5.829  1.00  0.00     0.127 S 
ATOM     67  O   UNL     1       9.512  -1.812   5.470  1.00  0.00    -0.237 OA
ATOM     68  O   UNL     1       8.413  -3.531   6.846  1.00  0.00    -0.237 OA
ATOM     69  O   UNL     1       7.428  -2.857   4.693  1.00  0.00    -0.744 OA
ENDBRANCH  63  66
ENDBRANCH  45  59
BRANCH  46  70
ATOM     70  C   UNL     1      -1.493   6.241   3.670  1.00  0.00     0.023 A 
ATOM     71  C   UNL     1      -1.491   6.934   2.430  1.00  0.00     0.012 A 
ATOM     72  C   UNL     1      -2.218   5.038   3.746  1.00  0.00     0.148 A 
ATOM     73  C   UNL     1      -2.071   6.375   1.283  1.00  0.00     0.002 A 
ATOM     74  C   UNL     1      -2.765   4.471   2.598  1.00  0.00     0.091 A 
ATOM     75  F   UNL     1      -2.338   4.426   4.928  1.00  0.00    -0.205 F 
ATOM     76  C   UNL     1      -2.682   5.127   1.361  1.00  0.00     0.022 A 
BRANCH  74  77
ATOM     77  S   UNL     1      -3.376   2.782   2.608  1.00  0.00     0.127 S 
ATOM     78  O   UNL     1      -4.817   2.971   2.474  1.00  0.00    -0.237 OA
ATOM     79  O   UNL     1      -2.714   2.224   1.433  1.00  0.00    -0.237 OA
ATOM     80  O   UNL     1      -2.927   2.200   3.863  1.00  0.00    -0.744 OA
ENDBRANCH  74  77
ENDBRANCH  46  70
BRANCH  58  81
ATOM     81  C   UNL     1       0.089   3.140   9.769  1.00  0.00     0.023 A 
ATOM     82  C   UNL     1      -1.292   2.906   9.903  1.00  0.00     0.012 A 
ATOM     83  C   UNL     1       0.945   2.525  10.711  1.00  0.00     0.148 A 
ATOM     84  C   UNL     1      -1.812   2.194  10.985  1.00  0.00     0.002 A 
ATOM     85  C   UNL     1       0.432   1.698  11.700  1.00  0.00     0.091 A 
ATOM     86  F   UNL     1       2.268   2.744  10.663  1.00  0.00    -0.205 F 
ATOM     87  C   UNL     1      -0.948   1.571  11.874  1.00  0.00     0.022 A 
BRANCH  85  88
ATOM     88  S   UNL     1       1.526   0.635  12.648  1.00  0.00     0.127 S 
ATOM     89  O   UNL     1       1.848   1.475  13.799  1.00  0.00    -0.237 OA
ATOM     90  O   UNL     1       0.669  -0.513  12.950  1.00  0.00    -0.237 OA
ATOM     91  O   UNL     1       2.626   0.331  11.741  1.00  0.00    -0.744 OA
ENDBRANCH  85  88
ENDBRANCH  58  81
ENDBRANCH  32  33
ENDBRANCH  25  27
ENDBRANCH  24  25
ENDBRANCH  23  24
ENDBRANCH   1  23
TORSDOF 17
