REMARK SMILES O=C(OCCOC(=O)c1ccc(OC[C@H]2C[C@H]3CC[C@@H]2C3)c(Cl)c1)c1ccc(-c2c3nc(c(-c4cccc(S(=O)(=O)[O-])c4F)c4ccc([nH]4)c(-c4cccc(S(=O)(=O)[O-])c4F)c4nc(c(-c5cccc(S(=O)(=O)[O-])c5F)c5ccc2[nH]5)C=C4)C=C3)cc1
REMARK SMILES IDX 4 1 3 2 2 3 1 4 25 5 26 6 87 7 27 8 86 9 28 10 29 11 30 12
REMARK SMILES IDX 80 13 31 14 85 15 79 16 81 17 32 18 84 19 78 20 77 21 33 23
REMARK SMILES IDX 65 24 45 25 64 26 46 27 49 28 63 29 82 30 47 31 48 32 62 34
REMARK SMILES IDX 83 35 50 36 34 37 35 38 43 39 36 40 38 41 44 42 37 43 39 44
REMARK SMILES IDX 40 45 41 46 42 47 66 48 67 49 75 50 68 51 70 52 76 53 69 54
REMARK SMILES IDX 71 55 72 56 73 57 74 58 51 59 52 60 60 61 53 62 55 63 61 64
REMARK SMILES IDX 54 65 56 66 57 67 58 68 59 69 5 70 6 71 7 72 8 73 9 74 10 75
REMARK SMILES IDX 24 76 11 77 22 78 12 79 23 80 13 81 14 82 15 83 16 84 20 85
REMARK SMILES IDX 17 86 19 87 21 88 18 89
REMARK H PARENT 81 22 49 33
REMARK Flexibility Score: inf
ROOT
ATOM      1  C   UNL     1      -7.614 -11.531   3.873  1.00  0.00     0.275 C 
ENDROOT
BRANCH   1   2
ATOM      2  O   UNL     1      -7.411 -10.377   3.043  1.00  0.00    -0.458 OA
BRANCH   2   3
ATOM      3  C   UNL     1      -7.754  -9.106   3.371  1.00  0.00     0.338 C 
ATOM      4  O   UNL     1      -8.132  -8.342   2.485  1.00  0.00    -0.246 OA
BRANCH   3   5
ATOM      5  C   UNL     1      -7.408  -8.533   4.713  1.00  0.00     0.060 A 
ATOM      6  C   UNL     1      -7.455  -9.188   5.944  1.00  0.00     0.016 A 
ATOM      7  C   UNL     1      -6.953  -7.207   4.705  1.00  0.00     0.016 A 
ATOM      8  C   UNL     1      -6.980  -8.573   7.111  1.00  0.00     0.010 A 
ATOM      9  C   UNL     1      -6.416  -6.618   5.855  1.00  0.00     0.010 A 
ATOM     10  C   UNL     1      -6.423  -7.294   7.075  1.00  0.00    -0.014 A 
BRANCH  10  11
ATOM     11  C   UNL     1      -5.930  -6.650   8.320  1.00  0.00     0.031 A 
ATOM     12  C   UNL     1      -6.603  -5.399   8.821  1.00  0.00     0.074 A 
ATOM     13  C   UNL     1      -4.898  -7.186   9.004  1.00  0.00     0.049 A 
ATOM     14  N   UNL     1      -6.411  -4.755   9.943  1.00  0.00    -0.248 NA
ATOM     15  C   UNL     1      -7.617  -4.782   7.947  1.00  0.00     0.031 C 
ATOM     16  C   UNL     1      -4.107  -8.345   8.580  1.00  0.00     0.029 A 
ATOM     17  N   UNL     1      -4.330  -6.827  10.202  1.00  0.00    -0.354 N 
ATOM     18  C   UNL     1      -7.279  -3.671   9.906  1.00  0.00     0.074 A 
ATOM     19  C   UNL     1      -7.932  -3.688   8.619  1.00  0.00     0.031 C 
ATOM     20  C   UNL     1      -3.162  -8.601   9.501  1.00  0.00     0.029 A 
ATOM     21  C   UNL     1      -3.281  -7.634  10.586  1.00  0.00     0.049 A 
ATOM     22  H   UNL     1      -4.643  -6.063  10.737  1.00  0.00     0.167 HD
ATOM     23  C   UNL     1      -7.570  -2.780  10.882  1.00  0.00     0.034 A 
ATOM     24  C   UNL     1      -2.522  -7.607  11.701  1.00  0.00     0.034 A 
ATOM     25  C   UNL     1      -6.947  -2.785  12.172  1.00  0.00     0.049 A 
ATOM     26  C   UNL     1      -2.873  -6.614  12.782  1.00  0.00     0.074 A 
ATOM     27  C   UNL     1      -7.194  -1.964  13.255  1.00  0.00     0.029 A 
ATOM     28  N   UNL     1      -5.943  -3.664  12.551  1.00  0.00    -0.354 N 
ATOM     29  N   UNL     1      -3.829  -5.716  12.799  1.00  0.00    -0.248 NA
ATOM     30  C   UNL     1      -2.084  -6.672  14.021  1.00  0.00     0.031 C 
ATOM     31  C   UNL     1      -6.332  -2.343  14.290  1.00  0.00     0.029 A 
ATOM     32  C   UNL     1      -5.561  -3.410  13.854  1.00  0.00     0.049 A 
ATOM     33  H   UNL     1      -5.559  -4.364  11.976  1.00  0.00     0.167 HD
ATOM     34  C   UNL     1      -3.787  -5.136  14.062  1.00  0.00     0.074 A 
ATOM     35  C   UNL     1      -2.725  -5.802  14.789  1.00  0.00     0.031 C 
ATOM     36  C   UNL     1      -4.545  -4.135  14.573  1.00  0.00     0.034 A 
BRANCH  23  37
ATOM     37  C   UNL     1      -8.673  -1.797  10.596  1.00  0.00     0.023 A 
ATOM     38  C   UNL     1     -10.004  -2.265  10.533  1.00  0.00     0.012 A 
ATOM     39  C   UNL     1      -8.408  -0.435  10.371  1.00  0.00     0.148 A 
ATOM     40  C   UNL     1     -11.047  -1.403  10.200  1.00  0.00     0.002 A 
ATOM     41  C   UNL     1      -9.459   0.427  10.081  1.00  0.00     0.091 A 
ATOM     42  F   UNL     1      -7.136  -0.015  10.420  1.00  0.00    -0.205 F 
ATOM     43  C   UNL     1     -10.775  -0.057   9.980  1.00  0.00     0.022 A 
BRANCH  41  44
ATOM     44  S   UNL     1      -9.233   2.191   9.829  1.00  0.00     0.127 S 
ATOM     45  O   UNL     1      -9.618   2.341   8.426  1.00  0.00    -0.237 OA
ATOM     46  O   UNL     1     -10.184   2.758  10.785  1.00  0.00    -0.237 OA
ATOM     47  O   UNL     1      -7.833   2.465  10.120  1.00  0.00    -0.744 OA
ENDBRANCH  41  44
ENDBRANCH  23  37
BRANCH  24  48
ATOM     48  C   UNL     1      -1.425  -8.600  11.906  1.00  0.00     0.023 A 
ATOM     49  C   UNL     1      -1.554  -9.590  12.902  1.00  0.00     0.012 A 
ATOM     50  C   UNL     1      -0.244  -8.558  11.139  1.00  0.00     0.148 A 
ATOM     51  C   UNL     1      -0.512 -10.482  13.165  1.00  0.00     0.002 A 
ATOM     52  C   UNL     1       0.771  -9.482  11.372  1.00  0.00     0.091 A 
ATOM     53  F   UNL     1      -0.128  -7.607  10.201  1.00  0.00    -0.205 F 
ATOM     54  C   UNL     1       0.647 -10.432  12.397  1.00  0.00     0.022 A 
BRANCH  52  55
ATOM     55  S   UNL     1       2.247  -9.561  10.350  1.00  0.00     0.127 S 
ATOM     56  O   UNL     1       3.240  -8.921  11.207  1.00  0.00    -0.237 OA
ATOM     57  O   UNL     1       2.421 -11.003  10.174  1.00  0.00    -0.237 OA
ATOM     58  O   UNL     1       1.903  -8.851   9.125  1.00  0.00    -0.744 OA
ENDBRANCH  52  55
ENDBRANCH  24  48
BRANCH  36  59
ATOM     59  C   UNL     1      -4.283  -3.721  15.995  1.00  0.00     0.023 A 
ATOM     60  C   UNL     1      -3.120  -2.992  16.309  1.00  0.00     0.012 A 
ATOM     61  C   UNL     1      -5.233  -3.982  17.002  1.00  0.00     0.148 A 
ATOM     62  C   UNL     1      -2.892  -2.554  17.612  1.00  0.00     0.002 A 
ATOM     63  C   UNL     1      -5.023  -3.497  18.286  1.00  0.00     0.091 A 
ATOM     64  F   UNL     1      -6.322  -4.698  16.687  1.00  0.00    -0.205 F 
ATOM     65  C   UNL     1      -3.848  -2.794  18.596  1.00  0.00     0.022 A 
BRANCH  63  66
ATOM     66  S   UNL     1      -6.254  -3.668  19.583  1.00  0.00     0.127 S 
ATOM     67  O   UNL     1      -5.689  -4.748  20.390  1.00  0.00    -0.237 OA
ATOM     68  O   UNL     1      -6.223  -2.351  20.220  1.00  0.00    -0.237 OA
ATOM     69  O   UNL     1      -7.505  -3.977  18.904  1.00  0.00    -0.744 OA
ENDBRANCH  63  66
ENDBRANCH  36  59
ENDBRANCH  10  11
ENDBRANCH   3   5
ENDBRANCH   2   3
ENDBRANCH   1   2
BRANCH   1  70
ATOM     70  C   UNL     1      -6.301 -12.102   4.415  1.00  0.00     0.275 C 
BRANCH  70  71
ATOM     71  O   UNL     1      -5.382 -11.073   4.820  1.00  0.00    -0.458 OA
BRANCH  71  72
ATOM     72  C   UNL     1      -4.364 -10.839   3.955  1.00  0.00     0.338 C 
ATOM     73  O   UNL     1      -4.106 -11.447   2.929  1.00  0.00    -0.246 OA
BRANCH  72  74
ATOM     74  C   UNL     1      -3.656  -9.617   4.356  1.00  0.00     0.061 A 
ATOM     75  C   UNL     1      -2.598  -9.638   5.255  1.00  0.00     0.019 A 
ATOM     76  C   UNL     1      -4.049  -8.419   3.766  1.00  0.00     0.040 A 
ATOM     77  C   UNL     1      -1.894  -8.451   5.494  1.00  0.00     0.049 A 
ATOM     78  C   UNL     1      -3.409  -7.218   4.095  1.00  0.00     0.083 A 
ATOM     79  C   UNL     1      -2.252  -7.234   4.879  1.00  0.00     0.137 A 
ATOM     80  Cl  UNL     1      -4.212  -5.801   3.521  1.00  0.00    -0.080 Cl
BRANCH  79  81
ATOM     81  O   UNL     1      -1.350  -6.247   5.138  1.00  0.00    -0.492 OA
BRANCH  81  82
ATOM     82  C   UNL     1      -1.350  -4.974   4.498  1.00  0.00     0.233 C 
BRANCH  82  83
ATOM     83  C   UNL     1      -0.622  -4.930   3.139  1.00  0.00     0.030 C 
ATOM     84  C   UNL     1      -1.268  -5.638   1.927  1.00  0.00     0.011 C 
ATOM     85  C   UNL     1      -0.418  -3.489   2.578  1.00  0.00    -0.004 C 
ATOM     86  C   UNL     1      -1.482  -4.505   0.908  1.00  0.00    -0.010 C 
ATOM     87  C   UNL     1      -1.749  -2.722   2.512  1.00  0.00     0.004 C 
ATOM     88  C   UNL     1      -0.174  -3.743   1.083  1.00  0.00     0.007 C 
ATOM     89  C   UNL     1      -2.511  -3.475   1.414  1.00  0.00     0.004 C 
ENDBRANCH  82  83
ENDBRANCH  81  82
ENDBRANCH  79  81
ENDBRANCH  72  74
ENDBRANCH  71  72
ENDBRANCH  70  71
ENDBRANCH   1  70
TORSDOF 17
