REMARK SMILES CCCCc1cc(S(F)(F)(F)(F)F)cc2c1O[C@@H](C(F)(F)F)C(C(=O)OCCOC(=O)c1ccc(-c3c4nc(c(-c5cccc(S(=O)(=O)[O-])c5F)c5ccc([nH]5)c(-c5cccc(S(=O)(=O)[O-])c5F)c5nc(c(-c6cccc(S(=O)(=O)[O-])c6F)c6ccc3[nH]6)C=C5)C=C4)cc1)=C2
REMARK SMILES IDX 27 1 26 2 24 3 25 4 23 5 5 6 6 7 16 8 7 9 15 10 17 11 14 12
REMARK SMILES IDX 95 13 18 14 4 15 3 16 2 17 1 18 8 19 9 20 10 21 11 22 12 23
REMARK SMILES IDX 13 24 19 25 20 26 21 27 22 28 28 29 29 30 30 31 31 32 32 33
REMARK SMILES IDX 33 34 94 35 34 36 93 37 35 38 36 39 37 40 87 41 38 42 92 43
REMARK SMILES IDX 86 44 88 45 39 46 91 47 85 48 84 49 40 51 72 52 52 53 71 54
REMARK SMILES IDX 53 55 56 56 70 57 89 58 54 59 55 60 69 62 90 63 57 64 41 65
REMARK SMILES IDX 42 66 50 67 43 68 45 69 51 70 44 71 46 72 47 73 48 74 49 75
REMARK SMILES IDX 73 76 74 77 82 78 75 79 77 80 83 81 76 82 78 83 79 84 80 85
REMARK SMILES IDX 81 86 58 87 59 88 67 89 60 90 62 91 68 92 61 93 63 94 64 95
REMARK SMILES IDX 65 96 66 97
REMARK H PARENT 88 50 56 61
REMARK Flexibility Score: inf
ROOT
ATOM      1  C   UNL     1      -5.712  -8.626  -0.933  1.00  0.00     0.275 C 
ENDROOT
BRANCH   1   2
ATOM      2  O   UNL     1      -5.073  -7.371  -1.117  1.00  0.00    -0.459 OA
BRANCH   2   3
ATOM      3  C   UNL     1      -3.690  -7.319  -1.433  1.00  0.00     0.338 C 
ATOM      4  O   UNL     1      -3.023  -8.395  -1.551  1.00  0.00    -0.246 OA
BRANCH   3   5
ATOM      5  C   UNL     1      -3.006  -5.976  -1.631  1.00  0.00     0.087 C 
ATOM      6  C   UNL     1      -0.957  -2.336  -1.692  1.00  0.00    -0.004 A 
ATOM      7  C   UNL     1      -1.662  -1.149  -1.766  1.00  0.00     0.032 A 
ATOM      8  C   UNL     1      -1.657  -3.516  -1.620  1.00  0.00     0.131 A 
ATOM      9  C   UNL     1      -3.032  -1.141  -1.761  1.00  0.00     0.108 A 
ATOM     10  C   UNL     1      -3.040  -3.548  -1.632  1.00  0.00     0.019 A 
ATOM     11  O   UNL     1      -0.947  -4.676  -1.434  1.00  0.00    -0.475 OA
ATOM     12  C   UNL     1      -3.718  -2.337  -1.701  1.00  0.00     0.036 A 
ATOM     13  C   UNL     1      -3.688  -4.843  -1.511  1.00  0.00     0.027 C 
ATOM     14  C   UNL     1      -1.523  -5.901  -1.970  1.00  0.00     0.316 C 
BRANCH   6  15
ATOM     15  C   UNL     1       0.563  -2.336  -1.692  1.00  0.00     0.039 C 
BRANCH  15  16
ATOM     16  C   UNL     1       1.070  -1.042  -2.308  1.00  0.00     0.005 C 
BRANCH  16  17
ATOM     17  C   UNL     1       0.563   0.138  -1.496  1.00  0.00    -0.003 C 
ATOM     18  C   UNL     1       1.070   0.025  -0.067  1.00  0.00     0.004 C 
ENDBRANCH  16  17
ENDBRANCH  15  16
ENDBRANCH   6  15
BRANCH   9  19
ATOM     19  S   UNL     1      -3.936   0.425  -1.834  1.00  0.00     0.310 S 
ATOM     20  F   UNL     1      -4.164   0.439  -0.264  1.00  0.00    -0.094 F 
ATOM     21  F   UNL     1      -5.280  -0.387  -1.954  1.00  0.00    -0.094 F 
ATOM     22  F   UNL     1      -4.711   1.772  -1.897  1.00  0.00    -0.094 F 
ATOM     23  F   UNL     1      -2.595   1.219  -1.572  1.00  0.00    -0.094 F 
ATOM     24  F   UNL     1      -3.149  -0.934  -1.655  1.00  0.00    -0.094 F 
ENDBRANCH   9  19
BRANCH  14  25
ATOM     25  C   UNL     1      -0.812  -7.095  -1.355  1.00  0.00     0.430 C 
ATOM     26  F   UNL     1      -1.330  -8.219  -1.842  1.00  0.00    -0.167 F 
ATOM     27  F   UNL     1       0.484  -7.039  -1.649  1.00  0.00    -0.167 F 
ATOM     28  F   UNL     1      -0.968  -7.071  -0.034  1.00  0.00    -0.167 F 
ENDBRANCH  14  25
ENDBRANCH   3   5
ENDBRANCH   2   3
ENDBRANCH   1   2
BRANCH   1  29
ATOM     29  C   UNL     1      -5.595  -9.446  -2.207  1.00  0.00     0.275 C 
BRANCH  29  30
ATOM     30  O   UNL     1      -4.224  -9.654  -2.512  1.00  0.00    -0.458 OA
BRANCH  30  31
ATOM     31  C   UNL     1      -3.371  -8.542  -2.741  1.00  0.00     0.338 C 
ATOM     32  O   UNL     1      -3.835  -7.361  -2.672  1.00  0.00    -0.246 OA
BRANCH  31  33
ATOM     33  C   UNL     1      -1.903  -8.764  -3.067  1.00  0.00     0.060 A 
ATOM     34  C   UNL     1      -0.943  -7.994  -2.432  1.00  0.00     0.016 A 
ATOM     35  C   UNL     1      -1.566  -9.693  -3.954  1.00  0.00     0.016 A 
ATOM     36  C   UNL     1       0.342  -8.082  -3.018  1.00  0.00     0.010 A 
ATOM     37  C   UNL     1      -0.265  -9.812  -4.381  1.00  0.00     0.010 A 
ATOM     38  C   UNL     1       0.726  -9.042  -3.840  1.00  0.00    -0.014 A 
BRANCH  38  39
ATOM     39  C   UNL     1       2.192  -9.278  -4.165  1.00  0.00     0.031 A 
ATOM     40  C   UNL     1       2.594  -9.173  -5.498  1.00  0.00     0.074 A 
ATOM     41  C   UNL     1       3.047  -9.587  -3.121  1.00  0.00     0.049 A 
ATOM     42  N   UNL     1       3.827  -9.310  -5.989  1.00  0.00    -0.248 NA
ATOM     43  C   UNL     1       1.682  -8.879  -6.613  1.00  0.00     0.031 C 
ATOM     44  C   UNL     1       2.651  -9.686  -1.773  1.00  0.00     0.029 A 
ATOM     45  N   UNL     1       4.397  -9.848  -3.183  1.00  0.00    -0.354 N 
ATOM     46  C   UNL     1       3.821  -9.120  -7.310  1.00  0.00     0.074 A 
ATOM     47  C   UNL     1       2.440  -8.846  -7.731  1.00  0.00     0.031 C 
ATOM     48  C   UNL     1       3.744 -10.014  -1.035  1.00  0.00     0.029 A 
ATOM     49  C   UNL     1       4.842 -10.125  -1.909  1.00  0.00     0.049 A 
ATOM     50  H   UNL     1       4.950  -9.840  -3.998  1.00  0.00     0.167 HD
ATOM     51  C   UNL     1       4.912  -9.162  -8.179  1.00  0.00     0.034 A 
ATOM     52  C   UNL     1       6.127 -10.459  -1.512  1.00  0.00     0.034 A 
ATOM     53  C   UNL     1       6.205  -9.453  -7.775  1.00  0.00     0.049 A 
ATOM     54  C   UNL     1       7.208 -10.558  -2.390  1.00  0.00     0.074 A 
ATOM     55  C   UNL     1       7.318  -9.492  -8.637  1.00  0.00     0.029 A 
ATOM     56  N   UNL     1       6.645  -9.754  -6.505  1.00  0.00    -0.354 N 
ATOM     57  N   UNL     1       7.209 -10.329  -3.705  1.00  0.00    -0.248 NA
ATOM     58  C   UNL     1       8.567 -10.943  -1.986  1.00  0.00     0.031 C 
ATOM     59  C   UNL     1       8.412  -9.821  -7.899  1.00  0.00     0.029 A 
ATOM     60  C   UNL     1       8.000  -9.993  -6.564  1.00  0.00     0.049 A 
ATOM     61  H   UNL     1       6.087  -9.791  -5.695  1.00  0.00     0.167 HD
ATOM     62  C   UNL     1       8.435 -10.507  -4.202  1.00  0.00     0.074 A 
ATOM     63  C   UNL     1       9.325 -10.911  -3.104  1.00  0.00     0.031 C 
ATOM     64  C   UNL     1       8.848 -10.345  -5.525  1.00  0.00     0.034 A 
BRANCH  51  65
ATOM     65  C   UNL     1       4.668  -8.872  -9.651  1.00  0.00     0.023 A 
ATOM     66  C   UNL     1       4.215  -7.613 -10.010  1.00  0.00     0.012 A 
ATOM     67  C   UNL     1       4.952  -9.789 -10.569  1.00  0.00     0.148 A 
ATOM     68  C   UNL     1       3.815  -7.512 -11.364  1.00  0.00     0.002 A 
ATOM     69  C   UNL     1       4.659  -9.569 -11.893  1.00  0.00     0.091 A 
ATOM     70  F   UNL     1       5.527 -10.931 -10.202  1.00  0.00    -0.205 F 
ATOM     71  C   UNL     1       4.153  -8.369 -12.310  1.00  0.00     0.022 A 
BRANCH  69  72
ATOM     72  S   UNL     1       4.946 -10.885 -13.101  1.00  0.00     0.127 S 
ATOM     73  O   UNL     1       3.624 -11.250 -13.781  1.00  0.00    -0.237 OA
ATOM     74  O   UNL     1       5.945 -10.402 -14.155  1.00  0.00    -0.237 OA
ATOM     75  O   UNL     1       5.577 -12.261 -12.306  1.00  0.00    -0.744 OA
ENDBRANCH  69  72
ENDBRANCH  51  65
BRANCH  52  76
ATOM     76  C   UNL     1       6.373 -10.732  -0.037  1.00  0.00     0.023 A 
ATOM     77  C   UNL     1       7.331  -9.996   0.640  1.00  0.00     0.012 A 
ATOM     78  C   UNL     1       5.712 -11.717   0.560  1.00  0.00     0.148 A 
ATOM     79  C   UNL     1       7.730 -10.568   1.871  1.00  0.00     0.002 A 
ATOM     80  C   UNL     1       6.068 -12.135   1.819  1.00  0.00     0.091 A 
ATOM     81  F   UNL     1       4.697 -12.304  -0.067  1.00  0.00    -0.205 F 
ATOM     82  C   UNL     1       7.047 -11.491   2.524  1.00  0.00     0.022 A 
BRANCH  80  83
ATOM     83  S   UNL     1       5.229 -13.559   2.556  1.00  0.00     0.127 S 
ATOM     84  O   UNL     1       6.254 -14.654   2.862  1.00  0.00    -0.237 OA
ATOM     85  O   UNL     1       4.539 -13.130   3.853  1.00  0.00    -0.237 OA
ATOM     86  O   UNL     1       4.061 -14.162   1.462  1.00  0.00    -0.744 OA
ENDBRANCH  80  83
ENDBRANCH  52  76
BRANCH  64  87
ATOM     87  C   UNL     1      10.316 -10.568  -5.847  1.00  0.00     0.023 A 
ATOM     88  C   UNL     1      10.886 -11.805  -5.596  1.00  0.00     0.012 A 
ATOM     89  C   UNL     1      11.029  -9.574  -6.364  1.00  0.00     0.148 A 
ATOM     90  C   UNL     1      12.300 -11.809  -5.657  1.00  0.00     0.002 A 
ATOM     91  C   UNL     1      12.388  -9.696  -6.523  1.00  0.00     0.091 A 
ATOM     92  F   UNL     1      10.421  -8.450  -6.733  1.00  0.00    -0.205 F 
ATOM     93  C   UNL     1      13.026 -10.871  -6.238  1.00  0.00     0.022 A 
BRANCH  91  94
ATOM     94  S   UNL     1      13.348  -8.281  -7.116  1.00  0.00     0.127 S 
ATOM     95  O   UNL     1      14.393  -7.897  -6.066  1.00  0.00    -0.237 OA
ATOM     96  O   UNL     1      14.051  -8.653  -8.423  1.00  0.00    -0.237 OA
ATOM     97  O   UNL     1      12.301  -6.956  -7.389  1.00  0.00    -0.744 OA
ENDBRANCH  91  94
ENDBRANCH  64  87
ENDBRANCH  38  39
ENDBRANCH  31  33
ENDBRANCH  30  31
ENDBRANCH  29  30
ENDBRANCH   1  29
TORSDOF 19
