REMARK SMILES O=C(OCCOC(=O)[C@@H]1CN(S(=O)(=O)c2ccc3c(c2)OCCCO3)CC[NH2+]1)c1ccc(-c2c3nc(c(-c4cccc(S(=O)(=O)[O-])c4F)c4ccc([nH]4)c(-c4cccc(S(=O)(=O)[O-])c4F)c4nc(c(-c5cccc(S(=O)(=O)[O-])c5F)c5ccc2[nH]5)C=C4)C=C3)cc1
REMARK SMILES IDX 5 1 4 2 3 3 2 4 1 5 29 6 30 7 91 8 31 9 90 10 32 11 33 12
REMARK SMILES IDX 34 13 84 14 35 15 89 16 83 17 85 18 36 19 88 20 82 21 81 22
REMARK SMILES IDX 37 24 69 25 49 26 68 27 50 28 53 29 67 30 86 31 51 32 52 33
REMARK SMILES IDX 66 35 87 36 54 37 38 38 39 39 47 40 40 41 42 42 48 43 41 44
REMARK SMILES IDX 43 45 44 46 45 47 46 48 70 49 71 50 79 51 72 52 74 53 80 54
REMARK SMILES IDX 73 55 75 56 76 57 77 58 78 59 55 60 56 61 64 62 57 63 59 64
REMARK SMILES IDX 65 65 58 66 60 67 61 68 62 69 63 70 6 71 7 72 8 73 9 74
REMARK SMILES IDX 10 75 28 76 11 77 27 78 26 81 12 82 13 83 14 84 15 85 16 86
REMARK SMILES IDX 20 87 17 88 19 89 18 90 21 91 22 92 23 93 25 95 24 96
REMARK H PARENT 85 23 53 34 28 79 28 80
REMARK Flexibility Score: 80.00
ROOT
ATOM      1  C   UNL     1       4.005   2.127   0.053  1.00  0.00     0.274 C 
ENDROOT
BRANCH   1   2
ATOM      2  C   UNL     1       4.309   0.720  -0.574  1.00  0.00     0.275 C 
BRANCH   2   3
ATOM      3  O   UNL     1       3.165  -0.177  -0.612  1.00  0.00    -0.458 OA
BRANCH   3   4
ATOM      4  C   UNL     1       3.304  -1.505  -0.959  1.00  0.00     0.338 C 
ATOM      5  O   UNL     1       2.897  -1.925  -2.033  1.00  0.00    -0.246 OA
BRANCH   4   6
ATOM      6  C   UNL     1       3.579  -2.452   0.194  1.00  0.00     0.060 A 
ATOM      7  C   UNL     1       2.575  -3.244   0.792  1.00  0.00     0.016 A 
ATOM      8  C   UNL     1       4.856  -2.636   0.684  1.00  0.00     0.016 A 
ATOM      9  C   UNL     1       2.795  -3.973   2.028  1.00  0.00     0.010 A 
ATOM     10  C   UNL     1       5.061  -3.457   1.831  1.00  0.00     0.010 A 
ATOM     11  C   UNL     1       4.037  -3.984   2.684  1.00  0.00    -0.014 A 
BRANCH  11  12
ATOM     12  C   UNL     1       4.406  -4.885   3.945  1.00  0.00     0.031 A 
ATOM     13  C   UNL     1       4.646  -4.542   5.533  1.00  0.00     0.074 A 
ATOM     14  C   UNL     1       4.921  -6.054   3.529  1.00  0.00     0.049 A 
ATOM     15  N   UNL     1       5.039  -5.255   6.585  1.00  0.00    -0.248 NA
ATOM     16  C   UNL     1       4.447  -3.187   5.999  1.00  0.00     0.031 C 
ATOM     17  C   UNL     1       4.883  -6.533   2.143  1.00  0.00     0.029 A 
ATOM     18  N   UNL     1       5.689  -6.968   4.189  1.00  0.00    -0.354 N 
ATOM     19  C   UNL     1       5.076  -4.371   7.726  1.00  0.00     0.074 A 
ATOM     20  C   UNL     1       4.521  -3.139   7.313  1.00  0.00     0.031 C 
ATOM     21  C   UNL     1       5.697  -7.583   2.027  1.00  0.00     0.029 A 
ATOM     22  C   UNL     1       6.255  -7.882   3.338  1.00  0.00     0.049 A 
ATOM     23  H   UNL     1       5.821  -6.971   5.164  1.00  0.00     0.167 HD
ATOM     24  C   UNL     1       5.731  -4.386   8.925  1.00  0.00     0.034 A 
ATOM     25  C   UNL     1       7.119  -8.880   3.579  1.00  0.00     0.034 A 
ATOM     26  C   UNL     1       6.585  -5.469   9.262  1.00  0.00     0.049 A 
ATOM     27  C   UNL     1       7.527  -9.120   4.991  1.00  0.00     0.074 A 
ATOM     28  C   UNL     1       7.327  -5.693  10.402  1.00  0.00     0.029 A 
ATOM     29  N   UNL     1       6.837  -6.494   8.377  1.00  0.00    -0.354 N 
ATOM     30  N   UNL     1       7.433  -8.312   6.020  1.00  0.00    -0.248 NA
ATOM     31  C   UNL     1       8.066 -10.445   5.302  1.00  0.00     0.031 C 
ATOM     32  C   UNL     1       8.051  -6.869  10.193  1.00  0.00     0.029 A 
ATOM     33  C   UNL     1       7.689  -7.390   8.958  1.00  0.00     0.049 A 
ATOM     34  H   UNL     1       6.463  -6.569   7.469  1.00  0.00     0.167 HD
ATOM     35  C   UNL     1       7.875  -9.045   7.111  1.00  0.00     0.074 A 
ATOM     36  C   UNL     1       8.229 -10.359   6.617  1.00  0.00     0.031 C 
ATOM     37  C   UNL     1       7.987  -8.674   8.405  1.00  0.00     0.034 A 
BRANCH  24  38
ATOM     38  C   UNL     1       5.681  -3.170   9.889  1.00  0.00     0.023 A 
ATOM     39  C   UNL     1       4.456  -2.789  10.481  1.00  0.00     0.012 A 
ATOM     40  C   UNL     1       6.835  -2.406  10.223  1.00  0.00     0.148 A 
ATOM     41  C   UNL     1       4.369  -1.684  11.341  1.00  0.00     0.002 A 
ATOM     42  C   UNL     1       6.748  -1.328  11.116  1.00  0.00     0.091 A 
ATOM     43  F   UNL     1       8.005  -2.737   9.660  1.00  0.00    -0.205 F 
ATOM     44  C   UNL     1       5.512  -0.959  11.663  1.00  0.00     0.022 A 
BRANCH  42  45
ATOM     45  S   UNL     1       8.165  -0.334  11.630  1.00  0.00     0.127 S 
ATOM     46  O   UNL     1       7.693   1.030  11.379  1.00  0.00    -0.237 OA
ATOM     47  O   UNL     1       8.286  -0.680  13.045  1.00  0.00    -0.237 OA
ATOM     48  O   UNL     1       9.277  -0.748  10.786  1.00  0.00    -0.744 OA
ENDBRANCH  42  45
ENDBRANCH  24  38
BRANCH  25  49
ATOM     49  C   UNL     1       7.388  -9.804   2.451  1.00  0.00     0.023 A 
ATOM     50  C   UNL     1       6.481 -10.866   2.254  1.00  0.00     0.012 A 
ATOM     51  C   UNL     1       8.308  -9.476   1.438  1.00  0.00     0.148 A 
ATOM     52  C   UNL     1       6.478 -11.581   1.060  1.00  0.00     0.002 A 
ATOM     53  C   UNL     1       8.280 -10.178   0.237  1.00  0.00     0.091 A 
ATOM     54  F   UNL     1       9.128  -8.434   1.636  1.00  0.00    -0.205 F 
ATOM     55  C   UNL     1       7.368 -11.230   0.048  1.00  0.00     0.022 A 
BRANCH  53  56
ATOM     56  S   UNL     1       9.282  -9.702  -1.179  1.00  0.00     0.127 S 
ATOM     57  O   UNL     1      10.317 -10.732  -1.167  1.00  0.00    -0.237 OA
ATOM     58  O   UNL     1       8.324  -9.803  -2.281  1.00  0.00    -0.237 OA
ATOM     59  O   UNL     1       9.729  -8.344  -0.900  1.00  0.00    -0.744 OA
ENDBRANCH  53  56
ENDBRANCH  25  49
BRANCH  37  60
ATOM     60  C   UNL     1       8.456  -9.667   9.407  1.00  0.00     0.023 A 
ATOM     61  C   UNL     1       9.835  -9.790   9.640  1.00  0.00     0.012 A 
ATOM     62  C   UNL     1       7.519 -10.223  10.295  1.00  0.00     0.148 A 
ATOM     63  C   UNL     1      10.282 -10.444  10.781  1.00  0.00     0.002 A 
ATOM     64  C   UNL     1       7.972 -10.849  11.441  1.00  0.00     0.091 A 
ATOM     65  F   UNL     1       6.214 -10.066  10.027  1.00  0.00    -0.205 F 
ATOM     66  C   UNL     1       9.352 -10.957  11.688  1.00  0.00     0.022 A 
BRANCH  64  67
ATOM     67  S   UNL     1       6.853 -11.453  12.706  1.00  0.00     0.127 S 
ATOM     68  O   UNL     1       7.075 -12.896  12.625  1.00  0.00    -0.237 OA
ATOM     69  O   UNL     1       7.381 -10.819  13.913  1.00  0.00    -0.237 OA
ATOM     70  O   UNL     1       5.520 -11.011  12.317  1.00  0.00    -0.744 OA
ENDBRANCH  64  67
ENDBRANCH  37  60
ENDBRANCH  11  12
ENDBRANCH   4   6
ENDBRANCH   3   4
ENDBRANCH   2   3
ENDBRANCH   1   2
BRANCH   1  71
ATOM     71  O   UNL     1       3.284   2.099   1.294  1.00  0.00    -0.458 OA
BRANCH  71  72
ATOM     72  C   UNL     1       1.911   1.958   1.242  1.00  0.00     0.366 C 
ATOM     73  O   UNL     1       1.190   2.388   0.358  1.00  0.00    -0.245 OA
BRANCH  72  74
ATOM     74  C   UNL     1       1.539   1.013   2.368  1.00  0.00     0.308 C 
ATOM     75  C   UNL     1       2.382  -0.214   2.004  1.00  0.00     0.180 C 
ATOM     76  N   UNL     1       0.117   0.576   2.530  1.00  0.00    -0.332 N 
ATOM     77  N   UNL     1       2.529  -1.121   3.116  1.00  0.00    -0.186 NA
ATOM     78  C   UNL     1       0.099  -0.478   3.600  1.00  0.00     0.278 C 
ATOM     79  H   UNL     1      -0.232   0.191   1.653  1.00  0.00     0.347 HD
ATOM     80  H   UNL     1      -0.478   1.364   2.786  1.00  0.00     0.347 HD
ATOM     81  C   UNL     1       1.144  -1.619   3.465  1.00  0.00     0.164 C 
BRANCH  77  82
ATOM     82  S   UNL     1       3.588  -0.500   4.301  1.00  0.00     0.243 S 
ATOM     83  O   UNL     1       3.514   0.947   4.306  1.00  0.00    -0.207 OA
ATOM     84  O   UNL     1       3.167  -1.159   5.505  1.00  0.00    -0.207 OA
BRANCH  82  85
ATOM     85  C   UNL     1       5.411  -0.810   3.767  1.00  0.00     0.086 A 
ATOM     86  C   UNL     1       6.155  -1.998   3.912  1.00  0.00     0.026 A 
ATOM     87  C   UNL     1       6.187   0.294   3.414  1.00  0.00     0.072 A 
ATOM     88  C   UNL     1       7.534  -2.157   3.727  1.00  0.00     0.052 A 
ATOM     89  C   UNL     1       7.598   0.173   3.291  1.00  0.00     0.162 A 
ATOM     90  C   UNL     1       8.263  -1.049   3.429  1.00  0.00     0.161 A 
BRANCH  89  91
ATOM     91  O   UNL     1       8.327   1.315   3.079  1.00  0.00    -0.490 OA
BRANCH  91  92
ATOM     92  C   UNL     1       9.145   1.585   4.232  1.00  0.00     0.233 C 
BRANCH  92  93
ATOM     93  C   UNL     1      10.469   0.816   4.256  1.00  0.00     0.083 CG0
ATOM     94  G   UNL     1      10.260  -0.675   4.462  1.00  0.00     0.000 G0
ENDBRANCH  92  93
ENDBRANCH  91  92
ENDBRANCH  89  91
BRANCH  90  95
ATOM     95  O   UNL     1       9.611  -1.211   3.307  1.00  0.00    -0.490 OA
BRANCH  95  96
ATOM     96  C   UNL     1      10.260  -0.675   4.462  1.00  0.00     0.233 CG0
ATOM     97  G   UNL     1      10.469   0.816   4.256  1.00  0.00     0.000 G0
ENDBRANCH  95  96
ENDBRANCH  90  95
ENDBRANCH  82  85
ENDBRANCH  77  82
ENDBRANCH  72  74
ENDBRANCH  71  72
ENDBRANCH   1  71
TORSDOF 16
