REMARK SMILES COc1ccccc1OC1CCN(c2cccc(C(=O)OCCOC(=O)c3ccc(-c4c5nc(c(-c6cccc(S(=O)(=O)[O-])c6F)c6ccc([nH]6)c(-c6cccc(S(=O)(=O)[O-])c6F)c6nc(c(-c7cccc(S(=O)(=O)[O-])c7F)c7ccc4[nH]7)C=C6)C=C5)cc3)n2)CC1
REMARK SMILES IDX 22 1 21 2 19 3 20 4 18 5 14 6 15 7 90 8 16 9 17 10 13 11
REMARK SMILES IDX 10 12 11 13 92 14 12 15 91 16 9 17 8 18 3 19 4 20 5 21 7 22
REMARK SMILES IDX 6 23 2 24 1 25 23 26 24 27 25 28 26 29 27 30 28 31 89 32
REMARK SMILES IDX 29 33 88 34 30 35 31 36 32 37 82 38 33 39 87 40 81 41 83 42
REMARK SMILES IDX 34 43 86 44 80 45 79 46 35 48 67 49 47 50 66 51 48 52 51 53
REMARK SMILES IDX 65 54 84 55 49 56 50 57 64 59 85 60 52 61 36 62 37 63 45 64
REMARK SMILES IDX 38 65 40 66 46 67 39 68 41 69 42 70 43 71 44 72 68 73 69 74
REMARK SMILES IDX 77 75 70 76 72 77 78 78 71 79 73 80 74 81 75 82 76 83 53 84
REMARK SMILES IDX 54 85 62 86 55 87 57 88 63 89 56 90 58 91 59 92 60 93 61 94
REMARK H PARENT 83 47 51 58
REMARK Flexibility Score: inf
ROOT
ATOM      1  C   UNL     1      -4.745  -5.609   1.204  1.00  0.00     0.275 C 
ENDROOT
BRANCH   1   2
ATOM      2  O   UNL     1      -4.659  -4.330   0.537  1.00  0.00    -0.457 OA
BRANCH   2   3
ATOM      3  C   UNL     1      -3.628  -3.525   0.922  1.00  0.00     0.357 C 
ATOM      4  O   UNL     1      -2.870  -3.758   1.852  1.00  0.00    -0.244 OA
BRANCH   3   5
ATOM      5  C   UNL     1      -3.519  -2.321   0.030  1.00  0.00     0.150 A 
ATOM      6  C   UNL     1      -2.119  -0.687  -0.883  1.00  0.00     0.129 A 
ATOM      7  C   UNL     1      -3.227   0.003  -1.354  1.00  0.00     0.047 A 
ATOM      8  N   UNL     1      -2.262  -1.831  -0.181  1.00  0.00    -0.224 NA
ATOM      9  C   UNL     1      -4.507  -0.517  -1.156  1.00  0.00     0.006 A 
ATOM     10  C   UNL     1      -4.661  -1.707  -0.455  1.00  0.00     0.036 A 
BRANCH   6  11
ATOM     11  N   UNL     1      -0.852  -0.178  -1.120  1.00  0.00    -0.356 N 
ATOM     12  C   UNL     1       2.864   0.361  -0.492  1.00  0.00     0.177 C 
ATOM     13  C   UNL     1       2.231  -1.176  -1.491  1.00  0.00     0.066 C 
ATOM     14  C   UNL     1       1.531   1.467   0.397  1.00  0.00     0.066 C 
ATOM     15  C   UNL     1       0.355  -1.291  -1.966  1.00  0.00     0.122 C 
ATOM     16  C   UNL     1      -0.340   1.298  -0.138  1.00  0.00     0.122 C 
BRANCH  12  17
ATOM     17  O   UNL     1       3.511   1.229  -1.463  1.00  0.00    -0.486 OA
BRANCH  17  18
ATOM     18  C   UNL     1       2.558   1.652  -2.364  1.00  0.00     0.161 A 
ATOM     19  C   UNL     1       1.238   1.187  -2.253  1.00  0.00     0.160 A 
ATOM     20  C   UNL     1       0.275   1.632  -3.150  1.00  0.00     0.050 A 
ATOM     21  C   UNL     1       0.618   2.592  -4.104  1.00  0.00     0.004 A 
ATOM     22  C   UNL     1       2.914   2.580  -3.331  1.00  0.00     0.050 A 
ATOM     23  C   UNL     1       1.929   3.071  -4.188  1.00  0.00     0.004 A 
BRANCH  19  24
ATOM     24  O   UNL     1       1.079   0.373  -1.155  1.00  0.00    -0.493 OA
ATOM     25  C   UNL     1       0.789  -0.725   0.304  1.00  0.00     0.278 C 
ENDBRANCH  19  24
ENDBRANCH  17  18
ENDBRANCH  12  17
ENDBRANCH   6  11
ENDBRANCH   3   5
ENDBRANCH   2   3
ENDBRANCH   1   2
BRANCH   1  26
ATOM     26  C   UNL     1      -4.157  -6.735   0.346  1.00  0.00     0.275 C 
BRANCH  26  27
ATOM     27  O   UNL     1      -2.725  -6.650   0.260  1.00  0.00    -0.458 OA
BRANCH  27  28
ATOM     28  C   UNL     1      -2.261  -5.923  -0.782  1.00  0.00     0.338 C 
ATOM     29  O   UNL     1      -2.920  -5.382  -1.655  1.00  0.00    -0.246 OA
BRANCH  28  30
ATOM     30  C   UNL     1      -0.809  -5.754  -0.653  1.00  0.00     0.060 A 
ATOM     31  C   UNL     1      -0.358  -4.581  -0.082  1.00  0.00     0.016 A 
ATOM     32  C   UNL     1       0.108  -6.661  -1.183  1.00  0.00     0.016 A 
ATOM     33  C   UNL     1       0.991  -4.279  -0.113  1.00  0.00     0.010 A 
ATOM     34  C   UNL     1       1.483  -6.347  -1.185  1.00  0.00     0.010 A 
ATOM     35  C   UNL     1       1.943  -5.119  -0.689  1.00  0.00    -0.014 A 
BRANCH  35  36
ATOM     36  C   UNL     1       3.357  -4.632  -0.806  1.00  0.00     0.031 A 
ATOM     37  C   UNL     1       4.049  -4.580  -2.152  1.00  0.00     0.074 A 
ATOM     38  C   UNL     1       3.998  -4.096   0.259  1.00  0.00     0.049 A 
ATOM     39  N   UNL     1       5.294  -4.280  -2.428  1.00  0.00    -0.248 NA
ATOM     40  C   UNL     1       3.240  -4.895  -3.340  1.00  0.00     0.031 C 
ATOM     41  C   UNL     1       3.434  -3.933   1.602  1.00  0.00     0.029 A 
ATOM     42  N   UNL     1       5.262  -3.562   0.377  1.00  0.00    -0.354 N 
ATOM     43  C   UNL     1       5.441  -4.456  -3.800  1.00  0.00     0.074 A 
ATOM     44  C   UNL     1       4.148  -4.865  -4.306  1.00  0.00     0.031 C 
ATOM     45  C   UNL     1       4.323  -3.317   2.391  1.00  0.00     0.029 A 
ATOM     46  C   UNL     1       5.574  -3.178   1.662  1.00  0.00     0.049 A 
ATOM     47  H   UNL     1       5.881  -3.464  -0.383  1.00  0.00     0.167 HD
ATOM     48  C   UNL     1       6.552  -4.309  -4.564  1.00  0.00     0.034 A 
ATOM     49  C   UNL     1       6.746  -2.839   2.233  1.00  0.00     0.034 A 
ATOM     50  C   UNL     1       7.832  -3.875  -4.065  1.00  0.00     0.049 A 
ATOM     51  C   UNL     1       7.988  -2.806   1.391  1.00  0.00     0.074 A 
ATOM     52  C   UNL     1       9.009  -3.692  -4.771  1.00  0.00     0.029 A 
ATOM     53  N   UNL     1       8.114  -3.580  -2.741  1.00  0.00    -0.354 N 
ATOM     54  N   UNL     1       8.114  -3.004   0.104  1.00  0.00    -0.248 NA
ATOM     55  C   UNL     1       9.247  -2.487   2.079  1.00  0.00     0.031 C 
ATOM     56  C   UNL     1      10.022  -3.382  -3.862  1.00  0.00     0.029 A 
ATOM     57  C   UNL     1       9.455  -3.262  -2.605  1.00  0.00     0.049 A 
ATOM     58  H   UNL     1       7.459  -3.594  -2.007  1.00  0.00     0.167 HD
ATOM     59  C   UNL     1       9.456  -2.788  -0.182  1.00  0.00     0.074 A 
ATOM     60  C   UNL     1      10.098  -2.428   1.065  1.00  0.00     0.031 C 
ATOM     61  C   UNL     1      10.093  -2.878  -1.373  1.00  0.00     0.034 A 
BRANCH  48  62
ATOM     62  C   UNL     1       6.469  -4.695  -6.021  1.00  0.00     0.023 A 
ATOM     63  C   UNL     1       5.720  -3.932  -6.936  1.00  0.00     0.012 A 
ATOM     64  C   UNL     1       7.204  -5.806  -6.488  1.00  0.00     0.148 A 
ATOM     65  C   UNL     1       5.665  -4.296  -8.283  1.00  0.00     0.002 A 
ATOM     66  C   UNL     1       7.189  -6.130  -7.838  1.00  0.00     0.091 A 
ATOM     67  F   UNL     1       7.912  -6.522  -5.602  1.00  0.00    -0.205 F 
ATOM     68  C   UNL     1       6.405  -5.387  -8.734  1.00  0.00     0.022 A 
BRANCH  66  69
ATOM     69  S   UNL     1       8.166  -7.471  -8.523  1.00  0.00     0.127 S 
ATOM     70  O   UNL     1       7.124  -8.384  -8.992  1.00  0.00    -0.237 OA
ATOM     71  O   UNL     1       8.909  -6.796  -9.586  1.00  0.00    -0.237 OA
ATOM     72  O   UNL     1       8.985  -7.980  -7.431  1.00  0.00    -0.744 OA
ENDBRANCH  66  69
ENDBRANCH  48  62
BRANCH  49  73
ATOM     73  C   UNL     1       6.822  -2.586   3.701  1.00  0.00     0.023 A 
ATOM     74  C   UNL     1       7.204  -1.319   4.180  1.00  0.00     0.012 A 
ATOM     75  C   UNL     1       6.543  -3.615   4.625  1.00  0.00     0.148 A 
ATOM     76  C   UNL     1       7.351  -1.095   5.550  1.00  0.00     0.002 A 
ATOM     77  C   UNL     1       6.628  -3.367   5.987  1.00  0.00     0.091 A 
ATOM     78  F   UNL     1       6.188  -4.817   4.149  1.00  0.00    -0.205 F 
ATOM     79  C   UNL     1       7.055  -2.114   6.452  1.00  0.00     0.022 A 
BRANCH  77  80
ATOM     80  S   UNL     1       6.170  -4.587   7.221  1.00  0.00     0.127 S 
ATOM     81  O   UNL     1       7.439  -4.805   7.910  1.00  0.00    -0.237 OA
ATOM     82  O   UNL     1       5.163  -3.862   7.996  1.00  0.00    -0.237 OA
ATOM     83  O   UNL     1       5.656  -5.731   6.480  1.00  0.00    -0.744 OA
ENDBRANCH  77  80
ENDBRANCH  49  73
BRANCH  61  84
ATOM     84  C   UNL     1      11.552  -2.502  -1.420  1.00  0.00     0.023 A 
ATOM     85  C   UNL     1      12.524  -3.291  -0.773  1.00  0.00     0.012 A 
ATOM     86  C   UNL     1      11.959  -1.372  -2.158  1.00  0.00     0.148 A 
ATOM     87  C   UNL     1      13.872  -2.932  -0.820  1.00  0.00     0.002 A 
ATOM     88  C   UNL     1      13.307  -1.056  -2.251  1.00  0.00     0.091 A 
ATOM     89  F   UNL     1      11.019  -0.630  -2.760  1.00  0.00    -0.205 F 
ATOM     90  C   UNL     1      14.263  -1.823  -1.568  1.00  0.00     0.022 A 
BRANCH  88  91
ATOM     91  S   UNL     1      13.910   0.303  -3.257  1.00  0.00     0.127 S 
ATOM     92  O   UNL     1      14.475   1.194  -2.244  1.00  0.00    -0.237 OA
ATOM     93  O   UNL     1      14.900  -0.361  -4.106  1.00  0.00    -0.237 OA
ATOM     94  O   UNL     1      12.754   0.832  -3.967  1.00  0.00    -0.744 OA
ENDBRANCH  88  91
ENDBRANCH  61  84
ENDBRANCH  35  36
ENDBRANCH  28  30
ENDBRANCH  27  28
ENDBRANCH  26  27
ENDBRANCH   1  26
TORSDOF 18
