REMARK SMILES COc1cc(NC(=O)c2ccc([N+](=O)[O-])cc2)c(C(=O)OCCOC(=O)c2ccc(-c3c4nc(c(-c5cccc(S(=O)(=O)[O-])c5F)c5ccc([nH]5)c(-c5cccc(S(=O)(=O)[O-])c5F)c5nc(c(-c6cccc(S(=O)(=O)[O-])c6F)c6ccc3[nH]6)C=C5)C=C4)cc2)cc1OC
REMARK SMILES IDX 22 1 21 2 19 3 20 4 18 5 3 6 4 7 91 8 5 9 90 10 2 11 1 12
REMARK SMILES IDX 92 13 93 14 6 15 7 16 8 18 9 19 10 20 17 21 11 22 16 23
REMARK SMILES IDX 12 24 13 25 14 26 15 27 23 28 24 29 25 30 26 31 27 32 28 33
REMARK SMILES IDX 89 34 29 35 88 36 30 37 31 38 32 39 82 40 33 41 87 42 81 43
REMARK SMILES IDX 83 44 34 45 86 46 80 47 79 48 35 50 67 51 47 52 66 53 48 54
REMARK SMILES IDX 51 55 65 56 84 57 49 58 50 59 64 61 85 62 52 63 36 64 37 65
REMARK SMILES IDX 45 66 38 67 40 68 46 69 39 70 41 71 42 72 43 73 44 74 68 75
REMARK SMILES IDX 69 76 77 77 70 78 72 79 78 80 71 81 73 82 74 83 75 84 76 85
REMARK SMILES IDX 53 86 54 87 62 88 55 89 57 90 63 91 56 92 58 93 59 94 60 95
REMARK SMILES IDX 61 96
REMARK H PARENT 6 17 83 49 51 60
REMARK Flexibility Score: inf
ROOT
ATOM      1  C   UNL     1       3.621   7.139  -2.418  1.00  0.00     0.275 C 
ENDROOT
BRANCH   1   2
ATOM      2  O   UNL     1       3.302   5.730  -2.465  1.00  0.00    -0.458 OA
BRANCH   2   3
ATOM      3  C   UNL     1       2.104   5.367  -1.943  1.00  0.00     0.340 C 
ATOM      4  O   UNL     1       1.261   6.105  -1.468  1.00  0.00    -0.246 OA
BRANCH   3   5
ATOM      5  C   UNL     1       1.972   3.895  -1.906  1.00  0.00     0.087 A 
ATOM      6  C   UNL     1       1.624   1.202  -1.276  1.00  0.00     0.162 A 
ATOM      7  C   UNL     1       0.692   1.865  -2.084  1.00  0.00     0.077 A 
ATOM      8  C   UNL     1       2.788   1.850  -0.859  1.00  0.00     0.161 A 
ATOM      9  C   UNL     1       0.842   3.218  -2.404  1.00  0.00     0.060 A 
ATOM     10  C   UNL     1       2.940   3.206  -1.160  1.00  0.00     0.068 A 
BRANCH   6  11
ATOM     11  O   UNL     1       1.372  -0.110  -0.973  1.00  0.00    -0.493 OA
ATOM     12  C   UNL     1       0.363  -0.217   0.036  1.00  0.00     0.278 C 
ENDBRANCH   6  11
BRANCH   8  13
ATOM     13  O   UNL     1       3.836   1.340  -0.146  1.00  0.00    -0.493 OA
ATOM     14  C   UNL     1       3.860  -0.059   0.094  1.00  0.00     0.278 C 
ENDBRANCH   8  13
BRANCH   9  15
ATOM     15  N   UNL     1      -0.034   3.838  -3.323  1.00  0.00    -0.321 N 
ATOM     16  C   UNL     1      -1.248   3.421  -3.834  1.00  0.00     0.255 C 
ATOM     17  H   UNL     1       0.271   4.714  -3.654  1.00  0.00     0.170 HD
ATOM     18  O   UNL     1      -1.530   3.678  -5.002  1.00  0.00    -0.269 OA
BRANCH  16  19
ATOM     19  C   UNL     1      -2.240   2.688  -3.002  1.00  0.00     0.040 A 
ATOM     20  C   UNL     1      -3.119   1.808  -3.652  1.00  0.00     0.021 A 
ATOM     21  C   UNL     1      -2.300   2.824  -1.608  1.00  0.00     0.021 A 
ATOM     22  C   UNL     1      -3.934   0.948  -2.912  1.00  0.00     0.086 A 
ATOM     23  C   UNL     1      -3.098   1.954  -0.858  1.00  0.00     0.086 A 
ATOM     24  C   UNL     1      -3.873   0.986  -1.515  1.00  0.00     0.269 A 
BRANCH  24  25
ATOM     25  N   UNL     1      -4.544  -0.056  -0.729  1.00  0.00     0.062 N 
ATOM     26  O   UNL     1      -5.325  -0.817  -1.316  1.00  0.00    -0.258 OA
ATOM     27  O   UNL     1      -4.234  -0.156   0.468  1.00  0.00    -0.258 OA
ENDBRANCH  24  25
ENDBRANCH  16  19
ENDBRANCH   9  15
ENDBRANCH   3   5
ENDBRANCH   2   3
ENDBRANCH   1   2
BRANCH   1  28
ATOM     28  C   UNL     1       3.529   7.787  -3.800  1.00  0.00     0.275 C 
BRANCH  28  29
ATOM     29  O   UNL     1       2.157   8.000  -4.175  1.00  0.00    -0.458 OA
BRANCH  29  30
ATOM     30  C   UNL     1       1.621   7.016  -4.928  1.00  0.00     0.338 C 
ATOM     31  O   UNL     1       2.182   6.008  -5.331  1.00  0.00    -0.246 OA
BRANCH  30  32
ATOM     32  C   UNL     1       0.174   7.209  -5.091  1.00  0.00     0.060 A 
ATOM     33  C   UNL     1      -0.630   6.935  -3.995  1.00  0.00     0.016 A 
ATOM     34  C   UNL     1      -0.388   7.330  -6.361  1.00  0.00     0.016 A 
ATOM     35  C   UNL     1      -1.958   6.584  -4.202  1.00  0.00     0.010 A 
ATOM     36  C   UNL     1      -1.767   7.128  -6.530  1.00  0.00     0.010 A 
ATOM     37  C   UNL     1      -2.565   6.670  -5.467  1.00  0.00    -0.014 A 
BRANCH  37  38
ATOM     38  C   UNL     1      -3.985   6.213  -5.667  1.00  0.00     0.031 A 
ATOM     39  C   UNL     1      -4.372   5.334  -6.843  1.00  0.00     0.074 A 
ATOM     40  C   UNL     1      -4.949   6.548  -4.779  1.00  0.00     0.049 A 
ATOM     41  N   UNL     1      -5.566   5.074  -7.321  1.00  0.00    -0.248 NA
ATOM     42  C   UNL     1      -3.288   4.679  -7.594  1.00  0.00     0.031 C 
ATOM     43  C   UNL     1      -4.754   7.352  -3.570  1.00  0.00     0.029 A 
ATOM     44  N   UNL     1      -6.295   6.257  -4.754  1.00  0.00    -0.354 N 
ATOM     45  C   UNL     1      -5.369   4.317  -8.475  1.00  0.00     0.074 A 
ATOM     46  C   UNL     1      -3.940   4.136  -8.614  1.00  0.00     0.031 C 
ATOM     47  C   UNL     1      -5.904   7.434  -2.893  1.00  0.00     0.029 A 
ATOM     48  C   UNL     1      -6.960   6.847  -3.702  1.00  0.00     0.049 A 
ATOM     49  H   UNL     1      -6.737   5.684  -5.422  1.00  0.00     0.167 HD
ATOM     50  C   UNL     1      -6.292   3.814  -9.333  1.00  0.00     0.034 A 
ATOM     51  C   UNL     1      -8.273   7.002  -3.447  1.00  0.00     0.034 A 
ATOM     52  C   UNL     1      -7.717   3.901  -9.131  1.00  0.00     0.049 A 
ATOM     53  C   UNL     1      -9.273   6.461  -4.422  1.00  0.00     0.074 A 
ATOM     54  C   UNL     1      -8.731   3.401  -9.932  1.00  0.00     0.029 A 
ATOM     55  N   UNL     1      -8.331   4.499  -8.043  1.00  0.00    -0.354 N 
ATOM     56  N   UNL     1      -9.066   5.785  -5.525  1.00  0.00    -0.248 NA
ATOM     57  C   UNL     1     -10.689   6.705  -4.120  1.00  0.00     0.031 C 
ATOM     58  C   UNL     1      -9.957   3.712  -9.336  1.00  0.00     0.029 A 
ATOM     59  C   UNL     1      -9.707   4.376  -8.148  1.00  0.00     0.049 A 
ATOM     60  H   UNL     1      -7.859   4.946  -7.303  1.00  0.00     0.167 HD
ATOM     61  C   UNL     1     -10.326   5.505  -6.037  1.00  0.00     0.074 A 
ATOM     62  C   UNL     1     -11.289   6.054  -5.105  1.00  0.00     0.031 C 
ATOM     63  C   UNL     1     -10.655   4.873  -7.188  1.00  0.00     0.034 A 
BRANCH  50  64
ATOM     64  C   UNL     1      -5.817   3.094 -10.574  1.00  0.00     0.023 A 
ATOM     65  C   UNL     1      -5.288   1.792 -10.477  1.00  0.00     0.012 A 
ATOM     66  C   UNL     1      -6.022   3.660 -11.851  1.00  0.00     0.148 A 
ATOM     67  C   UNL     1      -4.955   1.073 -11.627  1.00  0.00     0.002 A 
ATOM     68  C   UNL     1      -5.731   2.920 -12.993  1.00  0.00     0.091 A 
ATOM     69  F   UNL     1      -6.520   4.902 -11.926  1.00  0.00    -0.205 F 
ATOM     70  C   UNL     1      -5.189   1.630 -12.882  1.00  0.00     0.022 A 
BRANCH  68  71
ATOM     71  S   UNL     1      -6.082   3.510 -14.655  1.00  0.00     0.127 S 
ATOM     72  O   UNL     1      -4.736   3.663 -15.205  1.00  0.00    -0.237 OA
ATOM     73  O   UNL     1      -6.847   2.398 -15.220  1.00  0.00    -0.237 OA
ATOM     74  O   UNL     1      -6.832   4.748 -14.496  1.00  0.00    -0.744 OA
ENDBRANCH  68  71
ENDBRANCH  50  64
BRANCH  51  75
ATOM     75  C   UNL     1      -8.712   7.772  -2.246  1.00  0.00     0.023 A 
ATOM     76  C   UNL     1      -9.417   7.123  -1.216  1.00  0.00     0.012 A 
ATOM     77  C   UNL     1      -8.405   9.141  -2.110  1.00  0.00     0.148 A 
ATOM     78  C   UNL     1      -9.830   7.831  -0.086  1.00  0.00     0.002 A 
ATOM     79  C   UNL     1      -8.745   9.818  -0.946  1.00  0.00     0.091 A 
ATOM     80  F   UNL     1      -7.763   9.756  -3.115  1.00  0.00    -0.205 F 
ATOM     81  C   UNL     1      -9.479   9.172   0.058  1.00  0.00     0.022 A 
BRANCH  79  82
ATOM     82  S   UNL     1      -8.162  11.484  -0.619  1.00  0.00     0.127 S 
ATOM     83  O   UNL     1      -9.353  12.280  -0.898  1.00  0.00    -0.237 OA
ATOM     84  O   UNL     1      -7.788  11.406   0.795  1.00  0.00    -0.237 OA
ATOM     85  O   UNL     1      -7.033  11.681  -1.519  1.00  0.00    -0.744 OA
ENDBRANCH  79  82
ENDBRANCH  51  75
BRANCH  63  86
ATOM     86  C   UNL     1     -12.120   4.684  -7.474  1.00  0.00     0.023 A 
ATOM     87  C   UNL     1     -12.912   5.787  -7.849  1.00  0.00     0.012 A 
ATOM     88  C   UNL     1     -12.703   3.404  -7.401  1.00  0.00     0.148 A 
ATOM     89  C   UNL     1     -14.273   5.626  -8.106  1.00  0.00     0.002 A 
ATOM     90  C   UNL     1     -14.047   3.243  -7.707  1.00  0.00     0.091 A 
ATOM     91  F   UNL     1     -11.934   2.373  -7.022  1.00  0.00    -0.205 F 
ATOM     92  C   UNL     1     -14.837   4.354  -8.045  1.00  0.00     0.022 A 
BRANCH  90  93
ATOM     93  S   UNL     1     -14.841   1.632  -7.741  1.00  0.00     0.127 S 
ATOM     94  O   UNL     1     -15.711   1.705  -6.568  1.00  0.00    -0.237 OA
ATOM     95  O   UNL     1     -15.543   1.661  -9.024  1.00  0.00    -0.237 OA
ATOM     96  O   UNL     1     -13.767   0.652  -7.660  1.00  0.00    -0.744 OA
ENDBRANCH  90  93
ENDBRANCH  63  86
ENDBRANCH  37  38
ENDBRANCH  30  32
ENDBRANCH  29  30
ENDBRANCH  28  29
ENDBRANCH   1  28
TORSDOF 19
