REMARK SMILES C[C@@H](CC(=O)OCCOC(=O)c1ccc(-c2c3nc(c(-c4cccc(S(=O)(=O)[O-])c4F)c4ccc([nH]4)c(-c4cccc(S(=O)(=O)[O-])c4F)c4nc(c(-c5cccc(S(=O)(=O)[O-])c5F)c5ccc2[nH]5)C=C4)C=C3)cc1)NC(=O)/C=C/c1cccnc1
REMARK SMILES IDX 7 1 6 2 4 3 5 4 3 5 2 6 1 7 75 8 76 9 77 11 78 12 79 13
REMARK SMILES IDX 80 14 81 15 85 16 82 17 84 18 83 19 8 20 9 21 10 22 11 23
REMARK SMILES IDX 12 24 13 25 74 26 14 27 73 28 15 29 16 30 17 31 67 32 18 33
REMARK SMILES IDX 72 34 66 35 68 36 19 37 71 38 65 39 64 40 20 42 52 43 32 44
REMARK SMILES IDX 51 45 33 46 36 47 50 48 69 49 34 50 35 51 49 53 70 54 37 55
REMARK SMILES IDX 21 56 22 57 30 58 23 59 25 60 31 61 24 62 26 63 27 64 28 65
REMARK SMILES IDX 29 66 53 67 54 68 62 69 55 70 57 71 63 72 56 73 58 74 59 75
REMARK SMILES IDX 60 76 61 77 38 78 39 79 47 80 40 81 42 82 48 83 41 84 43 85
REMARK SMILES IDX 44 86 45 87 46 88
REMARK H PARENT 75 10 68 41 36 52
REMARK Flexibility Score: inf
ROOT
ATOM      1  C   UNL     1       0.372  -2.284  -3.312  1.00  0.00     0.274 C 
ENDROOT
BRANCH   1   2
ATOM      2  O   UNL     1       0.727  -1.299  -2.318  1.00  0.00    -0.462 OA
BRANCH   2   3
ATOM      3  C   UNL     1       1.266  -0.144  -2.777  1.00  0.00     0.307 C 
ATOM      4  O   UNL     1       1.499   0.091  -3.957  1.00  0.00    -0.252 OA
BRANCH   3   5
ATOM      5  C   UNL     1       1.677   0.816  -1.684  1.00  0.00     0.147 C 
BRANCH   5   6
ATOM      6  C   UNL     1       0.856   0.900  -0.393  1.00  0.00     0.090 C 
ATOM      7  C   UNL     1       0.872  -0.373   0.449  1.00  0.00     0.031 C 
BRANCH   6   8
ATOM      8  N   UNL     1      -0.514   1.350  -0.623  1.00  0.00    -0.350 N 
ATOM      9  C   UNL     1      -1.210   2.416  -0.144  1.00  0.00     0.244 C 
ATOM     10  H   UNL     1      -1.028   0.778  -1.237  1.00  0.00     0.164 HD
ATOM     11  O   UNL     1      -2.416   2.526  -0.347  1.00  0.00    -0.270 OA
BRANCH   9  12
ATOM     12  C   UNL     1      -0.543   3.407   0.721  1.00  0.00     0.072 C 
ATOM     13  C   UNL     1       0.543   4.098   0.344  1.00  0.00     0.015 C 
BRANCH  13  14
ATOM     14  C   UNL     1       1.238   5.096   1.173  1.00  0.00    -0.007 A 
ATOM     15  C   UNL     1       0.811   5.492   2.445  1.00  0.00     0.011 A 
ATOM     16  C   UNL     1       2.410   5.689   0.702  1.00  0.00     0.119 A 
ATOM     17  C   UNL     1       1.548   6.424   3.175  1.00  0.00     0.021 A 
ATOM     18  N   UNL     1       3.156   6.588   1.392  1.00  0.00    -0.264 NA
ATOM     19  C   UNL     1       2.702   6.938   2.612  1.00  0.00     0.111 A 
ENDBRANCH  13  14
ENDBRANCH   9  12
ENDBRANCH   6   8
ENDBRANCH   5   6
ENDBRANCH   3   5
ENDBRANCH   2   3
ENDBRANCH   1   2
BRANCH   1  20
ATOM     20  C   UNL     1      -1.136  -2.319  -3.567  1.00  0.00     0.275 C 
BRANCH  20  21
ATOM     21  O   UNL     1      -1.594  -1.115  -4.204  1.00  0.00    -0.458 OA
BRANCH  21  22
ATOM     22  C   UNL     1      -2.041  -0.159  -3.362  1.00  0.00     0.338 C 
ATOM     23  O   UNL     1      -2.102  -0.235  -2.140  1.00  0.00    -0.246 OA
BRANCH  22  24
ATOM     24  C   UNL     1      -2.314   1.071  -4.111  1.00  0.00     0.060 A 
ATOM     25  C   UNL     1      -1.359   2.092  -4.107  1.00  0.00     0.016 A 
ATOM     26  C   UNL     1      -3.524   1.230  -4.787  1.00  0.00     0.016 A 
ATOM     27  C   UNL     1      -1.601   3.274  -4.801  1.00  0.00     0.010 A 
ATOM     28  C   UNL     1      -3.756   2.410  -5.498  1.00  0.00     0.010 A 
ATOM     29  C   UNL     1      -2.794   3.435  -5.517  1.00  0.00    -0.014 A 
BRANCH  29  30
ATOM     30  C   UNL     1      -3.024   4.647  -6.339  1.00  0.00     0.031 A 
ATOM     31  C   UNL     1      -4.063   5.653  -5.940  1.00  0.00     0.074 A 
ATOM     32  C   UNL     1      -2.337   4.798  -7.488  1.00  0.00     0.049 A 
ATOM     33  N   UNL     1      -4.503   6.689  -6.605  1.00  0.00    -0.248 NA
ATOM     34  C   UNL     1      -4.693   5.466  -4.624  1.00  0.00     0.031 C 
ATOM     35  C   UNL     1      -1.302   3.885  -7.976  1.00  0.00     0.029 A 
ATOM     36  N   UNL     1      -2.431   5.753  -8.469  1.00  0.00    -0.354 N 
ATOM     37  C   UNL     1      -5.489   7.258  -5.811  1.00  0.00     0.074 A 
ATOM     38  C   UNL     1      -5.582   6.452  -4.611  1.00  0.00     0.031 C 
ATOM     39  C   UNL     1      -0.874   4.309  -9.175  1.00  0.00     0.029 A 
ATOM     40  C   UNL     1      -1.637   5.492  -9.561  1.00  0.00     0.049 A 
ATOM     41  H   UNL     1      -3.010   6.546  -8.399  1.00  0.00     0.167 HD
ATOM     42  C   UNL     1      -6.237   8.361  -6.055  1.00  0.00     0.034 A 
ATOM     43  C   UNL     1      -1.560   6.109 -10.756  1.00  0.00     0.034 A 
ATOM     44  C   UNL     1      -6.115   9.176  -7.235  1.00  0.00     0.049 A 
ATOM     45  C   UNL     1      -2.438   7.300 -11.021  1.00  0.00     0.074 A 
ATOM     46  C   UNL     1      -6.777  10.352  -7.541  1.00  0.00     0.029 A 
ATOM     47  N   UNL     1      -5.285   8.895  -8.310  1.00  0.00    -0.354 N 
ATOM     48  N   UNL     1      -3.284   7.895 -10.217  1.00  0.00    -0.248 NA
ATOM     49  C   UNL     1      -2.344   7.912 -12.355  1.00  0.00     0.031 C 
ATOM     50  C   UNL     1      -6.363  10.770  -8.812  1.00  0.00     0.029 A 
ATOM     51  C   UNL     1      -5.436   9.859  -9.292  1.00  0.00     0.049 A 
ATOM     52  H   UNL     1      -4.678   8.122  -8.367  1.00  0.00     0.167 HD
ATOM     53  C   UNL     1      -3.814   8.958 -10.938  1.00  0.00     0.074 A 
ATOM     54  C   UNL     1      -3.171   8.942 -12.237  1.00  0.00     0.031 C 
ATOM     55  C   UNL     1      -4.764   9.852 -10.567  1.00  0.00     0.034 A 
BRANCH  42  56
ATOM     56  C   UNL     1      -7.236   8.773  -5.007  1.00  0.00     0.023 A 
ATOM     57  C   UNL     1      -6.783   9.391  -3.825  1.00  0.00     0.012 A 
ATOM     58  C   UNL     1      -8.618   8.602  -5.213  1.00  0.00     0.148 A 
ATOM     59  C   UNL     1      -7.689   9.809  -2.851  1.00  0.00     0.002 A 
ATOM     60  C   UNL     1      -9.518   9.053  -4.253  1.00  0.00     0.091 A 
ATOM     61  F   UNL     1      -9.029   7.989  -6.333  1.00  0.00    -0.205 F 
ATOM     62  C   UNL     1      -9.055   9.649  -3.069  1.00  0.00     0.022 A 
BRANCH  60  63
ATOM     63  S   UNL     1     -11.298   8.949  -4.478  1.00  0.00     0.127 S 
ATOM     64  O   UNL     1     -11.639   7.816  -3.620  1.00  0.00    -0.237 OA
ATOM     65  O   UNL     1     -11.753  10.248  -3.980  1.00  0.00    -0.237 OA
ATOM     66  O   UNL     1     -11.506   8.745  -5.905  1.00  0.00    -0.744 OA
ENDBRANCH  60  63
ENDBRANCH  42  56
BRANCH  43  67
ATOM     67  C   UNL     1      -0.600   5.613 -11.781  1.00  0.00     0.023 A 
ATOM     68  C   UNL     1       0.536   6.385 -12.089  1.00  0.00     0.012 A 
ATOM     69  C   UNL     1      -0.775   4.364 -12.411  1.00  0.00     0.148 A 
ATOM     70  C   UNL     1       1.475   5.927 -13.013  1.00  0.00     0.002 A 
ATOM     71  C   UNL     1       0.191   3.891 -13.290  1.00  0.00     0.091 A 
ATOM     72  F   UNL     1      -1.876   3.656 -12.122  1.00  0.00    -0.205 F 
ATOM     73  C   UNL     1       1.311   4.676 -13.603  1.00  0.00     0.022 A 
BRANCH  71  74
ATOM     74  S   UNL     1       0.126   2.237 -13.990  1.00  0.00     0.127 S 
ATOM     75  O   UNL     1      -0.228   2.513 -15.379  1.00  0.00    -0.237 OA
ATOM     76  O   UNL     1       1.497   1.765 -13.785  1.00  0.00    -0.237 OA
ATOM     77  O   UNL     1      -0.875   1.521 -13.210  1.00  0.00    -0.744 OA
ENDBRANCH  71  74
ENDBRANCH  43  67
BRANCH  55  78
ATOM     78  C   UNL     1      -5.175  10.888 -11.580  1.00  0.00     0.023 A 
ATOM     79  C   UNL     1      -6.009  10.509 -12.650  1.00  0.00     0.012 A 
ATOM     80  C   UNL     1      -4.805  12.239 -11.434  1.00  0.00     0.148 A 
ATOM     81  C   UNL     1      -6.452  11.456 -13.573  1.00  0.00     0.002 A 
ATOM     82  C   UNL     1      -5.283  13.184 -12.335  1.00  0.00     0.091 A 
ATOM     83  F   UNL     1      -3.997  12.575 -10.418  1.00  0.00    -0.205 F 
ATOM     84  C   UNL     1      -6.099  12.793 -13.409  1.00  0.00     0.022 A 
BRANCH  82  85
ATOM     85  S   UNL     1      -4.951  14.941 -12.160  1.00  0.00     0.127 S 
ATOM     86  O   UNL     1      -4.030  15.183 -13.270  1.00  0.00    -0.237 OA
ATOM     87  O   UNL     1      -6.280  15.528 -12.332  1.00  0.00    -0.237 OA
ATOM     88  O   UNL     1      -4.382  15.113 -10.830  1.00  0.00    -0.744 OA
ENDBRANCH  82  85
ENDBRANCH  55  78
ENDBRANCH  29  30
ENDBRANCH  22  24
ENDBRANCH  21  22
ENDBRANCH  20  21
ENDBRANCH   1  20
TORSDOF 18
