REMARK SMILES C=CCN1C[C@]2(C(=O)OCCOC(=O)c3ccc(-c4c5nc(c(-c6cccc(S(=O)(=O)[O-])c6F)c6ccc([nH]6)c(-c6cccc(S(=O)(=O)[O-])c6F)c6nc(c(-c7cccc(S(=O)(=O)[O-])c7F)c7ccc4[nH]7)C=C6)C=C5)cc3)CN(C(=O)c3cccc(C#N)c3)C[C@H]2C1=O
REMARK SMILES IDX 10 1 9 2 7 3 8 4 6 5 4 6 5 7 92 8 91 9 93 10 78 11 90 12
REMARK SMILES IDX 79 13 3 14 2 15 1 16 80 17 81 18 82 19 83 20 89 21 84 22
REMARK SMILES IDX 86 23 85 24 87 25 88 26 11 27 12 28 13 29 14 30 15 31 16 32
REMARK SMILES IDX 77 33 17 34 76 35 18 36 19 37 20 38 70 39 21 40 75 41 69 42
REMARK SMILES IDX 71 43 22 44 74 45 68 46 67 47 23 49 55 50 35 51 54 52 36 53
REMARK SMILES IDX 39 54 53 55 72 56 37 57 38 58 52 60 73 61 40 62 24 63 25 64
REMARK SMILES IDX 33 65 26 66 28 67 34 68 27 69 29 70 30 71 31 72 32 73 56 74
REMARK SMILES IDX 57 75 65 76 58 77 60 78 66 79 59 80 61 81 62 82 63 83 64 84
REMARK SMILES IDX 41 85 42 86 50 87 43 88 45 89 51 90 44 91 46 92 47 93 48 94
REMARK SMILES IDX 49 95
REMARK H PARENT 71 48 39 59
REMARK Flexibility Score: inf
ROOT
ATOM      1  C   UNL     1      -3.839   3.267   3.945  1.00  0.00     0.274 C 
ENDROOT
BRANCH   1   2
ATOM      2  O   UNL     1      -2.879   3.745   2.961  1.00  0.00    -0.462 OA
BRANCH   2   3
ATOM      3  C   UNL     1      -3.020   3.198   1.713  1.00  0.00     0.316 C 
ATOM      4  O   UNL     1      -3.796   2.267   1.543  1.00  0.00    -0.251 OA
BRANCH   3   5
ATOM      5  C   UNL     1      -2.046   3.837   0.621  1.00  0.00     0.116 C 
ATOM      6  N   UNL     1      -1.003   2.287  -1.020  1.00  0.00    -0.337 N 
ATOM      7  C   UNL     1      -2.013   2.364  -0.015  1.00  0.00     0.141 C 
ATOM      8  C   UNL     1      -0.845   3.508  -1.605  1.00  0.00     0.229 C 
ATOM      9  C   UNL     1      -1.861   4.361  -0.911  1.00  0.00     0.119 C 
ATOM     10  O   UNL     1      -0.147   3.808  -2.554  1.00  0.00    -0.274 OA
ATOM     11  C   UNL     1      -2.932   5.176   0.784  1.00  0.00     0.141 C 
ATOM     12  C   UNL     1      -1.419   5.804  -0.888  1.00  0.00     0.134 C 
ATOM     13  N   UNL     1      -2.105   6.268   0.274  1.00  0.00    -0.337 N 
BRANCH   6  14
ATOM     14  C   UNL     1      -0.578   1.014  -1.561  1.00  0.00     0.146 C 
BRANCH  14  15
ATOM     15  C   UNL     1       0.842   0.800  -1.159  1.00  0.00    -0.014 C 
ATOM     16  C   UNL     1       1.233   0.064  -0.110  1.00  0.00     0.006 C 
ENDBRANCH  14  15
ENDBRANCH   6  14
BRANCH  13  17
ATOM     17  C   UNL     1      -1.961   7.563   0.729  1.00  0.00     0.253 C 
ATOM     18  O   UNL     1      -1.412   8.455   0.089  1.00  0.00    -0.269 OA
BRANCH  17  19
ATOM     19  C   UNL     1      -2.427   7.877   2.095  1.00  0.00     0.041 A 
ATOM     20  C   UNL     1      -3.363   8.893   2.295  1.00  0.00     0.014 A 
ATOM     21  C   UNL     1      -1.883   7.185   3.185  1.00  0.00     0.033 A 
ATOM     22  C   UNL     1      -3.802   9.181   3.589  1.00  0.00     0.002 A 
ATOM     23  C   UNL     1      -2.335   7.464   4.477  1.00  0.00     0.053 A 
ATOM     24  C   UNL     1      -3.297   8.461   4.676  1.00  0.00     0.019 A 
BRANCH  23  25
ATOM     25  C   UNL     1      -1.830   6.715   5.586  1.00  0.00     0.099 C 
ATOM     26  N   UNL     1      -1.431   6.093   6.487  1.00  0.00    -0.192 NA
ENDBRANCH  23  25
ENDBRANCH  17  19
ENDBRANCH  13  17
ENDBRANCH   3   5
ENDBRANCH   2   3
ENDBRANCH   1   2
BRANCH   1  27
ATOM     27  C   UNL     1      -5.297   3.742   3.722  1.00  0.00     0.275 C 
BRANCH  27  28
ATOM     28  O   UNL     1      -6.022   2.973   2.729  1.00  0.00    -0.458 OA
BRANCH  28  29
ATOM     29  C   UNL     1      -6.291   3.603   1.557  1.00  0.00     0.338 C 
ATOM     30  O   UNL     1      -6.018   4.763   1.287  1.00  0.00    -0.246 OA
BRANCH  29  31
ATOM     31  C   UNL     1      -6.817   2.672   0.533  1.00  0.00     0.060 A 
ATOM     32  C   UNL     1      -5.943   2.227  -0.463  1.00  0.00     0.016 A 
ATOM     33  C   UNL     1      -8.171   2.369   0.436  1.00  0.00     0.016 A 
ATOM     34  C   UNL     1      -6.383   1.455  -1.532  1.00  0.00     0.010 A 
ATOM     35  C   UNL     1      -8.622   1.590  -0.643  1.00  0.00     0.010 A 
ATOM     36  C   UNL     1      -7.732   1.127  -1.635  1.00  0.00    -0.014 A 
BRANCH  36  37
ATOM     37  C   UNL     1      -8.233   0.367  -2.809  1.00  0.00     0.031 A 
ATOM     38  C   UNL     1      -9.203   1.028  -3.746  1.00  0.00     0.074 A 
ATOM     39  C   UNL     1      -7.850  -0.908  -3.017  1.00  0.00     0.049 A 
ATOM     40  N   UNL     1      -9.972   0.493  -4.655  1.00  0.00    -0.248 NA
ATOM     41  C   UNL     1      -9.331   2.491  -3.631  1.00  0.00     0.031 C 
ATOM     42  C   UNL     1      -6.852  -1.635  -2.229  1.00  0.00     0.029 A 
ATOM     43  N   UNL     1      -8.288  -1.835  -3.932  1.00  0.00    -0.354 N 
ATOM     44  C   UNL     1     -10.733   1.537  -5.168  1.00  0.00     0.074 A 
ATOM     45  C   UNL     1     -10.319   2.741  -4.479  1.00  0.00     0.031 C 
ATOM     46  C   UNL     1      -6.778  -2.900  -2.670  1.00  0.00     0.029 A 
ATOM     47  C   UNL     1      -7.779  -3.096  -3.711  1.00  0.00     0.049 A 
ATOM     48  H   UNL     1      -8.903  -1.620  -4.670  1.00  0.00     0.167 HD
ATOM     49  C   UNL     1     -11.692   1.489  -6.121  1.00  0.00     0.034 A 
ATOM     50  C   UNL     1      -8.132  -4.286  -4.237  1.00  0.00     0.034 A 
ATOM     51  C   UNL     1     -12.065   0.284  -6.813  1.00  0.00     0.049 A 
ATOM     52  C   UNL     1      -9.247  -4.326  -5.248  1.00  0.00     0.074 A 
ATOM     53  C   UNL     1     -13.016   0.118  -7.803  1.00  0.00     0.029 A 
ATOM     54  N   UNL     1     -11.501  -0.962  -6.584  1.00  0.00    -0.354 N 
ATOM     55  N   UNL     1      -9.955  -3.336  -5.734  1.00  0.00    -0.248 NA
ATOM     56  C   UNL     1      -9.604  -5.644  -5.794  1.00  0.00     0.031 C 
ATOM     57  C   UNL     1     -13.052  -1.237  -8.147  1.00  0.00     0.029 A 
ATOM     58  C   UNL     1     -12.086  -1.904  -7.409  1.00  0.00     0.049 A 
ATOM     59  H   UNL     1     -10.789  -1.149  -5.930  1.00  0.00     0.167 HD
ATOM     60  C   UNL     1     -10.803  -3.901  -6.679  1.00  0.00     0.074 A 
ATOM     61  C   UNL     1     -10.518  -5.321  -6.699  1.00  0.00     0.031 C 
ATOM     62  C   UNL     1     -11.736  -3.301  -7.458  1.00  0.00     0.034 A 
BRANCH  49  63
ATOM     63  C   UNL     1     -12.415   2.767  -6.460  1.00  0.00     0.023 A 
ATOM     64  C   UNL     1     -11.746   3.797  -7.152  1.00  0.00     0.012 A 
ATOM     65  C   UNL     1     -13.775   2.930  -6.127  1.00  0.00     0.148 A 
ATOM     66  C   UNL     1     -12.407   4.984  -7.470  1.00  0.00     0.002 A 
ATOM     67  C   UNL     1     -14.440   4.095  -6.490  1.00  0.00     0.091 A 
ATOM     68  F   UNL     1     -14.390   1.947  -5.454  1.00  0.00    -0.205 F 
ATOM     69  C   UNL     1     -13.754   5.128  -7.148  1.00  0.00     0.022 A 
BRANCH  67  70
ATOM     70  S   UNL     1     -16.193   4.346  -6.190  1.00  0.00     0.127 S 
ATOM     71  O   UNL     1     -16.171   5.424  -5.201  1.00  0.00    -0.237 OA
ATOM     72  O   UNL     1     -16.676   4.742  -7.513  1.00  0.00    -0.237 OA
ATOM     73  O   UNL     1     -16.708   3.072  -5.707  1.00  0.00    -0.744 OA
ENDBRANCH  67  70
ENDBRANCH  49  63
BRANCH  50  74
ATOM     74  C   UNL     1      -7.439  -5.537  -3.812  1.00  0.00     0.023 A 
ATOM     75  C   UNL     1      -6.648  -6.240  -4.742  1.00  0.00     0.012 A 
ATOM     76  C   UNL     1      -7.554  -6.035  -2.498  1.00  0.00     0.148 A 
ATOM     77  C   UNL     1      -6.017  -7.432  -4.385  1.00  0.00     0.002 A 
ATOM     78  C   UNL     1      -6.875  -7.191  -2.132  1.00  0.00     0.091 A 
ATOM     79  F   UNL     1      -8.320  -5.361  -1.629  1.00  0.00    -0.205 F 
ATOM     80  C   UNL     1      -6.123  -7.903  -3.079  1.00  0.00     0.022 A 
BRANCH  78  81
ATOM     81  S   UNL     1      -6.849  -7.804  -0.443  1.00  0.00     0.127 S 
ATOM     82  O   UNL     1      -7.619  -9.039  -0.561  1.00  0.00    -0.237 OA
ATOM     83  O   UNL     1      -5.416  -7.989  -0.213  1.00  0.00    -0.237 OA
ATOM     84  O   UNL     1      -7.457  -6.756   0.366  1.00  0.00    -0.744 OA
ENDBRANCH  78  81
ENDBRANCH  50  74
BRANCH  62  85
ATOM     85  C   UNL     1     -12.459  -4.150  -8.468  1.00  0.00     0.023 A 
ATOM     86  C   UNL     1     -13.453  -5.058  -8.057  1.00  0.00     0.012 A 
ATOM     87  C   UNL     1     -12.218  -3.956  -9.843  1.00  0.00     0.148 A 
ATOM     88  C   UNL     1     -14.183  -5.777  -9.003  1.00  0.00     0.002 A 
ATOM     89  C   UNL     1     -12.988  -4.632 -10.778  1.00  0.00     0.091 A 
ATOM     90  F   UNL     1     -11.253  -3.098 -10.207  1.00  0.00    -0.205 F 
ATOM     91  C   UNL     1     -13.962  -5.553 -10.361  1.00  0.00     0.022 A 
BRANCH  89  92
ATOM     92  S   UNL     1     -12.850  -4.327 -12.542  1.00  0.00     0.127 S 
ATOM     93  O   UNL     1     -12.324  -5.603 -13.025  1.00  0.00    -0.237 OA
ATOM     94  O   UNL     1     -14.238  -4.058 -12.916  1.00  0.00    -0.237 OA
ATOM     95  O   UNL     1     -11.949  -3.191 -12.688  1.00  0.00    -0.744 OA
ENDBRANCH  89  92
ENDBRANCH  62  85
ENDBRANCH  36  37
ENDBRANCH  29  31
ENDBRANCH  28  29
ENDBRANCH  27  28
ENDBRANCH   1  27
TORSDOF 19
