REMARK SMILES O=C(OCCOC(=O)[C@H]1CCCC[N@H+]1Cc1ccc([N+](=O)[O-])o1)c1ccc(-c2c3nc(c(-c4cccc(S(=O)(=O)[O-])c4F)c4ccc([nH]4)c(-c4cccc(S(=O)(=O)[O-])c4F)c4nc(c(-c5cccc(S(=O)(=O)[O-])c5F)c5ccc2[nH]5)C=C4)C=C3)cc1
REMARK SMILES IDX 4 1 3 2 2 3 1 4 24 5 25 6 86 7 26 8 85 9 27 10 28 11 29 12
REMARK SMILES IDX 79 13 30 14 84 15 78 16 80 17 31 18 83 19 77 20 76 21 32 23
REMARK SMILES IDX 64 24 44 25 63 26 45 27 48 28 62 29 81 30 46 31 47 32 61 34
REMARK SMILES IDX 82 35 49 36 33 37 34 38 42 39 35 40 37 41 43 42 36 43 38 44
REMARK SMILES IDX 39 45 40 46 41 47 65 48 66 49 74 50 67 51 69 52 75 53 68 54
REMARK SMILES IDX 70 55 71 56 72 57 73 58 50 59 51 60 59 61 52 62 54 63 60 64
REMARK SMILES IDX 53 65 55 66 56 67 57 68 58 69 5 70 6 71 7 72 8 73 9 74 10 75
REMARK SMILES IDX 14 76 11 77 13 78 12 80 15 81 16 82 17 83 23 84 18 85 19 86
REMARK SMILES IDX 20 87 21 88 22 89
REMARK H PARENT 80 22 48 33 14 79
REMARK Flexibility Score: inf
ROOT
ATOM      1  C   UNL     1      -2.064   1.320   2.409  1.00  0.00     0.275 C 
ENDROOT
BRANCH   1   2
ATOM      2  O   UNL     1      -1.628   0.943   1.083  1.00  0.00    -0.458 OA
BRANCH   2   3
ATOM      3  C   UNL     1      -0.504   1.300   0.408  1.00  0.00     0.338 C 
ATOM      4  O   UNL     1      -0.364   0.944  -0.760  1.00  0.00    -0.246 OA
BRANCH   3   5
ATOM      5  C   UNL     1       0.644   1.966   1.079  1.00  0.00     0.060 A 
ATOM      6  C   UNL     1       0.494   3.006   1.995  1.00  0.00     0.016 A 
ATOM      7  C   UNL     1       1.942   1.538   0.740  1.00  0.00     0.016 A 
ATOM      8  C   UNL     1       1.603   3.556   2.628  1.00  0.00     0.010 A 
ATOM      9  C   UNL     1       3.065   2.111   1.350  1.00  0.00     0.010 A 
ATOM     10  C   UNL     1       2.892   3.139   2.285  1.00  0.00    -0.014 A 
BRANCH  10  11
ATOM     11  C   UNL     1       3.999   4.029   2.695  1.00  0.00     0.031 A 
ATOM     12  C   UNL     1       4.354   5.133   1.746  1.00  0.00     0.074 A 
ATOM     13  C   UNL     1       4.529   3.982   3.930  1.00  0.00     0.049 A 
ATOM     14  N   UNL     1       5.052   6.209   1.978  1.00  0.00    -0.248 NA
ATOM     15  C   UNL     1       3.778   5.065   0.390  1.00  0.00     0.031 C 
ATOM     16  C   UNL     1       4.153   3.034   4.967  1.00  0.00     0.029 A 
ATOM     17  N   UNL     1       5.486   4.750   4.536  1.00  0.00    -0.354 N 
ATOM     18  C   UNL     1       4.947   6.971   0.825  1.00  0.00     0.074 A 
ATOM     19  C   UNL     1       4.170   6.217  -0.129  1.00  0.00     0.031 C 
ATOM     20  C   UNL     1       4.938   3.188   6.042  1.00  0.00     0.029 A 
ATOM     21  C   UNL     1       5.827   4.310   5.795  1.00  0.00     0.049 A 
ATOM     22  H   UNL     1       5.892   5.541   4.112  1.00  0.00     0.167 HD
ATOM     23  C   UNL     1       5.422   8.216   0.608  1.00  0.00     0.034 A 
ATOM     24  C   UNL     1       6.732   4.782   6.671  1.00  0.00     0.034 A 
ATOM     25  C   UNL     1       6.243   8.915   1.552  1.00  0.00     0.049 A 
ATOM     26  C   UNL     1       7.360   6.105   6.350  1.00  0.00     0.074 A 
ATOM     27  C   UNL     1       6.839  10.154   1.425  1.00  0.00     0.029 A 
ATOM     28  N   UNL     1       6.613   8.413   2.793  1.00  0.00    -0.354 N 
ATOM     29  N   UNL     1       7.174   6.861   5.294  1.00  0.00    -0.248 NA
ATOM     30  C   UNL     1       8.240   6.688   7.367  1.00  0.00     0.031 C 
ATOM     31  C   UNL     1       7.605  10.382   2.574  1.00  0.00     0.029 A 
ATOM     32  C   UNL     1       7.448   9.306   3.436  1.00  0.00     0.049 A 
ATOM     33  H   UNL     1       6.323   7.547   3.161  1.00  0.00     0.167 HD
ATOM     34  C   UNL     1       7.875   8.031   5.536  1.00  0.00     0.074 A 
ATOM     35  C   UNL     1       8.473   7.887   6.851  1.00  0.00     0.031 C 
ATOM     36  C   UNL     1       8.015   9.126   4.749  1.00  0.00     0.034 A 
BRANCH  23  37
ATOM     37  C   UNL     1       5.064   8.862  -0.700  1.00  0.00     0.023 A 
ATOM     38  C   UNL     1       3.745   9.311  -0.921  1.00  0.00     0.012 A 
ATOM     39  C   UNL     1       6.027   9.013  -1.713  1.00  0.00     0.148 A 
ATOM     40  C   UNL     1       3.383   9.876  -2.144  1.00  0.00     0.002 A 
ATOM     41  C   UNL     1       5.670   9.614  -2.913  1.00  0.00     0.091 A 
ATOM     42  F   UNL     1       7.264   8.548  -1.490  1.00  0.00    -0.205 F 
ATOM     43  C   UNL     1       4.348  10.035  -3.135  1.00  0.00     0.022 A 
BRANCH  41  44
ATOM     44  S   UNL     1       6.848   9.913  -4.233  1.00  0.00     0.127 S 
ATOM     45  O   UNL     1       6.309   9.076  -5.304  1.00  0.00    -0.237 OA
ATOM     46  O   UNL     1       6.701  11.352  -4.449  1.00  0.00    -0.237 OA
ATOM     47  O   UNL     1       8.146   9.498  -3.719  1.00  0.00    -0.744 OA
ENDBRANCH  41  44
ENDBRANCH  23  37
BRANCH  24  48
ATOM     48  C   UNL     1       7.016   4.043   7.933  1.00  0.00     0.023 A 
ATOM     49  C   UNL     1       6.634   4.569   9.181  1.00  0.00     0.012 A 
ATOM     50  C   UNL     1       7.655   2.786   7.889  1.00  0.00     0.148 A 
ATOM     51  C   UNL     1       6.920   3.879  10.362  1.00  0.00     0.002 A 
ATOM     52  C   UNL     1       7.896   2.083   9.063  1.00  0.00     0.091 A 
ATOM     53  F   UNL     1       8.018   2.301   6.692  1.00  0.00    -0.205 F 
ATOM     54  C   UNL     1       7.544   2.635  10.303  1.00  0.00     0.022 A 
BRANCH  52  55
ATOM     55  S   UNL     1       8.596   0.428   9.065  1.00  0.00     0.127 S 
ATOM     56  O   UNL     1       9.954   0.679   9.540  1.00  0.00    -0.237 OA
ATOM     57  O   UNL     1       7.729  -0.268  10.017  1.00  0.00    -0.237 OA
ATOM     58  O   UNL     1       8.479  -0.046   7.693  1.00  0.00    -0.744 OA
ENDBRANCH  52  55
ENDBRANCH  24  48
BRANCH  36  59
ATOM     59  C   UNL     1       8.845  10.248   5.302  1.00  0.00     0.023 A 
ATOM     60  C   UNL     1      10.239  10.092   5.428  1.00  0.00     0.012 A 
ATOM     61  C   UNL     1       8.243  11.471   5.651  1.00  0.00     0.148 A 
ATOM     62  C   UNL     1      11.018  11.125   5.941  1.00  0.00     0.002 A 
ATOM     63  C   UNL     1       9.034  12.516   6.104  1.00  0.00     0.091 A 
ATOM     64  F   UNL     1       6.912  11.585   5.541  1.00  0.00    -0.205 F 
ATOM     65  C   UNL     1      10.418  12.340   6.267  1.00  0.00     0.022 A 
BRANCH  63  66
ATOM     66  S   UNL     1       8.364  14.145   6.442  1.00  0.00     0.127 S 
ATOM     67  O   UNL     1       8.422  14.193   7.902  1.00  0.00    -0.237 OA
ATOM     68  O   UNL     1       9.320  15.019   5.762  1.00  0.00    -0.237 OA
ATOM     69  O   UNL     1       7.024  14.155   5.870  1.00  0.00    -0.744 OA
ENDBRANCH  63  66
ENDBRANCH  36  59
ENDBRANCH  10  11
ENDBRANCH   3   5
ENDBRANCH   2   3
ENDBRANCH   1   2
BRANCH   1  70
ATOM     70  C   UNL     1      -1.420   0.541   3.558  1.00  0.00     0.274 C 
BRANCH  70  71
ATOM     71  O   UNL     1      -0.027   0.324   3.324  1.00  0.00    -0.458 OA
BRANCH  71  72
ATOM     72  C   UNL     1       0.512  -0.794   3.900  1.00  0.00     0.365 C 
ATOM     73  O   UNL     1      -0.093  -1.511   4.691  1.00  0.00    -0.245 OA
BRANCH  72  74
ATOM     74  C   UNL     1       1.964  -0.968   3.401  1.00  0.00     0.295 C 
ATOM     75  C   UNL     1       2.866  -0.156   4.314  1.00  0.00     0.078 C 
ATOM     76  N   UNL     1       2.452  -2.350   3.299  1.00  0.00    -0.317 N 
ATOM     77  C   UNL     1       3.050  -0.794   5.683  1.00  0.00     0.013 C 
ATOM     78  C   UNL     1       2.566  -3.047   4.572  1.00  0.00     0.263 C 
ATOM     79  H   UNL     1       3.426  -2.225   3.024  1.00  0.00     0.349 HD
ATOM     80  C   UNL     1       3.448  -2.259   5.554  1.00  0.00     0.062 C 
BRANCH  76  81
ATOM     81  C   UNL     1       1.982  -3.132   2.158  1.00  0.00     0.339 C 
BRANCH  81  82
ATOM     82  C   UNL     1       0.515  -3.100   1.901  1.00  0.00     0.165 A 
ATOM     83  C   UNL     1      -0.293  -2.175   1.264  1.00  0.00     0.059 A 
ATOM     84  O   UNL     1      -0.240  -4.151   2.342  1.00  0.00    -0.400 OA
ATOM     85  C   UNL     1      -1.628  -2.602   1.435  1.00  0.00     0.134 A 
ATOM     86  C   UNL     1      -1.529  -3.829   2.044  1.00  0.00     0.433 A 
BRANCH  86  87
ATOM     87  N   UNL     1      -2.527  -4.783   2.395  1.00  0.00     0.102 N 
ATOM     88  O   UNL     1      -2.171  -5.954   2.578  1.00  0.00    -0.256 OA
ATOM     89  O   UNL     1      -3.695  -4.367   2.438  1.00  0.00    -0.256 OA
ENDBRANCH  86  87
ENDBRANCH  81  82
ENDBRANCH  76  81
ENDBRANCH  72  74
ENDBRANCH  71  72
ENDBRANCH  70  71
ENDBRANCH   1  70
TORSDOF 17
