REMARK SMILES C[C@@H](C(=O)OCCOC(=O)c1ccc(-c2c3nc(c(-c4cccc(S(=O)(=O)[O-])c4F)c4ccc([nH]4)c(-c4cccc(S(=O)(=O)[O-])c4F)c4nc(c(-c5cccc(S(=O)(=O)[O-])c5F)c5ccc2[nH]5)C=C4)C=C3)cc1)c1cc(/C=C/S(C)(=O)=O)cc(C(=O)c2ccccc2)c1
REMARK SMILES IDX 6 1 5 2 3 3 4 4 2 5 1 6 74 7 75 8 93 9 76 10 84 11 83 12
REMARK SMILES IDX 77 13 78 14 79 15 80 16 81 17 82 18 85 19 86 20 87 21 88 22
REMARK SMILES IDX 92 23 89 24 91 25 90 26 7 27 8 28 9 29 10 30 11 31 12 32
REMARK SMILES IDX 73 33 13 34 72 35 14 36 15 37 16 38 66 39 17 40 71 41 65 42
REMARK SMILES IDX 67 43 18 44 70 45 64 46 63 47 19 49 51 50 31 51 50 52 32 53
REMARK SMILES IDX 35 54 49 55 68 56 33 57 34 58 48 60 69 61 36 62 20 63 21 64
REMARK SMILES IDX 29 65 22 66 24 67 30 68 23 69 25 70 26 71 27 72 28 73 52 74
REMARK SMILES IDX 53 75 61 76 54 77 56 78 62 79 55 80 57 81 58 82 59 83 60 84
REMARK SMILES IDX 37 85 38 86 46 87 39 88 41 89 47 90 40 91 42 92 43 93 44 94
REMARK SMILES IDX 45 95
REMARK H PARENT 67 48 35 59
REMARK Flexibility Score: inf
ROOT
ATOM      1  C   UNL     1       2.674   2.539  -2.864  1.00  0.00     0.274 C 
ENDROOT
BRANCH   1   2
ATOM      2  O   UNL     1       2.230   1.790  -1.714  1.00  0.00    -0.462 OA
BRANCH   2   3
ATOM      3  C   UNL     1       1.255   2.349  -0.945  1.00  0.00     0.313 C 
ATOM      4  O   UNL     1       0.787   3.465  -1.140  1.00  0.00    -0.252 OA
BRANCH   3   5
ATOM      5  C   UNL     1       0.849   1.457   0.242  1.00  0.00     0.126 C 
ATOM      6  C   UNL     1       1.538   0.086   0.211  1.00  0.00     0.025 C 
BRANCH   5   7
ATOM      7  C   UNL     1      -0.672   1.382   0.433  1.00  0.00    -0.033 A 
ATOM      8  C   UNL     1      -1.389   2.545   0.778  1.00  0.00     0.012 A 
ATOM      9  C   UNL     1      -1.403   0.200   0.241  1.00  0.00     0.016 A 
ATOM     10  C   UNL     1      -2.791   2.550   0.893  1.00  0.00    -0.024 A 
ATOM     11  C   UNL     1      -2.792   0.159   0.448  1.00  0.00     0.023 A 
ATOM     12  C   UNL     1      -3.478   1.337   0.769  1.00  0.00     0.020 A 
BRANCH  10  13
ATOM     13  C   UNL     1      -3.567   3.785   1.108  1.00  0.00     0.020 C 
ATOM     14  C   UNL     1      -3.153   5.004   0.729  1.00  0.00     0.106 C 
BRANCH  14  15
ATOM     15  S   UNL     1      -4.158   6.400   0.976  1.00  0.00     0.168 S 
ATOM     16  C   UNL     1      -3.408   7.123   2.411  1.00  0.00     0.163 C 
ATOM     17  O   UNL     1      -3.925   7.317  -0.116  1.00  0.00    -0.225 OA
ATOM     18  O   UNL     1      -5.501   6.003   1.363  1.00  0.00    -0.225 OA
ENDBRANCH  14  15
ENDBRANCH  10  13
BRANCH  11  19
ATOM     19  C   UNL     1      -3.577  -1.092   0.238  1.00  0.00     0.193 C 
ATOM     20  O   UNL     1      -4.782  -1.028   0.020  1.00  0.00    -0.289 OA
BRANCH  19  21
ATOM     21  C   UNL     1      -2.931  -2.426   0.255  1.00  0.00     0.022 A 
ATOM     22  C   UNL     1      -3.285  -3.352  -0.732  1.00  0.00     0.012 A 
ATOM     23  C   UNL     1      -1.991  -2.769   1.233  1.00  0.00     0.012 A 
ATOM     24  C   UNL     1      -2.652  -4.594  -0.778  1.00  0.00     0.001 A 
ATOM     25  C   UNL     1      -1.357  -4.011   1.181  1.00  0.00     0.001 A 
ATOM     26  C   UNL     1      -1.681  -4.918   0.170  1.00  0.00     0.000 A 
ENDBRANCH  19  21
ENDBRANCH  11  19
ENDBRANCH   5   7
ENDBRANCH   3   5
ENDBRANCH   2   3
ENDBRANCH   1   2
BRANCH   1  27
ATOM     27  C   UNL     1       2.256   1.834  -4.153  1.00  0.00     0.275 C 
BRANCH  27  28
ATOM     28  O   UNL     1       0.827   1.892  -4.300  1.00  0.00    -0.458 OA
BRANCH  28  29
ATOM     29  C   UNL     1       0.165   0.745  -4.029  1.00  0.00     0.338 C 
ATOM     30  O   UNL     1       0.642  -0.337  -3.731  1.00  0.00    -0.246 OA
BRANCH  29  31
ATOM     31  C   UNL     1      -1.280   1.010  -4.028  1.00  0.00     0.060 A 
ATOM     32  C   UNL     1      -1.817   1.665  -2.927  1.00  0.00     0.016 A 
ATOM     33  C   UNL     1      -2.116   0.496  -5.016  1.00  0.00     0.016 A 
ATOM     34  C   UNL     1      -3.195   1.708  -2.755  1.00  0.00     0.010 A 
ATOM     35  C   UNL     1      -3.506   0.631  -4.880  1.00  0.00     0.010 A 
ATOM     36  C   UNL     1      -4.068   1.194  -3.720  1.00  0.00    -0.014 A 
BRANCH  36  37
ATOM     37  C   UNL     1      -5.543   1.205  -3.470  1.00  0.00     0.031 A 
ATOM     38  C   UNL     1      -6.341  -0.076  -3.550  1.00  0.00     0.074 A 
ATOM     39  C   UNL     1      -6.179   2.347  -3.130  1.00  0.00     0.049 A 
ATOM     40  N   UNL     1      -7.639  -0.247  -3.557  1.00  0.00    -0.248 NA
ATOM     41  C   UNL     1      -5.577  -1.330  -3.663  1.00  0.00     0.031 C 
ATOM     42  C   UNL     1      -5.548   3.657  -2.956  1.00  0.00     0.029 A 
ATOM     43  N   UNL     1      -7.508   2.589  -2.866  1.00  0.00    -0.354 N 
ATOM     44  C   UNL     1      -7.846  -1.609  -3.749  1.00  0.00     0.074 A 
ATOM     45  C   UNL     1      -6.540  -2.222  -3.851  1.00  0.00     0.031 C 
ATOM     46  C   UNL     1      -6.473   4.551  -2.579  1.00  0.00     0.029 A 
ATOM     47  C   UNL     1      -7.782   3.910  -2.596  1.00  0.00     0.049 A 
ATOM     48  H   UNL     1      -8.196   1.885  -2.871  1.00  0.00     0.167 HD
ATOM     49  C   UNL     1      -9.016  -2.289  -3.828  1.00  0.00     0.034 A 
ATOM     50  C   UNL     1      -8.954   4.557  -2.437  1.00  0.00     0.034 A 
ATOM     51  C   UNL     1     -10.313  -1.696  -3.631  1.00  0.00     0.049 A 
ATOM     52  C   UNL     1     -10.238   3.784  -2.547  1.00  0.00     0.074 A 
ATOM     53  C   UNL     1     -11.553  -2.311  -3.665  1.00  0.00     0.029 A 
ATOM     54  N   UNL     1     -10.538  -0.359  -3.343  1.00  0.00    -0.354 N 
ATOM     55  N   UNL     1     -10.418   2.499  -2.734  1.00  0.00    -0.248 NA
ATOM     56  C   UNL     1     -11.486   4.551  -2.421  1.00  0.00     0.031 C 
ATOM     57  C   UNL     1     -12.530  -1.340  -3.422  1.00  0.00     0.029 A 
ATOM     58  C   UNL     1     -11.897  -0.127  -3.208  1.00  0.00     0.049 A 
ATOM     59  H   UNL     1      -9.836   0.324  -3.249  1.00  0.00     0.167 HD
ATOM     60  C   UNL     1     -11.793   2.300  -2.724  1.00  0.00     0.074 A 
ATOM     61  C   UNL     1     -12.401   3.593  -2.487  1.00  0.00     0.031 C 
ATOM     62  C   UNL     1     -12.490   1.153  -2.917  1.00  0.00     0.034 A 
BRANCH  49  63
ATOM     63  C   UNL     1      -8.956  -3.763  -4.141  1.00  0.00     0.023 A 
ATOM     64  C   UNL     1      -8.533  -4.681  -3.160  1.00  0.00     0.012 A 
ATOM     65  C   UNL     1      -9.383  -4.242  -5.397  1.00  0.00     0.148 A 
ATOM     66  C   UNL     1      -8.505  -6.049  -3.435  1.00  0.00     0.002 A 
ATOM     67  C   UNL     1      -9.394  -5.609  -5.649  1.00  0.00     0.091 A 
ATOM     68  F   UNL     1      -9.764  -3.352  -6.325  1.00  0.00    -0.205 F 
ATOM     69  C   UNL     1      -8.944  -6.513  -4.673  1.00  0.00     0.022 A 
BRANCH  67  70
ATOM     70  S   UNL     1     -10.016  -6.306  -7.183  1.00  0.00     0.127 S 
ATOM     71  O   UNL     1      -8.781  -6.759  -7.824  1.00  0.00    -0.237 OA
ATOM     72  O   UNL     1     -10.882  -7.384  -6.705  1.00  0.00    -0.237 OA
ATOM     73  O   UNL     1     -10.713  -5.225  -7.864  1.00  0.00    -0.744 OA
ENDBRANCH  67  70
ENDBRANCH  49  63
BRANCH  50  74
ATOM     74  C   UNL     1      -8.963   6.027  -2.182  1.00  0.00     0.023 A 
ATOM     75  C   UNL     1      -9.401   6.513  -0.936  1.00  0.00     0.012 A 
ATOM     76  C   UNL     1      -8.520   6.943  -3.158  1.00  0.00     0.148 A 
ATOM     77  C   UNL     1      -9.419   7.884  -0.675  1.00  0.00     0.002 A 
ATOM     78  C   UNL     1      -8.483   8.302  -2.870  1.00  0.00     0.091 A 
ATOM     79  F   UNL     1      -8.134   6.466  -4.350  1.00  0.00    -0.205 F 
ATOM     80  C   UNL     1      -8.947   8.777  -1.635  1.00  0.00     0.022 A 
BRANCH  78  81
ATOM     81  S   UNL     1      -7.780   9.501  -4.009  1.00  0.00     0.127 S 
ATOM     82  O   UNL     1      -8.978  10.138  -4.550  1.00  0.00    -0.237 OA
ATOM     83  O   UNL     1      -6.986  10.350  -3.120  1.00  0.00    -0.237 OA
ATOM     84  O   UNL     1      -6.992   8.726  -4.958  1.00  0.00    -0.744 OA
ENDBRANCH  78  81
ENDBRANCH  50  74
BRANCH  62  85
ATOM     85  C   UNL     1     -13.993   1.229  -2.844  1.00  0.00     0.023 A 
ATOM     86  C   UNL     1     -14.715   1.835  -3.892  1.00  0.00     0.012 A 
ATOM     87  C   UNL     1     -14.694   0.639  -1.773  1.00  0.00     0.148 A 
ATOM     88  C   UNL     1     -16.108   1.882  -3.859  1.00  0.00     0.002 A 
ATOM     89  C   UNL     1     -16.084   0.647  -1.770  1.00  0.00     0.091 A 
ATOM     90  F   UNL     1     -13.989   0.082  -0.777  1.00  0.00    -0.205 F 
ATOM     91  C   UNL     1     -16.792   1.279  -2.805  1.00  0.00     0.022 A 
BRANCH  89  92
ATOM     92  S   UNL     1     -17.051  -0.185  -0.506  1.00  0.00     0.127 S 
ATOM     93  O   UNL     1     -17.588   0.944   0.252  1.00  0.00    -0.237 OA
ATOM     94  O   UNL     1     -18.042  -0.912  -1.300  1.00  0.00    -0.237 OA
ATOM     95  O   UNL     1     -16.118  -1.037   0.219  1.00  0.00    -0.744 OA
ENDBRANCH  89  92
ENDBRANCH  62  85
ENDBRANCH  36  37
ENDBRANCH  29  31
ENDBRANCH  28  29
ENDBRANCH  27  28
ENDBRANCH   1  27
TORSDOF 19
