REMARK SMILES C[C@H]1[NH2+]CC[C@H]1C(=O)N1CC(C(=O)OCCOC(=O)c2ccc(-c3c4nc(c(-c5cccc(S(=O)(=O)[O-])c5F)c5ccc([nH]5)c(-c5cccc(S(=O)(=O)[O-])c5F)c5nc(c(-c6cccc(S(=O)(=O)[O-])c6F)c6ccc3[nH]6)C=C5)C=C4)cc2)C1
REMARK SMILES IDX 16 1 15 2 14 3 12 4 13 5 11 6 7 7 8 8 9 9 10 10 83 11 6 12
REMARK SMILES IDX 1 13 2 14 3 15 4 16 5 19 17 20 18 21 19 22 20 23 21 24 82 25
REMARK SMILES IDX 22 26 81 27 23 28 24 29 25 30 75 31 26 32 80 33 74 34 76 35
REMARK SMILES IDX 27 36 79 37 73 38 72 39 28 41 60 42 40 43 59 44 41 45 44 46
REMARK SMILES IDX 58 47 77 48 42 49 43 50 57 52 78 53 45 54 29 55 30 56 38 57
REMARK SMILES IDX 31 58 33 59 39 60 32 61 34 62 35 63 36 64 37 65 61 66 62 67
REMARK SMILES IDX 70 68 63 69 65 70 71 71 64 72 66 73 67 74 68 75 69 76 46 77
REMARK SMILES IDX 47 78 55 79 48 80 50 81 56 82 49 83 51 84 52 85 53 86 54 87
REMARK H PARENT 3 17 3 18 76 40 44 51
REMARK Flexibility Score: inf
ROOT
ATOM      1  C   UNL     1       4.665   2.065   6.109  1.00  0.00     0.275 C 
ENDROOT
BRANCH   1   2
ATOM      2  C   UNL     1       3.271   2.694   6.189  1.00  0.00     0.274 C 
BRANCH   2   3
ATOM      3  O   UNL     1       2.622   2.635   4.904  1.00  0.00    -0.462 OA
BRANCH   3   4
ATOM      4  C   UNL     1       2.488   3.806   4.212  1.00  0.00     0.312 C 
ATOM      5  O   UNL     1       2.708   4.908   4.711  1.00  0.00    -0.252 OA
BRANCH   4   6
ATOM      6  C   UNL     1       2.095   3.589   2.742  1.00  0.00     0.138 C 
ATOM      7  C   UNL     1       0.762   2.297   0.170  1.00  0.00     0.231 C 
ATOM      8  O   UNL     1       1.244   3.149  -0.573  1.00  0.00    -0.274 OA
ATOM      9  N   UNL     1       0.954   2.302   1.538  1.00  0.00    -0.340 N 
ATOM     10  C   UNL     1       0.622   3.460   2.391  1.00  0.00     0.136 C 
ATOM     11  C   UNL     1       2.306   2.216   2.118  1.00  0.00     0.136 C 
BRANCH   7  12
ATOM     12  C   UNL     1      -0.054   1.127  -0.358  1.00  0.00     0.142 C 
ATOM     13  C   UNL     1       1.760  -0.570   0.439  1.00  0.00     0.076 C 
ATOM     14  C   UNL     1       0.704  -0.180  -0.592  1.00  0.00     0.192 C 
ATOM     15  N   UNL     1      -0.356  -1.209  -0.635  1.00  0.00    -0.343 N 
ATOM     16  C   UNL     1      -1.524  -0.710   0.092  1.00  0.00     0.261 C 
ATOM     17  H   UNL     1      -0.020  -2.067  -0.198  1.00  0.00     0.346 HD
ATOM     18  H   UNL     1      -0.609  -1.407  -1.603  1.00  0.00     0.346 HD
ATOM     19  C   UNL     1      -1.221   0.712   0.524  1.00  0.00     0.081 C 
ENDBRANCH   7  12
ENDBRANCH   4   6
ENDBRANCH   3   4
ENDBRANCH   2   3
ENDBRANCH   1   2
BRANCH   1  20
ATOM     20  O   UNL     1       5.565   2.868   5.322  1.00  0.00    -0.458 OA
BRANCH  20  21
ATOM     21  C   UNL     1       5.599   2.575   4.000  1.00  0.00     0.338 C 
ATOM     22  O   UNL     1       4.972   1.702   3.425  1.00  0.00    -0.246 OA
BRANCH  21  23
ATOM     23  C   UNL     1       6.426   3.564   3.292  1.00  0.00     0.060 A 
ATOM     24  C   UNL     1       5.838   4.297   2.257  1.00  0.00     0.016 A 
ATOM     25  C   UNL     1       7.780   3.717   3.590  1.00  0.00     0.016 A 
ATOM     26  C   UNL     1       6.602   5.187   1.508  1.00  0.00     0.010 A 
ATOM     27  C   UNL     1       8.547   4.609   2.836  1.00  0.00     0.010 A 
ATOM     28  C   UNL     1       7.966   5.340   1.784  1.00  0.00    -0.014 A 
BRANCH  28  29
ATOM     29  C   UNL     1       8.804   6.220   0.938  1.00  0.00     0.031 A 
ATOM     30  C   UNL     1       9.767   5.606  -0.038  1.00  0.00     0.074 A 
ATOM     31  C   UNL     1       8.713   7.557   1.061  1.00  0.00     0.049 A 
ATOM     32  N   UNL     1      10.680   6.184  -0.772  1.00  0.00    -0.248 NA
ATOM     33  C   UNL     1       9.692   4.145  -0.209  1.00  0.00     0.031 C 
ATOM     34  C   UNL     1       7.791   8.262   1.953  1.00  0.00     0.029 A 
ATOM     35  N   UNL     1       9.423   8.560   0.451  1.00  0.00    -0.354 N 
ATOM     36  C   UNL     1      11.312   5.160  -1.467  1.00  0.00     0.074 A 
ATOM     37  C   UNL     1      10.681   3.921  -1.063  1.00  0.00     0.031 C 
ATOM     38  C   UNL     1       8.009   9.584   1.850  1.00  0.00     0.029 A 
ATOM     39  C   UNL     1       9.110   9.815   0.920  1.00  0.00     0.049 A 
ATOM     40  H   UNL     1      10.091   8.398  -0.254  1.00  0.00     0.167 HD
ATOM     41  C   UNL     1      12.316   5.247  -2.371  1.00  0.00     0.034 A 
ATOM     42  C   UNL     1       9.673  11.010   0.651  1.00  0.00     0.034 A 
ATOM     43  C   UNL     1      12.917   6.485  -2.786  1.00  0.00     0.049 A 
ATOM     44  C   UNL     1      10.814  11.072  -0.331  1.00  0.00     0.074 A 
ATOM     45  C   UNL     1      13.945   6.683  -3.691  1.00  0.00     0.029 A 
ATOM     46  N   UNL     1      12.538   7.738  -2.330  1.00  0.00    -0.354 N 
ATOM     47  N   UNL     1      11.363  10.101  -1.021  1.00  0.00    -0.248 NA
ATOM     48  C   UNL     1      11.398  12.396  -0.590  1.00  0.00     0.031 C 
ATOM     49  C   UNL     1      14.191   8.057  -3.777  1.00  0.00     0.029 A 
ATOM     50  C   UNL     1      13.305   8.715  -2.939  1.00  0.00     0.049 A 
ATOM     51  H   UNL     1      11.828   7.908  -1.670  1.00  0.00     0.167 HD
ATOM     52  C   UNL     1      12.324  10.703  -1.827  1.00  0.00     0.074 A 
ATOM     53  C   UNL     1      12.273  12.123  -1.548  1.00  0.00     0.031 C 
ATOM     54  C   UNL     1      13.183  10.130  -2.705  1.00  0.00     0.034 A 
BRANCH  41  55
ATOM     55  C   UNL     1      12.803   3.971  -3.003  1.00  0.00     0.023 A 
ATOM     56  C   UNL     1      12.014   3.343  -3.988  1.00  0.00     0.012 A 
ATOM     57  C   UNL     1      14.060   3.428  -2.673  1.00  0.00     0.148 A 
ATOM     58  C   UNL     1      12.457   2.181  -4.618  1.00  0.00     0.002 A 
ATOM     59  C   UNL     1      14.511   2.290  -3.332  1.00  0.00     0.091 A 
ATOM     60  F   UNL     1      14.785   4.028  -1.719  1.00  0.00    -0.205 F 
ATOM     61  C   UNL     1      13.708   1.661  -4.298  1.00  0.00     0.022 A 
BRANCH  59  62
ATOM     62  S   UNL     1      16.136   1.580  -3.041  1.00  0.00     0.127 S 
ATOM     63  O   UNL     1      15.796   0.342  -2.340  1.00  0.00    -0.237 OA
ATOM     64  O   UNL     1      16.639   1.391  -4.402  1.00  0.00    -0.237 OA
ATOM     65  O   UNL     1      16.868   2.562  -2.253  1.00  0.00    -0.744 OA
ENDBRANCH  59  62
ENDBRANCH  41  55
BRANCH  42  66
ATOM     66  C   UNL     1       9.152  12.249   1.294  1.00  0.00     0.023 A 
ATOM     67  C   UNL     1       8.501  13.216   0.504  1.00  0.00     0.012 A 
ATOM     68  C   UNL     1       9.292  12.477   2.677  1.00  0.00     0.148 A 
ATOM     69  C   UNL     1       8.031  14.401   1.072  1.00  0.00     0.002 A 
ATOM     70  C   UNL     1       8.773  13.635   3.246  1.00  0.00     0.091 A 
ATOM     71  F   UNL     1       9.935  11.559   3.413  1.00  0.00    -0.205 F 
ATOM     72  C   UNL     1       8.158  14.607   2.443  1.00  0.00     0.022 A 
BRANCH  70  73
ATOM     73  S   UNL     1       8.787  13.911   5.021  1.00  0.00     0.127 S 
ATOM     74  O   UNL     1       9.907  14.835   5.173  1.00  0.00    -0.237 OA
ATOM     75  O   UNL     1       7.467  14.501   5.253  1.00  0.00    -0.237 OA
ATOM     76  O   UNL     1       8.961  12.591   5.614  1.00  0.00    -0.744 OA
ENDBRANCH  70  73
ENDBRANCH  42  66
BRANCH  54  77
ATOM     77  C   UNL     1      14.101  11.038  -3.479  1.00  0.00     0.023 A 
ATOM     78  C   UNL     1      15.219  11.611  -2.842  1.00  0.00     0.012 A 
ATOM     79  C   UNL     1      13.905  11.245  -4.859  1.00  0.00     0.148 A 
ATOM     80  C   UNL     1      16.117  12.396  -3.563  1.00  0.00     0.002 A 
ATOM     81  C   UNL     1      14.829  11.991  -5.580  1.00  0.00     0.091 A 
ATOM     82  F   UNL     1      12.824  10.705  -5.440  1.00  0.00    -0.205 F 
ATOM     83  C   UNL     1      15.930  12.575  -4.933  1.00  0.00     0.022 A 
BRANCH  81  84
ATOM     84  S   UNL     1      14.720  12.197  -7.362  1.00  0.00     0.127 S 
ATOM     85  O   UNL     1      14.316  13.597  -7.475  1.00  0.00    -0.237 OA
ATOM     86  O   UNL     1      16.092  11.921  -7.790  1.00  0.00    -0.237 OA
ATOM     87  O   UNL     1      13.738  11.224  -7.819  1.00  0.00    -0.744 OA
ENDBRANCH  81  84
ENDBRANCH  54  77
ENDBRANCH  28  29
ENDBRANCH  21  23
ENDBRANCH  20  21
ENDBRANCH   1  20
TORSDOF 15
