REMARK SMILES CC(C)C[C@H](NC(=O)[C@H](Cc1ccccc1)NC(=O)CNC(=O)C[NH3+])C(=O)OCCOC(=O)c1ccc(-c2c3nc(c(-c4cccc(S(=O)(=O)[O-])c4F)c4ccc([nH]4)c(-c4cccc(S(=O)(=O)[O-])c4F)c4nc(c(-c5cccc(S(=O)(=O)[O-])c5F)c5ccc2[nH]5)C=C4)C=C3)cc1
REMARK SMILES IDX 26 1 27 2 5 3 4 4 2 5 1 6 3 7 6 8 7 9 8 11 9 12 17 13 18 14
REMARK SMILES IDX 19 16 20 17 21 18 22 19 23 21 24 22 25 23 10 27 11 28 12 29
REMARK SMILES IDX 16 30 13 31 15 32 14 33 28 34 29 35 30 36 31 37 32 38 33 39
REMARK SMILES IDX 34 40 35 41 96 42 36 43 95 44 37 45 38 46 39 47 89 48 40 49
REMARK SMILES IDX 94 50 88 51 90 52 41 53 93 54 87 55 86 56 42 58 74 59 54 60
REMARK SMILES IDX 73 61 55 62 58 63 72 64 91 65 56 66 57 67 71 69 92 70 59 71
REMARK SMILES IDX 43 72 44 73 52 74 45 75 47 76 53 77 46 78 48 79 49 80 50 81
REMARK SMILES IDX 51 82 75 83 76 84 84 85 77 86 79 87 85 88 78 89 80 90 81 91
REMARK SMILES IDX 82 92 83 93 60 94 61 95 69 96 62 97 64 98 70 99 63 100
REMARK SMILES IDX 65 101 66 102 67 103 68 104
REMARK H PARENT 6 10 17 15 21 20 25 24 25 25 25 26 90 57 58 68
REMARK Flexibility Score: inf
ROOT
ATOM      1  C   UNL     1       2.131   6.308   3.781  1.00  0.00     0.328 C 
ATOM      2  O   UNL     1       2.987   6.638   4.592  1.00  0.00    -0.250 OA
ENDROOT
BRANCH   1   3
ATOM      3  C   UNL     1       2.048   4.903   3.143  1.00  0.00     0.192 C 
BRANCH   3   4
ATOM      4  C   UNL     1       3.380   4.456   2.493  1.00  0.00     0.040 C 
BRANCH   4   5
ATOM      5  C   UNL     1       4.512   5.493   2.267  1.00  0.00    -0.015 C 
ATOM      6  C   UNL     1       5.481   5.564   3.456  1.00  0.00     0.007 C 
ATOM      7  C   UNL     1       5.369   5.146   1.041  1.00  0.00     0.007 C 
ENDBRANCH   4   5
ENDBRANCH   3   4
BRANCH   3   8
ATOM      8  N   UNL     1       0.819   4.760   2.312  1.00  0.00    -0.341 N 
ATOM      9  C   UNL     1       0.172   3.562   2.060  1.00  0.00     0.243 C 
ATOM     10  H   UNL     1       0.439   5.576   1.913  1.00  0.00     0.164 HD
ATOM     11  O   UNL     1      -0.892   3.317   2.624  1.00  0.00    -0.273 OA
BRANCH   9  12
ATOM     12  C   UNL     1       0.788   2.623   1.007  1.00  0.00     0.175 C 
BRANCH  12  13
ATOM     13  N   UNL     1       1.675   1.621   1.562  1.00  0.00    -0.342 N 
ATOM     14  C   UNL     1       2.889   1.212   1.099  1.00  0.00     0.240 C 
ATOM     15  H   UNL     1       1.359   1.178   2.382  1.00  0.00     0.164 HD
ATOM     16  O   UNL     1       3.512   0.398   1.786  1.00  0.00    -0.273 OA
BRANCH  14  17
ATOM     17  C   UNL     1       3.576   1.877  -0.120  1.00  0.00     0.216 C 
BRANCH  17  18
ATOM     18  N   UNL     1       2.813   2.094  -1.346  1.00  0.00    -0.342 N 
ATOM     19  C   UNL     1       2.439   3.219  -2.025  1.00  0.00     0.275 C 
ATOM     20  H   UNL     1       2.506   1.260  -1.769  1.00  0.00     0.164 HD
ATOM     21  O   UNL     1       1.958   3.053  -3.149  1.00  0.00    -0.268 OA
BRANCH  19  22
ATOM     22  C   UNL     1       2.530   4.615  -1.389  1.00  0.00     0.360 C 
BRANCH  22  23
ATOM     23  N   UNL     1       1.227   5.302  -1.414  1.00  0.00    -0.350 N 
ATOM     24  H   UNL     1       0.922   5.419  -2.381  1.00  0.00     0.344 HD
ATOM     25  H   UNL     1       1.316   6.218  -0.973  1.00  0.00     0.344 HD
ATOM     26  H   UNL     1       0.539   4.746  -0.906  1.00  0.00     0.344 HD
ENDBRANCH  22  23
ENDBRANCH  19  22
ENDBRANCH  17  18
ENDBRANCH  14  17
ENDBRANCH  12  13
BRANCH  12  27
ATOM     27  C   UNL     1      -0.298   2.068   0.048  1.00  0.00     0.070 C 
BRANCH  27  28
ATOM     28  C   UNL     1      -0.600   0.589   0.100  1.00  0.00    -0.045 A 
ATOM     29  C   UNL     1      -1.490   0.073   1.047  1.00  0.00     0.004 A 
ATOM     30  C   UNL     1      -0.018  -0.286  -0.831  1.00  0.00     0.004 A 
ATOM     31  C   UNL     1      -1.797  -1.291   1.056  1.00  0.00     0.000 A 
ATOM     32  C   UNL     1      -0.318  -1.649  -0.815  1.00  0.00     0.000 A 
ATOM     33  C   UNL     1      -1.211  -2.150   0.128  1.00  0.00     0.000 A 
ENDBRANCH  27  28
ENDBRANCH  12  27
ENDBRANCH   9  12
ENDBRANCH   3   8
ENDBRANCH   1   3
BRANCH   1  34
ATOM     34  O   UNL     1       1.147   7.150   3.350  1.00  0.00    -0.461 OA
BRANCH  34  35
ATOM     35  C   UNL     1       1.204   8.473   3.923  1.00  0.00     0.274 C 
BRANCH  35  36
ATOM     36  C   UNL     1       0.419   8.608   5.239  1.00  0.00     0.275 C 
BRANCH  36  37
ATOM     37  O   UNL     1       0.961   7.829   6.324  1.00  0.00    -0.458 OA
BRANCH  37  38
ATOM     38  C   UNL     1       0.522   6.546   6.373  1.00  0.00     0.338 C 
ATOM     39  O   UNL     1      -0.279   6.035   5.606  1.00  0.00    -0.246 OA
BRANCH  38  40
ATOM     40  C   UNL     1       1.288   5.752   7.356  1.00  0.00     0.060 A 
ATOM     41  C   UNL     1       1.814   4.535   6.910  1.00  0.00     0.016 A 
ATOM     42  C   UNL     1       1.426   6.119   8.693  1.00  0.00     0.016 A 
ATOM     43  C   UNL     1       2.479   3.679   7.774  1.00  0.00     0.010 A 
ATOM     44  C   UNL     1       2.077   5.245   9.577  1.00  0.00     0.010 A 
ATOM     45  C   UNL     1       2.594   4.016   9.123  1.00  0.00    -0.014 A 
BRANCH  45  46
ATOM     46  C   UNL     1       3.159   3.013  10.052  1.00  0.00     0.031 A 
ATOM     47  C   UNL     1       2.234   2.243  10.950  1.00  0.00     0.074 A 
ATOM     48  C   UNL     1       4.478   2.747  10.040  1.00  0.00     0.049 A 
ATOM     49  N   UNL     1       2.523   1.379  11.886  1.00  0.00    -0.248 NA
ATOM     50  C   UNL     1       0.791   2.473  10.764  1.00  0.00     0.031 C 
ATOM     51  C   UNL     1       5.458   3.382   9.159  1.00  0.00     0.029 A 
ATOM     52  N   UNL     1       5.220   1.876  10.796  1.00  0.00    -0.354 N 
ATOM     53  C   UNL     1       1.306   1.003  12.439  1.00  0.00     0.074 A 
ATOM     54  C   UNL     1       0.273   1.720  11.724  1.00  0.00     0.031 C 
ATOM     55  C   UNL     1       6.677   2.893   9.438  1.00  0.00     0.029 A 
ATOM     56  C   UNL     1       6.570   1.947  10.545  1.00  0.00     0.049 A 
ATOM     57  H   UNL     1       4.824   1.260  11.454  1.00  0.00     0.167 HD
ATOM     58  C   UNL     1       1.073   0.132  13.448  1.00  0.00     0.034 A 
ATOM     59  C   UNL     1       7.603   1.343  11.165  1.00  0.00     0.034 A 
ATOM     60  C   UNL     1       2.103  -0.614  14.120  1.00  0.00     0.049 A 
ATOM     61  C   UNL     1       7.317   0.400  12.302  1.00  0.00     0.074 A 
ATOM     62  C   UNL     1       1.970  -1.531  15.146  1.00  0.00     0.029 A 
ATOM     63  N   UNL     1       3.455  -0.533  13.825  1.00  0.00    -0.354 N 
ATOM     64  N   UNL     1       6.160   0.019  12.788  1.00  0.00    -0.248 NA
ATOM     65  C   UNL     1       8.477  -0.210  12.968  1.00  0.00     0.031 C 
ATOM     66  C   UNL     1       3.247  -1.998  15.481  1.00  0.00     0.029 A 
ATOM     67  C   UNL     1       4.171  -1.380  14.653  1.00  0.00     0.049 A 
ATOM     68  H   UNL     1       3.849   0.043  13.130  1.00  0.00     0.167 HD
ATOM     69  C   UNL     1       6.450  -0.890  13.798  1.00  0.00     0.074 A 
ATOM     70  C   UNL     1       7.892  -1.024  13.837  1.00  0.00     0.031 C 
ATOM     71  C   UNL     1       5.603  -1.539  14.635  1.00  0.00     0.034 A 
BRANCH  58  72
ATOM     72  C   UNL     1      -0.353  -0.067  13.881  1.00  0.00     0.023 A 
ATOM     73  C   UNL     1      -1.220  -0.851  13.094  1.00  0.00     0.012 A 
ATOM     74  C   UNL     1      -0.822   0.488  15.087  1.00  0.00     0.148 A 
ATOM     75  C   UNL     1      -2.541  -1.060  13.490  1.00  0.00     0.002 A 
ATOM     76  C   UNL     1      -2.129   0.246  15.493  1.00  0.00     0.091 A 
ATOM     77  F   UNL     1       0.010   1.255  15.805  1.00  0.00    -0.205 F 
ATOM     78  C   UNL     1      -2.992  -0.521  14.692  1.00  0.00     0.022 A 
BRANCH  76  79
ATOM     79  S   UNL     1      -2.779   0.845  17.056  1.00  0.00     0.127 S 
ATOM     80  O   UNL     1      -3.655   1.930  16.615  1.00  0.00    -0.237 OA
ATOM     81  O   UNL     1      -3.479  -0.331  17.573  1.00  0.00    -0.237 OA
ATOM     82  O   UNL     1      -1.622   1.253  17.840  1.00  0.00    -0.744 OA
ENDBRANCH  76  79
ENDBRANCH  58  72
BRANCH  59  83
ATOM     83  C   UNL     1       8.999   1.608  10.714  1.00  0.00     0.023 A 
ATOM     84  C   UNL     1       9.738   0.580  10.098  1.00  0.00     0.012 A 
ATOM     85  C   UNL     1       9.588   2.879  10.865  1.00  0.00     0.148 A 
ATOM     86  C   UNL     1      11.044   0.807   9.661  1.00  0.00     0.002 A 
ATOM     87  C   UNL     1      10.867   3.114  10.375  1.00  0.00     0.091 A 
ATOM     88  F   UNL     1       8.883   3.839  11.480  1.00  0.00    -0.205 F 
ATOM     89  C   UNL     1      11.604   2.076   9.787  1.00  0.00     0.022 A 
BRANCH  87  90
ATOM     90  S   UNL     1      11.599   4.756  10.374  1.00  0.00     0.127 S 
ATOM     91  O   UNL     1      12.531   4.670  11.494  1.00  0.00    -0.237 OA
ATOM     92  O   UNL     1      12.227   4.812   9.053  1.00  0.00    -0.237 OA
ATOM     93  O   UNL     1      10.481   5.676  10.539  1.00  0.00    -0.744 OA
ENDBRANCH  87  90
ENDBRANCH  59  83
BRANCH  71  94
ATOM     94  C   UNL     1       6.209  -2.469  15.652  1.00  0.00     0.023 A 
ATOM     95  C   UNL     1       6.853  -1.933  16.784  1.00  0.00     0.012 A 
ATOM     96  C   UNL     1       6.072  -3.865  15.527  1.00  0.00     0.148 A 
ATOM     97  C   UNL     1       7.375  -2.774  17.765  1.00  0.00     0.002 A 
ATOM     98  C   UNL     1       6.558  -4.695  16.530  1.00  0.00     0.091 A 
ATOM     99  F   UNL     1       5.475  -4.355  14.431  1.00  0.00    -0.205 F 
ATOM    100  C   UNL     1       7.217  -4.152  17.645  1.00  0.00     0.022 A 
BRANCH  98 101
ATOM    101  S   UNL     1       6.316  -6.475  16.497  1.00  0.00     0.127 S 
ATOM    102  O   UNL     1       7.633  -6.948  16.075  1.00  0.00    -0.237 OA
ATOM    103  O   UNL     1       5.978  -6.773  17.889  1.00  0.00    -0.237 OA
ATOM    104  O   UNL     1       5.230  -6.710  15.554  1.00  0.00    -0.744 OA
ENDBRANCH  98 101
ENDBRANCH  71  94
ENDBRANCH  45  46
ENDBRANCH  38  40
ENDBRANCH  37  38
ENDBRANCH  36  37
ENDBRANCH  35  36
ENDBRANCH  34  35
ENDBRANCH   1  34
TORSDOF 25
