REMARK SMILES O=C(Nc1ccc(Cl)cc1C(=O)OCCOC(=O)c1ccc(-c2c3nc(c(-c4cccc(S(=O)(=O)[O-])c4F)c4ccc([nH]4)c(-c4cccc(S(=O)(=O)[O-])c4F)c4nc(c(-c5cccc(S(=O)(=O)[O-])c5F)c5ccc2[nH]5)C=C4)C=C3)cc1)c1ccc2c(c1)C(=O)N(Cc1ccco1)C2=O
REMARK SMILES IDX 14 1 13 2 11 3 12 4 10 5 4 6 5 7 6 8 9 9 7 10 8 11 3 12 1 13
REMARK SMILES IDX 2 14 82 16 83 17 87 18 84 19 86 20 85 21 88 22 97 23 89 24
REMARK SMILES IDX 90 25 98 26 91 27 92 28 93 29 96 30 94 31 95 32 15 33 16 34
REMARK SMILES IDX 17 35 18 36 19 37 20 38 81 39 21 40 80 41 22 42 23 43 24 44
REMARK SMILES IDX 74 45 25 46 79 47 73 48 75 49 26 50 78 51 72 52 71 53 27 55
REMARK SMILES IDX 59 56 39 57 58 58 40 59 43 60 57 61 76 62 41 63 42 64 56 66
REMARK SMILES IDX 77 67 44 68 28 69 29 70 37 71 30 72 32 73 38 74 31 75 33 76
REMARK SMILES IDX 34 77 35 78 36 79 60 80 61 81 69 82 62 83 64 84 70 85 63 86
REMARK SMILES IDX 65 87 66 88 67 89 68 90 45 91 46 92 54 93 47 94 49 95 55 96
REMARK SMILES IDX 48 97 50 98 51 99 52 100 53 101
REMARK H PARENT 3 15 75 54 43 65
REMARK Flexibility Score: inf
ROOT
ATOM      1  C   UNL     1       2.607  -4.565  -1.552  1.00  0.00     0.275 C 
ENDROOT
BRANCH   1   2
ATOM      2  O   UNL     1       3.307  -3.478  -0.914  1.00  0.00    -0.458 OA
BRANCH   2   3
ATOM      3  C   UNL     1       4.375  -3.773  -0.132  1.00  0.00     0.340 C 
ATOM      4  O   UNL     1       4.813  -4.888   0.091  1.00  0.00    -0.246 OA
BRANCH   3   5
ATOM      5  C   UNL     1       5.018  -2.527   0.391  1.00  0.00     0.085 A 
ATOM      6  C   UNL     1       4.327  -1.315   0.589  1.00  0.00     0.056 A 
ATOM      7  C   UNL     1       5.039  -0.233   1.125  1.00  0.00     0.028 A 
ATOM      8  C   UNL     1       6.421  -0.287   1.318  1.00  0.00     0.023 A 
ATOM      9  C   UNL     1       6.403  -2.591   0.640  1.00  0.00     0.038 A 
ATOM     10  C   UNL     1       7.104  -1.458   1.039  1.00  0.00     0.042 A 
ATOM     11  Cl  UNL     1       8.814  -1.500   1.177  1.00  0.00    -0.084 Cl
BRANCH   6  12
ATOM     12  N   UNL     1       2.963  -1.245   0.232  1.00  0.00    -0.321 N 
ATOM     13  O   UNL     1       1.017  -0.410  -0.566  1.00  0.00    -0.269 OA
ATOM     14  C   UNL     1       2.168  -0.215  -0.185  1.00  0.00     0.255 C 
ATOM     15  H   UNL     1       2.493  -2.107   0.295  1.00  0.00     0.170 HD
BRANCH  14  16
ATOM     16  C   UNL     1       2.662   1.153  -0.174  1.00  0.00     0.041 A 
ATOM     17  C   UNL     1       3.249   1.751  -1.313  1.00  0.00     0.015 A 
ATOM     18  C   UNL     1       2.453   1.852   1.007  1.00  0.00     0.028 A 
ATOM     19  C   UNL     1       3.620   3.105  -1.278  1.00  0.00     0.015 A 
ATOM     20  C   UNL     1       2.864   3.157   1.012  1.00  0.00     0.054 A 
ATOM     21  C   UNL     1       3.398   3.790  -0.094  1.00  0.00     0.053 A 
ATOM     22  C   UNL     1       2.606   4.134   2.045  1.00  0.00     0.261 C 
ATOM     23  C   UNL     1       3.415   5.223   0.226  1.00  0.00     0.261 C 
ATOM     24  O   UNL     1       2.076   3.835   3.093  1.00  0.00    -0.269 OA
ATOM     25  N   UNL     1       2.933   5.345   1.506  1.00  0.00    -0.267 N 
ATOM     26  O   UNL     1       3.675   6.095  -0.583  1.00  0.00    -0.269 OA
BRANCH  25  27
ATOM     27  C   UNL     1       2.399   6.571   2.045  1.00  0.00     0.204 C 
BRANCH  27  28
ATOM     28  C   UNL     1       3.003   6.986   3.338  1.00  0.00     0.123 A 
ATOM     29  C   UNL     1       3.211   8.230   3.899  1.00  0.00     0.047 A 
ATOM     30  O   UNL     1       3.338   6.019   4.239  1.00  0.00    -0.467 OA
ATOM     31  C   UNL     1       3.683   8.004   5.215  1.00  0.00     0.042 A 
ATOM     32  C   UNL     1       3.739   6.641   5.374  1.00  0.00     0.195 A 
ENDBRANCH  27  28
ENDBRANCH  25  27
ENDBRANCH  14  16
ENDBRANCH   6  12
ENDBRANCH   3   5
ENDBRANCH   2   3
ENDBRANCH   1   2
BRANCH   1  33
ATOM     33  C   UNL     1       2.773  -4.500  -3.071  1.00  0.00     0.275 C 
BRANCH  33  34
ATOM     34  O   UNL     1       4.134  -4.791  -3.437  1.00  0.00    -0.458 OA
BRANCH  34  35
ATOM     35  C   UNL     1       4.902  -3.710  -3.703  1.00  0.00     0.338 C 
ATOM     36  O   UNL     1       4.554  -2.541  -3.741  1.00  0.00    -0.246 OA
BRANCH  35  37
ATOM     37  C   UNL     1       6.311  -4.120  -3.757  1.00  0.00     0.060 A 
ATOM     38  C   UNL     1       7.035  -4.020  -2.574  1.00  0.00     0.016 A 
ATOM     39  C   UNL     1       6.951  -4.462  -4.943  1.00  0.00     0.016 A 
ATOM     40  C   UNL     1       8.412  -4.182  -2.565  1.00  0.00     0.010 A 
ATOM     41  C   UNL     1       8.333  -4.701  -4.923  1.00  0.00     0.010 A 
ATOM     42  C   UNL     1       9.084  -4.532  -3.741  1.00  0.00    -0.014 A 
BRANCH  42  43
ATOM     43  C   UNL     1      10.567  -4.668  -3.729  1.00  0.00     0.031 A 
ATOM     44  C   UNL     1      11.410  -3.793  -4.619  1.00  0.00     0.074 A 
ATOM     45  C   UNL     1      11.163  -5.563  -2.914  1.00  0.00     0.049 A 
ATOM     46  N   UNL     1      12.694  -3.855  -4.862  1.00  0.00    -0.248 NA
ATOM     47  C   UNL     1      10.718  -2.712  -5.341  1.00  0.00     0.031 C 
ATOM     48  C   UNL     1      10.471  -6.450  -1.976  1.00  0.00     0.029 A 
ATOM     49  N   UNL     1      12.489  -5.882  -2.748  1.00  0.00    -0.354 N 
ATOM     50  C   UNL     1      12.946  -2.886  -5.827  1.00  0.00     0.074 A 
ATOM     51  C   UNL     1      11.686  -2.235  -6.111  1.00  0.00     0.031 C 
ATOM     52  C   UNL     1      11.374  -7.196  -1.323  1.00  0.00     0.029 A 
ATOM     53  C   UNL     1      12.701  -6.904  -1.851  1.00  0.00     0.049 A 
ATOM     54  H   UNL     1      13.218  -5.423  -3.225  1.00  0.00     0.167 HD
ATOM     55  C   UNL     1      14.122  -2.567  -6.418  1.00  0.00     0.034 A 
ATOM     56  C   UNL     1      13.828  -7.566  -1.520  1.00  0.00     0.034 A 
ATOM     57  C   UNL     1      15.386  -3.160  -6.072  1.00  0.00     0.049 A 
ATOM     58  C   UNL     1      15.119  -7.186  -2.192  1.00  0.00     0.074 A 
ATOM     59  C   UNL     1      16.641  -2.859  -6.572  1.00  0.00     0.029 A 
ATOM     60  N   UNL     1      15.559  -4.167  -5.135  1.00  0.00    -0.354 N 
ATOM     61  N   UNL     1      15.347  -6.232  -3.061  1.00  0.00    -0.248 NA
ATOM     62  C   UNL     1      16.310  -7.966  -1.829  1.00  0.00     0.031 C 
ATOM     63  C   UNL     1      17.571  -3.702  -5.955  1.00  0.00     0.029 A 
ATOM     64  C   UNL     1      16.899  -4.507  -5.050  1.00  0.00     0.049 A 
ATOM     65  H   UNL     1      14.837  -4.579  -4.609  1.00  0.00     0.167 HD
ATOM     66  C   UNL     1      16.711  -6.278  -3.326  1.00  0.00     0.074 A 
ATOM     67  C   UNL     1      17.261  -7.338  -2.506  1.00  0.00     0.031 C 
ATOM     68  C   UNL     1      17.439  -5.524  -4.186  1.00  0.00     0.034 A 
BRANCH  55  69
ATOM     69  C   UNL     1      14.107  -1.523  -7.505  1.00  0.00     0.023 A 
ATOM     70  C   UNL     1      13.944  -0.162  -7.179  1.00  0.00     0.012 A 
ATOM     71  C   UNL     1      14.329  -1.891  -8.847  1.00  0.00     0.148 A 
ATOM     72  C   UNL     1      13.973   0.813  -8.176  1.00  0.00     0.002 A 
ATOM     73  C   UNL     1      14.402  -0.910  -9.829  1.00  0.00     0.091 A 
ATOM     74  F   UNL     1      14.461  -3.193  -9.140  1.00  0.00    -0.205 F 
ATOM     75  C   UNL     1      14.214   0.442  -9.496  1.00  0.00     0.022 A 
BRANCH  73  76
ATOM     76  S   UNL     1      14.789  -1.281 -11.543  1.00  0.00     0.127 S 
ATOM     77  O   UNL     1      13.507  -1.020 -12.197  1.00  0.00    -0.237 OA
ATOM     78  O   UNL     1      15.836  -0.304 -11.842  1.00  0.00    -0.237 OA
ATOM     79  O   UNL     1      15.229  -2.669 -11.566  1.00  0.00    -0.744 OA
ENDBRANCH  73  76
ENDBRANCH  55  69
BRANCH  56  80
ATOM     80  C   UNL     1      13.789  -8.654  -0.501  1.00  0.00     0.023 A 
ATOM     81  C   UNL     1      14.448  -8.474   0.731  1.00  0.00     0.012 A 
ATOM     82  C   UNL     1      13.092  -9.856  -0.735  1.00  0.00     0.148 A 
ATOM     83  C   UNL     1      14.437  -9.479   1.698  1.00  0.00     0.002 A 
ATOM     84  C   UNL     1      13.032 -10.828   0.257  1.00  0.00     0.091 A 
ATOM     85  F   UNL     1      12.491 -10.023  -1.922  1.00  0.00    -0.205 F 
ATOM     86  C   UNL     1      13.719 -10.650   1.467  1.00  0.00     0.022 A 
BRANCH  84  87
ATOM     87  S   UNL     1      12.014 -12.300   0.096  1.00  0.00     0.127 S 
ATOM     88  O   UNL     1      13.020 -13.335  -0.125  1.00  0.00    -0.237 OA
ATOM     89  O   UNL     1      11.349 -12.354   1.398  1.00  0.00    -0.237 OA
ATOM     90  O   UNL     1      11.118 -12.034  -1.022  1.00  0.00    -0.744 OA
ENDBRANCH  84  87
ENDBRANCH  56  80
BRANCH  68  91
ATOM     91  C   UNL     1      18.921  -5.783  -4.254  1.00  0.00     0.023 A 
ATOM     92  C   UNL     1      19.402  -6.947  -4.884  1.00  0.00     0.012 A 
ATOM     93  C   UNL     1      19.837  -4.836  -3.754  1.00  0.00     0.148 A 
ATOM     94  C   UNL     1      20.773  -7.181  -4.985  1.00  0.00     0.002 A 
ATOM     95  C   UNL     1      21.201  -5.052  -3.903  1.00  0.00     0.091 A 
ATOM     96  F   UNL     1      19.357  -3.744  -3.141  1.00  0.00    -0.205 F 
ATOM     97  C   UNL     1      21.671  -6.230  -4.506  1.00  0.00     0.022 A 
BRANCH  95  98
ATOM     98  S   UNL     1      22.427  -3.837  -3.405  1.00  0.00     0.127 S 
ATOM     99  O   UNL     1      22.999  -4.462  -2.214  1.00  0.00    -0.237 OA
ATOM    100  O   UNL     1      23.319  -3.803  -4.565  1.00  0.00    -0.237 OA
ATOM    101  O   UNL     1      21.693  -2.600  -3.172  1.00  0.00    -0.744 OA
ENDBRANCH  95  98
ENDBRANCH  68  91
ENDBRANCH  42  43
ENDBRANCH  35  37
ENDBRANCH  34  35
ENDBRANCH  33  34
ENDBRANCH   1  33
TORSDOF 18
