REMARK SMILES C[C@H](CN(C)C(=O)CCc1nc2ccccc2o1)C(=O)OCCOC(=O)c1ccc(-c2c3nc(c(-c4cccc(S(=O)(=O)[O-])c4F)c4ccc([nH]4)c(-c4cccc(S(=O)(=O)[O-])c4F)c4nc(c(-c5cccc(S(=O)(=O)[O-])c5F)c5ccc2[nH]5)C=C4)C=C3)cc1
REMARK SMILES IDX 21 1 19 2 20 3 2 4 1 5 3 6 4 7 5 8 6 9 7 10 8 11 9 12 10 13
REMARK SMILES IDX 11 14 18 15 12 16 17 17 13 18 16 19 14 20 15 21 22 22 23 23
REMARK SMILES IDX 24 24 25 25 26 26 27 27 28 28 89 29 29 30 88 31 30 32 31 33
REMARK SMILES IDX 32 34 82 35 33 36 87 37 81 38 83 39 34 40 86 41 80 42 79 43
REMARK SMILES IDX 35 45 67 46 47 47 66 48 48 49 51 50 65 51 84 52 49 53 50 54
REMARK SMILES IDX 64 56 85 57 52 58 36 59 37 60 45 61 38 62 40 63 46 64 39 65
REMARK SMILES IDX 41 66 42 67 43 68 44 69 68 70 69 71 77 72 70 73 72 74 78 75
REMARK SMILES IDX 71 76 73 77 74 78 75 79 76 80 53 81 54 82 62 83 55 84 57 85
REMARK SMILES IDX 63 86 56 87 58 88 59 89 60 90 61 91
REMARK H PARENT 83 44 51 55
REMARK Flexibility Score: inf
ROOT
ATOM      1  O   UNL     1      -1.945   0.815   0.905  1.00  0.00    -0.462 OA
ENDROOT
BRANCH   1   2
ATOM      2  C   UNL     1      -0.988   0.448   1.784  1.00  0.00     0.310 C 
ATOM      3  O   UNL     1      -1.194   0.169   2.960  1.00  0.00    -0.252 OA
BRANCH   2   4
ATOM      4  C   UNL     1       0.411   0.470   1.196  1.00  0.00     0.115 C 
ATOM      5  C   UNL     1       1.104   1.768   1.571  1.00  0.00     0.022 C 
BRANCH   4   6
ATOM      6  C   UNL     1       0.546   0.019  -0.274  1.00  0.00     0.134 C 
BRANCH   6   7
ATOM      7  N   UNL     1       0.172   0.975  -1.328  1.00  0.00    -0.345 N 
ATOM      8  C   UNL     1       1.266   1.455  -2.157  1.00  0.00     0.146 C 
BRANCH   7   9
ATOM      9  C   UNL     1      -1.125   0.950  -1.828  1.00  0.00     0.222 C 
ATOM     10  O   UNL     1      -1.861  -0.027  -1.702  1.00  0.00    -0.275 OA
BRANCH   9  11
ATOM     11  C   UNL     1      -1.681   2.175  -2.533  1.00  0.00     0.110 C 
BRANCH  11  12
ATOM     12  C   UNL     1      -1.862   3.370  -1.597  1.00  0.00     0.107 C 
BRANCH  12  13
ATOM     13  C   UNL     1      -0.601   4.135  -1.438  1.00  0.00     0.195 A 
ATOM     14  N   UNL     1       0.120   4.311  -0.350  1.00  0.00    -0.214 NA
ATOM     15  O   UNL     1      -0.015   4.585  -2.593  1.00  0.00    -0.441 OA
ATOM     16  C   UNL     1       1.327   4.741  -0.830  1.00  0.00     0.109 A 
ATOM     17  C   UNL     1       1.245   4.925  -2.200  1.00  0.00     0.154 A 
ATOM     18  C   UNL     1       2.558   4.924  -0.191  1.00  0.00     0.032 A 
ATOM     19  C   UNL     1       2.304   5.297  -3.015  1.00  0.00     0.049 A 
ATOM     20  C   UNL     1       3.664   5.263  -0.985  1.00  0.00     0.003 A 
ATOM     21  C   UNL     1       3.536   5.448  -2.368  1.00  0.00     0.004 A 
ENDBRANCH  12  13
ENDBRANCH  11  12
ENDBRANCH   9  11
ENDBRANCH   7   9
ENDBRANCH   6   7
ENDBRANCH   4   6
ENDBRANCH   2   4
ENDBRANCH   1   2
BRANCH   1  22
ATOM     22  C   UNL     1      -3.314   0.671   1.329  1.00  0.00     0.274 C 
BRANCH  22  23
ATOM     23  C   UNL     1      -3.899  -0.664   0.867  1.00  0.00     0.275 C 
BRANCH  23  24
ATOM     24  O   UNL     1      -3.255  -1.748   1.557  1.00  0.00    -0.458 OA
BRANCH  24  25
ATOM     25  C   UNL     1      -2.499  -2.564   0.790  1.00  0.00     0.338 C 
ATOM     26  O   UNL     1      -2.354  -2.561  -0.417  1.00  0.00    -0.246 OA
BRANCH  25  27
ATOM     27  C   UNL     1      -1.792  -3.518   1.643  1.00  0.00     0.060 A 
ATOM     28  C   UNL     1      -0.493  -3.219   2.057  1.00  0.00     0.016 A 
ATOM     29  C   UNL     1      -2.363  -4.762   1.900  1.00  0.00     0.016 A 
ATOM     30  C   UNL     1       0.257  -4.181   2.721  1.00  0.00     0.010 A 
ATOM     31  C   UNL     1      -1.618  -5.720   2.586  1.00  0.00     0.010 A 
ATOM     32  C   UNL     1      -0.301  -5.439   2.983  1.00  0.00    -0.014 A 
BRANCH  32  33
ATOM     33  C   UNL     1       0.503  -6.458   3.688  1.00  0.00     0.031 A 
ATOM     34  C   UNL     1       1.048  -7.639   2.944  1.00  0.00     0.074 A 
ATOM     35  C   UNL     1       0.725  -6.301   5.005  1.00  0.00     0.049 A 
ATOM     36  N   UNL     1       1.732  -8.654   3.403  1.00  0.00    -0.248 NA
ATOM     37  C   UNL     1       0.791  -7.691   1.495  1.00  0.00     0.031 C 
ATOM     38  C   UNL     1       0.222  -5.189   5.815  1.00  0.00     0.029 A 
ATOM     39  N   UNL     1       1.412  -7.082   5.896  1.00  0.00    -0.354 N 
ATOM     40  C   UNL     1       1.961  -9.482   2.311  1.00  0.00     0.074 A 
ATOM     41  C   UNL     1       1.342  -8.852   1.164  1.00  0.00     0.031 C 
ATOM     42  C   UNL     1       0.610  -5.364   7.087  1.00  0.00     0.029 A 
ATOM     43  C   UNL     1       1.359  -6.612   7.186  1.00  0.00     0.049 A 
ATOM     44  H   UNL     1       1.897  -7.899   5.638  1.00  0.00     0.167 HD
ATOM     45  C   UNL     1       2.640 -10.652   2.273  1.00  0.00     0.034 A 
ATOM     46  C   UNL     1       1.847  -7.141   8.324  1.00  0.00     0.034 A 
ATOM     47  C   UNL     1       3.272 -11.251   3.419  1.00  0.00     0.049 A 
ATOM     48  C   UNL     1       2.621  -8.425   8.244  1.00  0.00     0.074 A 
ATOM     49  C   UNL     1       3.993 -12.430   3.489  1.00  0.00     0.029 A 
ATOM     50  N   UNL     1       3.260 -10.713   4.697  1.00  0.00    -0.354 N 
ATOM     51  N   UNL     1       2.902  -9.152   7.189  1.00  0.00    -0.248 NA
ATOM     52  C   UNL     1       3.171  -8.948   9.501  1.00  0.00     0.031 C 
ATOM     53  C   UNL     1       4.420 -12.602   4.811  1.00  0.00     0.029 A 
ATOM     54  C   UNL     1       3.967 -11.529   5.563  1.00  0.00     0.049 A 
ATOM     55  H   UNL     1       2.815  -9.872   4.952  1.00  0.00     0.167 HD
ATOM     56  C   UNL     1       3.667 -10.214   7.651  1.00  0.00     0.074 A 
ATOM     57  C   UNL     1       3.841 -10.011   9.076  1.00  0.00     0.031 C 
ATOM     58  C   UNL     1       4.157 -11.279   6.969  1.00  0.00     0.034 A 
BRANCH  45  59
ATOM     59  C   UNL     1       2.775 -11.339   0.940  1.00  0.00     0.023 A 
ATOM     60  C   UNL     1       3.701 -10.841   0.002  1.00  0.00     0.012 A 
ATOM     61  C   UNL     1       2.038 -12.500   0.636  1.00  0.00     0.148 A 
ATOM     62  C   UNL     1       3.880 -11.477  -1.227  1.00  0.00     0.002 A 
ATOM     63  C   UNL     1       2.244 -13.146  -0.578  1.00  0.00     0.091 A 
ATOM     64  F   UNL     1       1.144 -12.943   1.531  1.00  0.00    -0.205 F 
ATOM     65  C   UNL     1       3.159 -12.633  -1.512  1.00  0.00     0.022 A 
BRANCH  63  66
ATOM     66  S   UNL     1       1.409 -14.676  -1.017  1.00  0.00     0.127 S 
ATOM     67  O   UNL     1       0.471 -14.218  -2.041  1.00  0.00    -0.237 OA
ATOM     68  O   UNL     1       2.510 -15.496  -1.523  1.00  0.00    -0.237 OA
ATOM     69  O   UNL     1       0.803 -15.168   0.212  1.00  0.00    -0.744 OA
ENDBRANCH  63  66
ENDBRANCH  45  59
BRANCH  46  70
ATOM     70  C   UNL     1       1.652  -6.420   9.612  1.00  0.00     0.023 A 
ATOM     71  C   UNL     1       2.754  -5.804  10.235  1.00  0.00     0.012 A 
ATOM     72  C   UNL     1       0.374  -6.282  10.187  1.00  0.00     0.148 A 
ATOM     73  C   UNL     1       2.589  -5.080  11.416  1.00  0.00     0.002 A 
ATOM     74  C   UNL     1       0.208  -5.511  11.332  1.00  0.00     0.091 A 
ATOM     75  F   UNL     1      -0.663  -6.894   9.597  1.00  0.00    -0.205 F 
ATOM     76  C   UNL     1       1.315  -4.921  11.957  1.00  0.00     0.022 A 
BRANCH  74  77
ATOM     77  S   UNL     1      -1.428  -5.149  11.981  1.00  0.00     0.127 S 
ATOM     78  O   UNL     1      -1.600  -6.203  12.976  1.00  0.00    -0.237 OA
ATOM     79  O   UNL     1      -1.259  -3.804  12.534  1.00  0.00    -0.237 OA
ATOM     80  O   UNL     1      -2.309  -5.203  10.821  1.00  0.00    -0.744 OA
ENDBRANCH  74  77
ENDBRANCH  46  70
BRANCH  58  81
ATOM     81  C   UNL     1       4.915 -12.306   7.765  1.00  0.00     0.023 A 
ATOM     82  C   UNL     1       4.200 -13.199   8.588  1.00  0.00     0.012 A 
ATOM     83  C   UNL     1       6.314 -12.417   7.670  1.00  0.00     0.148 A 
ATOM     84  C   UNL     1       4.872 -14.169   9.330  1.00  0.00     0.002 A 
ATOM     85  C   UNL     1       6.973 -13.411   8.384  1.00  0.00     0.091 A 
ATOM     86  F   UNL     1       6.979 -11.542   6.902  1.00  0.00    -0.205 F 
ATOM     87  C   UNL     1       6.256 -14.282   9.221  1.00  0.00     0.022 A 
BRANCH  85  88
ATOM     88  S   UNL     1       8.745 -13.661   8.229  1.00  0.00     0.127 S 
ATOM     89  O   UNL     1       9.258 -12.885   9.355  1.00  0.00    -0.237 OA
ATOM     90  O   UNL     1       8.879 -15.111   8.377  1.00  0.00    -0.237 OA
ATOM     91  O   UNL     1       9.089 -13.164   6.903  1.00  0.00    -0.744 OA
ENDBRANCH  85  88
ENDBRANCH  58  81
ENDBRANCH  32  33
ENDBRANCH  25  27
ENDBRANCH  24  25
ENDBRANCH  23  24
ENDBRANCH  22  23
ENDBRANCH   1  22
TORSDOF 20
