REMARK SMILES COCC[N@H+]1C[C@@H]2CN(c3nc(CO)cs3)C[C@]2(C(=O)OCCOC(=O)c2ccc(-c3c4nc(c(-c5cccc(S(=O)(=O)[O-])c5F)c5ccc([nH]5)c(-c5cccc(S(=O)(=O)[O-])c5F)c5nc(c(-c6cccc(S(=O)(=O)[O-])c6F)c6ccc3[nH]6)C=C5)C=C4)cc2)C1
REMARK SMILES IDX 22 1 21 2 19 3 20 4 18 5 5 6 6 7 90 8 7 10 8 11 17 12 9 13
REMARK SMILES IDX 4 14 3 15 2 16 1 17 10 18 11 19 16 20 12 21 15 22 13 23
REMARK SMILES IDX 14 24 23 26 24 27 25 28 26 29 27 30 28 31 89 32 29 33 88 34
REMARK SMILES IDX 30 35 31 36 32 37 82 38 33 39 87 40 81 41 83 42 34 43 86 44
REMARK SMILES IDX 80 45 79 46 35 48 67 49 47 50 66 51 48 52 51 53 65 54 84 55
REMARK SMILES IDX 49 56 50 57 64 59 85 60 52 61 36 62 37 63 45 64 38 65 40 66
REMARK SMILES IDX 46 67 39 68 41 69 42 70 43 71 44 72 68 73 69 74 77 75 70 76
REMARK SMILES IDX 72 77 78 78 71 79 73 80 74 81 75 82 76 83 53 84 54 85 62 86
REMARK SMILES IDX 55 87 57 88 63 89 56 90 58 91 59 92 60 93 61 94
REMARK H PARENT 5 9 14 25 83 47 51 58
REMARK Flexibility Score: inf
ROOT
ATOM      1  C   UNL     1      -0.750  -3.261  -2.720  1.00  0.00     0.274 C 
ENDROOT
BRANCH   1   2
ATOM      2  O   UNL     1      -0.070  -3.769  -1.550  1.00  0.00    -0.461 OA
BRANCH   2   3
ATOM      3  C   UNL     1      -0.268  -3.109  -0.377  1.00  0.00     0.320 C 
ATOM      4  O   UNL     1      -1.124  -2.246  -0.231  1.00  0.00    -0.251 OA
BRANCH   3   5
ATOM      5  C   UNL     1       0.797  -3.392   0.676  1.00  0.00     0.144 C 
ATOM      6  N   UNL     1       1.666  -1.737   2.277  1.00  0.00    -0.332 N 
ATOM      7  C   UNL     1       1.275  -2.960   2.994  1.00  0.00     0.269 C 
ATOM      8  C   UNL     1       1.576  -2.078   0.841  1.00  0.00     0.283 C 
ATOM      9  H   UNL     1       2.611  -1.429   2.506  1.00  0.00     0.348 HD
ATOM     10  C   UNL     1       0.277  -3.678   2.087  1.00  0.00     0.089 C 
ATOM     11  C   UNL     1       0.312  -5.195   2.268  1.00  0.00     0.129 C 
ATOM     12  C   UNL     1       1.700  -4.591   0.372  1.00  0.00     0.144 C 
ATOM     13  N   UNL     1       1.234  -5.655   1.250  1.00  0.00    -0.346 N 
BRANCH   6  14
ATOM     14  C   UNL     1       0.790  -0.600   2.668  1.00  0.00     0.291 C 
BRANCH  14  15
ATOM     15  C   UNL     1       1.187   0.768   2.070  1.00  0.00     0.221 C 
BRANCH  15  16
ATOM     16  O   UNL     1       0.615   0.926   0.772  1.00  0.00    -0.379 OA
ATOM     17  C   UNL     1       1.570   1.227  -0.231  1.00  0.00     0.195 C 
ENDBRANCH  15  16
ENDBRANCH  14  15
ENDBRANCH   6  14
BRANCH  13  18
ATOM     18  C   UNL     1       1.532  -6.947   0.974  1.00  0.00     0.185 A 
ATOM     19  N   UNL     1       2.354  -7.286   0.002  1.00  0.00    -0.223 NA
ATOM     20  S   UNL     1       0.878  -8.299   1.831  1.00  0.00    -0.105 S 
ATOM     21  C   UNL     1       2.420  -8.658  -0.151  1.00  0.00     0.079 A 
ATOM     22  C   UNL     1       1.682  -9.373   0.768  1.00  0.00     0.095 A 
BRANCH  21  23
ATOM     23  C   UNL     1       3.279  -9.209  -1.237  1.00  0.00     0.213 C 
BRANCH  23  24
ATOM     24  O   UNL     1       4.477  -9.782  -0.718  1.00  0.00    -0.390 OA
ATOM     25  H   UNL     1       4.989  -9.100  -0.257  1.00  0.00     0.211 HD
ENDBRANCH  23  24
ENDBRANCH  21  23
ENDBRANCH  13  18
ENDBRANCH   3   5
ENDBRANCH   2   3
ENDBRANCH   1   2
BRANCH   1  26
ATOM     26  C   UNL     1      -2.091  -3.946  -3.002  1.00  0.00     0.275 C 
BRANCH  26  27
ATOM     27  O   UNL     1      -3.131  -3.388  -2.186  1.00  0.00    -0.458 OA
BRANCH  27  28
ATOM     28  C   UNL     1      -3.332  -4.021  -1.004  1.00  0.00     0.338 C 
ATOM     29  O   UNL     1      -2.864  -5.103  -0.674  1.00  0.00    -0.246 OA
BRANCH  28  30
ATOM     30  C   UNL     1      -4.018  -3.110  -0.065  1.00  0.00     0.060 A 
ATOM     31  C   UNL     1      -3.546  -3.106   1.253  1.00  0.00     0.016 A 
ATOM     32  C   UNL     1      -5.040  -2.239  -0.449  1.00  0.00     0.016 A 
ATOM     33  C   UNL     1      -4.055  -2.209   2.182  1.00  0.00     0.010 A 
ATOM     34  C   UNL     1      -5.589  -1.368   0.499  1.00  0.00     0.010 A 
ATOM     35  C   UNL     1      -5.099  -1.355   1.817  1.00  0.00    -0.014 A 
BRANCH  35  36
ATOM     36  C   UNL     1      -5.765  -0.570   2.877  1.00  0.00     0.031 A 
ATOM     37  C   UNL     1      -6.947  -1.177   3.574  1.00  0.00     0.074 A 
ATOM     38  C   UNL     1      -5.290   0.631   3.248  1.00  0.00     0.049 A 
ATOM     39  N   UNL     1      -7.656  -0.705   4.563  1.00  0.00    -0.248 NA
ATOM     40  C   UNL     1      -7.378  -2.503   3.097  1.00  0.00     0.031 C 
ATOM     41  C   UNL     1      -4.131   1.303   2.663  1.00  0.00     0.029 A 
ATOM     42  N   UNL     1      -5.740   1.504   4.207  1.00  0.00    -0.354 N 
ATOM     43  C   UNL     1      -8.627  -1.665   4.819  1.00  0.00     0.074 A 
ATOM     44  C   UNL     1      -8.421  -2.743   3.878  1.00  0.00     0.031 C 
ATOM     45  C   UNL     1      -3.980   2.501   3.254  1.00  0.00     0.029 A 
ATOM     46  C   UNL     1      -5.037   2.684   4.247  1.00  0.00     0.049 A 
ATOM     47  H   UNL     1      -6.494   1.304   4.807  1.00  0.00     0.167 HD
ATOM     48  C   UNL     1      -9.596  -1.653   5.763  1.00  0.00     0.034 A 
ATOM     49  C   UNL     1      -5.240   3.788   4.993  1.00  0.00     0.034 A 
ATOM     50  C   UNL     1      -9.802  -0.576   6.692  1.00  0.00     0.049 A 
ATOM     51  C   UNL     1      -6.357   3.792   6.007  1.00  0.00     0.074 A 
ATOM     52  C   UNL     1     -10.748  -0.476   7.696  1.00  0.00     0.029 A 
ATOM     53  N   UNL     1      -9.063   0.597   6.717  1.00  0.00    -0.354 N 
ATOM     54  N   UNL     1      -7.197   2.833   6.318  1.00  0.00    -0.248 NA
ATOM     55  C   UNL     1      -6.530   5.019   6.798  1.00  0.00     0.031 C 
ATOM     56  C   UNL     1     -10.597   0.772   8.312  1.00  0.00     0.029 A 
ATOM     57  C   UNL     1      -9.539   1.435   7.711  1.00  0.00     0.049 A 
ATOM     58  H   UNL     1      -8.311   0.803   6.117  1.00  0.00     0.167 HD
ATOM     59  C   UNL     1      -7.975   3.328   7.360  1.00  0.00     0.074 A 
ATOM     60  C   UNL     1      -7.486   4.661   7.645  1.00  0.00     0.031 C 
ATOM     61  C   UNL     1      -9.011   2.741   8.012  1.00  0.00     0.034 A 
BRANCH  48  62
ATOM     62  C   UNL     1     -10.502  -2.852   5.835  1.00  0.00     0.023 A 
ATOM     63  C   UNL     1     -10.013  -4.065   6.362  1.00  0.00     0.012 A 
ATOM     64  C   UNL     1     -11.841  -2.771   5.411  1.00  0.00     0.148 A 
ATOM     65  C   UNL     1     -10.837  -5.187   6.439  1.00  0.00     0.002 A 
ATOM     66  C   UNL     1     -12.668  -3.881   5.529  1.00  0.00     0.091 A 
ATOM     67  F   UNL     1     -12.276  -1.617   4.885  1.00  0.00    -0.205 F 
ATOM     68  C   UNL     1     -12.165  -5.092   6.033  1.00  0.00     0.022 A 
BRANCH  66  69
ATOM     69  S   UNL     1     -14.410  -3.839   5.098  1.00  0.00     0.127 S 
ATOM     70  O   UNL     1     -14.435  -4.661   3.889  1.00  0.00    -0.237 OA
ATOM     71  O   UNL     1     -15.032  -4.459   6.269  1.00  0.00    -0.237 OA
ATOM     72  O   UNL     1     -14.743  -2.435   4.906  1.00  0.00    -0.744 OA
ENDBRANCH  66  69
ENDBRANCH  48  62
BRANCH  49  73
ATOM     73  C   UNL     1      -4.349   4.973   4.836  1.00  0.00     0.023 A 
ATOM     74  C   UNL     1      -3.480   5.336   5.883  1.00  0.00     0.012 A 
ATOM     75  C   UNL     1      -4.361   5.743   3.656  1.00  0.00     0.148 A 
ATOM     76  C   UNL     1      -2.663   6.463   5.771  1.00  0.00     0.002 A 
ATOM     77  C   UNL     1      -3.506   6.832   3.530  1.00  0.00     0.091 A 
ATOM     78  F   UNL     1      -5.212   5.396   2.680  1.00  0.00    -0.205 F 
ATOM     79  C   UNL     1      -2.669   7.204   4.593  1.00  0.00     0.022 A 
BRANCH  77  80
ATOM     80  S   UNL     1      -3.363   7.774   2.008  1.00  0.00     0.127 S 
ATOM     81  O   UNL     1      -3.983   9.043   2.382  1.00  0.00    -0.237 OA
ATOM     82  O   UNL     1      -1.912   7.830   1.822  1.00  0.00    -0.237 OA
ATOM     83  O   UNL     1      -4.068   6.999   0.996  1.00  0.00    -0.744 OA
ENDBRANCH  77  80
ENDBRANCH  49  73
BRANCH  61  84
ATOM     84  C   UNL     1      -9.670   3.526   9.118  1.00  0.00     0.023 A 
ATOM     85  C   UNL     1     -10.469   4.644   8.805  1.00  0.00     0.012 A 
ATOM     86  C   UNL     1      -9.544   3.123  10.463  1.00  0.00     0.148 A 
ATOM     87  C   UNL     1     -11.095   5.374   9.815  1.00  0.00     0.002 A 
ATOM     88  C   UNL     1     -10.213   3.826  11.459  1.00  0.00     0.091 A 
ATOM     89  F   UNL     1      -8.766   2.069  10.747  1.00  0.00    -0.205 F 
ATOM     90  C   UNL     1     -10.976   4.959  11.139  1.00  0.00     0.022 A 
BRANCH  88  91
ATOM     91  S   UNL     1     -10.192   3.301  13.177  1.00  0.00     0.127 S 
ATOM     92  O   UNL     1      -9.242   4.242  13.766  1.00  0.00    -0.237 OA
ATOM     93  O   UNL     1     -11.583   3.505  13.585  1.00  0.00    -0.237 OA
ATOM     94  O   UNL     1      -9.771   1.906  13.161  1.00  0.00    -0.744 OA
ENDBRANCH  88  91
ENDBRANCH  61  84
ENDBRANCH  35  36
ENDBRANCH  28  30
ENDBRANCH  27  28
ENDBRANCH  26  27
ENDBRANCH   1  26
TORSDOF 20
