REMARK SMILES Cc1cc(N2CC[NH+]([C@@H](C(=O)OCCOC(=O)c3ccc(-c4c5nc(c(-c6cccc(S(=O)(=O)[O-])c6F)c6ccc([nH]6)c(-c6cccc(S(=O)(=O)[O-])c6F)c6nc(c(-c7cccc(S(=O)(=O)[O-])c7F)c7ccc4[nH]7)C=C6)C=C5)cc3)c3c[nH]c4ccccc34)CC2)nc2ccccc12
REMARK SMILES IDX 14 1 13 2 12 3 10 4 11 5 9 6 8 7 5 8 6 9 91 10 7 11 90 12
REMARK SMILES IDX 4 14 1 15 2 16 3 17 98 18 93 19 97 20 92 21 94 22 96 23
REMARK SMILES IDX 95 24 81 25 82 26 89 27 83 28 84 29 88 30 85 32 87 33 86 34
REMARK SMILES IDX 15 35 16 36 17 37 18 38 19 39 80 40 20 41 79 42 21 43 22 44
REMARK SMILES IDX 23 45 73 46 24 47 78 48 72 49 74 50 25 51 77 52 71 53 70 54
REMARK SMILES IDX 26 56 58 57 38 58 57 59 39 60 42 61 56 62 75 63 40 64 41 65
REMARK SMILES IDX 55 67 76 68 43 69 27 70 28 71 36 72 29 73 31 74 37 75 30 76
REMARK SMILES IDX 32 77 33 78 34 79 35 80 59 81 60 82 68 83 61 84 63 85 69 86
REMARK SMILES IDX 62 87 64 88 65 89 66 90 67 91 44 92 45 93 53 94 46 95 48 96
REMARK SMILES IDX 54 97 47 98 49 99 50 100 51 101 52 102
REMARK H PARENT 8 13 83 31 74 55 42 66
REMARK Flexibility Score: inf
ROOT
ATOM      1  C   UNL     1      -0.846  -5.528  -1.709  1.00  0.00     0.275 C 
ENDROOT
BRANCH   1   2
ATOM      2  C   UNL     1      -2.186  -4.835  -1.912  1.00  0.00     0.274 C 
BRANCH   2   3
ATOM      3  O   UNL     1      -2.860  -4.619  -0.648  1.00  0.00    -0.457 OA
BRANCH   3   4
ATOM      4  C   UNL     1      -4.033  -5.277  -0.466  1.00  0.00     0.370 C 
ATOM      5  O   UNL     1      -4.417  -6.177  -1.215  1.00  0.00    -0.245 OA
BRANCH   4   6
ATOM      6  C   UNL     1      -4.952  -4.691   0.609  1.00  0.00     0.328 C 
BRANCH   6   7
ATOM      7  N   UNL     1      -5.304  -3.231   0.484  1.00  0.00    -0.316 N 
ATOM      8  N   UNL     1      -2.996  -1.640  -0.298  1.00  0.00    -0.345 N 
ATOM      9  C   UNL     1      -3.144  -2.116   1.071  1.00  0.00     0.179 C 
ATOM     10  C   UNL     1      -4.089  -1.713  -1.260  1.00  0.00     0.179 C 
ATOM     11  C   UNL     1      -4.619  -2.314   1.403  1.00  0.00     0.285 C 
ATOM     12  C   UNL     1      -5.250  -2.690  -0.883  1.00  0.00     0.285 C 
ATOM     13  H   UNL     1      -6.281  -3.261   0.776  1.00  0.00     0.349 HD
BRANCH   8  14
ATOM     14  C   UNL     1      -1.945  -0.760  -0.435  1.00  0.00     0.129 A 
ATOM     15  C   UNL     1      -1.431   2.964  -0.141  1.00  0.00     0.045 C 
ATOM     16  C   UNL     1      -1.124   1.500  -0.270  1.00  0.00    -0.038 A 
ATOM     17  C   UNL     1      -2.186   0.606  -0.415  1.00  0.00     0.051 A 
ATOM     18  C   UNL     1       0.189   0.985  -0.193  1.00  0.00     0.003 A 
ATOM     19  C   UNL     1       0.341  -0.418  -0.244  1.00  0.00     0.073 A 
ATOM     20  C   UNL     1       1.339   1.793  -0.046  1.00  0.00     0.010 A 
ATOM     21  N   UNL     1      -0.698  -1.258  -0.355  1.00  0.00    -0.231 NA
ATOM     22  C   UNL     1       1.616  -0.958  -0.145  1.00  0.00     0.029 A 
ATOM     23  C   UNL     1       2.609   1.226   0.046  1.00  0.00     0.001 A 
ATOM     24  C   UNL     1       2.749  -0.153  -0.002  1.00  0.00     0.002 A 
ENDBRANCH   8  14
ENDBRANCH   6   7
BRANCH   6  25
ATOM     25  C   UNL     1      -4.813  -5.078   2.075  1.00  0.00     0.046 A 
ATOM     26  C   UNL     1      -5.932  -5.325   2.865  1.00  0.00     0.094 A 
ATOM     27  C   UNL     1      -3.704  -4.989   3.000  1.00  0.00     0.009 A 
ATOM     28  N   UNL     1      -5.606  -5.072   4.166  1.00  0.00    -0.361 N 
ATOM     29  C   UNL     1      -4.272  -4.769   4.262  1.00  0.00     0.046 A 
ATOM     30  C   UNL     1      -2.298  -4.894   2.909  1.00  0.00     0.011 A 
ATOM     31  H   UNL     1      -6.235  -5.103   4.923  1.00  0.00     0.166 HD
ATOM     32  C   UNL     1      -3.547  -4.293   5.362  1.00  0.00     0.026 A 
ATOM     33  C   UNL     1      -1.543  -4.511   4.030  1.00  0.00     0.001 A 
ATOM     34  C   UNL     1      -2.167  -4.162   5.222  1.00  0.00     0.002 A 
ENDBRANCH   6  25
ENDBRANCH   4   6
ENDBRANCH   3   4
ENDBRANCH   2   3
ENDBRANCH   1   2
BRANCH   1  35
ATOM     35  O   UNL     1      -1.098  -6.768  -1.035  1.00  0.00    -0.458 OA
BRANCH  35  36
ATOM     36  C   UNL     1      -0.444  -6.938   0.130  1.00  0.00     0.338 C 
ATOM     37  O   UNL     1       0.576  -6.345   0.485  1.00  0.00    -0.246 OA
BRANCH  36  38
ATOM     38  C   UNL     1      -1.204  -7.839   1.022  1.00  0.00     0.060 A 
ATOM     39  C   UNL     1      -2.580  -8.026   0.857  1.00  0.00     0.016 A 
ATOM     40  C   UNL     1      -0.566  -8.379   2.139  1.00  0.00     0.016 A 
ATOM     41  C   UNL     1      -3.333  -8.640   1.853  1.00  0.00     0.010 A 
ATOM     42  C   UNL     1      -1.305  -9.089   3.086  1.00  0.00     0.010 A 
ATOM     43  C   UNL     1      -2.699  -9.199   2.967  1.00  0.00    -0.014 A 
BRANCH  43  44
ATOM     44  C   UNL     1      -3.468  -9.974   3.972  1.00  0.00     0.031 A 
ATOM     45  C   UNL     1      -3.479  -9.566   5.416  1.00  0.00     0.074 A 
ATOM     46  C   UNL     1      -4.082 -11.107   3.583  1.00  0.00     0.049 A 
ATOM     47  N   UNL     1      -3.877 -10.246   6.460  1.00  0.00    -0.248 NA
ATOM     48  C   UNL     1      -2.965  -8.225   5.731  1.00  0.00     0.031 C 
ATOM     49  C   UNL     1      -4.133 -11.606   2.208  1.00  0.00     0.029 A 
ATOM     50  N   UNL     1      -4.738 -12.066   4.314  1.00  0.00    -0.354 N 
ATOM     51  C   UNL     1      -3.606  -9.446   7.563  1.00  0.00     0.074 A 
ATOM     52  C   UNL     1      -3.025  -8.218   7.057  1.00  0.00     0.031 C 
ATOM     53  C   UNL     1      -4.760 -12.787   2.194  1.00  0.00     0.029 A 
ATOM     54  C   UNL     1      -5.083 -13.165   3.564  1.00  0.00     0.049 A 
ATOM     55  H   UNL     1      -4.941 -11.975   5.273  1.00  0.00     0.167 HD
ATOM     56  C   UNL     1      -3.826  -9.714   8.873  1.00  0.00     0.034 A 
ATOM     57  C   UNL     1      -5.547 -14.374   3.934  1.00  0.00     0.034 A 
ATOM     58  C   UNL     1      -4.452 -10.922   9.355  1.00  0.00     0.049 A 
ATOM     59  C   UNL     1      -5.816 -14.637   5.381  1.00  0.00     0.074 A 
ATOM     60  C   UNL     1      -4.761 -11.272  10.659  1.00  0.00     0.029 A 
ATOM     61  N   UNL     1      -4.873 -11.975   8.554  1.00  0.00    -0.354 N 
ATOM     62  N   UNL     1      -5.591 -13.859   6.411  1.00  0.00    -0.248 NA
ATOM     63  C   UNL     1      -6.430 -15.927   5.717  1.00  0.00     0.031 C 
ATOM     64  C   UNL     1      -5.365 -12.536  10.646  1.00  0.00     0.029 A 
ATOM     65  C   UNL     1      -5.449 -12.968   9.332  1.00  0.00     0.049 A 
ATOM     66  H   UNL     1      -4.776 -12.012   7.575  1.00  0.00     0.167 HD
ATOM     67  C   UNL     1      -6.048 -14.556   7.521  1.00  0.00     0.074 A 
ATOM     68  C   UNL     1      -6.590 -15.809   7.029  1.00  0.00     0.031 C 
ATOM     69  C   UNL     1      -6.007 -14.198   8.828  1.00  0.00     0.034 A 
BRANCH  56  70
ATOM     70  C   UNL     1      -3.425  -8.671   9.887  1.00  0.00     0.023 A 
ATOM     71  C   UNL     1      -4.186  -7.492  10.012  1.00  0.00     0.012 A 
ATOM     72  C   UNL     1      -2.348  -8.891  10.769  1.00  0.00     0.148 A 
ATOM     73  C   UNL     1      -3.869  -6.538  10.980  1.00  0.00     0.002 A 
ATOM     74  C   UNL     1      -2.063  -7.955  11.759  1.00  0.00     0.091 A 
ATOM     75  F   UNL     1      -1.613 -10.003  10.623  1.00  0.00    -0.205 F 
ATOM     76  C   UNL     1      -2.816  -6.775  11.861  1.00  0.00     0.022 A 
BRANCH  74  77
ATOM     77  S   UNL     1      -0.782  -8.229  12.992  1.00  0.00     0.127 S 
ATOM     78  O   UNL     1       0.328  -7.450  12.446  1.00  0.00    -0.237 OA
ATOM     79  O   UNL     1      -1.383  -7.664  14.202  1.00  0.00    -0.237 OA
ATOM     80  O   UNL     1      -0.587  -9.671  13.039  1.00  0.00    -0.744 OA
ENDBRANCH  74  77
ENDBRANCH  56  70
BRANCH  57  81
ATOM     81  C   UNL     1      -5.786 -15.388   2.872  1.00  0.00     0.023 A 
ATOM     82  C   UNL     1      -7.102 -15.662   2.460  1.00  0.00     0.012 A 
ATOM     83  C   UNL     1      -4.705 -15.941   2.155  1.00  0.00     0.148 A 
ATOM     84  C   UNL     1      -7.338 -16.460   1.340  1.00  0.00     0.002 A 
ATOM     85  C   UNL     1      -4.946 -16.673   1.000  1.00  0.00     0.091 A 
ATOM     86  F   UNL     1      -3.460 -15.681   2.580  1.00  0.00    -0.205 F 
ATOM     87  C   UNL     1      -6.263 -16.944   0.597  1.00  0.00     0.022 A 
BRANCH  85  88
ATOM     88  S   UNL     1      -3.622 -17.151  -0.118  1.00  0.00     0.127 S 
ATOM     89  O   UNL     1      -3.513 -18.583   0.142  1.00  0.00    -0.237 OA
ATOM     90  O   UNL     1      -4.183 -16.802  -1.424  1.00  0.00    -0.237 OA
ATOM     91  O   UNL     1      -2.473 -16.343   0.270  1.00  0.00    -0.744 OA
ENDBRANCH  85  88
ENDBRANCH  57  81
BRANCH  69  92
ATOM     92  C   UNL     1      -6.577 -15.180   9.816  1.00  0.00     0.023 A 
ATOM     93  C   UNL     1      -5.860 -16.354  10.123  1.00  0.00     0.012 A 
ATOM     94  C   UNL     1      -7.813 -14.939  10.447  1.00  0.00     0.148 A 
ATOM     95  C   UNL     1      -6.386 -17.294  11.009  1.00  0.00     0.002 A 
ATOM     96  C   UNL     1      -8.312 -15.863  11.359  1.00  0.00     0.091 A 
ATOM     97  F   UNL     1      -8.494 -13.830  10.125  1.00  0.00    -0.205 F 
ATOM     98  C   UNL     1      -7.606 -17.046  11.632  1.00  0.00     0.022 A 
BRANCH  96  99
ATOM     99  S   UNL     1      -9.843 -15.575  12.252  1.00  0.00     0.127 S 
ATOM    100  O   UNL     1     -10.808 -16.314  11.440  1.00  0.00    -0.237 OA
ATOM    101  O   UNL     1      -9.567 -16.169  13.561  1.00  0.00    -0.237 OA
ATOM    102  O   UNL     1     -10.012 -14.127  12.278  1.00  0.00    -0.744 OA
ENDBRANCH  96  99
ENDBRANCH  69  92
ENDBRANCH  43  44
ENDBRANCH  36  38
ENDBRANCH  35  36
ENDBRANCH   1  35
TORSDOF 17
