REMARK SMILES C[C@@H]1SCCC[C@H]1[N@H+]1CCC[C@H](CCC(=O)OCCOC(=O)c2ccc(-c3c4nc(c(-c5cccc(S(=O)(=O)[O-])c5F)c5ccc([nH]5)c(-c5cccc(S(=O)(=O)[O-])c5F)c5nc(c(-c6cccc(S(=O)(=O)[O-])c6F)c6ccc3[nH]6)C=C5)C=C4)cc2)C1
REMARK SMILES IDX 18 1 17 2 15 3 16 4 14 5 13 6 12 7 8 8 9 9 86 10 10 12 11 13
REMARK SMILES IDX 7 14 1 15 2 16 3 17 4 18 6 19 5 20 19 21 20 22 21 23 22 24
REMARK SMILES IDX 23 25 24 26 85 27 25 28 84 29 26 30 27 31 28 32 78 33 29 34
REMARK SMILES IDX 83 35 77 36 79 37 30 38 82 39 76 40 75 41 31 43 63 44 43 45
REMARK SMILES IDX 62 46 44 47 47 48 61 49 80 50 45 51 46 52 60 54 81 55 48 56
REMARK SMILES IDX 32 57 33 58 41 59 34 60 36 61 42 62 35 63 37 64 38 65 39 66
REMARK SMILES IDX 40 67 64 68 65 69 73 70 66 71 68 72 74 73 67 74 69 75 70 76
REMARK SMILES IDX 71 77 72 78 49 79 50 80 58 81 51 82 53 83 59 84 52 85 54 86
REMARK SMILES IDX 55 87 56 88 57 89
REMARK H PARENT 8 11 79 42 47 53
REMARK Flexibility Score: inf
ROOT
ATOM      1  C   UNL     1      -2.947  -1.430   1.613  1.00  0.00     0.274 C 
ENDROOT
BRANCH   1   2
ATOM      2  O   UNL     1      -2.405  -0.387   2.446  1.00  0.00    -0.462 OA
BRANCH   2   3
ATOM      3  C   UNL     1      -3.114  -0.007   3.533  1.00  0.00     0.305 C 
ATOM      4  O   UNL     1      -4.160  -0.526   3.902  1.00  0.00    -0.252 OA
BRANCH   3   5
ATOM      5  C   UNL     1      -2.515   1.189   4.253  1.00  0.00     0.123 C 
BRANCH   5   6
ATOM      6  C   UNL     1      -1.170   1.740   3.770  1.00  0.00     0.021 C 
BRANCH   6   7
ATOM      7  C   UNL     1      -1.109   2.190   2.299  1.00  0.00     0.045 C 
ATOM      8  N   UNL     1       0.261   3.482   0.649  1.00  0.00    -0.331 N 
ATOM      9  C   UNL     1      -0.942   4.141   0.159  1.00  0.00     0.262 C 
ATOM     10  C   UNL     1       0.120   3.088   2.053  1.00  0.00     0.265 C 
ATOM     11  H   UNL     1       0.930   4.247   0.559  1.00  0.00     0.348 HD
ATOM     12  C   UNL     1      -2.219   3.326   0.336  1.00  0.00     0.062 C 
ATOM     13  C   UNL     1      -2.389   2.850   1.775  1.00  0.00     0.015 C 
BRANCH   8  14
ATOM     14  C   UNL     1       1.089   2.590  -0.204  1.00  0.00     0.196 C 
ATOM     15  C   UNL     1       2.234   0.292  -0.497  1.00  0.00     0.026 C 
ATOM     16  C   UNL     1       0.970   1.036  -0.046  1.00  0.00     0.101 C 
ATOM     17  S   UNL     1      -0.469   0.313  -0.925  1.00  0.00    -0.153 SA
ATOM     18  C   UNL     1      -0.226   1.009  -2.575  1.00  0.00     0.070 C 
ATOM     19  C   UNL     1       1.158   2.990  -1.696  1.00  0.00     0.067 C 
ATOM     20  C   UNL     1       0.005   2.511  -2.579  1.00  0.00     0.017 C 
ENDBRANCH   8  14
ENDBRANCH   6   7
ENDBRANCH   5   6
ENDBRANCH   3   5
ENDBRANCH   2   3
ENDBRANCH   1   2
BRANCH   1  21
ATOM     21  C   UNL     1      -1.897  -2.514   1.365  1.00  0.00     0.275 C 
BRANCH  21  22
ATOM     22  O   UNL     1      -1.532  -3.135   2.607  1.00  0.00    -0.458 OA
BRANCH  22  23
ATOM     23  C   UNL     1      -0.497  -2.547   3.252  1.00  0.00     0.338 C 
ATOM     24  O   UNL     1       0.268  -1.692   2.829  1.00  0.00    -0.246 OA
BRANCH  23  25
ATOM     25  C   UNL     1      -0.576  -2.936   4.663  1.00  0.00     0.060 A 
ATOM     26  C   UNL     1      -0.869  -1.932   5.589  1.00  0.00     0.016 A 
ATOM     27  C   UNL     1      -0.385  -4.254   5.072  1.00  0.00     0.016 A 
ATOM     28  C   UNL     1      -0.997  -2.240   6.936  1.00  0.00     0.010 A 
ATOM     29  C   UNL     1      -0.507  -4.564   6.427  1.00  0.00     0.010 A 
ATOM     30  C   UNL     1      -0.817  -3.559   7.363  1.00  0.00    -0.014 A 
BRANCH  30  31
ATOM     31  C   UNL     1      -0.924  -3.885   8.801  1.00  0.00     0.031 A 
ATOM     32  C   UNL     1       0.313  -4.241   9.568  1.00  0.00     0.074 A 
ATOM     33  C   UNL     1      -2.132  -3.886   9.394  1.00  0.00     0.049 A 
ATOM     34  N   UNL     1       0.425  -4.683  10.791  1.00  0.00    -0.248 NA
ATOM     35  C   UNL     1       1.596  -4.085   8.862  1.00  0.00     0.031 C 
ATOM     36  C   UNL     1      -3.393  -3.534   8.739  1.00  0.00     0.029 A 
ATOM     37  N   UNL     1      -2.501  -4.227  10.671  1.00  0.00    -0.354 N 
ATOM     38  C   UNL     1       1.781  -4.912  10.986  1.00  0.00     0.074 A 
ATOM     39  C   UNL     1       2.455  -4.548   9.759  1.00  0.00     0.031 C 
ATOM     40  C   UNL     1      -4.401  -3.709   9.609  1.00  0.00     0.029 A 
ATOM     41  C   UNL     1      -3.863  -4.237  10.858  1.00  0.00     0.049 A 
ATOM     42  H   UNL     1      -1.855  -4.443  11.381  1.00  0.00     0.167 HD
ATOM     43  C   UNL     1       2.400  -5.388  12.091  1.00  0.00     0.034 A 
ATOM     44  C   UNL     1      -4.595  -4.675  11.900  1.00  0.00     0.034 A 
ATOM     45  C   UNL     1       1.714  -5.722  13.309  1.00  0.00     0.049 A 
ATOM     46  C   UNL     1      -3.880  -5.223  13.105  1.00  0.00     0.074 A 
ATOM     47  C   UNL     1       2.252  -6.158  14.506  1.00  0.00     0.029 A 
ATOM     48  N   UNL     1       0.339  -5.677  13.480  1.00  0.00    -0.354 N 
ATOM     49  N   UNL     1      -2.591  -5.342  13.316  1.00  0.00    -0.248 NA
ATOM     50  C   UNL     1      -4.715  -5.679  14.224  1.00  0.00     0.031 C 
ATOM     51  C   UNL     1       1.198  -6.420  15.387  1.00  0.00     0.029 A 
ATOM     52  C   UNL     1       0.006  -6.103  14.755  1.00  0.00     0.049 A 
ATOM     53  H   UNL     1      -0.306  -5.386  12.796  1.00  0.00     0.167 HD
ATOM     54  C   UNL     1      -2.459  -5.859  14.598  1.00  0.00     0.074 A 
ATOM     55  C   UNL     1      -3.800  -6.006  15.127  1.00  0.00     0.031 C 
ATOM     56  C   UNL     1      -1.334  -6.199  15.274  1.00  0.00     0.034 A 
BRANCH  43  57
ATOM     57  C   UNL     1       3.891  -5.586  12.034  1.00  0.00     0.023 A 
ATOM     58  C   UNL     1       4.756  -4.474  12.039  1.00  0.00     0.012 A 
ATOM     59  C   UNL     1       4.436  -6.886  12.039  1.00  0.00     0.148 A 
ATOM     60  C   UNL     1       6.139  -4.652  12.022  1.00  0.00     0.002 A 
ATOM     61  C   UNL     1       5.814  -7.056  12.069  1.00  0.00     0.091 A 
ATOM     62  F   UNL     1       3.595  -7.930  12.011  1.00  0.00    -0.205 F 
ATOM     63  C   UNL     1       6.667  -5.940  12.049  1.00  0.00     0.022 A 
BRANCH  61  64
ATOM     64  S   UNL     1       6.590  -8.671  12.185  1.00  0.00     0.127 S 
ATOM     65  O   UNL     1       7.258  -8.770  10.887  1.00  0.00    -0.237 OA
ATOM     66  O   UNL     1       7.493  -8.495  13.322  1.00  0.00    -0.237 OA
ATOM     67  O   UNL     1       5.512  -9.624  12.402  1.00  0.00    -0.744 OA
ENDBRANCH  61  64
ENDBRANCH  43  57
BRANCH  44  68
ATOM     68  C   UNL     1      -6.084  -4.628  11.843  1.00  0.00     0.023 A 
ATOM     69  C   UNL     1      -6.790  -3.762  12.700  1.00  0.00     0.012 A 
ATOM     70  C   UNL     1      -6.803  -5.428  10.933  1.00  0.00     0.148 A 
ATOM     71  C   UNL     1      -8.185  -3.720  12.676  1.00  0.00     0.002 A 
ATOM     72  C   UNL     1      -8.188  -5.338  10.873  1.00  0.00     0.091 A 
ATOM     73  F   UNL     1      -6.115  -6.259  10.136  1.00  0.00    -0.205 F 
ATOM     74  C   UNL     1      -8.883  -4.499  11.757  1.00  0.00     0.022 A 
BRANCH  72  75
ATOM     75  S   UNL     1      -9.159  -6.209   9.637  1.00  0.00     0.127 S 
ATOM     76  O   UNL     1      -9.850  -7.207  10.449  1.00  0.00    -0.237 OA
ATOM     77  O   UNL     1     -10.012  -5.140   9.116  1.00  0.00    -0.237 OA
ATOM     78  O   UNL     1      -8.196  -6.732   8.677  1.00  0.00    -0.744 OA
ENDBRANCH  72  75
ENDBRANCH  44  68
BRANCH  56  79
ATOM     79  C   UNL     1      -1.497  -6.730  16.674  1.00  0.00     0.023 A 
ATOM     80  C   UNL     1      -2.017  -8.023  16.880  1.00  0.00     0.012 A 
ATOM     81  C   UNL     1      -1.059  -5.974  17.779  1.00  0.00     0.148 A 
ATOM     82  C   UNL     1      -2.130  -8.542  18.169  1.00  0.00     0.002 A 
ATOM     83  C   UNL     1      -1.123  -6.519  19.055  1.00  0.00     0.091 A 
ATOM     84  F   UNL     1      -0.581  -4.740  17.561  1.00  0.00    -0.205 F 
ATOM     85  C   UNL     1      -1.672  -7.797  19.253  1.00  0.00     0.022 A 
BRANCH  83  86
ATOM     86  S   UNL     1      -0.465  -5.678  20.498  1.00  0.00     0.127 S 
ATOM     87  O   UNL     1      -1.685  -5.362  21.241  1.00  0.00    -0.237 OA
ATOM     88  O   UNL     1       0.369  -6.715  21.106  1.00  0.00    -0.237 OA
ATOM     89  O   UNL     1       0.270  -4.526  19.994  1.00  0.00    -0.744 OA
ENDBRANCH  83  86
ENDBRANCH  56  79
ENDBRANCH  30  31
ENDBRANCH  23  25
ENDBRANCH  22  23
ENDBRANCH  21  22
ENDBRANCH   1  21
TORSDOF 17
