REMARK SMILES Cn1c(=O)[nH]c(=O)c2c1nc(NC1CCCC1)n2CC(=O)OCCOC(=O)c1ccc(-c2c3nc(c(-c4cccc(S(=O)(=O)[O-])c4F)c4ccc([nH]4)c(-c4cccc(S(=O)(=O)[O-])c4F)c4nc(c(-c5cccc(S(=O)(=O)[O-])c5F)c5ccc2[nH]5)C=C4)C=C3)cc1
REMARK SMILES IDX 23 1 22 2 20 3 21 4 19 5 18 6 1 7 2 8 3 9 9 10 4 11 5 12
REMARK SMILES IDX 8 13 10 14 6 15 11 17 7 18 12 19 13 21 14 22 17 23 15 24
REMARK SMILES IDX 16 25 24 26 25 27 26 28 27 29 28 30 29 31 90 32 30 33 89 34
REMARK SMILES IDX 31 35 32 36 33 37 83 38 34 39 88 40 82 41 84 42 35 43 87 44
REMARK SMILES IDX 81 45 80 46 36 48 68 49 48 50 67 51 49 52 52 53 66 54 85 55
REMARK SMILES IDX 50 56 51 57 65 59 86 60 53 61 37 62 38 63 46 64 39 65 41 66
REMARK SMILES IDX 47 67 40 68 42 69 43 70 44 71 45 72 69 73 70 74 78 75 71 76
REMARK SMILES IDX 73 77 79 78 72 79 74 80 75 81 76 82 77 83 54 84 55 85 63 86
REMARK SMILES IDX 56 87 58 88 64 89 57 90 59 91 60 92 61 93 62 94
REMARK H PARENT 5 16 12 20 84 47 52 58
REMARK Flexibility Score: inf
ROOT
ATOM      1  C   UNL     1       1.973   2.952   6.968  1.00  0.00     0.274 C 
ENDROOT
BRANCH   1   2
ATOM      2  O   UNL     1       1.155   2.278   5.976  1.00  0.00    -0.461 OA
BRANCH   2   3
ATOM      3  C   UNL     1      -0.172   2.159   6.269  1.00  0.00     0.326 C 
ATOM      4  O   UNL     1      -0.640   2.374   7.388  1.00  0.00    -0.250 OA
BRANCH   3   5
ATOM      5  C   UNL     1      -1.075   1.852   5.090  1.00  0.00     0.248 C 
BRANCH   5   6
ATOM      6  N   UNL     1      -0.456   1.554   3.803  1.00  0.00    -0.293 N 
ATOM      7  C   UNL     1       0.955  -0.402  -0.122  1.00  0.00     0.157 C 
ATOM      8  N   UNL     1       0.543  -0.618   1.252  1.00  0.00    -0.279 N 
ATOM      9  C   UNL     1       0.558  -1.888   1.809  1.00  0.00     0.329 A 
ATOM     10  C   UNL     1       0.179   0.443   2.047  1.00  0.00     0.170 A 
ATOM     11  O   UNL     1       0.887  -2.905   1.198  1.00  0.00    -0.248 OA
ATOM     12  N   UNL     1       0.185  -1.996   3.138  1.00  0.00    -0.272 N 
ATOM     13  C   UNL     1      -0.149   0.292   3.361  1.00  0.00     0.154 A 
ATOM     14  N   UNL     1       0.074   1.724   1.641  1.00  0.00    -0.194 NA
ATOM     15  C   UNL     1      -0.158  -0.975   3.996  1.00  0.00     0.279 A 
ATOM     16  H   UNL     1       0.164  -2.907   3.513  1.00  0.00     0.175 HD
ATOM     17  C   UNL     1      -0.316   2.397   2.701  1.00  0.00     0.206 A 
ATOM     18  O   UNL     1      -0.436  -1.178   5.175  1.00  0.00    -0.267 OA
BRANCH  17  19
ATOM     19  N   UNL     1      -0.536   3.722   2.769  1.00  0.00    -0.353 N 
ATOM     20  H   UNL     1      -0.957   4.078   3.585  1.00  0.00     0.163 HD
BRANCH  19  21
ATOM     21  C   UNL     1      -0.192   4.666   1.713  1.00  0.00     0.082 C 
ATOM     22  C   UNL     1       1.258   4.598   1.252  1.00  0.00     0.025 C 
ATOM     23  C   UNL     1      -1.009   4.559   0.433  1.00  0.00     0.025 C 
ATOM     24  C   UNL     1       1.253   5.409  -0.035  1.00  0.00     0.002 C 
ATOM     25  C   UNL     1      -0.145   5.241  -0.633  1.00  0.00     0.002 C 
ENDBRANCH  19  21
ENDBRANCH  17  19
ENDBRANCH   5   6
ENDBRANCH   3   5
ENDBRANCH   2   3
ENDBRANCH   1   2
BRANCH   1  26
ATOM     26  C   UNL     1       2.369   4.372   6.532  1.00  0.00     0.275 C 
BRANCH  26  27
ATOM     27  O   UNL     1       1.377   5.388   6.781  1.00  0.00    -0.458 OA
BRANCH  27  28
ATOM     28  C   UNL     1       0.357   5.366   5.905  1.00  0.00     0.338 C 
ATOM     29  O   UNL     1       0.030   4.418   5.210  1.00  0.00    -0.246 OA
BRANCH  28  30
ATOM     30  C   UNL     1      -0.204   6.662   5.551  1.00  0.00     0.060 A 
ATOM     31  C   UNL     1      -1.297   6.603   4.671  1.00  0.00     0.016 A 
ATOM     32  C   UNL     1       0.577   7.807   5.687  1.00  0.00     0.016 A 
ATOM     33  C   UNL     1      -1.452   7.604   3.746  1.00  0.00     0.010 A 
ATOM     34  C   UNL     1       0.376   8.839   4.795  1.00  0.00     0.010 A 
ATOM     35  C   UNL     1      -0.567   8.684   3.774  1.00  0.00    -0.014 A 
BRANCH  35  36
ATOM     36  C   UNL     1      -0.775   9.720   2.778  1.00  0.00     0.031 A 
ATOM     37  C   UNL     1      -2.128  10.332   2.860  1.00  0.00     0.074 A 
ATOM     38  C   UNL     1       0.201  10.173   1.969  1.00  0.00     0.049 A 
ATOM     39  N   UNL     1      -3.045  10.384   1.950  1.00  0.00    -0.248 NA
ATOM     40  C   UNL     1      -2.567  10.781   4.192  1.00  0.00     0.031 C 
ATOM     41  C   UNL     1       1.627   9.836   1.994  1.00  0.00     0.029 A 
ATOM     42  N   UNL     1       0.137  11.183   1.062  1.00  0.00    -0.354 N 
ATOM     43  C   UNL     1      -4.105  11.065   2.545  1.00  0.00     0.074 A 
ATOM     44  C   UNL     1      -3.836  11.105   3.957  1.00  0.00     0.031 C 
ATOM     45  C   UNL     1       2.317  10.823   1.379  1.00  0.00     0.029 A 
ATOM     46  C   UNL     1       1.374  11.765   0.803  1.00  0.00     0.049 A 
ATOM     47  H   UNL     1      -0.699  11.474   0.631  1.00  0.00     0.167 HD
ATOM     48  C   UNL     1      -5.016  11.765   1.819  1.00  0.00     0.034 A 
ATOM     49  C   UNL     1       1.575  12.989   0.257  1.00  0.00     0.034 A 
ATOM     50  C   UNL     1      -5.009  11.391   0.433  1.00  0.00     0.049 A 
ATOM     51  C   UNL     1       0.314  13.391  -0.408  1.00  0.00     0.074 A 
ATOM     52  C   UNL     1      -5.259  10.230  -0.269  1.00  0.00     0.029 A 
ATOM     53  N   UNL     1      -4.351  12.226  -0.435  1.00  0.00    -0.354 N 
ATOM     54  N   UNL     1      -0.161  12.812  -1.472  1.00  0.00    -0.248 NA
ATOM     55  C   UNL     1      -0.633  14.200   0.343  1.00  0.00     0.031 C 
ATOM     56  C   UNL     1      -4.339  10.252  -1.358  1.00  0.00     0.029 A 
ATOM     57  C   UNL     1      -3.609  11.439  -1.274  1.00  0.00     0.049 A 
ATOM     58  H   UNL     1      -4.404  13.209  -0.451  1.00  0.00     0.167 HD
ATOM     59  C   UNL     1      -1.536  12.813  -1.282  1.00  0.00     0.074 A 
ATOM     60  C   UNL     1      -1.771  13.787  -0.218  1.00  0.00     0.031 C 
ATOM     61  C   UNL     1      -2.315  11.818  -1.797  1.00  0.00     0.034 A 
BRANCH  48  62
ATOM     62  C   UNL     1      -5.676  13.030   2.305  1.00  0.00     0.023 A 
ATOM     63  C   UNL     1      -6.767  13.531   1.564  1.00  0.00     0.012 A 
ATOM     64  C   UNL     1      -5.129  13.879   3.296  1.00  0.00     0.148 A 
ATOM     65  C   UNL     1      -7.270  14.818   1.785  1.00  0.00     0.002 A 
ATOM     66  C   UNL     1      -5.693  15.116   3.577  1.00  0.00     0.091 A 
ATOM     67  F   UNL     1      -3.969  13.565   3.882  1.00  0.00    -0.205 F 
ATOM     68  C   UNL     1      -6.745  15.605   2.803  1.00  0.00     0.022 A 
BRANCH  66  69
ATOM     69  S   UNL     1      -5.093  16.124   4.937  1.00  0.00     0.127 S 
ATOM     70  O   UNL     1      -4.302  17.128   4.233  1.00  0.00    -0.237 OA
ATOM     71  O   UNL     1      -6.341  16.615   5.522  1.00  0.00    -0.237 OA
ATOM     72  O   UNL     1      -4.357  15.206   5.798  1.00  0.00    -0.744 OA
ENDBRANCH  66  69
ENDBRANCH  48  62
BRANCH  49  73
ATOM     73  C   UNL     1       2.644  13.983   0.496  1.00  0.00     0.023 A 
ATOM     74  C   UNL     1       2.848  14.999  -0.460  1.00  0.00     0.012 A 
ATOM     75  C   UNL     1       3.222  14.139   1.774  1.00  0.00     0.148 A 
ATOM     76  C   UNL     1       3.552  16.163  -0.136  1.00  0.00     0.002 A 
ATOM     77  C   UNL     1       3.923  15.300   2.091  1.00  0.00     0.091 A 
ATOM     78  F   UNL     1       2.997  13.203   2.706  1.00  0.00    -0.205 F 
ATOM     79  C   UNL     1       4.076  16.320   1.143  1.00  0.00     0.022 A 
BRANCH  77  80
ATOM     80  S   UNL     1       4.588  15.597   3.735  1.00  0.00     0.127 S 
ATOM     81  O   UNL     1       5.926  16.107   3.435  1.00  0.00    -0.237 OA
ATOM     82  O   UNL     1       3.657  16.590   4.261  1.00  0.00    -0.237 OA
ATOM     83  O   UNL     1       4.580  14.301   4.403  1.00  0.00    -0.744 OA
ENDBRANCH  77  80
ENDBRANCH  49  73
BRANCH  61  84
ATOM     84  C   UNL     1      -1.681  10.862  -2.778  1.00  0.00     0.023 A 
ATOM     85  C   UNL     1      -0.598  10.028  -2.424  1.00  0.00     0.012 A 
ATOM     86  C   UNL     1      -2.292  10.681  -4.029  1.00  0.00     0.148 A 
ATOM     87  C   UNL     1      -0.118   9.058  -3.308  1.00  0.00     0.002 A 
ATOM     88  C   UNL     1      -1.845   9.681  -4.886  1.00  0.00     0.091 A 
ATOM     89  F   UNL     1      -3.322  11.477  -4.355  1.00  0.00    -0.205 F 
ATOM     90  C   UNL     1      -0.751   8.875  -4.534  1.00  0.00     0.022 A 
BRANCH  88  91
ATOM     91  S   UNL     1      -2.709   9.313  -6.414  1.00  0.00     0.127 S 
ATOM     92  O   UNL     1      -1.874   9.982  -7.408  1.00  0.00    -0.237 OA
ATOM     93  O   UNL     1      -2.663   7.850  -6.461  1.00  0.00    -0.237 OA
ATOM     94  O   UNL     1      -4.053   9.855  -6.248  1.00  0.00    -0.744 OA
ENDBRANCH  88  91
ENDBRANCH  61  84
ENDBRANCH  35  36
ENDBRANCH  28  30
ENDBRANCH  27  28
ENDBRANCH  26  27
ENDBRANCH   1  26
TORSDOF 17
