REMARK SMILES O=C(OCCOC(=O)[C@H]1C[C@@H]2CCCC[C@H]2N1C(=O)CN1CSCC1=O)c1ccc(-c2c3nc(c(-c4cccc(S(=O)(=O)[O-])c4F)c4ccc([nH]4)c(-c4cccc(S(=O)(=O)[O-])c4F)c4nc(c(-c5cccc(S(=O)(=O)[O-])c5F)c5ccc2[nH]5)C=C4)C=C3)cc1
REMARK SMILES IDX 4 1 3 2 2 3 1 4 27 5 28 6 89 7 29 8 88 9 30 10 31 11 32 12
REMARK SMILES IDX 82 13 33 14 87 15 81 16 83 17 34 18 86 19 80 20 79 21 35 23
REMARK SMILES IDX 67 24 47 25 66 26 48 27 51 28 65 29 84 30 49 31 50 32 64 34
REMARK SMILES IDX 85 35 52 36 36 37 37 38 45 39 38 40 40 41 46 42 39 43 41 44
REMARK SMILES IDX 42 45 43 46 44 47 68 48 69 49 77 50 70 51 72 52 78 53 71 54
REMARK SMILES IDX 73 55 74 56 75 57 76 58 53 59 54 60 62 61 55 62 57 63 63 64
REMARK SMILES IDX 56 65 58 66 59 67 60 68 61 69 5 70 6 71 7 72 8 73 9 74 10 75
REMARK SMILES IDX 17 76 11 77 16 78 12 79 15 80 13 81 14 82 18 83 19 84 20 85
REMARK SMILES IDX 21 86 22 87 25 88 23 89 24 90 26 91
REMARK H PARENT 83 22 51 33
REMARK Flexibility Score: inf
ROOT
ATOM      1  C   UNL     1       4.178  -1.539  -0.326  1.00  0.00     0.275 C 
ENDROOT
BRANCH   1   2
ATOM      2  O   UNL     1       3.339  -0.946   0.666  1.00  0.00    -0.458 OA
BRANCH   2   3
ATOM      3  C   UNL     1       3.325   0.334   1.093  1.00  0.00     0.338 C 
ATOM      4  O   UNL     1       2.453   0.651   1.903  1.00  0.00    -0.246 OA
BRANCH   3   5
ATOM      5  C   UNL     1       4.264   1.413   0.611  1.00  0.00     0.060 A 
ATOM      6  C   UNL     1       5.356   1.306  -0.266  1.00  0.00     0.016 A 
ATOM      7  C   UNL     1       3.946   2.696   1.051  1.00  0.00     0.016 A 
ATOM      8  C   UNL     1       6.053   2.429  -0.756  1.00  0.00     0.010 A 
ATOM      9  C   UNL     1       4.596   3.811   0.518  1.00  0.00     0.010 A 
ATOM     10  C   UNL     1       5.660   3.708  -0.402  1.00  0.00    -0.014 A 
BRANCH  10  11
ATOM     11  C   UNL     1       6.319   4.967  -0.891  1.00  0.00     0.031 A 
ATOM     12  C   UNL     1       6.630   6.000   0.160  1.00  0.00     0.074 A 
ATOM     13  C   UNL     1       6.467   5.290  -2.202  1.00  0.00     0.049 A 
ATOM     14  N   UNL     1       6.835   7.280   0.032  1.00  0.00    -0.248 NA
ATOM     15  C   UNL     1       6.632   5.529   1.562  1.00  0.00     0.031 C 
ATOM     16  C   UNL     1       6.246   4.409  -3.354  1.00  0.00     0.029 A 
ATOM     17  N   UNL     1       6.725   6.513  -2.796  1.00  0.00    -0.354 N 
ATOM     18  C   UNL     1       6.972   7.748   1.330  1.00  0.00     0.074 A 
ATOM     19  C   UNL     1       6.596   6.675   2.218  1.00  0.00     0.031 C 
ATOM     20  C   UNL     1       6.266   5.137  -4.488  1.00  0.00     0.029 A 
ATOM     21  C   UNL     1       6.479   6.537  -4.161  1.00  0.00     0.049 A 
ATOM     22  H   UNL     1       7.052   7.295  -2.295  1.00  0.00     0.167 HD
ATOM     23  C   UNL     1       7.526   8.904   1.757  1.00  0.00     0.034 A 
ATOM     24  C   UNL     1       6.412   7.568  -5.038  1.00  0.00     0.034 A 
ATOM     25  C   UNL     1       8.028   9.896   0.858  1.00  0.00     0.049 A 
ATOM     26  C   UNL     1       6.890   8.903  -4.551  1.00  0.00     0.074 A 
ATOM     27  C   UNL     1       8.783  11.016   1.137  1.00  0.00     0.029 A 
ATOM     28  N   UNL     1       7.825   9.869  -0.514  1.00  0.00    -0.354 N 
ATOM     29  N   UNL     1       7.189   9.275  -3.331  1.00  0.00    -0.248 NA
ATOM     30  C   UNL     1       7.185   9.905  -5.585  1.00  0.00     0.031 C 
ATOM     31  C   UNL     1       9.018  11.684  -0.069  1.00  0.00     0.029 A 
ATOM     32  C   UNL     1       8.436  10.959  -1.099  1.00  0.00     0.049 A 
ATOM     33  H   UNL     1       7.321   9.176  -0.998  1.00  0.00     0.167 HD
ATOM     34  C   UNL     1       7.830  10.498  -3.463  1.00  0.00     0.074 A 
ATOM     35  C   UNL     1       7.810  10.833  -4.874  1.00  0.00     0.031 C 
ATOM     36  C   UNL     1       8.436  11.243  -2.509  1.00  0.00     0.034 A 
BRANCH  23  37
ATOM     37  C   UNL     1       7.729   9.048   3.240  1.00  0.00     0.023 A 
ATOM     38  C   UNL     1       8.597   8.157   3.914  1.00  0.00     0.012 A 
ATOM     39  C   UNL     1       7.030  10.016   3.977  1.00  0.00     0.148 A 
ATOM     40  C   UNL     1       8.692   8.164   5.303  1.00  0.00     0.002 A 
ATOM     41  C   UNL     1       7.179  10.060   5.358  1.00  0.00     0.091 A 
ATOM     42  F   UNL     1       6.205  10.846   3.324  1.00  0.00    -0.205 F 
ATOM     43  C   UNL     1       7.985   9.119   6.024  1.00  0.00     0.022 A 
BRANCH  41  44
ATOM     44  S   UNL     1       6.381  11.300   6.378  1.00  0.00     0.127 S 
ATOM     45  O   UNL     1       5.454  10.485   7.163  1.00  0.00    -0.237 OA
ATOM     46  O   UNL     1       7.511  11.839   7.135  1.00  0.00    -0.237 OA
ATOM     47  O   UNL     1       5.756  12.239   5.458  1.00  0.00    -0.744 OA
ENDBRANCH  41  44
ENDBRANCH  23  37
BRANCH  24  48
ATOM     48  C   UNL     1       6.105   7.391  -6.497  1.00  0.00     0.023 A 
ATOM     49  C   UNL     1       7.122   6.909  -7.344  1.00  0.00     0.012 A 
ATOM     50  C   UNL     1       4.877   7.780  -7.078  1.00  0.00     0.148 A 
ATOM     51  C   UNL     1       6.913   6.779  -8.720  1.00  0.00     0.002 A 
ATOM     52  C   UNL     1       4.643   7.561  -8.438  1.00  0.00     0.091 A 
ATOM     53  F   UNL     1       3.971   8.400  -6.308  1.00  0.00    -0.205 F 
ATOM     54  C   UNL     1       5.668   7.079  -9.264  1.00  0.00     0.022 A 
BRANCH  52  55
ATOM     55  S   UNL     1       3.036   7.811  -9.211  1.00  0.00     0.127 S 
ATOM     56  O   UNL     1       3.390   8.379 -10.512  1.00  0.00    -0.237 OA
ATOM     57  O   UNL     1       2.521   6.442  -9.266  1.00  0.00    -0.237 OA
ATOM     58  O   UNL     1       2.306   8.718  -8.336  1.00  0.00    -0.744 OA
ENDBRANCH  52  55
ENDBRANCH  24  48
BRANCH  36  59
ATOM     59  C   UNL     1       9.216  12.441  -2.961  1.00  0.00     0.023 A 
ATOM     60  C   UNL     1       8.552  13.599  -3.400  1.00  0.00     0.012 A 
ATOM     61  C   UNL     1      10.621  12.434  -2.849  1.00  0.00     0.148 A 
ATOM     62  C   UNL     1       9.282  14.735  -3.741  1.00  0.00     0.002 A 
ATOM     63  C   UNL     1      11.334  13.589  -3.127  1.00  0.00     0.091 A 
ATOM     64  F   UNL     1      11.227  11.304  -2.458  1.00  0.00    -0.205 F 
ATOM     65  C   UNL     1      10.668  14.736  -3.586  1.00  0.00     0.022 A 
BRANCH  63  66
ATOM     66  S   UNL     1      13.099  13.719  -2.830  1.00  0.00     0.127 S 
ATOM     67  O   UNL     1      13.625  13.810  -4.191  1.00  0.00    -0.237 OA
ATOM     68  O   UNL     1      13.188  14.956  -2.055  1.00  0.00    -0.237 OA
ATOM     69  O   UNL     1      13.477  12.518  -2.097  1.00  0.00    -0.744 OA
ENDBRANCH  63  66
ENDBRANCH  36  59
ENDBRANCH  10  11
ENDBRANCH   3   5
ENDBRANCH   2   3
ENDBRANCH   1   2
BRANCH   1  70
ATOM     70  C   UNL     1       3.768  -1.225  -1.771  1.00  0.00     0.274 C 
BRANCH  70  71
ATOM     71  O   UNL     1       3.348   0.135  -2.023  1.00  0.00    -0.461 OA
BRANCH  71  72
ATOM     72  C   UNL     1       2.004   0.346  -1.961  1.00  0.00     0.329 C 
ATOM     73  O   UNL     1       1.214  -0.488  -1.521  1.00  0.00    -0.250 OA
BRANCH  72  74
ATOM     74  C   UNL     1       1.510   1.709  -2.500  1.00  0.00     0.195 C 
ATOM     75  C   UNL     1       0.778   2.515  -1.397  1.00  0.00     0.043 C 
ATOM     76  N   UNL     1       2.363   2.695  -3.196  1.00  0.00    -0.324 N 
ATOM     77  C   UNL     1       1.587   3.796  -1.300  1.00  0.00     0.014 C 
ATOM     78  C   UNL     1       2.026   4.053  -2.737  1.00  0.00     0.089 C 
ATOM     79  C   UNL     1       0.977   5.021  -0.630  1.00  0.00     0.006 C 
ATOM     80  C   UNL     1       3.092   5.131  -2.659  1.00  0.00     0.025 C 
ATOM     81  C   UNL     1       1.924   6.232  -0.706  1.00  0.00     0.000 C 
ATOM     82  C   UNL     1       2.523   6.435  -2.098  1.00  0.00     0.002 C 
BRANCH  76  83
ATOM     83  C   UNL     1       2.868   2.304  -4.426  1.00  0.00     0.243 C 
ATOM     84  O   UNL     1       3.019   1.104  -4.690  1.00  0.00    -0.273 OA
BRANCH  83  85
ATOM     85  C   UNL     1       3.213   3.344  -5.491  1.00  0.00     0.220 C 
BRANCH  85  86
ATOM     86  N   UNL     1       2.068   4.131  -5.916  1.00  0.00    -0.323 N 
ATOM     87  C   UNL     1       0.903   3.494  -6.448  1.00  0.00     0.190 C 
ATOM     88  C   UNL     1       2.104   5.507  -5.947  1.00  0.00     0.233 C 
ATOM     89  S   UNL     1      -0.315   4.765  -6.789  1.00  0.00    -0.130 SA
ATOM     90  C   UNL     1       0.791   6.129  -6.334  1.00  0.00     0.171 C 
ATOM     91  O   UNL     1       3.085   6.149  -5.587  1.00  0.00    -0.274 OA
ENDBRANCH  85  86
ENDBRANCH  83  85
ENDBRANCH  76  83
ENDBRANCH  72  74
ENDBRANCH  71  72
ENDBRANCH  70  71
ENDBRANCH   1  70
TORSDOF 17
