REMARK SMILES Cc1ccc(O)c(C(=O)NCc2ccc(C(=O)OCCOC(=O)c3ccc(-c4c5nc(c(-c6cccc(S(=O)(=O)[O-])c6F)c6ccc([nH]6)c(-c6cccc(S(=O)(=O)[O-])c6F)c6nc(c(-c7cccc(S(=O)(=O)[O-])c7F)c7ccc4[nH]7)C=C6)C=C5)cc3)o2)c1
REMARK SMILES IDX 19 1 18 2 16 3 17 4 15 5 12 6 13 7 87 8 14 9 11 10 10 11
REMARK SMILES IDX 8 12 9 13 7 15 1 16 2 17 3 18 88 19 4 20 5 21 6 22 20 24
REMARK SMILES IDX 21 25 22 26 23 27 24 28 25 29 86 30 26 31 85 32 27 33 28 34
REMARK SMILES IDX 29 35 79 36 30 37 84 38 78 39 80 40 31 41 83 42 77 43 76 44
REMARK SMILES IDX 32 46 64 47 44 48 63 49 45 50 48 51 62 52 81 53 46 54 47 55
REMARK SMILES IDX 61 57 82 58 49 59 33 60 34 61 42 62 35 63 37 64 43 65 36 66
REMARK SMILES IDX 38 67 39 68 40 69 41 70 65 71 66 72 74 73 67 74 69 75 75 76
REMARK SMILES IDX 68 77 70 78 71 79 72 80 73 81 50 82 51 83 59 84 52 85 54 86
REMARK SMILES IDX 60 87 53 88 55 89 56 90 57 91 58 92
REMARK H PARENT 10 14 6 23 80 45 48 56
REMARK Flexibility Score: inf
ROOT
ATOM      1  C   UNL     1       2.271  -8.905   4.803  1.00  0.00     0.275 C 
ENDROOT
BRANCH   1   2
ATOM      2  O   UNL     1       2.365  -7.535   4.372  1.00  0.00    -0.456 OA
BRANCH   2   3
ATOM      3  C   UNL     1       2.677  -7.346   3.055  1.00  0.00     0.374 C 
ATOM      4  O   UNL     1       3.039  -8.236   2.295  1.00  0.00    -0.242 OA
BRANCH   3   5
ATOM      5  C   UNL     1       2.405  -5.979   2.677  1.00  0.00     0.211 A 
ATOM      6  C   UNL     1       1.678  -4.464   1.242  1.00  0.00     0.124 A 
ATOM      7  C   UNL     1       1.737  -3.842   2.473  1.00  0.00     0.048 A 
ATOM      8  O   UNL     1       2.189  -5.723   1.348  1.00  0.00    -0.452 OA
ATOM      9  C   UNL     1       2.196  -4.817   3.396  1.00  0.00     0.058 A 
BRANCH   6  10
ATOM     10  C   UNL     1       1.089  -4.112  -0.081  1.00  0.00     0.191 C 
BRANCH  10  11
ATOM     11  N   UNL     1      -0.289  -3.714   0.140  1.00  0.00    -0.345 N 
ATOM     12  C   UNL     1      -0.940  -2.517   0.238  1.00  0.00     0.255 C 
ATOM     13  O   UNL     1      -2.161  -2.565   0.423  1.00  0.00    -0.269 OA
ATOM     14  H   UNL     1      -0.894  -4.483   0.242  1.00  0.00     0.164 HD
BRANCH  12  15
ATOM     15  C   UNL     1      -0.311  -1.168   0.123  1.00  0.00     0.081 A 
ATOM     16  C   UNL     1       3.085   0.584   0.186  1.00  0.00     0.044 C 
ATOM     17  C   UNL     1       1.603   0.363   0.093  1.00  0.00    -0.050 A 
ATOM     18  C   UNL     1       0.745   1.444  -0.116  1.00  0.00     0.007 A 
ATOM     19  C   UNL     1       1.063  -0.926   0.242  1.00  0.00     0.021 A 
ATOM     20  C   UNL     1      -0.629   1.237  -0.191  1.00  0.00     0.047 A 
ATOM     21  C   UNL     1      -1.149  -0.052  -0.074  1.00  0.00     0.128 A 
BRANCH  21  22
ATOM     22  O   UNL     1      -2.517  -0.131  -0.152  1.00  0.00    -0.507 OA
ATOM     23  H   UNL     1      -3.025   0.646  -0.284  1.00  0.00     0.293 HD
ENDBRANCH  21  22
ENDBRANCH  12  15
ENDBRANCH  10  11
ENDBRANCH   6  10
ENDBRANCH   3   5
ENDBRANCH   2   3
ENDBRANCH   1   2
BRANCH   1  24
ATOM     24  C   UNL     1       0.811  -9.366   4.886  1.00  0.00     0.275 C 
BRANCH  24  25
ATOM     25  O   UNL     1       0.207  -9.502   3.584  1.00  0.00    -0.458 OA
BRANCH  25  26
ATOM     26  C   UNL     1      -0.497  -8.427   3.156  1.00  0.00     0.338 C 
ATOM     27  O   UNL     1      -0.658  -7.376   3.755  1.00  0.00    -0.246 OA
BRANCH  26  28
ATOM     28  C   UNL     1      -0.948  -8.636   1.769  1.00  0.00     0.060 A 
ATOM     29  C   UNL     1      -0.467  -7.755   0.800  1.00  0.00     0.016 A 
ATOM     30  C   UNL     1      -1.880  -9.615   1.424  1.00  0.00     0.016 A 
ATOM     31  C   UNL     1      -0.910  -7.837  -0.516  1.00  0.00     0.010 A 
ATOM     32  C   UNL     1      -2.326  -9.701   0.098  1.00  0.00     0.010 A 
ATOM     33  C   UNL     1      -1.852  -8.806  -0.878  1.00  0.00    -0.014 A 
BRANCH  33  34
ATOM     34  C   UNL     1      -2.352  -8.841  -2.275  1.00  0.00     0.031 A 
ATOM     35  C   UNL     1      -3.736  -8.351  -2.594  1.00  0.00     0.074 A 
ATOM     36  C   UNL     1      -1.548  -9.280  -3.262  1.00  0.00     0.049 A 
ATOM     37  N   UNL     1      -4.353  -8.319  -3.746  1.00  0.00    -0.248 NA
ATOM     38  C   UNL     1      -4.529  -7.828  -1.470  1.00  0.00     0.031 C 
ATOM     39  C   UNL     1      -0.179  -9.764  -3.081  1.00  0.00     0.029 A 
ATOM     40  N   UNL     1      -1.768  -9.397  -4.612  1.00  0.00    -0.354 N 
ATOM     41  C   UNL     1      -5.619  -7.808  -3.485  1.00  0.00     0.074 A 
ATOM     42  C   UNL     1      -5.682  -7.544  -2.063  1.00  0.00     0.031 C 
ATOM     43  C   UNL     1       0.317 -10.131  -4.274  1.00  0.00     0.029 A 
ATOM     44  C   UNL     1      -0.707  -9.938  -5.298  1.00  0.00     0.049 A 
ATOM     45  H   UNL     1      -2.607  -9.119  -5.048  1.00  0.00     0.167 HD
ATOM     46  C   UNL     1      -6.630  -7.564  -4.353  1.00  0.00     0.034 A 
ATOM     47  C   UNL     1      -0.578 -10.258  -6.601  1.00  0.00     0.034 A 
ATOM     48  C   UNL     1      -6.552  -7.783  -5.772  1.00  0.00     0.049 A 
ATOM     49  C   UNL     1      -1.720  -9.982  -7.541  1.00  0.00     0.074 A 
ATOM     50  C   UNL     1      -7.514  -7.532  -6.735  1.00  0.00     0.029 A 
ATOM     51  N   UNL     1      -5.449  -8.301  -6.434  1.00  0.00    -0.354 N 
ATOM     52  N   UNL     1      -2.875  -9.415  -7.291  1.00  0.00    -0.248 NA
ATOM     53  C   UNL     1      -1.534 -10.370  -8.947  1.00  0.00     0.031 C 
ATOM     54  C   UNL     1      -6.994  -7.905  -7.980  1.00  0.00     0.029 A 
ATOM     55  C   UNL     1      -5.707  -8.383  -7.792  1.00  0.00     0.049 A 
ATOM     56  H   UNL     1      -4.607  -8.570  -6.002  1.00  0.00     0.167 HD
ATOM     57  C   UNL     1      -3.543  -9.356  -8.509  1.00  0.00     0.074 A 
ATOM     58  C   UNL     1      -2.653  -9.923  -9.501  1.00  0.00     0.031 C 
ATOM     59  C   UNL     1      -4.790  -8.896  -8.777  1.00  0.00     0.034 A 
BRANCH  46  60
ATOM     60  C   UNL     1      -7.904  -6.994  -3.792  1.00  0.00     0.023 A 
ATOM     61  C   UNL     1      -7.959  -5.628  -3.449  1.00  0.00     0.012 A 
ATOM     62  C   UNL     1      -9.057  -7.790  -3.653  1.00  0.00     0.148 A 
ATOM     63  C   UNL     1      -9.137  -5.069  -2.954  1.00  0.00     0.002 A 
ATOM     64  C   UNL     1     -10.237  -7.218  -3.190  1.00  0.00     0.091 A 
ATOM     65  F   UNL     1      -8.976  -9.094  -3.957  1.00  0.00    -0.205 F 
ATOM     66  C   UNL     1     -10.277  -5.860  -2.834  1.00  0.00     0.022 A 
BRANCH  64  67
ATOM     67  S   UNL     1     -11.768  -8.149  -3.064  1.00  0.00     0.127 S 
ATOM     68  O   UNL     1     -11.831  -8.423  -1.629  1.00  0.00    -0.237 OA
ATOM     69  O   UNL     1     -12.761  -7.187  -3.544  1.00  0.00    -0.237 OA
ATOM     70  O   UNL     1     -11.594  -9.313  -3.922  1.00  0.00    -0.744 OA
ENDBRANCH  64  67
ENDBRANCH  46  60
BRANCH  47  71
ATOM     71  C   UNL     1       0.703 -10.835  -7.098  1.00  0.00     0.023 A 
ATOM     72  C   UNL     1       1.533 -10.060  -7.931  1.00  0.00     0.012 A 
ATOM     73  C   UNL     1       1.122 -12.125  -6.721  1.00  0.00     0.148 A 
ATOM     74  C   UNL     1       2.748 -10.566  -8.393  1.00  0.00     0.002 A 
ATOM     75  C   UNL     1       2.359 -12.603  -7.141  1.00  0.00     0.091 A 
ATOM     76  F   UNL     1       0.307 -12.861  -5.951  1.00  0.00    -0.205 F 
ATOM     77  C   UNL     1       3.168 -11.831  -7.987  1.00  0.00     0.022 A 
BRANCH  75  78
ATOM     78  S   UNL     1       3.025 -14.164  -6.551  1.00  0.00     0.127 S 
ATOM     79  O   UNL     1       2.784 -15.043  -7.691  1.00  0.00    -0.237 OA
ATOM     80  O   UNL     1       4.431 -13.831  -6.317  1.00  0.00    -0.237 OA
ATOM     81  O   UNL     1       2.277 -14.468  -5.338  1.00  0.00    -0.744 OA
ENDBRANCH  75  78
ENDBRANCH  47  71
BRANCH  59  82
ATOM     82  C   UNL     1      -5.270  -8.973 -10.202  1.00  0.00     0.023 A 
ATOM     83  C   UNL     1      -5.673 -10.216 -10.728  1.00  0.00     0.012 A 
ATOM     84  C   UNL     1      -5.396  -7.813 -10.990  1.00  0.00     0.148 A 
ATOM     85  C   UNL     1      -6.172 -10.307 -12.027  1.00  0.00     0.002 A 
ATOM     86  C   UNL     1      -5.931  -7.906 -12.271  1.00  0.00     0.091 A 
ATOM     87  F   UNL     1      -4.985  -6.643 -10.480  1.00  0.00    -0.205 F 
ATOM     88  C   UNL     1      -6.313  -9.152 -12.793  1.00  0.00     0.022 A 
BRANCH  86  89
ATOM     89  S   UNL     1      -6.222  -6.455 -13.291  1.00  0.00     0.127 S 
ATOM     90  O   UNL     1      -5.083  -6.499 -14.205  1.00  0.00    -0.237 OA
ATOM     91  O   UNL     1      -7.513  -6.759 -13.910  1.00  0.00    -0.237 OA
ATOM     92  O   UNL     1      -6.251  -5.326 -12.371  1.00  0.00    -0.744 OA
ENDBRANCH  86  89
ENDBRANCH  59  82
ENDBRANCH  33  34
ENDBRANCH  26  28
ENDBRANCH  25  26
ENDBRANCH  24  25
ENDBRANCH   1  24
TORSDOF 18
