REMARK SMILES CC(C)(O)C#Cc1ccc(C(=O)N[C@@H](CCC(N)=O)C(=O)OCCOC(=O)c2ccc(-c3c4nc(c(-c5cccc(S(=O)(=O)[O-])c5F)c5ccc([nH]5)c(-c5cccc(S(=O)(=O)[O-])c5F)c5nc(c(-c6cccc(S(=O)(=O)[O-])c6F)c6ccc3[nH]6)C=C5)C=C4)cc2)s1
REMARK SMILES IDX 23 1 22 2 20 3 21 4 14 5 13 6 11 7 12 8 10 10 7 11 8 12
REMARK SMILES IDX 91 13 9 14 6 15 5 16 2 17 1 18 3 19 4 20 15 22 16 23 17 24
REMARK SMILES IDX 18 25 19 26 24 29 25 30 26 31 27 32 28 33 29 34 90 35 30 36
REMARK SMILES IDX 89 37 31 38 32 39 33 40 83 41 34 42 88 43 82 44 84 45 35 46
REMARK SMILES IDX 87 47 81 48 80 49 36 51 68 52 48 53 67 54 49 55 52 56 66 57
REMARK SMILES IDX 85 58 50 59 51 60 65 62 86 63 53 64 37 65 38 66 46 67 39 68
REMARK SMILES IDX 41 69 47 70 40 71 42 72 43 73 44 74 45 75 69 76 70 77 78 78
REMARK SMILES IDX 71 79 73 80 79 81 72 82 74 83 75 84 76 85 77 86 54 87 55 88
REMARK SMILES IDX 63 89 56 90 58 91 64 92 57 93 59 94 60 95 61 96 62 97
REMARK H PARENT 13 9 4 21 18 27 18 28 84 50 52 61
REMARK Flexibility Score: inf
ROOT
ATOM      1  C   UNL     1       3.864  -9.468  -4.862  1.00  0.00     0.274 C 
ENDROOT
BRANCH   1   2
ATOM      2  O   UNL     1       3.055  -8.486  -5.530  1.00  0.00    -0.461 OA
BRANCH   2   3
ATOM      3  C   UNL     1       2.278  -7.718  -4.727  1.00  0.00     0.328 C 
ATOM      4  O   UNL     1       2.066  -7.940  -3.537  1.00  0.00    -0.250 OA
BRANCH   3   5
ATOM      5  C   UNL     1       1.526  -6.627  -5.497  1.00  0.00     0.193 C 
BRANCH   5   6
ATOM      6  N   UNL     1       2.056  -6.138  -6.776  1.00  0.00    -0.338 N 
ATOM      7  C   UNL     1       2.316  -4.863  -7.244  1.00  0.00     0.262 C 
ATOM      8  O   UNL     1       2.767  -4.783  -8.389  1.00  0.00    -0.268 OA
ATOM      9  H   UNL     1       2.265  -6.852  -7.421  1.00  0.00     0.164 HD
BRANCH   7  10
ATOM     10  C   UNL     1       2.155  -3.679  -6.410  1.00  0.00     0.093 A 
ATOM     11  C   UNL     1       1.790  -2.256  -4.458  1.00  0.00     0.078 A 
ATOM     12  C   UNL     1       2.724  -1.698  -5.299  1.00  0.00     0.030 A 
ATOM     13  S   UNL     1       0.899  -3.463  -5.270  1.00  0.00    -0.121 S 
ATOM     14  C   UNL     1       2.907  -2.510  -6.466  1.00  0.00     0.027 A 
BRANCH  11  15
ATOM     15  C   UNL     1       1.505  -1.895  -3.115  1.00  0.00    -0.053 C 
ATOM     16  C   UNL     1       1.070  -1.640  -1.913  1.00  0.00    -0.063 C 
BRANCH  16  17
ATOM     17  C   UNL     1       0.564  -1.342  -0.511  1.00  0.00     0.120 C 
ATOM     18  C   UNL     1       1.041   0.041  -0.073  1.00  0.00     0.056 C 
ATOM     19  C   UNL     1       1.045  -2.425   0.452  1.00  0.00     0.056 C 
BRANCH  17  20
ATOM     20  O   UNL     1      -0.863  -1.353  -0.538  1.00  0.00    -0.378 OA
ATOM     21  H   UNL     1      -1.204  -1.164   0.350  1.00  0.00     0.212 HD
ENDBRANCH  17  20
ENDBRANCH  16  17
ENDBRANCH  11  15
ENDBRANCH   7  10
ENDBRANCH   5   6
BRANCH   5  22
ATOM     22  C   UNL     1       0.073  -7.097  -5.687  1.00  0.00     0.047 C 
BRANCH  22  23
ATOM     23  C   UNL     1      -0.118  -8.200  -6.739  1.00  0.00     0.102 C 
BRANCH  23  24
ATOM     24  C   UNL     1       0.547  -9.532  -6.454  1.00  0.00     0.217 C 
ATOM     25  N   UNL     1       0.323 -10.075  -5.226  1.00  0.00    -0.370 N 
ATOM     26  O   UNL     1       1.222 -10.132  -7.284  1.00  0.00    -0.275 OA
ATOM     27  H   UNL     1      -0.219  -9.588  -4.565  1.00  0.00     0.159 HD
ATOM     28  H   UNL     1       0.704 -10.954  -5.000  1.00  0.00     0.159 HD
ENDBRANCH  23  24
ENDBRANCH  22  23
ENDBRANCH   5  22
ENDBRANCH   3   5
ENDBRANCH   2   3
ENDBRANCH   1   2
BRANCH   1  29
ATOM     29  C   UNL     1       5.287  -8.959  -4.734  1.00  0.00     0.275 C 
BRANCH  29  30
ATOM     30  O   UNL     1       5.335  -7.788  -3.918  1.00  0.00    -0.458 OA
BRANCH  30  31
ATOM     31  C   UNL     1       5.178  -6.636  -4.606  1.00  0.00     0.338 C 
ATOM     32  O   UNL     1       4.684  -6.494  -5.711  1.00  0.00    -0.246 OA
BRANCH  31  33
ATOM     33  C   UNL     1       5.922  -5.561  -3.962  1.00  0.00     0.060 A 
ATOM     34  C   UNL     1       5.828  -4.304  -4.570  1.00  0.00     0.016 A 
ATOM     35  C   UNL     1       6.942  -5.894  -3.066  1.00  0.00     0.016 A 
ATOM     36  C   UNL     1       6.877  -3.431  -4.427  1.00  0.00     0.010 A 
ATOM     37  C   UNL     1       7.999  -5.032  -2.943  1.00  0.00     0.010 A 
ATOM     38  C   UNL     1       7.980  -3.849  -3.683  1.00  0.00    -0.014 A 
BRANCH  38  39
ATOM     39  C   UNL     1       9.119  -2.966  -3.625  1.00  0.00     0.031 A 
ATOM     40  C   UNL     1       8.920  -1.828  -2.703  1.00  0.00     0.074 A 
ATOM     41  C   UNL     1      10.277  -3.285  -4.229  1.00  0.00     0.049 A 
ATOM     42  N   UNL     1       8.936  -0.565  -2.973  1.00  0.00    -0.248 NA
ATOM     43  C   UNL     1       8.484  -2.151  -1.333  1.00  0.00     0.031 C 
ATOM     44  C   UNL     1      10.617  -4.564  -4.864  1.00  0.00     0.029 A 
ATOM     45  N   UNL     1      11.454  -2.604  -4.237  1.00  0.00    -0.354 N 
ATOM     46  C   UNL     1       8.760   0.059  -1.741  1.00  0.00     0.074 A 
ATOM     47  C   UNL     1       8.261  -0.938  -0.835  1.00  0.00     0.031 C 
ATOM     48  C   UNL     1      11.961  -4.666  -4.942  1.00  0.00     0.029 A 
ATOM     49  C   UNL     1      12.550  -3.422  -4.479  1.00  0.00     0.049 A 
ATOM     50  H   UNL     1      11.522  -1.634  -4.086  1.00  0.00     0.167 HD
ATOM     51  C   UNL     1       9.337   1.258  -1.472  1.00  0.00     0.034 A 
ATOM     52  C   UNL     1      13.842  -3.131  -4.201  1.00  0.00     0.034 A 
ATOM     53  C   UNL     1       9.704   1.956  -2.676  1.00  0.00     0.049 A 
ATOM     54  C   UNL     1      13.943  -1.668  -3.997  1.00  0.00     0.074 A 
ATOM     55  C   UNL     1       9.030   2.405  -3.793  1.00  0.00     0.029 A 
ATOM     56  N   UNL     1      11.038   1.970  -2.996  1.00  0.00    -0.354 N 
ATOM     57  N   UNL     1      13.769  -0.782  -4.938  1.00  0.00    -0.248 NA
ATOM     58  C   UNL     1      13.875  -1.153  -2.638  1.00  0.00     0.031 C 
ATOM     59  C   UNL     1       9.959   2.282  -4.866  1.00  0.00     0.029 A 
ATOM     60  C   UNL     1      11.158   1.788  -4.346  1.00  0.00     0.049 A 
ATOM     61  H   UNL     1      11.781   2.090  -2.362  1.00  0.00     0.167 HD
ATOM     62  C   UNL     1      13.149   0.287  -4.304  1.00  0.00     0.074 A 
ATOM     63  C   UNL     1      13.378   0.062  -2.881  1.00  0.00     0.031 C 
ATOM     64  C   UNL     1      12.260   1.083  -4.971  1.00  0.00     0.034 A 
BRANCH  51  65
ATOM     65  C   UNL     1       9.942   1.612  -0.132  1.00  0.00     0.023 A 
ATOM     66  C   UNL     1      10.375   2.944   0.044  1.00  0.00     0.012 A 
ATOM     67  C   UNL     1      10.362   0.671   0.840  1.00  0.00     0.148 A 
ATOM     68  C   UNL     1      11.226   3.305   1.094  1.00  0.00     0.002 A 
ATOM     69  C   UNL     1      11.129   1.055   1.932  1.00  0.00     0.091 A 
ATOM     70  F   UNL     1      10.154  -0.635   0.657  1.00  0.00    -0.205 F 
ATOM     71  C   UNL     1      11.595   2.364   2.046  1.00  0.00     0.022 A 
BRANCH  69  72
ATOM     72  S   UNL     1      11.565  -0.125   3.216  1.00  0.00     0.127 S 
ATOM     73  O   UNL     1      12.928  -0.482   2.835  1.00  0.00    -0.237 OA
ATOM     74  O   UNL     1      11.449   0.687   4.427  1.00  0.00    -0.237 OA
ATOM     75  O   UNL     1      10.565  -1.182   3.116  1.00  0.00    -0.744 OA
ENDBRANCH  69  72
ENDBRANCH  51  65
BRANCH  52  76
ATOM     76  C   UNL     1      14.941  -4.058  -3.850  1.00  0.00     0.023 A 
ATOM     77  C   UNL     1      16.274  -3.671  -4.075  1.00  0.00     0.012 A 
ATOM     78  C   UNL     1      14.702  -5.226  -3.089  1.00  0.00     0.148 A 
ATOM     79  C   UNL     1      17.337  -4.413  -3.546  1.00  0.00     0.002 A 
ATOM     80  C   UNL     1      15.761  -5.972  -2.583  1.00  0.00     0.091 A 
ATOM     81  F   UNL     1      13.438  -5.556  -2.789  1.00  0.00    -0.205 F 
ATOM     82  C   UNL     1      17.082  -5.561  -2.800  1.00  0.00     0.022 A 
BRANCH  80  83
ATOM     83  S   UNL     1      15.508  -7.469  -1.618  1.00  0.00     0.127 S 
ATOM     84  O   UNL     1      16.422  -8.408  -2.272  1.00  0.00    -0.237 OA
ATOM     85  O   UNL     1      15.921  -7.043  -0.284  1.00  0.00    -0.237 OA
ATOM     86  O   UNL     1      14.098  -7.806  -1.768  1.00  0.00    -0.744 OA
ENDBRANCH  80  83
ENDBRANCH  52  76
BRANCH  64  87
ATOM     87  C   UNL     1      12.224   1.002  -6.477  1.00  0.00     0.023 A 
ATOM     88  C   UNL     1      11.861  -0.179  -7.155  1.00  0.00     0.012 A 
ATOM     89  C   UNL     1      12.383   2.188  -7.216  1.00  0.00     0.148 A 
ATOM     90  C   UNL     1      11.685  -0.184  -8.541  1.00  0.00     0.002 A 
ATOM     91  C   UNL     1      12.159   2.190  -8.588  1.00  0.00     0.091 A 
ATOM     92  F   UNL     1      12.722   3.307  -6.558  1.00  0.00    -0.205 F 
ATOM     93  C   UNL     1      11.820   1.003  -9.256  1.00  0.00     0.022 A 
BRANCH  91  94
ATOM     94  S   UNL     1      12.180   3.714  -9.536  1.00  0.00     0.127 S 
ATOM     95  O   UNL     1      13.495   3.663 -10.170  1.00  0.00    -0.237 OA
ATOM     96  O   UNL     1      11.052   3.536 -10.452  1.00  0.00    -0.237 OA
ATOM     97  O   UNL     1      11.989   4.786  -8.565  1.00  0.00    -0.744 OA
ENDBRANCH  91  94
ENDBRANCH  64  87
ENDBRANCH  38  39
ENDBRANCH  31  33
ENDBRANCH  30  31
ENDBRANCH  29  30
ENDBRANCH   1  29
TORSDOF 22
