REMARK SMILES O=CN1CC[NH+](C[C@@H](CC(=O)Nc2ccc(C(F)(F)F)nc2)C(=O)OCCOC(=O)c2ccc(-c3c4nc(c(-c5cccc(S(=O)(=O)[O-])c5F)c5ccc([nH]5)c(-c5cccc(S(=O)(=O)[O-])c5F)c5nc(c(-c6cccc(S(=O)(=O)[O-])c6F)c6ccc3[nH]6)C=C5)C=C4)cc2)CC1
REMARK SMILES IDX 26 1 25 2 23 3 24 4 8 5 7 6 6 7 1 8 2 9 3 10 4 11 95 12 5 13
REMARK SMILES IDX 94 14 9 16 10 17 11 18 12 19 13 21 14 22 22 23 15 24 21 25
REMARK SMILES IDX 16 26 17 27 18 28 19 29 20 30 27 31 28 32 29 33 30 34 31 35
REMARK SMILES IDX 32 36 93 37 33 38 92 39 34 40 35 41 36 42 86 43 37 44 91 45
REMARK SMILES IDX 85 46 87 47 38 48 90 49 84 50 83 51 39 53 71 54 51 55 70 56
REMARK SMILES IDX 52 57 55 58 69 59 88 60 53 61 54 62 68 64 89 65 56 66 40 67
REMARK SMILES IDX 41 68 49 69 42 70 44 71 50 72 43 73 45 74 46 75 47 76 48 77
REMARK SMILES IDX 72 78 73 79 81 80 74 81 76 82 82 83 75 84 77 85 78 86 79 87
REMARK SMILES IDX 80 88 57 89 58 90 66 91 59 92 61 93 67 94 60 95 62 96 63 97
REMARK SMILES IDX 64 98 65 99
REMARK H PARENT 6 15 12 20 87 52 55 63
REMARK Flexibility Score: inf
ROOT
ATOM      1  C   UNL     1       8.881  -2.937  -2.690  1.00  0.00     0.274 C 
ENDROOT
BRANCH   1   2
ATOM      2  O   UNL     1       7.883  -2.890  -1.645  1.00  0.00    -0.462 OA
BRANCH   2   3
ATOM      3  C   UNL     1       6.901  -1.964  -1.800  1.00  0.00     0.315 C 
ATOM      4  O   UNL     1       6.724  -1.302  -2.816  1.00  0.00    -0.252 OA
BRANCH   3   5
ATOM      5  C   UNL     1       6.004  -1.820  -0.573  1.00  0.00     0.163 C 
BRANCH   5   6
ATOM      6  C   UNL     1       5.062  -3.031  -0.471  1.00  0.00     0.278 C 
BRANCH   6   7
ATOM      7  N   UNL     1       3.922  -3.156   0.458  1.00  0.00    -0.331 N 
ATOM      8  O   UNL     1       0.230   0.035  -1.097  1.00  0.00    -0.279 OA
ATOM      9  C   UNL     1       1.093   0.021  -0.233  1.00  0.00     0.340 C 
ATOM     10  N   UNL     1       1.984  -1.003   0.006  1.00  0.00    -0.334 N 
ATOM     11  C   UNL     1       3.091  -0.808   0.929  1.00  0.00     0.180 C 
ATOM     12  C   UNL     1       2.026  -2.155  -0.898  1.00  0.00     0.180 C 
ATOM     13  C   UNL     1       3.659  -2.127   1.466  1.00  0.00     0.284 C 
ATOM     14  C   UNL     1       2.642  -3.415  -0.254  1.00  0.00     0.284 C 
ATOM     15  H   UNL     1       4.267  -3.947   1.001  1.00  0.00     0.348 HD
ENDBRANCH   6   7
ENDBRANCH   5   6
BRANCH   5  16
ATOM     16  C   UNL     1       6.798  -1.341   0.646  1.00  0.00     0.121 C 
BRANCH  16  17
ATOM     17  C   UNL     1       8.080  -2.044   1.052  1.00  0.00     0.225 C 
ATOM     18  O   UNL     1       9.172  -1.598   0.684  1.00  0.00    -0.275 OA
ATOM     19  N   UNL     1       8.089  -3.125   1.888  1.00  0.00    -0.325 N 
ATOM     20  H   UNL     1       8.927  -3.293   2.377  1.00  0.00     0.169 HD
BRANCH  19  21
ATOM     21  C   UNL     1       7.043  -4.018   2.126  1.00  0.00     0.059 A 
ATOM     22  C   UNL     1       6.946  -5.161   1.343  1.00  0.00     0.030 A 
ATOM     23  C   UNL     1       6.151  -3.867   3.178  1.00  0.00     0.137 A 
ATOM     24  C   UNL     1       5.873  -6.029   1.533  1.00  0.00     0.035 A 
ATOM     25  N   UNL     1       5.124  -4.719   3.420  1.00  0.00    -0.250 NA
ATOM     26  C   UNL     1       4.955  -5.767   2.554  1.00  0.00     0.144 A 
BRANCH  26  27
ATOM     27  C   UNL     1       3.746  -6.686   2.693  1.00  0.00     0.433 C 
ATOM     28  F   UNL     1       4.062  -7.864   3.310  1.00  0.00    -0.165 F 
ATOM     29  F   UNL     1       2.716  -6.155   3.412  1.00  0.00    -0.165 F 
ATOM     30  F   UNL     1       3.208  -7.044   1.489  1.00  0.00    -0.165 F 
ENDBRANCH  26  27
ENDBRANCH  19  21
ENDBRANCH  16  17
ENDBRANCH   5  16
ENDBRANCH   3   5
ENDBRANCH   2   3
ENDBRANCH   1   2
BRANCH   1  31
ATOM     31  C   UNL     1       8.762  -4.191  -3.557  1.00  0.00     0.275 C 
BRANCH  31  32
ATOM     32  O   UNL     1       7.578  -4.166  -4.371  1.00  0.00    -0.458 OA
BRANCH  32  33
ATOM     33  C   UNL     1       6.488  -4.705  -3.792  1.00  0.00     0.338 C 
ATOM     34  O   UNL     1       6.422  -5.227  -2.680  1.00  0.00    -0.246 OA
BRANCH  33  35
ATOM     35  C   UNL     1       5.304  -4.487  -4.626  1.00  0.00     0.060 A 
ATOM     36  C   UNL     1       4.357  -3.570  -4.175  1.00  0.00     0.016 A 
ATOM     37  C   UNL     1       5.051  -5.265  -5.754  1.00  0.00     0.016 A 
ATOM     38  C   UNL     1       3.102  -3.512  -4.760  1.00  0.00     0.010 A 
ATOM     39  C   UNL     1       3.819  -5.136  -6.404  1.00  0.00     0.010 A 
ATOM     40  C   UNL     1       2.820  -4.290  -5.887  1.00  0.00    -0.014 A 
BRANCH  40  41
ATOM     41  C   UNL     1       1.477  -4.206  -6.511  1.00  0.00     0.031 A 
ATOM     42  C   UNL     1       0.589  -5.417  -6.563  1.00  0.00     0.074 A 
ATOM     43  C   UNL     1       1.060  -3.034  -7.029  1.00  0.00     0.049 A 
ATOM     44  N   UNL     1      -0.565  -5.567  -7.158  1.00  0.00    -0.248 NA
ATOM     45  C   UNL     1       1.063  -6.622  -5.862  1.00  0.00     0.031 C 
ATOM     46  C   UNL     1       1.830  -1.788  -7.026  1.00  0.00     0.029 A 
ATOM     47  N   UNL     1      -0.106  -2.702  -7.670  1.00  0.00    -0.354 N 
ATOM     48  C   UNL     1      -0.926  -6.894  -6.959  1.00  0.00     0.074 A 
ATOM     49  C   UNL     1       0.129  -7.507  -6.182  1.00  0.00     0.031 C 
ATOM     50  C   UNL     1       1.119  -0.830  -7.637  1.00  0.00     0.029 A 
ATOM     51  C   UNL     1      -0.125  -1.407  -8.130  1.00  0.00     0.049 A 
ATOM     52  H   UNL     1      -0.856  -3.329  -7.789  1.00  0.00     0.167 HD
ATOM     53  C   UNL     1      -2.042  -7.538  -7.376  1.00  0.00     0.034 A 
ATOM     54  C   UNL     1      -1.024  -0.763  -8.899  1.00  0.00     0.034 A 
ATOM     55  C   UNL     1      -3.113  -6.904  -8.099  1.00  0.00     0.049 A 
ATOM     56  C   UNL     1      -2.257  -1.498  -9.340  1.00  0.00     0.074 A 
ATOM     57  C   UNL     1      -4.308  -7.457  -8.525  1.00  0.00     0.029 A 
ATOM     58  N   UNL     1      -3.121  -5.576  -8.498  1.00  0.00    -0.354 N 
ATOM     59  N   UNL     1      -2.619  -2.731  -9.078  1.00  0.00    -0.248 NA
ATOM     60  C   UNL     1      -3.217  -0.750 -10.162  1.00  0.00     0.031 C 
ATOM     61  C   UNL     1      -5.032  -6.465  -9.197  1.00  0.00     0.029 A 
ATOM     62  C   UNL     1      -4.295  -5.291  -9.174  1.00  0.00     0.049 A 
ATOM     63  H   UNL     1      -2.398  -4.931  -8.326  1.00  0.00     0.167 HD
ATOM     64  C   UNL     1      -3.857  -2.902  -9.684  1.00  0.00     0.074 A 
ATOM     65  C   UNL     1      -4.194  -1.636 -10.305  1.00  0.00     0.031 C 
ATOM     66  C   UNL     1      -4.634  -4.011  -9.742  1.00  0.00     0.034 A 
BRANCH  53  67
ATOM     67  C   UNL     1      -2.170  -9.000  -7.042  1.00  0.00     0.023 A 
ATOM     68  C   UNL     1      -2.469  -9.393  -5.722  1.00  0.00     0.012 A 
ATOM     69  C   UNL     1      -2.035  -9.983  -8.042  1.00  0.00     0.148 A 
ATOM     70  C   UNL     1      -2.599 -10.743  -5.396  1.00  0.00     0.002 A 
ATOM     71  C   UNL     1      -2.205 -11.325  -7.717  1.00  0.00     0.091 A 
ATOM     72  F   UNL     1      -1.724  -9.594  -9.286  1.00  0.00    -0.205 F 
ATOM     73  C   UNL     1      -2.477 -11.707  -6.394  1.00  0.00     0.022 A 
BRANCH  71  74
ATOM     74  S   UNL     1      -2.134 -12.630  -8.950  1.00  0.00     0.127 S 
ATOM     75  O   UNL     1      -0.817 -13.209  -8.691  1.00  0.00    -0.237 OA
ATOM     76  O   UNL     1      -3.260 -13.483  -8.567  1.00  0.00    -0.237 OA
ATOM     77  O   UNL     1      -2.290 -11.968 -10.238  1.00  0.00    -0.744 OA
ENDBRANCH  71  74
ENDBRANCH  53  67
BRANCH  54  78
ATOM     78  C   UNL     1      -0.782   0.656  -9.281  1.00  0.00     0.023 A 
ATOM     79  C   UNL     1      -1.584   1.671  -8.726  1.00  0.00     0.012 A 
ATOM     80  C   UNL     1       0.277   1.009 -10.141  1.00  0.00     0.148 A 
ATOM     81  C   UNL     1      -1.347   3.011  -9.037  1.00  0.00     0.002 A 
ATOM     82  C   UNL     1       0.544   2.349 -10.399  1.00  0.00     0.091 A 
ATOM     83  F   UNL     1       1.019   0.027 -10.674  1.00  0.00    -0.205 F 
ATOM     84  C   UNL     1      -0.276   3.351  -9.860  1.00  0.00     0.022 A 
BRANCH  82  85
ATOM     85  S   UNL     1       1.989   2.874 -11.329  1.00  0.00     0.127 S 
ATOM     86  O   UNL     1       1.396   3.272 -12.603  1.00  0.00    -0.237 OA
ATOM     87  O   UNL     1       2.493   3.980 -10.513  1.00  0.00    -0.237 OA
ATOM     88  O   UNL     1       2.869   1.714 -11.371  1.00  0.00    -0.744 OA
ENDBRANCH  82  85
ENDBRANCH  54  78
BRANCH  66  89
ATOM     89  C   UNL     1      -5.937  -3.904 -10.488  1.00  0.00     0.023 A 
ATOM     90  C   UNL     1      -5.929  -3.865 -11.897  1.00  0.00     0.012 A 
ATOM     91  C   UNL     1      -7.166  -3.913  -9.801  1.00  0.00     0.148 A 
ATOM     92  C   UNL     1      -7.126  -3.810 -12.610  1.00  0.00     0.002 A 
ATOM     93  C   UNL     1      -8.356  -3.903 -10.520  1.00  0.00     0.091 A 
ATOM     94  F   UNL     1      -7.151  -3.928  -8.460  1.00  0.00    -0.205 F 
ATOM     95  C   UNL     1      -8.337  -3.841 -11.923  1.00  0.00     0.022 A 
BRANCH  93  96
ATOM     96  S   UNL     1      -9.959  -4.034  -9.721  1.00  0.00     0.127 S 
ATOM     97  O   UNL     1     -10.450  -2.660  -9.811  1.00  0.00    -0.237 OA
ATOM     98  O   UNL     1     -10.660  -4.989 -10.580  1.00  0.00    -0.237 OA
ATOM     99  O   UNL     1      -9.694  -4.520  -8.374  1.00  0.00    -0.744 OA
ENDBRANCH  93  96
ENDBRANCH  66  89
ENDBRANCH  40  41
ENDBRANCH  33  35
ENDBRANCH  32  33
ENDBRANCH  31  32
ENDBRANCH   1  31
TORSDOF 20
