REMARK SMILES CC1(C)O[C@H]2C[C@H]3[C@@H]4CCC5=CC(=O)C=C[C@]5(C)[C@@]4(F)[C@H](O)C[C@@]3(C)[C@@]2(C(=O)OCCOC(=O)c2ccc(-c3c4nc(c(-c5cccc(S(=O)(=O)[O-])c5F)c5ccc([nH]5)c(-c5cccc(S(=O)(=O)[O-])c5F)c5nc(c(-c6cccc(S(=O)(=O)[O-])c6F)c6ccc3[nH]6)C=C5)C=C4)cc2)O1
REMARK SMILES IDX 31 1 30 2 29 3 27 4 28 5 26 6 1 7 2 8 3 9 4 10 98 11 5 12
REMARK SMILES IDX 6 13 24 14 7 15 23 16 25 17 8 18 21 19 9 20 19 21 10 22
REMARK SMILES IDX 17 23 20 24 11 25 16 26 18 27 12 28 15 29 13 30 14 31 22 32
REMARK SMILES IDX 32 34 33 35 34 36 35 37 36 38 97 39 37 40 96 41 38 42 39 43
REMARK SMILES IDX 40 44 90 45 41 46 95 47 89 48 91 49 42 50 94 51 88 52 87 53
REMARK SMILES IDX 43 55 75 56 55 57 74 58 56 59 59 60 73 61 92 62 57 63 58 64
REMARK SMILES IDX 72 66 93 67 60 68 44 69 45 70 53 71 46 72 48 73 54 74 47 75
REMARK SMILES IDX 49 76 50 77 51 78 52 79 76 80 77 81 85 82 78 83 80 84 86 85
REMARK SMILES IDX 79 86 81 87 82 88 83 89 84 90 61 91 62 92 70 93 63 94 65 95
REMARK SMILES IDX 71 96 64 97 66 98 67 99 68 100 69 101
REMARK H PARENT 22 33 91 54 59 65
REMARK Flexibility Score: inf
ROOT
ATOM      1  C   UNL     1       1.699   5.998  -3.747  1.00  0.00     0.275 C 
ENDROOT
BRANCH   1   2
ATOM      2  C   UNL     1       1.910   6.369  -2.286  1.00  0.00     0.274 C 
BRANCH   2   3
ATOM      3  O   UNL     1       1.703   5.215  -1.451  1.00  0.00    -0.460 OA
BRANCH   3   4
ATOM      4  C   UNL     1       0.524   5.133  -0.759  1.00  0.00     0.342 C 
ATOM      5  O   UNL     1      -0.364   5.969  -0.777  1.00  0.00    -0.249 OA
BRANCH   4   6
ATOM      6  C   UNL     1       0.546   3.895   0.140  1.00  0.00     0.200 C 
ATOM      7  C   UNL     1       0.657   0.411  -0.071  1.00  0.00     0.075 C 
ATOM      8  C   UNL     1       0.290   1.732  -0.785  1.00  0.00     0.165 C 
ATOM      9  C   UNL     1       0.296   1.393  -2.268  1.00  0.00     0.075 C 
ATOM     10  O   UNL     1      -1.002   2.158  -0.352  1.00  0.00    -0.344 OA
ATOM     11  O   UNL     1       1.247   2.794  -0.537  1.00  0.00    -0.329 OA
ATOM     12  C   UNL     1      -0.805   3.250   0.558  1.00  0.00     0.166 C 
ATOM     13  C   UNL     1      -0.595   2.711   2.050  1.00  0.00     0.040 C 
ATOM     14  C   UNL     1       1.180   4.271   1.549  1.00  0.00     0.016 C 
ATOM     15  C   UNL     1       0.921   2.912   2.230  1.00  0.00     0.008 C 
ATOM     16  C   UNL     1       2.641   4.716   1.597  1.00  0.00     0.046 C 
ATOM     17  C   UNL     1       0.377   5.441   2.203  1.00  0.00     0.015 C 
ATOM     18  C   UNL     1       2.031   2.044   2.855  1.00  0.00     0.035 C 
ATOM     19  C   UNL     1       3.660   3.599   1.683  1.00  0.00     0.154 C 
ATOM     20  C   UNL     1       1.677   1.191   4.057  1.00  0.00     0.012 C 
ATOM     21  C   UNL     1       3.431   2.690   2.941  1.00  0.00     0.152 C 
ATOM     22  C   UNL     1       2.619  -0.022   4.027  1.00  0.00     0.032 C 
ATOM     23  C   UNL     1       4.544   1.563   3.111  1.00  0.00     0.044 C 
ATOM     24  F   UNL     1       3.424   3.486   4.057  1.00  0.00    -0.239 F 
ATOM     25  C   UNL     1       4.081   0.370   3.993  1.00  0.00    -0.053 C 
ATOM     26  C   UNL     1       5.843   2.130   3.684  1.00  0.00    -0.009 C 
ATOM     27  C   UNL     1       4.923   0.969   1.718  1.00  0.00     0.024 C 
ATOM     28  C   UNL     1       4.966  -0.370   4.689  1.00  0.00     0.052 C 
ATOM     29  C   UNL     1       6.713   1.409   4.406  1.00  0.00     0.048 C 
ATOM     30  C   UNL     1       6.392   0.013   4.762  1.00  0.00     0.178 C 
ATOM     31  O   UNL     1       7.249  -0.765   5.161  1.00  0.00    -0.290 OA
BRANCH  19  32
ATOM     32  O   UNL     1       4.954   4.212   1.686  1.00  0.00    -0.390 OA
ATOM     33  H   UNL     1       5.029   4.805   2.450  1.00  0.00     0.211 HD
ENDBRANCH  19  32
ENDBRANCH   4   6
ENDBRANCH   3   4
ENDBRANCH   2   3
ENDBRANCH   1   2
BRANCH   1  34
ATOM     34  O   UNL     1       0.329   5.586  -3.910  1.00  0.00    -0.458 OA
BRANCH  34  35
ATOM     35  C   UNL     1       0.134   4.421  -4.544  1.00  0.00     0.338 C 
ATOM     36  O   UNL     1       0.978   3.731  -5.118  1.00  0.00    -0.246 OA
BRANCH  35  37
ATOM     37  C   UNL     1      -1.273   4.020  -4.405  1.00  0.00     0.060 A 
ATOM     38  C   UNL     1      -1.839   3.919  -3.128  1.00  0.00     0.016 A 
ATOM     39  C   UNL     1      -1.993   3.596  -5.522  1.00  0.00     0.016 A 
ATOM     40  C   UNL     1      -3.083   3.330  -2.952  1.00  0.00     0.010 A 
ATOM     41  C   UNL     1      -3.285   3.101  -5.348  1.00  0.00     0.010 A 
ATOM     42  C   UNL     1      -3.833   2.941  -4.063  1.00  0.00    -0.014 A 
BRANCH  42  43
ATOM     43  C   UNL     1      -5.180   2.346  -3.888  1.00  0.00     0.031 A 
ATOM     44  C   UNL     1      -5.451   0.959  -4.394  1.00  0.00     0.074 A 
ATOM     45  C   UNL     1      -6.160   3.062  -3.303  1.00  0.00     0.049 A 
ATOM     46  N   UNL     1      -6.595   0.356  -4.573  1.00  0.00    -0.248 NA
ATOM     47  C   UNL     1      -4.278   0.145  -4.758  1.00  0.00     0.031 C 
ATOM     48  C   UNL     1      -6.006   4.399  -2.722  1.00  0.00     0.029 A 
ATOM     49  N   UNL     1      -7.489   2.775  -3.121  1.00  0.00    -0.354 N 
ATOM     50  C   UNL     1      -6.289  -0.879  -5.132  1.00  0.00     0.074 A 
ATOM     51  C   UNL     1      -4.848  -0.947  -5.249  1.00  0.00     0.031 C 
ATOM     52  C   UNL     1      -7.191   4.817  -2.254  1.00  0.00     0.029 A 
ATOM     53  C   UNL     1      -8.202   3.818  -2.575  1.00  0.00     0.049 A 
ATOM     54  H   UNL     1      -7.892   1.909  -3.357  1.00  0.00     0.167 HD
ATOM     55  C   UNL     1      -7.136  -1.866  -5.505  1.00  0.00     0.034 A 
ATOM     56  C   UNL     1      -9.528   3.975  -2.404  1.00  0.00     0.034 A 
ATOM     57  C   UNL     1      -8.563  -1.805  -5.331  1.00  0.00     0.049 A 
ATOM     58  C   UNL     1     -10.448   2.874  -2.852  1.00  0.00     0.074 A 
ATOM     59  C   UNL     1      -9.516  -2.741  -5.689  1.00  0.00     0.029 A 
ATOM     60  N   UNL     1      -9.239  -0.754  -4.729  1.00  0.00    -0.354 N 
ATOM     61  N   UNL     1     -10.147   1.712  -3.379  1.00  0.00    -0.248 NA
ATOM     62  C   UNL     1     -11.888   3.101  -2.675  1.00  0.00     0.031 C 
ATOM     63  C   UNL     1     -10.770  -2.257  -5.298  1.00  0.00     0.029 A 
ATOM     64  C   UNL     1     -10.595  -1.024  -4.690  1.00  0.00     0.049 A 
ATOM     65  H   UNL     1      -8.815   0.063  -4.379  1.00  0.00     0.167 HD
ATOM     66  C   UNL     1     -11.357   1.058  -3.574  1.00  0.00     0.074 A 
ATOM     67  C   UNL     1     -12.393   1.944  -3.082  1.00  0.00     0.031 C 
ATOM     68  C   UNL     1     -11.596  -0.153  -4.133  1.00  0.00     0.034 A 
BRANCH  55  69
ATOM     69  C   UNL     1      -6.543  -3.108  -6.112  1.00  0.00     0.023 A 
ATOM     70  C   UNL     1      -5.911  -4.053  -5.280  1.00  0.00     0.012 A 
ATOM     71  C   UNL     1      -6.662  -3.370  -7.492  1.00  0.00     0.148 A 
ATOM     72  C   UNL     1      -5.387  -5.230  -5.814  1.00  0.00     0.002 A 
ATOM     73  C   UNL     1      -6.168  -4.561  -8.011  1.00  0.00     0.091 A 
ATOM     74  F   UNL     1      -7.244  -2.446  -8.270  1.00  0.00    -0.205 F 
ATOM     75  C   UNL     1      -5.525  -5.489  -7.175  1.00  0.00     0.022 A 
BRANCH  73  76
ATOM     76  S   UNL     1      -6.354  -5.016  -9.739  1.00  0.00     0.127 S 
ATOM     77  O   UNL     1      -4.985  -4.872 -10.231  1.00  0.00    -0.237 OA
ATOM     78  O   UNL     1      -6.827  -6.397  -9.647  1.00  0.00    -0.237 OA
ATOM     79  O   UNL     1      -7.321  -4.081 -10.298  1.00  0.00    -0.744 OA
ENDBRANCH  73  76
ENDBRANCH  55  69
BRANCH  56  80
ATOM     80  C   UNL     1     -10.061   5.220  -1.781  1.00  0.00     0.023 A 
ATOM     81  C   UNL     1     -10.663   5.152  -0.510  1.00  0.00     0.012 A 
ATOM     82  C   UNL     1      -9.950   6.471  -2.419  1.00  0.00     0.148 A 
ATOM     83  C   UNL     1     -11.168   6.300   0.101  1.00  0.00     0.002 A 
ATOM     84  C   UNL     1     -10.400   7.620  -1.778  1.00  0.00     0.091 A 
ATOM     85  F   UNL     1      -9.401   6.521  -3.641  1.00  0.00    -0.205 F 
ATOM     86  C   UNL     1     -11.025   7.536  -0.526  1.00  0.00     0.022 A 
BRANCH  84  87
ATOM     87  S   UNL     1     -10.109   9.254  -2.467  1.00  0.00     0.127 S 
ATOM     88  O   UNL     1     -11.367   9.519  -3.159  1.00  0.00    -0.237 OA
ATOM     89  O   UNL     1      -9.882  10.064  -1.270  1.00  0.00    -0.237 OA
ATOM     90  O   UNL     1      -8.929   9.101  -3.309  1.00  0.00    -0.744 OA
ENDBRANCH  84  87
ENDBRANCH  56  80
BRANCH  68  91
ATOM     91  C   UNL     1     -13.028  -0.605  -4.208  1.00  0.00     0.023 A 
ATOM     92  C   UNL     1     -13.883  -0.045  -5.178  1.00  0.00     0.012 A 
ATOM     93  C   UNL     1     -13.507  -1.625  -3.364  1.00  0.00     0.148 A 
ATOM     94  C   UNL     1     -15.203  -0.477  -5.289  1.00  0.00     0.002 A 
ATOM     95  C   UNL     1     -14.812  -2.078  -3.508  1.00  0.00     0.091 A 
ATOM     96  F   UNL     1     -12.682  -2.125  -2.433  1.00  0.00    -0.205 F 
ATOM     97  C   UNL     1     -15.664  -1.500  -4.463  1.00  0.00     0.022 A 
BRANCH  95  98
ATOM     98  S   UNL     1     -15.458  -3.448  -2.543  1.00  0.00     0.127 S 
ATOM     99  O   UNL     1     -16.279  -2.754  -1.552  1.00  0.00    -0.237 OA
ATOM    100  O   UNL     1     -16.215  -4.205  -3.540  1.00  0.00    -0.237 OA
ATOM    101  O   UNL     1     -14.293  -4.147  -2.017  1.00  0.00    -0.744 OA
ENDBRANCH  95  98
ENDBRANCH  68  91
ENDBRANCH  42  43
ENDBRANCH  35  37
ENDBRANCH  34  35
ENDBRANCH   1  34
TORSDOF 15
