REMARK SMILES CC(C)C[C@H](NC(=O)CNC(=O)[C@@H]([NH3+])C(C)C)C(=O)OCCOC(=O)c1ccc(-c2c3nc(c(-c4cccc(S(=O)(=O)[O-])c4F)c4ccc([nH]4)c(-c4cccc(S(=O)(=O)[O-])c4F)c4nc(c(-c5cccc(S(=O)(=O)[O-])c5F)c5ccc2[nH]5)C=C4)C=C3)cc1
REMARK SMILES IDX 21 1 20 2 18 3 19 4 5 5 4 6 2 7 1 8 3 9 6 10 7 11 8 13 9 14
REMARK SMILES IDX 10 15 11 16 12 18 13 19 14 20 15 24 16 25 17 26 22 27 23 28
REMARK SMILES IDX 24 29 25 30 26 31 27 32 88 33 28 34 87 35 29 36 30 37 31 38
REMARK SMILES IDX 81 39 32 40 86 41 80 42 82 43 33 44 85 45 79 46 78 47 34 49
REMARK SMILES IDX 66 50 46 51 65 52 47 53 50 54 64 55 83 56 48 57 49 58 63 60
REMARK SMILES IDX 84 61 51 62 35 63 36 64 44 65 37 66 39 67 45 68 38 69 40 70
REMARK SMILES IDX 41 71 42 72 43 73 67 74 68 75 76 76 69 77 71 78 77 79 70 80
REMARK SMILES IDX 72 81 73 82 74 83 75 84 52 85 53 86 61 87 54 88 56 89 62 90
REMARK SMILES IDX 55 91 57 92 58 93 59 94 60 95
REMARK H PARENT 6 12 10 17 14 21 14 22 14 23 82 48 50 59
REMARK Flexibility Score: inf
ROOT
ATOM      1  C   UNL     1      -5.272   1.628   0.937  1.00  0.00     0.274 C 
ENDROOT
BRANCH   1   2
ATOM      2  O   UNL     1      -3.842   1.694   1.111  1.00  0.00    -0.461 OA
BRANCH   2   3
ATOM      3  C   UNL     1      -3.306   0.642   1.792  1.00  0.00     0.328 C 
ATOM      4  O   UNL     1      -3.968  -0.283   2.250  1.00  0.00    -0.250 OA
BRANCH   3   5
ATOM      5  C   UNL     1      -1.794   0.785   2.040  1.00  0.00     0.192 C 
BRANCH   5   6
ATOM      6  C   UNL     1      -1.537   1.297   3.470  1.00  0.00     0.040 C 
BRANCH   6   7
ATOM      7  C   UNL     1      -2.188   0.522   4.638  1.00  0.00    -0.015 C 
ATOM      8  C   UNL     1      -1.960  -0.988   4.612  1.00  0.00     0.007 C 
ATOM      9  C   UNL     1      -1.663   1.071   5.969  1.00  0.00     0.007 C 
ENDBRANCH   6   7
ENDBRANCH   5   6
BRANCH   5  10
ATOM     10  N   UNL     1      -1.139   1.683   1.077  1.00  0.00    -0.341 N 
ATOM     11  C   UNL     1       0.101   1.588   0.508  1.00  0.00     0.240 C 
ATOM     12  H   UNL     1      -1.670   2.465   0.802  1.00  0.00     0.164 HD
ATOM     13  O   UNL     1       0.476   2.502  -0.232  1.00  0.00    -0.273 OA
BRANCH  11  14
ATOM     14  C   UNL     1       1.005   0.375   0.790  1.00  0.00     0.216 C 
BRANCH  14  15
ATOM     15  N   UNL     1       1.459   0.374   2.172  1.00  0.00    -0.342 N 
ATOM     16  C   UNL     1       1.581  -0.628   3.083  1.00  0.00     0.278 C 
ATOM     17  H   UNL     1       1.728   1.260   2.508  1.00  0.00     0.164 HD
ATOM     18  O   UNL     1       1.918  -0.296   4.226  1.00  0.00    -0.268 OA
BRANCH  16  19
ATOM     19  C   UNL     1       1.363  -2.126   2.741  1.00  0.00     0.273 C 
BRANCH  19  20
ATOM     20  N   UNL     1       0.099  -2.327   2.007  1.00  0.00    -0.347 N 
ATOM     21  H   UNL     1       0.139  -1.828   1.118  1.00  0.00     0.345 HD
ATOM     22  H   UNL     1      -0.677  -1.970   2.563  1.00  0.00     0.345 HD
ATOM     23  H   UNL     1      -0.038  -3.323   1.833  1.00  0.00     0.345 HD
ENDBRANCH  19  20
BRANCH  19  24
ATOM     24  C   UNL     1       2.592  -2.733   2.025  1.00  0.00     0.051 C 
ATOM     25  C   UNL     1       3.779  -2.803   2.998  1.00  0.00     0.014 C 
ATOM     26  C   UNL     1       2.324  -4.147   1.489  1.00  0.00     0.014 C 
ENDBRANCH  19  24
ENDBRANCH  16  19
ENDBRANCH  14  15
ENDBRANCH  11  14
ENDBRANCH   5  10
ENDBRANCH   3   5
ENDBRANCH   2   3
ENDBRANCH   1   2
BRANCH   1  27
ATOM     27  C   UNL     1      -5.684   1.045  -0.421  1.00  0.00     0.275 C 
BRANCH  27  28
ATOM     28  O   UNL     1      -5.249  -0.314  -0.610  1.00  0.00    -0.458 OA
BRANCH  28  29
ATOM     29  C   UNL     1      -4.017  -0.439  -1.161  1.00  0.00     0.338 C 
ATOM     30  O   UNL     1      -3.275   0.471  -1.493  1.00  0.00    -0.246 OA
BRANCH  29  31
ATOM     31  C   UNL     1      -3.595  -1.852  -1.185  1.00  0.00     0.060 A 
ATOM     32  C   UNL     1      -2.335  -2.150  -0.659  1.00  0.00     0.016 A 
ATOM     33  C   UNL     1      -4.362  -2.853  -1.784  1.00  0.00     0.016 A 
ATOM     34  C   UNL     1      -1.835  -3.448  -0.731  1.00  0.00     0.010 A 
ATOM     35  C   UNL     1      -3.856  -4.159  -1.858  1.00  0.00     0.010 A 
ATOM     36  C   UNL     1      -2.586  -4.461  -1.337  1.00  0.00    -0.014 A 
BRANCH  36  37
ATOM     37  C   UNL     1      -2.001  -5.818  -1.458  1.00  0.00     0.031 A 
ATOM     38  C   UNL     1      -1.387  -6.256  -2.757  1.00  0.00     0.074 A 
ATOM     39  C   UNL     1      -1.987  -6.644  -0.395  1.00  0.00     0.049 A 
ATOM     40  N   UNL     1      -0.850  -7.407  -3.067  1.00  0.00    -0.248 NA
ATOM     41  C   UNL     1      -1.365  -5.266  -3.845  1.00  0.00     0.031 C 
ATOM     42  C   UNL     1      -2.523  -6.323   0.928  1.00  0.00     0.029 A 
ATOM     43  N   UNL     1      -1.516  -7.927  -0.265  1.00  0.00    -0.354 N 
ATOM     44  C   UNL     1      -0.455  -7.295  -4.394  1.00  0.00     0.074 A 
ATOM     45  C   UNL     1      -0.806  -5.959  -4.829  1.00  0.00     0.031 C 
ATOM     46  C   UNL     1      -2.371  -7.390   1.730  1.00  0.00     0.029 A 
ATOM     47  C   UNL     1      -1.758  -8.478   0.972  1.00  0.00     0.049 A 
ATOM     48  H   UNL     1      -1.050  -8.406  -0.987  1.00  0.00     0.167 HD
ATOM     49  C   UNL     1       0.155  -8.216  -5.176  1.00  0.00     0.034 A 
ATOM     50  C   UNL     1      -1.536  -9.726   1.431  1.00  0.00     0.034 A 
ATOM     51  C   UNL     1       0.532  -9.534  -4.739  1.00  0.00     0.049 A 
ATOM     52  C   UNL     1      -0.891 -10.743   0.525  1.00  0.00     0.074 A 
ATOM     53  C   UNL     1       1.179 -10.524  -5.458  1.00  0.00     0.029 A 
ATOM     54  N   UNL     1       0.292 -10.049  -3.476  1.00  0.00    -0.354 N 
ATOM     55  N   UNL     1      -0.436 -10.590  -0.696  1.00  0.00    -0.248 NA
ATOM     56  C   UNL     1      -0.710 -12.099   1.066  1.00  0.00     0.031 C 
ATOM     57  C   UNL     1       1.319 -11.644  -4.632  1.00  0.00     0.029 A 
ATOM     58  C   UNL     1       0.768 -11.347  -3.396  1.00  0.00     0.049 A 
ATOM     59  H   UNL     1      -0.152  -9.564  -2.744  1.00  0.00     0.167 HD
ATOM     60  C   UNL     1       0.104 -11.819  -1.058  1.00  0.00     0.074 A 
ATOM     61  C   UNL     1      -0.054 -12.699   0.081  1.00  0.00     0.031 C 
ATOM     62  C   UNL     1       0.659 -12.194  -2.237  1.00  0.00     0.034 A 
BRANCH  49  63
ATOM     63  C   UNL     1       0.482  -7.825  -6.590  1.00  0.00     0.023 A 
ATOM     64  C   UNL     1       1.607  -7.015  -6.842  1.00  0.00     0.012 A 
ATOM     65  C   UNL     1      -0.278  -8.315  -7.669  1.00  0.00     0.148 A 
ATOM     66  C   UNL     1       1.961  -6.684  -8.149  1.00  0.00     0.002 A 
ATOM     67  C   UNL     1       0.100  -8.007  -8.970  1.00  0.00     0.091 A 
ATOM     68  F   UNL     1      -1.359  -9.062  -7.402  1.00  0.00    -0.205 F 
ATOM     69  C   UNL     1       1.215  -7.188  -9.212  1.00  0.00     0.022 A 
BRANCH  67  70
ATOM     70  S   UNL     1      -0.762  -8.661 -10.404  1.00  0.00     0.127 S 
ATOM     71  O   UNL     1      -1.478  -7.479 -10.882  1.00  0.00    -0.237 OA
ATOM     72  O   UNL     1       0.343  -9.092 -11.261  1.00  0.00    -0.237 OA
ATOM     73  O   UNL     1      -1.600  -9.743  -9.908  1.00  0.00    -0.744 OA
ENDBRANCH  67  70
ENDBRANCH  49  63
BRANCH  50  74
ATOM     74  C   UNL     1      -1.912 -10.086   2.827  1.00  0.00     0.023 A 
ATOM     75  C   UNL     1      -0.903 -10.362   3.770  1.00  0.00     0.012 A 
ATOM     76  C   UNL     1      -3.260 -10.148   3.228  1.00  0.00     0.148 A 
ATOM     77  C   UNL     1      -1.231 -10.717   5.079  1.00  0.00     0.002 A 
ATOM     78  C   UNL     1      -3.578 -10.447   4.548  1.00  0.00     0.091 A 
ATOM     79  F   UNL     1      -4.210  -9.916   2.311  1.00  0.00    -0.205 F 
ATOM     80  C   UNL     1      -2.567 -10.746   5.472  1.00  0.00     0.022 A 
BRANCH  78  81
ATOM     81  S   UNL     1      -5.269 -10.367   5.152  1.00  0.00     0.127 S 
ATOM     82  O   UNL     1      -5.661 -11.773   5.133  1.00  0.00    -0.237 OA
ATOM     83  O   UNL     1      -5.095  -9.793   6.487  1.00  0.00    -0.237 OA
ATOM     84  O   UNL     1      -5.964  -9.492   4.217  1.00  0.00    -0.744 OA
ENDBRANCH  78  81
ENDBRANCH  50  74
BRANCH  62  85
ATOM     85  C   UNL     1       1.156 -13.610  -2.359  1.00  0.00     0.023 A 
ATOM     86  C   UNL     1       0.227 -14.659  -2.514  1.00  0.00     0.012 A 
ATOM     87  C   UNL     1       2.534 -13.895  -2.401  1.00  0.00     0.148 A 
ATOM     88  C   UNL     1       0.663 -15.972  -2.684  1.00  0.00     0.002 A 
ATOM     89  C   UNL     1       2.962 -15.202  -2.613  1.00  0.00     0.091 A 
ATOM     90  F   UNL     1       3.403 -12.888  -2.230  1.00  0.00    -0.205 F 
ATOM     91  C   UNL     1       2.028 -16.242  -2.746  1.00  0.00     0.022 A 
BRANCH  89  92
ATOM     92  S   UNL     1       4.700 -15.621  -2.793  1.00  0.00     0.127 S 
ATOM     93  O   UNL     1       5.010 -16.181  -1.480  1.00  0.00    -0.237 OA
ATOM     94  O   UNL     1       4.678 -16.598  -3.883  1.00  0.00    -0.237 OA
ATOM     95  O   UNL     1       5.375 -14.372  -3.122  1.00  0.00    -0.744 OA
ENDBRANCH  89  92
ENDBRANCH  62  85
ENDBRANCH  36  37
ENDBRANCH  29  31
ENDBRANCH  28  29
ENDBRANCH  27  28
ENDBRANCH   1  27
TORSDOF 22
