REMARK SMILES COc1ccc(/C=N/NC(=O)c2cc(C)nc3ccccc23)c(C(=O)OCCOC(=O)c2ccc(-c3c4nc(c(-c5cccc(S(=O)(=O)[O-])c5F)c5ccc([nH]5)c(-c5cccc(S(=O)(=O)[O-])c5F)c5nc(c(-c6cccc(S(=O)(=O)[O-])c6F)c6ccc3[nH]6)C=C5)C=C4)cc2)c1OC
REMARK SMILES IDX 27 1 26 2 24 3 25 4 23 5 3 6 4 7 95 8 5 9 6 10 2 11 1 12
REMARK SMILES IDX 96 13 97 14 7 15 8 16 9 17 10 18 11 20 12 21 13 22 22 23
REMARK SMILES IDX 14 24 17 25 21 26 15 27 16 28 18 29 20 30 19 31 28 32 29 33
REMARK SMILES IDX 30 34 31 35 32 36 33 37 94 38 34 39 93 40 35 41 36 42 37 43
REMARK SMILES IDX 87 44 38 45 92 46 86 47 88 48 39 49 91 50 85 51 84 52 40 54
REMARK SMILES IDX 72 55 52 56 71 57 53 58 56 59 70 60 89 61 54 62 55 63 69 65
REMARK SMILES IDX 90 66 57 67 41 68 42 69 50 70 43 71 45 72 51 73 44 74 46 75
REMARK SMILES IDX 47 76 48 77 49 78 73 79 74 80 82 81 75 82 77 83 83 84 76 85
REMARK SMILES IDX 78 86 79 87 80 88 81 89 58 90 59 91 67 92 60 93 62 94 68 95
REMARK SMILES IDX 61 96 63 97 64 98 65 99 66 100
REMARK H PARENT 9 19 88 53 56 64
REMARK Flexibility Score: inf
ROOT
ATOM      1  C   UNL     1       6.329   1.932   3.058  1.00  0.00     0.275 C 
ENDROOT
BRANCH   1   2
ATOM      2  O   UNL     1       4.943   1.859   2.694  1.00  0.00    -0.458 OA
BRANCH   2   3
ATOM      3  C   UNL     1       4.027   2.180   3.658  1.00  0.00     0.342 C 
ATOM      4  O   UNL     1       4.376   2.451   4.762  1.00  0.00    -0.246 OA
BRANCH   3   5
ATOM      5  C   UNL     1       2.571   2.224   3.124  1.00  0.00     0.114 A 
ATOM      6  C   UNL     1       0.935   1.814   1.306  1.00  0.00     0.161 A 
ATOM      7  C   UNL     1       0.037   2.672   1.961  1.00  0.00     0.051 A 
ATOM      8  C   UNL     1       2.230   1.662   1.858  1.00  0.00     0.175 A 
ATOM      9  C   UNL     1       0.375   3.273   3.189  1.00  0.00     0.015 A 
ATOM     10  C   UNL     1       1.589   2.945   3.837  1.00  0.00     0.013 A 
BRANCH   6  11
ATOM     11  O   UNL     1       0.533   1.433   0.044  1.00  0.00    -0.493 OA
ATOM     12  C   UNL     1       0.335   0.041  -0.216  1.00  0.00     0.278 C 
ENDBRANCH   6  11
BRANCH   8  13
ATOM     13  O   UNL     1       3.313   1.112   1.250  1.00  0.00    -0.492 OA
ATOM     14  C   UNL     1       3.191   0.109   0.299  1.00  0.00     0.278 C 
ENDBRANCH   8  13
BRANCH  10  15
ATOM     15  C   UNL     1       1.932   3.486   5.183  1.00  0.00     0.142 C 
ATOM     16  N   UNL     1       1.273   4.393   5.808  1.00  0.00    -0.180 NA
BRANCH  16  17
ATOM     17  N   UNL     1       1.893   4.918   6.984  1.00  0.00    -0.243 N 
ATOM     18  C   UNL     1       3.230   5.462   7.211  1.00  0.00     0.272 C 
ATOM     19  H   UNL     1       1.318   4.911   7.783  1.00  0.00     0.194 HD
ATOM     20  O   UNL     1       3.647   6.470   6.662  1.00  0.00    -0.267 OA
BRANCH  18  21
ATOM     21  C   UNL     1       4.245   5.411   8.345  1.00  0.00     0.052 A 
ATOM     22  C   UNL     1       5.324   4.752   7.700  1.00  0.00     0.038 A 
ATOM     23  C   UNL     1       4.604   6.563   9.542  1.00  0.00     0.013 A 
ATOM     24  C   UNL     1       6.519   5.383   7.850  1.00  0.00     0.039 A 
ATOM     25  C   UNL     1       5.954   6.678   9.466  1.00  0.00     0.071 A 
ATOM     26  C   UNL     1       4.378   7.682  10.644  1.00  0.00     0.011 A 
ATOM     27  C   UNL     1       7.870   4.833   8.085  1.00  0.00     0.067 C 
ATOM     28  N   UNL     1       6.500   6.601   8.307  1.00  0.00    -0.253 NA
ATOM     29  C   UNL     1       6.929   7.013  10.408  1.00  0.00     0.029 A 
ATOM     30  C   UNL     1       5.380   8.149  11.624  1.00  0.00     0.001 A 
ATOM     31  C   UNL     1       6.658   7.656  11.572  1.00  0.00     0.002 A 
ENDBRANCH  18  21
ENDBRANCH  16  17
ENDBRANCH  10  15
ENDBRANCH   3   5
ENDBRANCH   2   3
ENDBRANCH   1   2
BRANCH   1  32
ATOM     32  C   UNL     1       6.946   3.309   2.754  1.00  0.00     0.275 C 
BRANCH  32  33
ATOM     33  O   UNL     1       6.365   4.415   3.501  1.00  0.00    -0.458 OA
BRANCH  33  34
ATOM     34  C   UNL     1       5.272   4.965   2.902  1.00  0.00     0.338 C 
ATOM     35  O   UNL     1       4.798   4.558   1.845  1.00  0.00    -0.246 OA
BRANCH  34  36
ATOM     36  C   UNL     1       4.528   6.008   3.670  1.00  0.00     0.060 A 
ATOM     37  C   UNL     1       3.142   5.833   3.690  1.00  0.00     0.016 A 
ATOM     38  C   UNL     1       5.016   7.172   4.242  1.00  0.00     0.016 A 
ATOM     39  C   UNL     1       2.225   6.697   4.332  1.00  0.00     0.010 A 
ATOM     40  C   UNL     1       4.102   8.064   4.909  1.00  0.00     0.010 A 
ATOM     41  C   UNL     1       2.696   7.770   5.087  1.00  0.00    -0.014 A 
BRANCH  41  42
ATOM     42  C   UNL     1       1.743   8.506   6.108  1.00  0.00     0.031 A 
ATOM     43  C   UNL     1       1.312   9.803   5.528  1.00  0.00     0.074 A 
ATOM     44  C   UNL     1       1.196   8.205   7.359  1.00  0.00     0.049 A 
ATOM     45  N   UNL     1       0.483  10.663   6.031  1.00  0.00    -0.248 NA
ATOM     46  C   UNL     1       1.917  10.201   4.241  1.00  0.00     0.031 C 
ATOM     47  C   UNL     1       1.472   7.131   8.288  1.00  0.00     0.029 A 
ATOM     48  N   UNL     1       0.169   8.768   8.129  1.00  0.00    -0.354 N 
ATOM     49  C   UNL     1       0.494  11.714   5.149  1.00  0.00     0.074 A 
ATOM     50  C   UNL     1       1.414  11.409   4.082  1.00  0.00     0.031 C 
ATOM     51  C   UNL     1       0.504   6.797   9.122  1.00  0.00     0.029 A 
ATOM     52  C   UNL     1      -0.191   8.010   9.254  1.00  0.00     0.049 A 
ATOM     53  H   UNL     1      -0.263   9.622   7.899  1.00  0.00     0.167 HD
ATOM     54  C   UNL     1      -0.215  12.846   5.248  1.00  0.00     0.034 A 
ATOM     55  C   UNL     1      -0.824   8.186  10.424  1.00  0.00     0.034 A 
ATOM     56  C   UNL     1      -1.080  13.150   6.341  1.00  0.00     0.049 A 
ATOM     57  C   UNL     1      -1.463   9.486  10.552  1.00  0.00     0.074 A 
ATOM     58  C   UNL     1      -1.834  14.292   6.494  1.00  0.00     0.029 A 
ATOM     59  N   UNL     1      -1.260  12.380   7.478  1.00  0.00    -0.354 N 
ATOM     60  N   UNL     1      -1.466  10.429   9.658  1.00  0.00    -0.248 NA
ATOM     61  C   UNL     1      -2.215   9.738  11.772  1.00  0.00     0.031 C 
ATOM     62  C   UNL     1      -2.407  14.259   7.754  1.00  0.00     0.029 A 
ATOM     63  C   UNL     1      -2.096  13.051   8.350  1.00  0.00     0.049 A 
ATOM     64  H   UNL     1      -0.857  11.497   7.639  1.00  0.00     0.167 HD
ATOM     65  C   UNL     1      -2.272  11.396  10.180  1.00  0.00     0.074 A 
ATOM     66  C   UNL     1      -2.757  10.902  11.459  1.00  0.00     0.031 C 
ATOM     67  C   UNL     1      -2.567  12.582   9.617  1.00  0.00     0.034 A 
BRANCH  54  68
ATOM     68  C   UNL     1      -0.004  13.871   4.192  1.00  0.00     0.023 A 
ATOM     69  C   UNL     1      -0.384  13.633   2.860  1.00  0.00     0.012 A 
ATOM     70  C   UNL     1       0.562  15.101   4.562  1.00  0.00     0.148 A 
ATOM     71  C   UNL     1      -0.150  14.604   1.893  1.00  0.00     0.002 A 
ATOM     72  C   UNL     1       0.725  16.087   3.613  1.00  0.00     0.091 A 
ATOM     73  F   UNL     1       0.913  15.283   5.843  1.00  0.00    -0.205 F 
ATOM     74  C   UNL     1       0.381  15.838   2.274  1.00  0.00     0.022 A 
BRANCH  72  75
ATOM     75  S   UNL     1       1.404  17.687   4.040  1.00  0.00     0.127 S 
ATOM     76  O   UNL     1       2.613  17.715   3.218  1.00  0.00    -0.237 OA
ATOM     77  O   UNL     1       0.344  18.595   3.606  1.00  0.00    -0.237 OA
ATOM     78  O   UNL     1       1.643  17.664   5.477  1.00  0.00    -0.744 OA
ENDBRANCH  72  75
ENDBRANCH  54  68
BRANCH  55  79
ATOM     79  C   UNL     1      -0.842   7.166  11.531  1.00  0.00     0.023 A 
ATOM     80  C   UNL     1      -2.068   6.595  11.902  1.00  0.00     0.012 A 
ATOM     81  C   UNL     1       0.330   6.761  12.218  1.00  0.00     0.148 A 
ATOM     82  C   UNL     1      -2.149   5.746  13.007  1.00  0.00     0.002 A 
ATOM     83  C   UNL     1       0.257   5.854  13.269  1.00  0.00     0.091 A 
ATOM     84  F   UNL     1       1.509   7.241  11.802  1.00  0.00    -0.205 F 
ATOM     85  C   UNL     1      -0.990   5.370  13.687  1.00  0.00     0.022 A 
BRANCH  83  86
ATOM     86  S   UNL     1       1.713   5.304  14.177  1.00  0.00     0.127 S 
ATOM     87  O   UNL     1       1.442   5.835  15.511  1.00  0.00    -0.237 OA
ATOM     88  O   UNL     1       1.619   3.849  14.062  1.00  0.00    -0.237 OA
ATOM     89  O   UNL     1       2.856   5.894  13.495  1.00  0.00    -0.744 OA
ENDBRANCH  83  86
ENDBRANCH  55  79
BRANCH  67  90
ATOM     90  C   UNL     1      -3.527  13.420  10.377  1.00  0.00     0.023 A 
ATOM     91  C   UNL     1      -3.204  13.860  11.671  1.00  0.00     0.012 A 
ATOM     92  C   UNL     1      -4.774  13.720   9.807  1.00  0.00     0.148 A 
ATOM     93  C   UNL     1      -4.171  14.482  12.444  1.00  0.00     0.002 A 
ATOM     94  C   UNL     1      -5.697  14.426  10.546  1.00  0.00     0.091 A 
ATOM     95  F   UNL     1      -5.034  13.302   8.560  1.00  0.00    -0.205 F 
ATOM     96  C   UNL     1      -5.410  14.782  11.876  1.00  0.00     0.022 A 
BRANCH  94  97
ATOM     97  S   UNL     1      -7.301  14.853   9.878  1.00  0.00     0.127 S 
ATOM     98  O   UNL     1      -8.193  14.122  10.777  1.00  0.00    -0.237 OA
ATOM     99  O   UNL     1      -7.322  16.305  10.038  1.00  0.00    -0.237 OA
ATOM    100  O   UNL     1      -7.312  14.388   8.497  1.00  0.00    -0.744 OA
ENDBRANCH  94  97
ENDBRANCH  67  90
ENDBRANCH  41  42
ENDBRANCH  34  36
ENDBRANCH  33  34
ENDBRANCH  32  33
ENDBRANCH   1  32
TORSDOF 19
