REMARK SMILES CN1C(=O)C[C@@H](C(=O)OCCOC(=O)c2ccc(-c3c4nc(c(-c5cccc(S(=O)(=O)[O-])c5F)c5ccc([nH]5)c(-c5cccc(S(=O)(=O)[O-])c5F)c5nc(c(-c6cccc(S(=O)(=O)[O-])c6F)c6ccc3[nH]6)C=C5)C=C4)cc2)C12CC[NH+](CCSc1ccccc1)CC2
REMARK SMILES IDX 10 1 9 2 7 3 8 4 6 5 1 6 2 7 3 8 78 9 4 10 5 11 79 12 92 13
REMARK SMILES IDX 80 14 91 15 81 16 82 18 83 19 84 20 85 21 86 22 90 23 87 24
REMARK SMILES IDX 89 25 88 26 11 27 12 28 13 29 14 30 15 31 16 32 77 33 17 34
REMARK SMILES IDX 76 35 18 36 19 37 20 38 70 39 21 40 75 41 69 42 71 43 22 44
REMARK SMILES IDX 74 45 68 46 67 47 23 49 55 50 35 51 54 52 36 53 39 54 53 55
REMARK SMILES IDX 72 56 37 57 38 58 52 60 73 61 40 62 24 63 25 64 33 65 26 66
REMARK SMILES IDX 28 67 34 68 27 69 29 70 30 71 31 72 32 73 56 74 57 75 65 76
REMARK SMILES IDX 58 77 60 78 66 79 59 80 61 81 62 82 63 83 64 84 41 85 42 86
REMARK SMILES IDX 50 87 43 88 45 89 51 90 44 91 46 92 47 93 48 94 49 95
REMARK H PARENT 81 17 71 48 39 59
REMARK Flexibility Score: inf
ROOT
ATOM      1  C   UNL     1      -3.543  -1.685   4.371  1.00  0.00     0.274 C 
ENDROOT
BRANCH   1   2
ATOM      2  O   UNL     1      -2.485  -1.232   3.500  1.00  0.00    -0.462 OA
BRANCH   2   3
ATOM      3  C   UNL     1      -1.943  -0.053   3.852  1.00  0.00     0.311 C 
ATOM      4  O   UNL     1      -2.412   0.680   4.723  1.00  0.00    -0.252 OA
BRANCH   3   5
ATOM      5  C   UNL     1      -0.662   0.337   3.165  1.00  0.00     0.134 C 
ATOM      6  C   UNL     1       0.282  -0.287  -0.447  1.00  0.00     0.147 C 
ATOM      7  N   UNL     1      -0.216   0.130   0.855  1.00  0.00    -0.339 N 
ATOM      8  C   UNL     1      -0.791   1.386   1.004  1.00  0.00     0.223 C 
ATOM      9  C   UNL     1       0.197  -0.477   2.144  1.00  0.00     0.067 C 
ATOM     10  O   UNL     1      -1.086   2.158   0.114  1.00  0.00    -0.275 OA
ATOM     11  C   UNL     1      -0.903   1.690   2.470  1.00  0.00     0.118 C 
ATOM     12  C   UNL     1       0.144  -2.038   2.107  1.00  0.00     0.091 C 
ATOM     13  C   UNL     1       1.640  -0.030   2.457  1.00  0.00     0.091 C 
ATOM     14  C   UNL     1       1.399  -2.863   2.552  1.00  0.00     0.264 C 
ATOM     15  C   UNL     1       2.203  -0.869   3.589  1.00  0.00     0.264 C 
ATOM     16  N   UNL     1       2.565  -2.143   3.052  1.00  0.00    -0.334 N 
ATOM     17  H   UNL     1       2.877  -2.724   3.830  1.00  0.00     0.348 HD
BRANCH  16  18
ATOM     18  C   UNL     1       3.839  -2.220   2.321  1.00  0.00     0.273 C 
BRANCH  18  19
ATOM     19  C   UNL     1       4.661  -0.960   1.855  1.00  0.00     0.136 C 
BRANCH  19  20
ATOM     20  S   UNL     1       5.598   0.067   3.086  1.00  0.00    -0.120 SA
BRANCH  20  21
ATOM     21  C   UNL     1       4.528   1.461   3.473  1.00  0.00     0.007 A 
ATOM     22  C   UNL     1       4.143   2.431   2.542  1.00  0.00     0.015 A 
ATOM     23  C   UNL     1       4.080   1.598   4.799  1.00  0.00     0.015 A 
ATOM     24  C   UNL     1       3.269   3.468   2.916  1.00  0.00     0.001 A 
ATOM     25  C   UNL     1       3.180   2.606   5.161  1.00  0.00     0.001 A 
ATOM     26  C   UNL     1       2.768   3.539   4.216  1.00  0.00     0.000 A 
ENDBRANCH  20  21
ENDBRANCH  19  20
ENDBRANCH  18  19
ENDBRANCH  16  18
ENDBRANCH   3   5
ENDBRANCH   2   3
ENDBRANCH   1   2
BRANCH   1  27
ATOM     27  C   UNL     1      -3.031  -2.709   5.394  1.00  0.00     0.275 C 
BRANCH  27  28
ATOM     28  O   UNL     1      -2.179  -2.129   6.410  1.00  0.00    -0.458 OA
BRANCH  28  29
ATOM     29  C   UNL     1      -0.864  -2.153   6.099  1.00  0.00     0.338 C 
ATOM     30  O   UNL     1      -0.391  -2.539   5.043  1.00  0.00    -0.246 OA
BRANCH  29  31
ATOM     31  C   UNL     1       0.017  -1.636   7.154  1.00  0.00     0.060 A 
ATOM     32  C   UNL     1       0.514  -0.339   7.034  1.00  0.00     0.016 A 
ATOM     33  C   UNL     1       0.575  -2.520   8.081  1.00  0.00     0.016 A 
ATOM     34  C   UNL     1       1.605   0.055   7.812  1.00  0.00     0.010 A 
ATOM     35  C   UNL     1       1.627  -2.093   8.906  1.00  0.00     0.010 A 
ATOM     36  C   UNL     1       2.172  -0.806   8.770  1.00  0.00    -0.014 A 
BRANCH  36  37
ATOM     37  C   UNL     1       3.298  -0.336   9.637  1.00  0.00     0.031 A 
ATOM     38  C   UNL     1       4.627  -1.052   9.674  1.00  0.00     0.074 A 
ATOM     39  C   UNL     1       3.125   0.753  10.415  1.00  0.00     0.049 A 
ATOM     40  N   UNL     1       5.646  -0.860  10.476  1.00  0.00    -0.248 NA
ATOM     41  C   UNL     1       4.842  -2.124   8.689  1.00  0.00     0.031 C 
ATOM     42  C   UNL     1       1.901   1.553  10.484  1.00  0.00     0.029 A 
ATOM     43  N   UNL     1       3.974   1.377  11.298  1.00  0.00    -0.354 N 
ATOM     44  C   UNL     1       6.593  -1.822  10.141  1.00  0.00     0.074 A 
ATOM     45  C   UNL     1       6.034  -2.589   9.046  1.00  0.00     0.031 C 
ATOM     46  C   UNL     1       2.088   2.579  11.324  1.00  0.00     0.029 A 
ATOM     47  C   UNL     1       3.409   2.461  11.932  1.00  0.00     0.049 A 
ATOM     48  H   UNL     1       4.898   1.078  11.462  1.00  0.00     0.167 HD
ATOM     49  C   UNL     1       7.815  -2.045  10.688  1.00  0.00     0.034 A 
ATOM     50  C   UNL     1       3.869   3.251  12.922  1.00  0.00     0.034 A 
ATOM     51  C   UNL     1       8.403  -1.242  11.732  1.00  0.00     0.049 A 
ATOM     52  C   UNL     1       5.226   2.984  13.506  1.00  0.00     0.074 A 
ATOM     53  C   UNL     1       9.644  -1.387  12.334  1.00  0.00     0.029 A 
ATOM     54  N   UNL     1       7.808  -0.137  12.320  1.00  0.00    -0.354 N 
ATOM     55  N   UNL     1       6.109   2.080  13.161  1.00  0.00    -0.248 NA
ATOM     56  C   UNL     1       5.652   3.850  14.615  1.00  0.00     0.031 C 
ATOM     57  C   UNL     1       9.793  -0.375  13.290  1.00  0.00     0.029 A 
ATOM     58  C   UNL     1       8.653   0.411  13.272  1.00  0.00     0.049 A 
ATOM     59  H   UNL     1       6.914   0.209  12.094  1.00  0.00     0.167 HD
ATOM     60  C   UNL     1       7.201   2.278  13.997  1.00  0.00     0.074 A 
ATOM     61  C   UNL     1       6.882   3.410  14.843  1.00  0.00     0.031 C 
ATOM     62  C   UNL     1       8.353   1.568  14.075  1.00  0.00     0.034 A 
BRANCH  49  63
ATOM     63  C   UNL     1       8.633  -3.197  10.157  1.00  0.00     0.023 A 
ATOM     64  C   UNL     1       9.280  -3.081   8.911  1.00  0.00     0.012 A 
ATOM     65  C   UNL     1       8.840  -4.356  10.935  1.00  0.00     0.148 A 
ATOM     66  C   UNL     1      10.098  -4.108   8.436  1.00  0.00     0.002 A 
ATOM     67  C   UNL     1       9.687  -5.358  10.473  1.00  0.00     0.091 A 
ATOM     68  F   UNL     1       8.206  -4.457  12.112  1.00  0.00    -0.205 F 
ATOM     69  C   UNL     1      10.310  -5.239   9.220  1.00  0.00     0.022 A 
BRANCH  67  70
ATOM     70  S   UNL     1      10.084  -6.816  11.447  1.00  0.00     0.127 S 
ATOM     71  O   UNL     1       9.318  -7.851  10.755  1.00  0.00    -0.237 OA
ATOM     72  O   UNL     1      11.534  -6.918  11.278  1.00  0.00    -0.237 OA
ATOM     73  O   UNL     1       9.653  -6.518  12.806  1.00  0.00    -0.744 OA
ENDBRANCH  67  70
ENDBRANCH  49  63
BRANCH  50  74
ATOM     74  C   UNL     1       3.029   4.378  13.420  1.00  0.00     0.023 A 
ATOM     75  C   UNL     1       3.437   5.704  13.185  1.00  0.00     0.012 A 
ATOM     76  C   UNL     1       1.806   4.142  14.078  1.00  0.00     0.148 A 
ATOM     77  C   UNL     1       2.649   6.775  13.610  1.00  0.00     0.002 A 
ATOM     78  C   UNL     1       0.992   5.211  14.432  1.00  0.00     0.091 A 
ATOM     79  F   UNL     1       1.448   2.874  14.324  1.00  0.00    -0.205 F 
ATOM     80  C   UNL     1       1.419   6.529  14.216  1.00  0.00     0.022 A 
BRANCH  78  81
ATOM     81  S   UNL     1      -0.674   4.963  15.055  1.00  0.00     0.127 S 
ATOM     82  O   UNL     1      -0.498   5.187  16.486  1.00  0.00    -0.237 OA
ATOM     83  O   UNL     1      -1.424   6.007  14.354  1.00  0.00    -0.237 OA
ATOM     84  O   UNL     1      -1.034   3.607  14.657  1.00  0.00    -0.744 OA
ENDBRANCH  78  81
ENDBRANCH  50  74
BRANCH  62  85
ATOM     85  C   UNL     1       9.370   2.011  15.093  1.00  0.00     0.023 A 
ATOM     86  C   UNL     1       9.141   1.763  16.462  1.00  0.00     0.012 A 
ATOM     87  C   UNL     1      10.568   2.635  14.695  1.00  0.00     0.148 A 
ATOM     88  C   UNL     1      10.071   2.162  17.421  1.00  0.00     0.002 A 
ATOM     89  C   UNL     1      11.511   2.992  15.654  1.00  0.00     0.091 A 
ATOM     90  F   UNL     1      10.759   2.884  13.392  1.00  0.00    -0.205 F 
ATOM     91  C   UNL     1      11.259   2.767  17.017  1.00  0.00     0.022 A 
BRANCH  89  92
ATOM     92  S   UNL     1      13.102   3.702  15.217  1.00  0.00     0.127 S 
ATOM     93  O   UNL     1      12.910   5.107  15.572  1.00  0.00    -0.237 OA
ATOM     94  O   UNL     1      14.021   2.973  16.093  1.00  0.00    -0.237 OA
ATOM     95  O   UNL     1      13.283   3.431  13.798  1.00  0.00    -0.744 OA
ENDBRANCH  89  92
ENDBRANCH  62  85
ENDBRANCH  36  37
ENDBRANCH  29  31
ENDBRANCH  28  29
ENDBRANCH  27  28
ENDBRANCH   1  27
TORSDOF 18
