REMARK SMILES C=CCc1cccc(-c2ccc([C@@H](C)C(=O)OCCOC(=O)c3ccc(-c4c5nc(c(-c6cccc(S(=O)(=O)[O-])c6F)c6ccc([nH]6)c(-c6cccc(S(=O)(=O)[O-])c6F)c6nc(c(-c7cccc(S(=O)(=O)[O-])c7F)c7ccc4[nH]7)C=C6)C=C5)cc3)cc2)c1
REMARK SMILES IDX 18 1 17 2 15 3 16 4 13 5 14 6 12 7 9 8 10 9 87 10 11 11
REMARK SMILES IDX 86 12 8 13 4 14 5 15 88 16 6 17 7 18 3 19 2 20 1 21 19 22
REMARK SMILES IDX 20 23 21 24 22 25 23 26 24 27 85 28 25 29 84 30 26 31 27 32
REMARK SMILES IDX 28 33 78 34 29 35 83 36 77 37 79 38 30 39 82 40 76 41 75 42
REMARK SMILES IDX 31 44 63 45 43 46 62 47 44 48 47 49 61 50 80 51 45 52 46 53
REMARK SMILES IDX 60 55 81 56 48 57 32 58 33 59 41 60 34 61 36 62 42 63 35 64
REMARK SMILES IDX 37 65 38 66 39 67 40 68 64 69 65 70 73 71 66 72 68 73 74 74
REMARK SMILES IDX 67 75 69 76 70 77 71 78 72 79 49 80 50 81 58 82 51 83 53 84
REMARK SMILES IDX 59 85 52 86 54 87 55 88 56 89 57 90
REMARK H PARENT 79 43 47 54
REMARK Flexibility Score: inf
ROOT
ATOM      1  C   UNL     1      -2.666  -7.145  -8.380  1.00  0.00     0.274 C 
ENDROOT
BRANCH   1   2
ATOM      2  O   UNL     1      -3.421  -5.947  -8.116  1.00  0.00    -0.462 OA
BRANCH   2   3
ATOM      3  C   UNL     1      -4.774  -6.074  -8.079  1.00  0.00     0.313 C 
ATOM      4  O   UNL     1      -5.375  -7.112  -8.341  1.00  0.00    -0.252 OA
BRANCH   3   5
ATOM      5  C   UNL     1      -5.507  -4.780  -7.749  1.00  0.00     0.126 C 
ATOM      6  C   UNL     1      -6.011  -4.132  -9.037  1.00  0.00     0.025 C 
BRANCH   5   7
ATOM      7  C   UNL     1      -4.763  -3.798  -6.855  1.00  0.00    -0.034 A 
ATOM      8  C   UNL     1      -3.419  -1.970  -5.142  1.00  0.00    -0.018 A 
ATOM      9  C   UNL     1      -2.991  -2.176  -6.462  1.00  0.00     0.009 A 
ATOM     10  C   UNL     1      -4.527  -2.697  -4.692  1.00  0.00     0.009 A 
ATOM     11  C   UNL     1      -3.652  -3.075  -7.307  1.00  0.00     0.005 A 
ATOM     12  C   UNL     1      -5.193  -3.592  -5.535  1.00  0.00     0.005 A 
BRANCH   8  13
ATOM     13  C   UNL     1      -2.741  -1.002  -4.265  1.00  0.00    -0.018 A 
ATOM     14  C   UNL     1      -1.603  -0.456  -2.164  1.00  0.00    -0.044 A 
ATOM     15  C   UNL     1      -1.486   0.876  -2.584  1.00  0.00     0.004 A 
ATOM     16  C   UNL     1      -2.230  -1.384  -3.012  1.00  0.00     0.012 A 
ATOM     17  C   UNL     1      -1.982   1.271  -3.824  1.00  0.00     0.001 A 
ATOM     18  C   UNL     1      -2.604   0.340  -4.656  1.00  0.00     0.009 A 
BRANCH  14  19
ATOM     19  C   UNL     1      -1.066  -0.879  -0.816  1.00  0.00     0.062 C 
BRANCH  19  20
ATOM     20  C   UNL     1       0.437  -0.861  -0.765  1.00  0.00    -0.030 C 
ATOM     21  C   UNL     1       1.157  -0.093   0.064  1.00  0.00     0.004 C 
ENDBRANCH  19  20
ENDBRANCH  14  19
ENDBRANCH   8  13
ENDBRANCH   5   7
ENDBRANCH   3   5
ENDBRANCH   2   3
ENDBRANCH   1   2
BRANCH   1  22
ATOM     22  C   UNL     1      -2.061  -7.712  -7.095  1.00  0.00     0.275 C 
BRANCH  22  23
ATOM     23  O   UNL     1      -3.084  -8.224  -6.224  1.00  0.00    -0.458 OA
BRANCH  23  24
ATOM     24  C   UNL     1      -3.465  -7.385  -5.234  1.00  0.00     0.338 C 
ATOM     25  O   UNL     1      -3.004  -6.289  -4.972  1.00  0.00    -0.246 OA
BRANCH  24  26
ATOM     26  C   UNL     1      -4.629  -7.948  -4.537  1.00  0.00     0.060 A 
ATOM     27  C   UNL     1      -5.864  -7.318  -4.702  1.00  0.00     0.016 A 
ATOM     28  C   UNL     1      -4.486  -9.017  -3.653  1.00  0.00     0.016 A 
ATOM     29  C   UNL     1      -6.963  -7.731  -3.954  1.00  0.00     0.010 A 
ATOM     30  C   UNL     1      -5.594  -9.442  -2.915  1.00  0.00     0.010 A 
ATOM     31  C   UNL     1      -6.831  -8.785  -3.042  1.00  0.00    -0.014 A 
BRANCH  31  32
ATOM     32  C   UNL     1      -7.978  -9.161  -2.183  1.00  0.00     0.031 A 
ATOM     33  C   UNL     1      -7.965  -8.814  -0.722  1.00  0.00     0.074 A 
ATOM     34  C   UNL     1      -9.023  -9.822  -2.713  1.00  0.00     0.049 A 
ATOM     35  N   UNL     1      -8.850  -9.091   0.200  1.00  0.00    -0.248 NA
ATOM     36  C   UNL     1      -6.798  -8.063  -0.231  1.00  0.00     0.031 C 
ATOM     37  C   UNL     1      -9.141 -10.224  -4.115  1.00  0.00     0.029 A 
ATOM     38  N   UNL     1     -10.171 -10.293  -2.129  1.00  0.00    -0.354 N 
ATOM     39  C   UNL     1      -8.331  -8.589   1.387  1.00  0.00     0.074 A 
ATOM     40  C   UNL     1      -7.051  -7.991   1.069  1.00  0.00     0.031 C 
ATOM     41  C   UNL     1     -10.289 -10.900  -4.279  1.00  0.00     0.029 A 
ATOM     42  C   UNL     1     -10.972 -11.002  -2.992  1.00  0.00     0.049 A 
ATOM     43  H   UNL     1     -10.399 -10.139  -1.184  1.00  0.00     0.167 HD
ATOM     44  C   UNL     1      -8.877  -8.610   2.625  1.00  0.00     0.034 A 
ATOM     45  C   UNL     1     -12.118 -11.675  -2.767  1.00  0.00     0.034 A 
ATOM     46  C   UNL     1     -10.168  -9.164   2.930  1.00  0.00     0.049 A 
ATOM     47  C   UNL     1     -12.717 -11.662  -1.387  1.00  0.00     0.074 A 
ATOM     48  C   UNL     1     -10.839  -9.172   4.140  1.00  0.00     0.029 A 
ATOM     49  N   UNL     1     -10.985  -9.815   2.017  1.00  0.00    -0.354 N 
ATOM     50  N   UNL     1     -12.276 -11.072  -0.302  1.00  0.00    -0.248 NA
ATOM     51  C   UNL     1     -13.987 -12.380  -1.206  1.00  0.00     0.031 C 
ATOM     52  C   UNL     1     -12.057  -9.837   3.961  1.00  0.00     0.029 A 
ATOM     53  C   UNL     1     -12.149 -10.236   2.637  1.00  0.00     0.049 A 
ATOM     54  H   UNL     1     -10.768  -9.956   1.067  1.00  0.00     0.167 HD
ATOM     55  C   UNL     1     -13.222 -11.327   0.684  1.00  0.00     0.074 A 
ATOM     56  C   UNL     1     -14.274 -12.105   0.061  1.00  0.00     0.031 C 
ATOM     57  C   UNL     1     -13.211 -10.966   1.991  1.00  0.00     0.034 A 
BRANCH  44  58
ATOM     58  C   UNL     1      -8.087  -7.979   3.740  1.00  0.00     0.023 A 
ATOM     59  C   UNL     1      -8.017  -6.575   3.834  1.00  0.00     0.012 A 
ATOM     60  C   UNL     1      -7.443  -8.770   4.711  1.00  0.00     0.148 A 
ATOM     61  C   UNL     1      -7.292  -5.967   4.858  1.00  0.00     0.002 A 
ATOM     62  C   UNL     1      -6.752  -8.156   5.750  1.00  0.00     0.091 A 
ATOM     63  F   UNL     1      -7.494 -10.104   4.590  1.00  0.00    -0.205 F 
ATOM     64  C   UNL     1      -6.668  -6.756   5.820  1.00  0.00     0.022 A 
BRANCH  62  65
ATOM     65  S   UNL     1      -5.976  -9.102   7.065  1.00  0.00     0.127 S 
ATOM     66  O   UNL     1      -4.584  -9.143   6.621  1.00  0.00    -0.237 OA
ATOM     67  O   UNL     1      -6.214  -8.264   8.241  1.00  0.00    -0.237 OA
ATOM     68  O   UNL     1      -6.674 -10.380   7.090  1.00  0.00    -0.744 OA
ENDBRANCH  62  65
ENDBRANCH  44  58
BRANCH  45  69
ATOM     69  C   UNL     1     -12.790 -12.371  -3.899  1.00  0.00     0.023 A 
ATOM     70  C   UNL     1     -13.979 -11.840  -4.430  1.00  0.00     0.012 A 
ATOM     71  C   UNL     1     -12.219 -13.514  -4.493  1.00  0.00     0.148 A 
ATOM     72  C   UNL     1     -14.597 -12.441  -5.527  1.00  0.00     0.002 A 
ATOM     73  C   UNL     1     -12.810 -14.076  -5.618  1.00  0.00     0.091 A 
ATOM     74  F   UNL     1     -11.095 -14.014  -3.959  1.00  0.00    -0.205 F 
ATOM     75  C   UNL     1     -14.007 -13.550  -6.129  1.00  0.00     0.022 A 
BRANCH  73  76
ATOM     76  S   UNL     1     -12.047 -15.419  -6.536  1.00  0.00     0.127 S 
ATOM     77  O   UNL     1     -12.922 -16.542  -6.207  1.00  0.00    -0.237 OA
ATOM     78  O   UNL     1     -12.152 -14.941  -7.916  1.00  0.00    -0.237 OA
ATOM     79  O   UNL     1     -10.682 -15.511  -6.036  1.00  0.00    -0.744 OA
ENDBRANCH  73  76
ENDBRANCH  45  69
BRANCH  57  80
ATOM     80  C   UNL     1     -14.375 -11.398   2.843  1.00  0.00     0.023 A 
ATOM     81  C   UNL     1     -14.468 -12.741   3.258  1.00  0.00     0.012 A 
ATOM     82  C   UNL     1     -15.329 -10.466   3.295  1.00  0.00     0.148 A 
ATOM     83  C   UNL     1     -15.507 -13.155   4.092  1.00  0.00     0.002 A 
ATOM     84  C   UNL     1     -16.339 -10.878   4.159  1.00  0.00     0.091 A 
ATOM     85  F   UNL     1     -15.239  -9.197   2.871  1.00  0.00    -0.205 F 
ATOM     86  C   UNL     1     -16.434 -12.223   4.551  1.00  0.00     0.022 A 
BRANCH  84  87
ATOM     87  S   UNL     1     -17.518  -9.720   4.864  1.00  0.00     0.127 S 
ATOM     88  O   UNL     1     -18.687  -9.925   4.012  1.00  0.00    -0.237 OA
ATOM     89  O   UNL     1     -17.668 -10.214   6.234  1.00  0.00    -0.237 OA
ATOM     90  O   UNL     1     -16.887  -8.410   4.768  1.00  0.00    -0.744 OA
ENDBRANCH  84  87
ENDBRANCH  57  80
ENDBRANCH  31  32
ENDBRANCH  24  26
ENDBRANCH  23  24
ENDBRANCH  22  23
ENDBRANCH   1  22
TORSDOF 18
