REMARK SMILES Cn1c(SCC(=O)Nc2cccc(C(=O)OCCOC(=O)c3ccc(-c4c5nc(c(-c6cccc(S(=O)(=O)[O-])c6F)c6ccc([nH]6)c(-c6cccc(S(=O)(=O)[O-])c6F)c6nc(c(-c7cccc(S(=O)(=O)[O-])c7F)c7ccc4[nH]7)C=C6)C=C5)cc3)c2)nnc1[C@@H]1CCCN1C(=O)c1ccccc1Cl
REMARK SMILES IDX 14 1 15 2 13 3 9 4 10 5 85 6 11 7 12 8 8 9 6 10 7 11 5 13
REMARK SMILES IDX 4 14 3 15 1 16 2 17 88 18 86 19 87 20 89 21 90 22 93 23
REMARK SMILES IDX 91 24 92 25 94 26 95 27 96 28 97 29 101 30 98 31 100 32
REMARK SMILES IDX 102 33 99 34 16 35 17 36 18 37 19 38 20 39 21 40 22 41 23 42
REMARK SMILES IDX 84 43 24 44 83 45 25 46 26 47 27 48 77 49 28 50 82 51 76 52
REMARK SMILES IDX 78 53 29 54 81 55 75 56 74 57 30 59 62 60 42 61 61 62 43 63
REMARK SMILES IDX 46 64 60 65 79 66 44 67 45 68 59 70 80 71 47 72 31 73 32 74
REMARK SMILES IDX 40 75 33 76 35 77 41 78 34 79 36 80 37 81 38 82 39 83 63 84
REMARK SMILES IDX 64 85 72 86 65 87 67 88 73 89 66 90 68 91 69 92 70 93 71 94
REMARK SMILES IDX 48 95 49 96 57 97 50 98 52 99 58 100 51 101 53 102 54 103
REMARK SMILES IDX 55 104 56 105
REMARK H PARENT 8 12 78 58 46 69
REMARK Flexibility Score: inf
ROOT
ATOM      1  C   UNL     1      -1.137   5.243   1.089  1.00  0.00     0.338 C 
ATOM      2  O   UNL     1      -1.323   6.271   0.449  1.00  0.00    -0.246 OA
ENDROOT
BRANCH   1   3
ATOM      3  C   UNL     1      -0.092   5.146   2.141  1.00  0.00     0.062 A 
ATOM      4  C   UNL     1       1.671   3.882   3.145  1.00  0.00     0.042 A 
ATOM      5  C   UNL     1       2.117   4.995   3.852  1.00  0.00     0.026 A 
ATOM      6  C   UNL     1       0.475   3.918   2.447  1.00  0.00     0.041 A 
ATOM      7  C   UNL     1       1.475   6.213   3.660  1.00  0.00     0.003 A 
ATOM      8  C   UNL     1       0.429   6.302   2.739  1.00  0.00     0.016 A 
BRANCH   4   9
ATOM      9  N   UNL     1       2.541   2.804   2.990  1.00  0.00    -0.325 N 
ATOM     10  C   UNL     1       3.068   2.383   1.796  1.00  0.00     0.234 C 
ATOM     11  O   UNL     1       4.004   1.574   1.855  1.00  0.00    -0.274 OA
ATOM     12  H   UNL     1       2.797   2.306   3.801  1.00  0.00     0.169 HD
BRANCH  10  13
ATOM     13  C   UNL     1       2.702   3.009   0.460  1.00  0.00     0.178 C 
BRANCH  13  14
ATOM     14  S   UNL     1       1.175   2.600  -0.364  1.00  0.00    -0.076 SA
BRANCH  14  15
ATOM     15  C   UNL     1       0.522   1.089   0.143  1.00  0.00     0.191 A 
ATOM     16  C   UNL     1       2.549  -0.390   0.391  1.00  0.00     0.154 C 
ATOM     17  N   UNL     1       1.155  -0.122   0.190  1.00  0.00    -0.307 N 
ATOM     18  C   UNL     1       0.160  -1.062   0.036  1.00  0.00     0.156 A 
ATOM     19  N   UNL     1      -0.777   0.890   0.209  1.00  0.00    -0.123 NA
ATOM     20  N   UNL     1      -1.006  -0.459   0.157  1.00  0.00    -0.132 NA
BRANCH  18  21
ATOM     21  C   UNL     1       0.328  -2.505  -0.274  1.00  0.00     0.154 C 
ATOM     22  C   UNL     1       0.986  -3.293   0.866  1.00  0.00     0.035 C 
ATOM     23  N   UNL     1       1.145  -2.810  -1.457  1.00  0.00    -0.328 N 
ATOM     24  C   UNL     1       1.601  -4.496   0.167  1.00  0.00     0.024 C 
ATOM     25  C   UNL     1       1.955  -3.995  -1.225  1.00  0.00     0.120 C 
BRANCH  23  26
ATOM     26  C   UNL     1       1.025  -2.357  -2.768  1.00  0.00     0.255 C 
ATOM     27  O   UNL     1       1.442  -2.997  -3.733  1.00  0.00    -0.269 OA
BRANCH  26  28
ATOM     28  C   UNL     1       0.497  -1.013  -3.055  1.00  0.00     0.058 A 
ATOM     29  C   UNL     1      -0.860  -0.840  -3.344  1.00  0.00     0.015 A 
ATOM     30  C   UNL     1       1.382   0.068  -3.181  1.00  0.00     0.053 A 
ATOM     31  C   UNL     1      -1.341   0.433  -3.669  1.00  0.00     0.001 A 
ATOM     32  C   UNL     1       0.891   1.337  -3.498  1.00  0.00     0.021 A 
ATOM     33  Cl  UNL     1       3.089  -0.095  -2.959  1.00  0.00    -0.083 Cl
ATOM     34  C   UNL     1      -0.472   1.524  -3.721  1.00  0.00     0.002 A 
ENDBRANCH  26  28
ENDBRANCH  23  26
ENDBRANCH  18  21
ENDBRANCH  14  15
ENDBRANCH  13  14
ENDBRANCH  10  13
ENDBRANCH   4   9
ENDBRANCH   1   3
BRANCH   1  35
ATOM     35  O   UNL     1      -1.836   4.091   0.987  1.00  0.00    -0.458 OA
BRANCH  35  36
ATOM     36  C   UNL     1      -2.930   4.072   0.049  1.00  0.00     0.275 C 
BRANCH  36  37
ATOM     37  C   UNL     1      -4.262   3.952   0.788  1.00  0.00     0.275 C 
BRANCH  37  38
ATOM     38  O   UNL     1      -4.465   5.106   1.624  1.00  0.00    -0.458 OA
BRANCH  38  39
ATOM     39  C   UNL     1      -4.153   4.924   2.928  1.00  0.00     0.338 C 
ATOM     40  O   UNL     1      -3.838   3.886   3.484  1.00  0.00    -0.246 OA
BRANCH  39  41
ATOM     41  C   UNL     1      -4.092   6.225   3.605  1.00  0.00     0.060 A 
ATOM     42  C   UNL     1      -2.910   6.944   3.495  1.00  0.00     0.016 A 
ATOM     43  C   UNL     1      -5.086   6.649   4.476  1.00  0.00     0.016 A 
ATOM     44  C   UNL     1      -2.645   8.016   4.329  1.00  0.00     0.010 A 
ATOM     45  C   UNL     1      -4.871   7.807   5.234  1.00  0.00     0.010 A 
ATOM     46  C   UNL     1      -3.630   8.476   5.201  1.00  0.00    -0.014 A 
BRANCH  46  47
ATOM     47  C   UNL     1      -3.332   9.623   6.097  1.00  0.00     0.031 A 
ATOM     48  C   UNL     1      -3.461   9.466   7.586  1.00  0.00     0.074 A 
ATOM     49  C   UNL     1      -2.938  10.803   5.578  1.00  0.00     0.049 A 
ATOM     50  N   UNL     1      -3.408  10.377   8.521  1.00  0.00    -0.248 NA
ATOM     51  C   UNL     1      -3.700   8.103   8.088  1.00  0.00     0.031 C 
ATOM     52  C   UNL     1      -2.744  11.080   4.152  1.00  0.00     0.029 A 
ATOM     53  N   UNL     1      -2.648  11.998   6.189  1.00  0.00    -0.354 N 
ATOM     54  C   UNL     1      -3.694   9.717   9.710  1.00  0.00     0.074 A 
ATOM     55  C   UNL     1      -3.913   8.326   9.376  1.00  0.00     0.031 C 
ATOM     56  C   UNL     1      -2.366  12.356   3.997  1.00  0.00     0.029 A 
ATOM     57  C   UNL     1      -2.384  13.012   5.298  1.00  0.00     0.049 A 
ATOM     58  H   UNL     1      -2.630  12.117   7.166  1.00  0.00     0.167 HD
ATOM     59  C   UNL     1      -3.765  10.224  10.964  1.00  0.00     0.034 A 
ATOM     60  C   UNL     1      -2.239  14.337   5.491  1.00  0.00     0.034 A 
ATOM     61  C   UNL     1      -3.498  11.601  11.287  1.00  0.00     0.049 A 
ATOM     62  C   UNL     1      -2.334  14.882   6.885  1.00  0.00     0.074 A 
ATOM     63  C   UNL     1      -3.490  12.207  12.530  1.00  0.00     0.029 A 
ATOM     64  N   UNL     1      -3.201  12.590  10.359  1.00  0.00    -0.354 N 
ATOM     65  N   UNL     1      -2.550  14.239   8.007  1.00  0.00    -0.248 NA
ATOM     66  C   UNL     1      -2.147  16.329   7.043  1.00  0.00     0.031 C 
ATOM     67  C   UNL     1      -3.227  13.570  12.350  1.00  0.00     0.029 A 
ATOM     68  C   UNL     1      -3.026  13.806  10.999  1.00  0.00     0.049 A 
ATOM     69  H   UNL     1      -3.126  12.447   9.388  1.00  0.00     0.167 HD
ATOM     70  C   UNL     1      -2.509  15.199   9.010  1.00  0.00     0.074 A 
ATOM     71  C   UNL     1      -2.217  16.463   8.361  1.00  0.00     0.031 C 
ATOM     72  C   UNL     1      -2.708  15.051  10.343  1.00  0.00     0.034 A 
BRANCH  59  73
ATOM     73  C   UNL     1      -4.165   9.280  12.070  1.00  0.00     0.023 A 
ATOM     74  C   UNL     1      -3.298   8.243  12.472  1.00  0.00     0.012 A 
ATOM     75  C   UNL     1      -5.410   9.423  12.715  1.00  0.00     0.148 A 
ATOM     76  C   UNL     1      -3.687   7.330  13.453  1.00  0.00     0.002 A 
ATOM     77  C   UNL     1      -5.768   8.543  13.729  1.00  0.00     0.091 A 
ATOM     78  F   UNL     1      -6.233  10.400  12.309  1.00  0.00    -0.205 F 
ATOM     79  C   UNL     1      -4.917   7.484  14.086  1.00  0.00     0.022 A 
BRANCH  77  80
ATOM     80  S   UNL     1      -7.293   8.713  14.662  1.00  0.00     0.127 S 
ATOM     81  O   UNL     1      -8.088   7.605  14.134  1.00  0.00    -0.237 OA
ATOM     82  O   UNL     1      -6.834   8.531  16.039  1.00  0.00    -0.237 OA
ATOM     83  O   UNL     1      -7.798  10.046  14.364  1.00  0.00    -0.744 OA
ENDBRANCH  77  80
ENDBRANCH  59  73
BRANCH  60  84
ATOM     84  C   UNL     1      -2.010  15.224   4.316  1.00  0.00     0.023 A 
ATOM     85  C   UNL     1      -0.752  15.826   4.129  1.00  0.00     0.012 A 
ATOM     86  C   UNL     1      -3.013  15.405   3.342  1.00  0.00     0.148 A 
ATOM     87  C   UNL     1      -0.500  16.603   2.997  1.00  0.00     0.002 A 
ATOM     88  C   UNL     1      -2.736  16.127   2.188  1.00  0.00     0.091 A 
ATOM     89  F   UNL     1      -4.206  14.830   3.547  1.00  0.00    -0.205 F 
ATOM     90  C   UNL     1      -1.485  16.741   2.021  1.00  0.00     0.022 A 
BRANCH  88  91
ATOM     91  S   UNL     1      -3.888  16.233   0.814  1.00  0.00     0.127 S 
ATOM     92  O   UNL     1      -4.200  17.660   0.797  1.00  0.00    -0.237 OA
ATOM     93  O   UNL     1      -3.062  15.769  -0.301  1.00  0.00    -0.237 OA
ATOM     94  O   UNL     1      -4.995  15.352   1.155  1.00  0.00    -0.744 OA
ENDBRANCH  88  91
ENDBRANCH  60  84
BRANCH  72  95
ATOM     95  C   UNL     1      -2.588  16.285  11.199  1.00  0.00     0.023 A 
ATOM     96  C   UNL     1      -3.577  17.286  11.137  1.00  0.00     0.012 A 
ATOM     97  C   UNL     1      -1.518  16.425  12.105  1.00  0.00     0.148 A 
ATOM     98  C   UNL     1      -3.482  18.427  11.934  1.00  0.00     0.002 A 
ATOM     99  C   UNL     1      -1.459  17.537  12.935  1.00  0.00     0.091 A 
ATOM    100  F   UNL     1      -0.577  15.471  12.135  1.00  0.00    -0.205 F 
ATOM    101  C   UNL     1      -2.431  18.546  12.841  1.00  0.00     0.022 A 
BRANCH  99 102
ATOM    102  S   UNL     1      -0.198  17.729  14.199  1.00  0.00     0.127 S 
ATOM    103  O   UNL     1       0.615  18.812  13.647  1.00  0.00    -0.237 OA
ATOM    104  O   UNL     1      -0.990  18.098  15.373  1.00  0.00    -0.237 OA
ATOM    105  O   UNL     1       0.469  16.438  14.302  1.00  0.00    -0.744 OA
ENDBRANCH  99 102
ENDBRANCH  72  95
ENDBRANCH  46  47
ENDBRANCH  39  41
ENDBRANCH  38  39
ENDBRANCH  37  38
ENDBRANCH  36  37
ENDBRANCH  35  36
ENDBRANCH   1  35
TORSDOF 21
