REMARK SMILES Cc1ccccc1Nc1nc2c(c(=O)[nH]c(=O)n2C)n1CC(=O)OCCOC(=O)c1ccc(-c2c3nc(c(-c4cccc(S(=O)(=O)[O-])c4F)c4ccc([nH]4)c(-c4cccc(S(=O)(=O)[O-])c4F)c4nc(c(-c5cccc(S(=O)(=O)[O-])c5F)c5ccc2[nH]5)C=C4)C=C3)cc1
REMARK SMILES IDX 25 1 24 2 22 3 23 4 21 5 20 6 9 7 10 8 11 9 12 10 18 11
REMARK SMILES IDX 13 12 16 13 19 14 14 15 15 16 17 17 8 19 7 21 1 22 2 23 3 24
REMARK SMILES IDX 4 25 6 26 5 27 26 28 27 29 28 30 29 31 30 32 31 33 92 34
REMARK SMILES IDX 32 35 91 36 33 37 34 38 35 39 85 40 36 41 90 42 84 43 86 44
REMARK SMILES IDX 37 45 89 46 83 47 82 48 38 50 70 51 50 52 69 53 51 54 54 55
REMARK SMILES IDX 68 56 87 57 52 58 53 59 67 61 88 62 55 63 39 64 40 65 48 66
REMARK SMILES IDX 41 67 43 68 49 69 42 70 44 71 45 72 46 73 47 74 71 75 72 76
REMARK SMILES IDX 80 77 73 78 75 79 81 80 74 81 76 82 77 83 78 84 79 85 56 86
REMARK SMILES IDX 57 87 65 88 58 89 60 90 66 91 59 92 61 93 62 94 63 95 64 96
REMARK H PARENT 15 18 8 20 86 49 54 60
REMARK Flexibility Score: inf
ROOT
ATOM      1  C   UNL     1      -3.877   0.394  -1.030  1.00  0.00     0.274 C 
ENDROOT
BRANCH   1   2
ATOM      2  O   UNL     1      -3.469   1.643  -0.486  1.00  0.00    -0.461 OA
BRANCH   2   3
ATOM      3  C   UNL     1      -2.765   2.535  -1.215  1.00  0.00     0.326 C 
ATOM      4  O   UNL     1      -2.663   2.497  -2.430  1.00  0.00    -0.250 OA
BRANCH   3   5
ATOM      5  C   UNL     1      -2.352   3.640  -0.291  1.00  0.00     0.248 C 
BRANCH   5   6
ATOM      6  N   UNL     1      -1.059   4.280  -0.457  1.00  0.00    -0.293 N 
ATOM      7  C   UNL     1       0.053   3.935  -1.205  1.00  0.00     0.210 A 
ATOM      8  N   UNL     1       0.483   5.017  -1.841  1.00  0.00    -0.194 NA
ATOM      9  C   UNL     1      -0.214   6.051  -1.285  1.00  0.00     0.170 A 
ATOM     10  C   UNL     1      -0.977   5.635  -0.246  1.00  0.00     0.154 A 
ATOM     11  N   UNL     1      -0.284   7.356  -1.718  1.00  0.00    -0.279 N 
ATOM     12  C   UNL     1      -1.757   6.497   0.574  1.00  0.00     0.279 A 
ATOM     13  C   UNL     1      -1.069   8.264  -1.003  1.00  0.00     0.329 A 
ATOM     14  C   UNL     1       0.316   7.726  -2.978  1.00  0.00     0.157 C 
ATOM     15  O   UNL     1      -2.451   6.141   1.502  1.00  0.00    -0.267 OA
ATOM     16  N   UNL     1      -1.690   7.803   0.142  1.00  0.00    -0.272 N 
ATOM     17  O   UNL     1      -1.254   9.430  -1.356  1.00  0.00    -0.248 OA
ATOM     18  H   UNL     1      -2.130   8.478   0.708  1.00  0.00     0.175 HD
BRANCH   7  19
ATOM     19  N   UNL     1       0.790   2.831  -0.916  1.00  0.00    -0.325 N 
ATOM     20  H   UNL     1       1.310   2.867  -0.080  1.00  0.00     0.170 HD
BRANCH  19  21
ATOM     21  C   UNL     1       0.903   1.633  -1.665  1.00  0.00     0.044 A 
ATOM     22  C   UNL     1       2.824   0.707  -0.206  1.00  0.00     0.046 C 
ATOM     23  C   UNL     1       1.744   0.573  -1.248  1.00  0.00    -0.027 A 
ATOM     24  C   UNL     1       1.546  -0.722  -1.778  1.00  0.00     0.005 A 
ATOM     25  C   UNL     1       0.582  -0.964  -2.752  1.00  0.00     0.000 A 
ATOM     26  C   UNL     1       0.048   1.386  -2.747  1.00  0.00     0.026 A 
ATOM     27  C   UNL     1      -0.137   0.102  -3.269  1.00  0.00     0.002 A 
ENDBRANCH  19  21
ENDBRANCH   7  19
ENDBRANCH   5   6
ENDBRANCH   3   5
ENDBRANCH   2   3
ENDBRANCH   1   2
BRANCH   1  28
ATOM     28  C   UNL     1      -2.803  -0.717  -0.961  1.00  0.00     0.275 C 
BRANCH  28  29
ATOM     29  O   UNL     1      -1.446  -0.363  -0.562  1.00  0.00    -0.458 OA
BRANCH  29  30
ATOM     30  C   UNL     1      -0.889  -0.387   0.684  1.00  0.00     0.338 C 
ATOM     31  O   UNL     1       0.127  -0.997   0.981  1.00  0.00    -0.246 OA
BRANCH  30  32
ATOM     32  C   UNL     1      -1.458   0.618   1.579  1.00  0.00     0.060 A 
ATOM     33  C   UNL     1      -0.709   1.605   2.244  1.00  0.00     0.016 A 
ATOM     34  C   UNL     1      -2.823   0.532   1.752  1.00  0.00     0.016 A 
ATOM     35  C   UNL     1      -1.364   2.443   3.150  1.00  0.00     0.010 A 
ATOM     36  C   UNL     1      -3.493   1.579   2.317  1.00  0.00     0.010 A 
ATOM     37  C   UNL     1      -2.755   2.350   3.227  1.00  0.00    -0.014 A 
BRANCH  37  38
ATOM     38  C   UNL     1      -3.492   2.365   4.500  1.00  0.00     0.031 A 
ATOM     39  C   UNL     1      -4.558   3.332   4.732  1.00  0.00     0.074 A 
ATOM     40  C   UNL     1      -3.670   1.067   4.864  1.00  0.00     0.049 A 
ATOM     41  N   UNL     1      -5.362   3.263   5.732  1.00  0.00    -0.248 NA
ATOM     42  C   UNL     1      -4.814   4.446   3.836  1.00  0.00     0.031 C 
ATOM     43  C   UNL     1      -4.912   0.333   5.075  1.00  0.00     0.029 A 
ATOM     44  N   UNL     1      -2.725   0.056   4.733  1.00  0.00    -0.354 N 
ATOM     45  C   UNL     1      -6.428   4.081   5.434  1.00  0.00     0.074 A 
ATOM     46  C   UNL     1      -5.942   4.928   4.367  1.00  0.00     0.031 C 
ATOM     47  C   UNL     1      -4.613  -0.969   5.261  1.00  0.00     0.029 A 
ATOM     48  C   UNL     1      -3.163  -1.089   5.366  1.00  0.00     0.049 A 
ATOM     49  H   UNL     1      -1.867   0.144   4.257  1.00  0.00     0.167 HD
ATOM     50  C   UNL     1      -7.643   3.796   5.989  1.00  0.00     0.034 A 
ATOM     51  C   UNL     1      -2.428  -1.608   6.390  1.00  0.00     0.034 A 
ATOM     52  C   UNL     1      -7.565   2.546   6.802  1.00  0.00     0.049 A 
ATOM     53  C   UNL     1      -3.148  -1.292   7.693  1.00  0.00     0.074 A 
ATOM     54  C   UNL     1      -8.043   1.259   6.602  1.00  0.00     0.029 A 
ATOM     55  N   UNL     1      -6.657   2.442   7.860  1.00  0.00    -0.354 N 
ATOM     56  N   UNL     1      -4.389  -0.885   7.800  1.00  0.00    -0.248 NA
ATOM     57  C   UNL     1      -2.466  -1.319   8.983  1.00  0.00     0.031 C 
ATOM     58  C   UNL     1      -7.315   0.372   7.456  1.00  0.00     0.029 A 
ATOM     59  C   UNL     1      -6.418   1.111   8.210  1.00  0.00     0.049 A 
ATOM     60  H   UNL     1      -6.237   3.213   8.304  1.00  0.00     0.167 HD
ATOM     61  C   UNL     1      -4.508  -0.221   8.993  1.00  0.00     0.074 A 
ATOM     62  C   UNL     1      -3.366  -0.698   9.761  1.00  0.00     0.031 C 
ATOM     63  C   UNL     1      -5.400   0.796   9.224  1.00  0.00     0.034 A 
BRANCH  50  64
ATOM     64  C   UNL     1      -8.984   4.439   5.614  1.00  0.00     0.023 A 
ATOM     65  C   UNL     1     -10.143   3.899   6.216  1.00  0.00     0.012 A 
ATOM     66  C   UNL     1      -9.222   5.517   4.721  1.00  0.00     0.148 A 
ATOM     67  C   UNL     1     -11.438   4.346   5.914  1.00  0.00     0.002 A 
ATOM     68  C   UNL     1     -10.512   5.958   4.404  1.00  0.00     0.091 A 
ATOM     69  F   UNL     1      -8.209   6.179   4.175  1.00  0.00    -0.205 F 
ATOM     70  C   UNL     1     -11.626   5.369   4.997  1.00  0.00     0.022 A 
BRANCH  68  71
ATOM     71  S   UNL     1     -10.825   7.284   3.216  1.00  0.00     0.127 S 
ATOM     72  O   UNL     1     -11.716   6.629   2.255  1.00  0.00    -0.237 OA
ATOM     73  O   UNL     1     -11.469   8.301   4.046  1.00  0.00    -0.237 OA
ATOM     74  O   UNL     1      -9.530   7.666   2.665  1.00  0.00    -0.744 OA
ENDBRANCH  68  71
ENDBRANCH  50  64
BRANCH  51  75
ATOM     75  C   UNL     1      -0.940  -1.421   6.139  1.00  0.00     0.023 A 
ATOM     76  C   UNL     1      -0.379  -2.143   5.052  1.00  0.00     0.012 A 
ATOM     77  C   UNL     1      -0.280  -0.245   6.558  1.00  0.00     0.148 A 
ATOM     78  C   UNL     1       0.721  -1.645   4.339  1.00  0.00     0.002 A 
ATOM     79  C   UNL     1       0.781   0.269   5.807  1.00  0.00     0.091 A 
ATOM     80  F   UNL     1      -0.793   0.457   7.577  1.00  0.00    -0.205 F 
ATOM     81  C   UNL     1       1.277  -0.421   4.694  1.00  0.00     0.022 A 
BRANCH  79  82
ATOM     82  S   UNL     1       1.332   1.962   6.087  1.00  0.00     0.127 S 
ATOM     83  O   UNL     1       1.957   2.320   4.811  1.00  0.00    -0.237 OA
ATOM     84  O   UNL     1       0.096   2.683   6.353  1.00  0.00    -0.237 OA
ATOM     85  O   UNL     1       2.256   1.797   7.203  1.00  0.00    -0.744 OA
ENDBRANCH  79  82
ENDBRANCH  51  75
BRANCH  63  86
ATOM     86  C   UNL     1      -5.318   1.645  10.474  1.00  0.00     0.023 A 
ATOM     87  C   UNL     1      -4.090   1.986  11.076  1.00  0.00     0.012 A 
ATOM     88  C   UNL     1      -6.484   2.232  11.012  1.00  0.00     0.148 A 
ATOM     89  C   UNL     1      -4.030   2.760  12.237  1.00  0.00     0.002 A 
ATOM     90  C   UNL     1      -6.406   3.109  12.089  1.00  0.00     0.091 A 
ATOM     91  F   UNL     1      -7.682   1.933  10.485  1.00  0.00    -0.205 F 
ATOM     92  C   UNL     1      -5.190   3.336  12.737  1.00  0.00     0.022 A 
BRANCH  90  93
ATOM     93  S   UNL     1      -7.839   4.082  12.560  1.00  0.00     0.127 S 
ATOM     94  O   UNL     1      -8.553   3.172  13.451  1.00  0.00    -0.237 OA
ATOM     95  O   UNL     1      -7.240   5.240  13.227  1.00  0.00    -0.237 OA
ATOM     96  O   UNL     1      -8.493   4.398  11.296  1.00  0.00    -0.744 OA
ENDBRANCH  90  93
ENDBRANCH  63  86
ENDBRANCH  37  38
ENDBRANCH  30  32
ENDBRANCH  29  30
ENDBRANCH  28  29
ENDBRANCH   1  28
TORSDOF 17
