REMARK SMILES [NH3+]C[C@H]1CC[C@@H](C(=O)N[C@H](C(=O)OCCOC(=O)c2ccc(-c3c4nc(c(-c5cccc(S(=O)(=O)[O-])c5F)c5ccc([nH]5)c(-c5cccc(S(=O)(=O)[O-])c5F)c5nc(c(-c6cccc(S(=O)(=O)[O-])c6F)c6ccc3[nH]6)C=C5)C=C4)cc2)C2CCCCC2)O1
REMARK SMILES IDX 14 1 13 2 11 3 12 4 10 5 9 6 7 7 8 8 6 10 3 11 4 12 88 13
REMARK SMILES IDX 5 14 2 15 1 16 82 20 83 21 87 22 84 23 86 24 85 25 15 26
REMARK SMILES IDX 16 27 17 28 18 29 19 30 20 31 81 32 21 33 80 34 22 35 23 36
REMARK SMILES IDX 24 37 74 38 25 39 79 40 73 41 75 42 26 43 78 44 72 45 71 46
REMARK SMILES IDX 27 48 59 49 39 50 58 51 40 52 43 53 57 54 76 55 41 56 42 57
REMARK SMILES IDX 56 59 77 60 44 61 28 62 29 63 37 64 30 65 32 66 38 67 31 68
REMARK SMILES IDX 33 69 34 70 35 71 36 72 60 73 61 74 69 75 62 76 64 77 70 78
REMARK SMILES IDX 63 79 65 80 66 81 67 82 68 83 45 84 46 85 54 86 47 87 49 88
REMARK SMILES IDX 55 89 48 90 50 91 51 92 52 93 53 94
REMARK H PARENT 9 9 1 17 1 18 1 19 75 47 43 58
REMARK Flexibility Score: inf
ROOT
ATOM      1  C   UNL     1       6.461  -3.245  -4.248  1.00  0.00     0.274 C 
ENDROOT
BRANCH   1   2
ATOM      2  O   UNL     1       6.082  -2.260  -3.264  1.00  0.00    -0.461 OA
BRANCH   2   3
ATOM      3  C   UNL     1       6.310  -2.636  -1.975  1.00  0.00     0.329 C 
ATOM      4  O   UNL     1       6.728  -3.743  -1.652  1.00  0.00    -0.250 OA
BRANCH   3   5
ATOM      5  C   UNL     1       5.907  -1.541  -0.959  1.00  0.00     0.195 C 
BRANCH   5   6
ATOM      6  N   UNL     1       5.963  -2.198   0.365  1.00  0.00    -0.340 N 
ATOM      7  C   UNL     1       5.064  -3.061   0.930  1.00  0.00     0.249 C 
ATOM      8  O   UNL     1       5.352  -3.601   1.998  1.00  0.00    -0.272 OA
ATOM      9  H   UNL     1       6.752  -1.986   0.913  1.00  0.00     0.164 HD
BRANCH   7  10
ATOM     10  C   UNL     1       3.706  -3.255   0.245  1.00  0.00     0.207 C 
ATOM     11  C   UNL     1       1.741  -4.345   0.901  1.00  0.00     0.174 C 
ATOM     12  C   UNL     1       1.409  -2.890   0.609  1.00  0.00     0.041 C 
ATOM     13  O   UNL     1       3.098  -4.533   0.466  1.00  0.00    -0.359 OA
ATOM     14  C   UNL     1       2.739  -2.208   0.777  1.00  0.00     0.045 C 
BRANCH  11  15
ATOM     15  C   UNL     1       1.626  -4.719   2.396  1.00  0.00     0.291 C 
BRANCH  15  16
ATOM     16  N   UNL     1       0.783  -5.906   2.606  1.00  0.00    -0.355 N 
ATOM     17  H   UNL     1       0.734  -6.117   3.602  1.00  0.00     0.344 HD
ATOM     18  H   UNL     1       1.186  -6.701   2.109  1.00  0.00     0.344 HD
ATOM     19  H   UNL     1      -0.155  -5.723   2.250  1.00  0.00     0.344 HD
ENDBRANCH  15  16
ENDBRANCH  11  15
ENDBRANCH   7  10
ENDBRANCH   5   6
BRANCH   5  20
ATOM     20  C   UNL     1       6.811  -0.281  -0.953  1.00  0.00     0.023 C 
ATOM     21  C   UNL     1       6.760   0.519  -2.267  1.00  0.00     0.006 C 
ATOM     22  C   UNL     1       6.446   0.658   0.222  1.00  0.00     0.006 C 
ATOM     23  C   UNL     1       7.660   1.754  -2.218  1.00  0.00     0.000 C 
ATOM     24  C   UNL     1       7.341   1.894   0.273  1.00  0.00     0.000 C 
ATOM     25  C   UNL     1       7.321   2.660  -1.042  1.00  0.00     0.000 C 
ENDBRANCH   5  20
ENDBRANCH   3   5
ENDBRANCH   2   3
ENDBRANCH   1   2
BRANCH   1  26
ATOM     26  C   UNL     1       7.905  -3.051  -4.712  1.00  0.00     0.275 C 
BRANCH  26  27
ATOM     27  O   UNL     1       8.804  -3.082  -3.590  1.00  0.00    -0.458 OA
BRANCH  27  28
ATOM     28  C   UNL     1       9.582  -1.992  -3.420  1.00  0.00     0.338 C 
ATOM     29  O   UNL     1       9.624  -0.999  -4.138  1.00  0.00    -0.246 OA
BRANCH  28  30
ATOM     30  C   UNL     1      10.414  -2.138  -2.214  1.00  0.00     0.060 A 
ATOM     31  C   UNL     1       9.842  -2.443  -0.977  1.00  0.00     0.016 A 
ATOM     32  C   UNL     1      11.782  -1.881  -2.306  1.00  0.00     0.016 A 
ATOM     33  C   UNL     1      10.618  -2.430   0.180  1.00  0.00     0.010 A 
ATOM     34  C   UNL     1      12.576  -1.961  -1.161  1.00  0.00     0.010 A 
ATOM     35  C   UNL     1      12.001  -2.220   0.095  1.00  0.00    -0.014 A 
BRANCH  35  36
ATOM     36  C   UNL     1      12.868  -2.339   1.295  1.00  0.00     0.031 A 
ATOM     37  C   UNL     1      13.704  -1.175   1.750  1.00  0.00     0.074 A 
ATOM     38  C   UNL     1      12.978  -3.535   1.907  1.00  0.00     0.049 A 
ATOM     39  N   UNL     1      14.666  -1.150   2.635  1.00  0.00    -0.248 NA
ATOM     40  C   UNL     1      13.436   0.128   1.119  1.00  0.00     0.031 C 
ATOM     41  C   UNL     1      12.235  -4.744   1.539  1.00  0.00     0.029 A 
ATOM     42  N   UNL     1      13.792  -3.946   2.933  1.00  0.00    -0.354 N 
ATOM     43  C   UNL     1      15.164   0.147   2.620  1.00  0.00     0.074 A 
ATOM     44  C   UNL     1      14.384   0.888   1.652  1.00  0.00     0.031 C 
ATOM     45  C   UNL     1      12.646  -5.764   2.305  1.00  0.00     0.029 A 
ATOM     46  C   UNL     1      13.722  -5.300   3.172  1.00  0.00     0.049 A 
ATOM     47  H   UNL     1      14.368  -3.335   3.446  1.00  0.00     0.167 HD
ATOM     48  C   UNL     1      16.175   0.669   3.354  1.00  0.00     0.034 A 
ATOM     49  C   UNL     1      14.473  -6.095   3.958  1.00  0.00     0.034 A 
ATOM     50  C   UNL     1      16.897  -0.057   4.364  1.00  0.00     0.049 A 
ATOM     51  C   UNL     1      15.578  -5.483   4.769  1.00  0.00     0.074 A 
ATOM     52  C   UNL     1      17.857   0.417   5.241  1.00  0.00     0.029 A 
ATOM     53  N   UNL     1      16.746  -1.409   4.628  1.00  0.00    -0.354 N 
ATOM     54  N   UNL     1      15.947  -4.227   4.841  1.00  0.00    -0.248 NA
ATOM     55  C   UNL     1      16.361  -6.391   5.618  1.00  0.00     0.031 C 
ATOM     56  C   UNL     1      18.300  -0.654   6.025  1.00  0.00     0.029 A 
ATOM     57  C   UNL     1      17.611  -1.793   5.639  1.00  0.00     0.049 A 
ATOM     58  H   UNL     1      16.116  -2.008   4.166  1.00  0.00     0.167 HD
ATOM     59  C   UNL     1      16.998  -4.192   5.747  1.00  0.00     0.074 A 
ATOM     60  C   UNL     1      17.185  -5.547   6.225  1.00  0.00     0.031 C 
ATOM     61  C   UNL     1      17.758  -3.137   6.130  1.00  0.00     0.034 A 
BRANCH  48  62
ATOM     62  C   UNL     1      16.547   2.109   3.130  1.00  0.00     0.023 A 
ATOM     63  C   UNL     1      15.760   3.127   3.702  1.00  0.00     0.012 A 
ATOM     64  C   UNL     1      17.730   2.448   2.444  1.00  0.00     0.148 A 
ATOM     65  C   UNL     1      16.140   4.464   3.586  1.00  0.00     0.002 A 
ATOM     66  C   UNL     1      18.118   3.781   2.359  1.00  0.00     0.091 A 
ATOM     67  F   UNL     1      18.451   1.464   1.889  1.00  0.00    -0.205 F 
ATOM     68  C   UNL     1      17.322   4.789   2.926  1.00  0.00     0.022 A 
BRANCH  66  69
ATOM     69  S   UNL     1      19.655   4.296   1.584  1.00  0.00     0.127 S 
ATOM     70  O   UNL     1      19.168   4.946   0.368  1.00  0.00    -0.237 OA
ATOM     71  O   UNL     1      20.213   5.210   2.582  1.00  0.00    -0.237 OA
ATOM     72  O   UNL     1      20.428   3.080   1.375  1.00  0.00    -0.744 OA
ENDBRANCH  66  69
ENDBRANCH  48  62
BRANCH  49  73
ATOM     73  C   UNL     1      14.193  -7.557   4.005  1.00  0.00     0.023 A 
ATOM     74  C   UNL     1      13.620  -8.114   5.163  1.00  0.00     0.012 A 
ATOM     75  C   UNL     1      14.433  -8.384   2.890  1.00  0.00     0.148 A 
ATOM     76  C   UNL     1      13.305  -9.473   5.214  1.00  0.00     0.002 A 
ATOM     77  C   UNL     1      14.064  -9.724   2.928  1.00  0.00     0.091 A 
ATOM     78  F   UNL     1      15.005  -7.845   1.803  1.00  0.00    -0.205 F 
ATOM     79  C   UNL     1      13.512 -10.274   4.093  1.00  0.00     0.022 A 
BRANCH  77  80
ATOM     80  S   UNL     1      14.171 -10.759   1.463  1.00  0.00     0.127 S 
ATOM     81  O   UNL     1      15.489 -11.366   1.616  1.00  0.00    -0.237 OA
ATOM     82  O   UNL     1      13.047 -11.680   1.641  1.00  0.00    -0.237 OA
ATOM     83  O   UNL     1      14.008  -9.838   0.345  1.00  0.00    -0.744 OA
ENDBRANCH  77  80
ENDBRANCH  49  73
BRANCH  61  84
ATOM     84  C   UNL     1      18.869  -3.406   7.107  1.00  0.00     0.023 A 
ATOM     85  C   UNL     1      20.049  -4.025   6.650  1.00  0.00     0.012 A 
ATOM     86  C   UNL     1      18.776  -2.991   8.449  1.00  0.00     0.148 A 
ATOM     87  C   UNL     1      21.114  -4.247   7.521  1.00  0.00     0.002 A 
ATOM     88  C   UNL     1      19.857  -3.182   9.302  1.00  0.00     0.091 A 
ATOM     89  F   UNL     1      17.635  -2.425   8.868  1.00  0.00    -0.205 F 
ATOM     90  C   UNL     1      21.023  -3.816   8.842  1.00  0.00     0.022 A 
BRANCH  88  91
ATOM     91  S   UNL     1      19.855  -2.583  10.995  1.00  0.00     0.127 S 
ATOM     92  O   UNL     1      19.614  -3.813  11.747  1.00  0.00    -0.237 OA
ATOM     93  O   UNL     1      21.205  -2.035  11.138  1.00  0.00    -0.237 OA
ATOM     94  O   UNL     1      18.794  -1.586  11.062  1.00  0.00    -0.744 OA
ENDBRANCH  88  91
ENDBRANCH  61  84
ENDBRANCH  35  36
ENDBRANCH  28  30
ENDBRANCH  27  28
ENDBRANCH  26  27
ENDBRANCH   1  26
TORSDOF 19
