REMARK SMILES Cc1cc(C(=O)N[C@H]2C=C[C@H](C(=O)OCCOC(=O)c3ccc(-c4c5nc(c(-c6cccc(S(=O)(=O)[O-])c6F)c6ccc([nH]6)c(-c6cccc(S(=O)(=O)[O-])c6F)c6nc(c(-c7cccc(S(=O)(=O)[O-])c7F)c7ccc4[nH]7)C=C6)C=C5)cc3)C2)ccc1F
REMARK SMILES IDX 16 1 15 2 14 3 12 4 13 5 11 6 8 7 9 8 83 9 10 10 7 11 5 12
REMARK SMILES IDX 6 13 4 15 1 16 2 17 3 18 86 19 85 20 87 21 84 22 17 23 18 24
REMARK SMILES IDX 19 25 20 26 21 27 82 28 22 29 81 30 23 31 24 32 25 33 75 34
REMARK SMILES IDX 26 35 80 36 74 37 76 38 27 39 79 40 73 41 72 42 28 44 60 45
REMARK SMILES IDX 40 46 59 47 41 48 44 49 58 50 77 51 42 52 43 53 57 55 78 56
REMARK SMILES IDX 45 57 29 58 30 59 38 60 31 61 33 62 39 63 32 64 34 65 35 66
REMARK SMILES IDX 36 67 37 68 61 69 62 70 70 71 63 72 65 73 71 74 64 75 66 76
REMARK SMILES IDX 67 77 68 78 69 79 46 80 47 81 55 82 48 83 50 84 56 85 49 86
REMARK SMILES IDX 51 87 52 88 53 89 54 90
REMARK H PARENT 7 14 76 43 44 54
REMARK Flexibility Score: inf
ROOT
ATOM      1  C   UNL     1       2.860   5.975   1.358  1.00  0.00     0.275 C 
ENDROOT
BRANCH   1   2
ATOM      2  C   UNL     1       2.067   6.456   0.139  1.00  0.00     0.274 C 
BRANCH   2   3
ATOM      3  O   UNL     1       0.657   6.530   0.420  1.00  0.00    -0.462 OA
BRANCH   3   4
ATOM      4  C   UNL     1      -0.091   5.468   0.023  1.00  0.00     0.312 C 
ATOM      5  O   UNL     1       0.273   4.640  -0.811  1.00  0.00    -0.252 OA
BRANCH   4   6
ATOM      6  C   UNL     1      -1.415   5.381   0.798  1.00  0.00     0.124 C 
ATOM      7  C   UNL     1      -2.578   3.636  -0.384  1.00  0.00     0.106 C 
ATOM      8  C   UNL     1      -3.273   4.950  -0.574  1.00  0.00    -0.006 C 
ATOM      9  C   UNL     1      -1.823   3.899   0.919  1.00  0.00     0.048 C 
ATOM     10  C   UNL     1      -2.590   5.927   0.041  1.00  0.00    -0.014 C 
BRANCH   7  11
ATOM     11  N   UNL     1      -3.504   2.539  -0.335  1.00  0.00    -0.346 N 
ATOM     12  C   UNL     1      -3.302   1.181  -0.379  1.00  0.00     0.251 C 
ATOM     13  O   UNL     1      -4.311   0.471  -0.441  1.00  0.00    -0.269 OA
ATOM     14  H   UNL     1      -4.448   2.807  -0.256  1.00  0.00     0.164 HD
BRANCH  12  15
ATOM     15  C   UNL     1      -1.963   0.504  -0.309  1.00  0.00     0.040 A 
ATOM     16  C   UNL     1       1.799   1.037  -0.716  1.00  0.00     0.047 C 
ATOM     17  C   UNL     1       0.479   0.365  -0.478  1.00  0.00    -0.015 A 
ATOM     18  C   UNL     1      -0.726   1.076  -0.634  1.00  0.00     0.020 A 
ATOM     19  C   UNL     1       0.431  -0.953  -0.029  1.00  0.00     0.126 A 
ATOM     20  C   UNL     1      -0.782  -1.565   0.253  1.00  0.00     0.040 A 
ATOM     21  F   UNL     1       1.565  -1.651   0.130  1.00  0.00    -0.207 F 
ATOM     22  C   UNL     1      -1.969  -0.838   0.118  1.00  0.00     0.017 A 
ENDBRANCH  12  15
ENDBRANCH   7  11
ENDBRANCH   4   6
ENDBRANCH   3   4
ENDBRANCH   2   3
ENDBRANCH   1   2
BRANCH   1  23
ATOM     23  O   UNL     1       2.800   4.549   1.558  1.00  0.00    -0.458 OA
BRANCH  23  24
ATOM     24  C   UNL     1       1.728   4.160   2.282  1.00  0.00     0.338 C 
ATOM     25  O   UNL     1       0.695   4.780   2.456  1.00  0.00    -0.246 OA
BRANCH  24  26
ATOM     26  C   UNL     1       1.957   2.954   3.075  1.00  0.00     0.060 A 
ATOM     27  C   UNL     1       0.809   2.378   3.650  1.00  0.00     0.016 A 
ATOM     28  C   UNL     1       3.228   2.759   3.611  1.00  0.00     0.016 A 
ATOM     29  C   UNL     1       0.900   1.808   4.905  1.00  0.00     0.010 A 
ATOM     30  C   UNL     1       3.314   2.186   4.861  1.00  0.00     0.010 A 
ATOM     31  C   UNL     1       2.143   1.808   5.532  1.00  0.00    -0.014 A 
BRANCH  31  32
ATOM     32  C   UNL     1       2.281   1.509   6.944  1.00  0.00     0.031 A 
ATOM     33  C   UNL     1       2.268   0.111   7.394  1.00  0.00     0.074 A 
ATOM     34  C   UNL     1       2.369   2.516   7.837  1.00  0.00     0.049 A 
ATOM     35  N   UNL     1       1.928  -0.283   8.574  1.00  0.00    -0.248 NA
ATOM     36  C   UNL     1       2.545  -0.983   6.472  1.00  0.00     0.031 C 
ATOM     37  C   UNL     1       2.755   2.412   9.238  1.00  0.00     0.029 A 
ATOM     38  N   UNL     1       1.891   3.820   7.709  1.00  0.00    -0.354 N 
ATOM     39  C   UNL     1       2.283  -1.607   8.672  1.00  0.00     0.074 A 
ATOM     40  C   UNL     1       2.498  -2.026   7.304  1.00  0.00     0.031 C 
ATOM     41  C   UNL     1       2.247   3.467   9.896  1.00  0.00     0.029 A 
ATOM     42  C   UNL     1       1.373   4.167   8.966  1.00  0.00     0.049 A 
ATOM     43  H   UNL     1       1.913   4.383   6.902  1.00  0.00     0.167 HD
ATOM     44  C   UNL     1       2.530  -2.144   9.904  1.00  0.00     0.034 A 
ATOM     45  C   UNL     1       0.060   4.465   9.197  1.00  0.00     0.034 A 
ATOM     46  C   UNL     1       2.180  -1.214  10.982  1.00  0.00     0.049 A 
ATOM     47  C   UNL     1      -0.575   3.601  10.274  1.00  0.00     0.074 A 
ATOM     48  C   UNL     1       2.919  -0.431  11.855  1.00  0.00     0.029 A 
ATOM     49  N   UNL     1       0.868  -0.778  11.109  1.00  0.00    -0.354 N 
ATOM     50  N   UNL     1      -0.040   2.503  10.733  1.00  0.00    -0.248 NA
ATOM     51  C   UNL     1      -1.911   3.836  10.822  1.00  0.00     0.031 C 
ATOM     52  C   UNL     1       2.034   0.464  12.519  1.00  0.00     0.029 A 
ATOM     53  C   UNL     1       0.756   0.226  12.052  1.00  0.00     0.049 A 
ATOM     54  H   UNL     1       0.112  -1.140  10.592  1.00  0.00     0.167 HD
ATOM     55  C   UNL     1      -0.882   1.933  11.650  1.00  0.00     0.074 A 
ATOM     56  C   UNL     1      -2.063   2.775  11.634  1.00  0.00     0.031 C 
ATOM     57  C   UNL     1      -0.550   0.803  12.336  1.00  0.00     0.034 A 
BRANCH  44  58
ATOM     58  C   UNL     1       3.375  -3.400  10.102  1.00  0.00     0.023 A 
ATOM     59  C   UNL     1       3.584  -4.348   9.077  1.00  0.00     0.012 A 
ATOM     60  C   UNL     1       4.072  -3.654  11.306  1.00  0.00     0.148 A 
ATOM     61  C   UNL     1       4.536  -5.372   9.158  1.00  0.00     0.002 A 
ATOM     62  C   UNL     1       5.001  -4.697  11.402  1.00  0.00     0.091 A 
ATOM     63  F   UNL     1       3.850  -2.897  12.387  1.00  0.00    -0.205 F 
ATOM     64  C   UNL     1       5.263  -5.537  10.320  1.00  0.00     0.022 A 
BRANCH  62  65
ATOM     65  S   UNL     1       5.891  -4.950  12.942  1.00  0.00     0.127 S 
ATOM     66  O   UNL     1       6.596  -3.687  13.126  1.00  0.00    -0.237 OA
ATOM     67  O   UNL     1       4.823  -5.259  13.887  1.00  0.00    -0.237 OA
ATOM     68  O   UNL     1       6.767  -6.085  12.639  1.00  0.00    -0.744 OA
ENDBRANCH  62  65
ENDBRANCH  44  58
BRANCH  45  69
ATOM     69  C   UNL     1      -0.692   4.994   8.024  1.00  0.00     0.023 A 
ATOM     70  C   UNL     1      -1.587   4.164   7.326  1.00  0.00     0.012 A 
ATOM     71  C   UNL     1      -0.278   6.203   7.426  1.00  0.00     0.148 A 
ATOM     72  C   UNL     1      -2.002   4.497   6.032  1.00  0.00     0.002 A 
ATOM     73  C   UNL     1      -0.653   6.501   6.118  1.00  0.00     0.091 A 
ATOM     74  F   UNL     1       0.557   7.008   8.103  1.00  0.00    -0.205 F 
ATOM     75  C   UNL     1      -1.512   5.649   5.416  1.00  0.00     0.022 A 
BRANCH  73  76
ATOM     76  S   UNL     1       0.111   7.899   5.285  1.00  0.00     0.127 S 
ATOM     77  O   UNL     1      -0.364   9.041   6.059  1.00  0.00    -0.237 OA
ATOM     78  O   UNL     1       1.537   7.596   5.376  1.00  0.00    -0.237 OA
ATOM     79  O   UNL     1      -0.430   7.830   3.927  1.00  0.00    -0.744 OA
ENDBRANCH  73  76
ENDBRANCH  45  69
BRANCH  57  80
ATOM     80  C   UNL     1      -1.456   0.118  13.320  1.00  0.00     0.023 A 
ATOM     81  C   UNL     1      -1.462  -1.296  13.359  1.00  0.00     0.012 A 
ATOM     82  C   UNL     1      -2.256   0.790  14.258  1.00  0.00     0.148 A 
ATOM     83  C   UNL     1      -2.261  -2.011  14.252  1.00  0.00     0.002 A 
ATOM     84  C   UNL     1      -3.094   0.073  15.114  1.00  0.00     0.091 A 
ATOM     85  F   UNL     1      -2.188   2.127  14.352  1.00  0.00    -0.205 F 
ATOM     86  C   UNL     1      -3.097  -1.326  15.120  1.00  0.00     0.022 A 
BRANCH  84  87
ATOM     87  S   UNL     1      -4.251   0.969  16.151  1.00  0.00     0.127 S 
ATOM     88  O   UNL     1      -3.384   1.695  17.072  1.00  0.00    -0.237 OA
ATOM     89  O   UNL     1      -4.994   1.772  15.184  1.00  0.00    -0.237 OA
ATOM     90  O   UNL     1      -5.042  -0.094  16.775  1.00  0.00    -0.744 OA
ENDBRANCH  84  87
ENDBRANCH  57  80
ENDBRANCH  31  32
ENDBRANCH  24  26
ENDBRANCH  23  24
ENDBRANCH   1  23
TORSDOF 16
