REMARK SMILES Cc1nn(-c2ccncn2)c(C)c1[C@@H](C)C(=O)OCCOC(=O)c1ccc(-c2c3nc(c(-c4cccc(S(=O)(=O)[O-])c4F)c4ccc([nH]4)c(-c4cccc(S(=O)(=O)[O-])c4F)c4nc(c(-c5cccc(S(=O)(=O)[O-])c5F)c5ccc2[nH]5)C=C4)C=C3)cc1
REMARK SMILES IDX 20 1 19 2 18 3 16 4 17 5 14 6 15 7 13 8 1 9 2 10 3 11 4 12
REMARK SMILES IDX 11 13 12 14 5 15 6 16 10 17 7 18 9 19 8 20 21 21 22 22 23 23
REMARK SMILES IDX 24 24 25 25 86 26 26 27 85 28 27 29 28 30 29 31 79 32 30 33
REMARK SMILES IDX 84 34 78 35 80 36 31 37 83 38 77 39 76 40 32 42 64 43 44 44
REMARK SMILES IDX 63 45 45 46 48 47 62 48 81 49 46 50 47 51 61 53 82 54 49 55
REMARK SMILES IDX 33 56 34 57 42 58 35 59 37 60 43 61 36 62 38 63 39 64 40 65
REMARK SMILES IDX 41 66 65 67 66 68 74 69 67 70 69 71 75 72 68 73 70 74 71 75
REMARK SMILES IDX 72 76 73 77 50 78 51 79 59 80 52 81 54 82 60 83 53 84 55 85
REMARK SMILES IDX 56 86 57 87 58 88
REMARK H PARENT 80 41 48 52
REMARK Flexibility Score: inf
ROOT
ATOM      1  C   UNL     1       4.479   5.197   2.324  1.00  0.00     0.275 C 
ENDROOT
BRANCH   1   2
ATOM      2  C   UNL     1       4.506   5.596   0.854  1.00  0.00     0.274 C 
BRANCH   2   3
ATOM      3  O   UNL     1       3.457   4.945   0.110  1.00  0.00    -0.462 OA
BRANCH   3   4
ATOM      4  C   UNL     1       3.749   3.784  -0.532  1.00  0.00     0.313 C 
ATOM      5  O   UNL     1       4.894   3.360  -0.674  1.00  0.00    -0.252 OA
BRANCH   4   6
ATOM      6  C   UNL     1       2.541   3.073  -1.152  1.00  0.00     0.130 C 
ATOM      7  C   UNL     1       2.458   3.433  -2.630  1.00  0.00     0.025 C 
BRANCH   6   8
ATOM      8  C   UNL     1       1.199   3.205  -0.455  1.00  0.00     0.010 A 
ATOM      9  C   UNL     1       0.607   0.662  -0.015  1.00  0.00     0.069 C 
ATOM     10  C   UNL     1       0.400   2.135   0.063  1.00  0.00     0.064 A 
ATOM     11  N   UNL     1      -0.684   2.579   0.701  1.00  0.00    -0.171 NA
ATOM     12  N   UNL     1      -0.622   3.924   0.616  1.00  0.00    -0.219 N 
ATOM     13  C   UNL     1       0.460   4.347  -0.151  1.00  0.00     0.047 A 
ATOM     14  C   UNL     1       0.787   5.786  -0.350  1.00  0.00     0.067 C 
BRANCH  12  15
ATOM     15  C   UNL     1      -1.630   4.728   1.230  1.00  0.00     0.156 A 
ATOM     16  C   UNL     1      -2.227   5.727   0.486  1.00  0.00     0.069 A 
ATOM     17  N   UNL     1      -1.940   4.505   2.528  1.00  0.00    -0.217 NA
ATOM     18  C   UNL     1      -3.105   6.540   1.162  1.00  0.00     0.117 A 
ATOM     19  C   UNL     1      -2.795   5.369   3.087  1.00  0.00     0.224 A 
ATOM     20  N   UNL     1      -3.393   6.401   2.466  1.00  0.00    -0.245 NA
ENDBRANCH  12  15
ENDBRANCH   6   8
ENDBRANCH   4   6
ENDBRANCH   3   4
ENDBRANCH   2   3
ENDBRANCH   1   2
BRANCH   1  21
ATOM     21  O   UNL     1       4.875   3.837   2.481  1.00  0.00    -0.458 OA
BRANCH  21  22
ATOM     22  C   UNL     1       3.838   2.975   2.409  1.00  0.00     0.338 C 
ATOM     23  O   UNL     1       2.702   3.218   2.054  1.00  0.00    -0.246 OA
BRANCH  22  24
ATOM     24  C   UNL     1       4.194   1.695   2.999  1.00  0.00     0.060 A 
ATOM     25  C   UNL     1       3.347   0.614   2.725  1.00  0.00     0.016 A 
ATOM     26  C   UNL     1       5.103   1.699   4.057  1.00  0.00     0.016 A 
ATOM     27  C   UNL     1       3.291  -0.422   3.624  1.00  0.00     0.010 A 
ATOM     28  C   UNL     1       5.020   0.686   4.971  1.00  0.00     0.010 A 
ATOM     29  C   UNL     1       4.074  -0.326   4.771  1.00  0.00    -0.014 A 
BRANCH  29  30
ATOM     30  C   UNL     1       3.972  -1.364   5.771  1.00  0.00     0.031 A 
ATOM     31  C   UNL     1       4.762  -2.566   5.424  1.00  0.00     0.074 A 
ATOM     32  C   UNL     1       3.395  -1.095   6.957  1.00  0.00     0.049 A 
ATOM     33  N   UNL     1       4.351  -3.782   5.276  1.00  0.00    -0.248 NA
ATOM     34  C   UNL     1       6.164  -2.354   5.016  1.00  0.00     0.031 C 
ATOM     35  C   UNL     1       2.894   0.215   7.399  1.00  0.00     0.029 A 
ATOM     36  N   UNL     1       3.313  -1.859   8.080  1.00  0.00    -0.354 N 
ATOM     37  C   UNL     1       5.511  -4.511   5.017  1.00  0.00     0.074 A 
ATOM     38  C   UNL     1       6.509  -3.570   4.602  1.00  0.00     0.031 C 
ATOM     39  C   UNL     1       2.822   0.223   8.746  1.00  0.00     0.029 A 
ATOM     40  C   UNL     1       3.155  -1.102   9.237  1.00  0.00     0.049 A 
ATOM     41  H   UNL     1       3.362  -2.843   8.075  1.00  0.00     0.167 HD
ATOM     42  C   UNL     1       5.672  -5.761   5.522  1.00  0.00     0.034 A 
ATOM     43  C   UNL     1       3.379  -1.510  10.507  1.00  0.00     0.034 A 
ATOM     44  C   UNL     1       4.416  -6.314   5.953  1.00  0.00     0.049 A 
ATOM     45  C   UNL     1       3.408  -2.989  10.512  1.00  0.00     0.074 A 
ATOM     46  C   UNL     1       3.268  -6.775   5.351  1.00  0.00     0.029 A 
ATOM     47  N   UNL     1       4.135  -6.098   7.277  1.00  0.00    -0.354 N 
ATOM     48  N   UNL     1       2.364  -3.732  10.278  1.00  0.00    -0.248 NA
ATOM     49  C   UNL     1       4.690  -3.683  10.467  1.00  0.00     0.031 C 
ATOM     50  C   UNL     1       2.236  -6.646   6.324  1.00  0.00     0.029 A 
ATOM     51  C   UNL     1       2.785  -6.113   7.492  1.00  0.00     0.049 A 
ATOM     52  H   UNL     1       4.812  -5.951   7.976  1.00  0.00     0.167 HD
ATOM     53  C   UNL     1       2.878  -4.843   9.632  1.00  0.00     0.074 A 
ATOM     54  C   UNL     1       4.297  -4.853   9.956  1.00  0.00     0.031 C 
ATOM     55  C   UNL     1       2.181  -5.448   8.629  1.00  0.00     0.034 A 
BRANCH  42  56
ATOM     56  C   UNL     1       6.976  -6.304   6.081  1.00  0.00     0.023 A 
ATOM     57  C   UNL     1       6.970  -7.659   6.482  1.00  0.00     0.012 A 
ATOM     58  C   UNL     1       8.075  -5.521   6.512  1.00  0.00     0.148 A 
ATOM     59  C   UNL     1       7.962  -8.186   7.315  1.00  0.00     0.002 A 
ATOM     60  C   UNL     1       9.099  -6.069   7.277  1.00  0.00     0.091 A 
ATOM     61  F   UNL     1       8.088  -4.201   6.318  1.00  0.00    -0.205 F 
ATOM     62  C   UNL     1       9.031  -7.393   7.709  1.00  0.00     0.022 A 
BRANCH  60  63
ATOM     63  S   UNL     1      10.518  -5.086   7.780  1.00  0.00     0.127 S 
ATOM     64  O   UNL     1      10.205  -4.817   9.180  1.00  0.00    -0.237 OA
ATOM     65  O   UNL     1      11.624  -6.018   7.558  1.00  0.00    -0.237 OA
ATOM     66  O   UNL     1      10.528  -3.931   6.890  1.00  0.00    -0.744 OA
ENDBRANCH  60  63
ENDBRANCH  42  56
BRANCH  43  67
ATOM     67  C   UNL     1       3.748  -0.724  11.704  1.00  0.00     0.023 A 
ATOM     68  C   UNL     1       3.433  -1.228  12.980  1.00  0.00     0.012 A 
ATOM     69  C   UNL     1       4.615   0.388  11.617  1.00  0.00     0.148 A 
ATOM     70  C   UNL     1       3.991  -0.668  14.133  1.00  0.00     0.002 A 
ATOM     71  C   UNL     1       5.160   0.949  12.768  1.00  0.00     0.091 A 
ATOM     72  F   UNL     1       4.974   0.835  10.406  1.00  0.00    -0.205 F 
ATOM     73  C   UNL     1       4.859   0.414  14.027  1.00  0.00     0.022 A 
BRANCH  71  74
ATOM     74  S   UNL     1       6.301   2.338  12.715  1.00  0.00     0.127 S 
ATOM     75  O   UNL     1       5.742   3.230  13.731  1.00  0.00    -0.237 OA
ATOM     76  O   UNL     1       7.564   1.704  13.085  1.00  0.00    -0.237 OA
ATOM     77  O   UNL     1       6.229   2.860  11.356  1.00  0.00    -0.744 OA
ENDBRANCH  71  74
ENDBRANCH  43  67
BRANCH  55  78
ATOM     78  C   UNL     1       0.700  -5.205   8.572  1.00  0.00     0.023 A 
ATOM     79  C   UNL     1       0.153  -3.942   8.271  1.00  0.00     0.012 A 
ATOM     80  C   UNL     1      -0.159  -6.307   8.707  1.00  0.00     0.148 A 
ATOM     81  C   UNL     1      -1.226  -3.778   8.133  1.00  0.00     0.002 A 
ATOM     82  C   UNL     1      -1.526  -6.151   8.519  1.00  0.00     0.091 A 
ATOM     83  F   UNL     1       0.379  -7.502   8.998  1.00  0.00    -0.205 F 
ATOM     84  C   UNL     1      -2.065  -4.885   8.243  1.00  0.00     0.022 A 
BRANCH  82  85
ATOM     85  S   UNL     1      -2.629  -7.564   8.518  1.00  0.00     0.127 S 
ATOM     86  O   UNL     1      -3.205  -7.507   9.860  1.00  0.00    -0.237 OA
ATOM     87  O   UNL     1      -3.562  -7.240   7.437  1.00  0.00    -0.237 OA
ATOM     88  O   UNL     1      -1.786  -8.722   8.241  1.00  0.00    -0.744 OA
ENDBRANCH  82  85
ENDBRANCH  55  78
ENDBRANCH  29  30
ENDBRANCH  22  24
ENDBRANCH  21  22
ENDBRANCH   1  21
TORSDOF 16
