REMARK SMILES C[C@@H]1CCC[C@H](C)N1C(=O)Cn1cccc1C(=O)OCCOC(=O)c1ccc(-c2c3nc(c(-c4cccc(S(=O)(=O)[O-])c4F)c4ccc([nH]4)c(-c4cccc(S(=O)(=O)[O-])c4F)c4nc(c(-c5cccc(S(=O)(=O)[O-])c5F)c5ccc2[nH]5)C=C4)C=C3)cc1
REMARK SMILES IDX 20 1 19 2 17 3 18 4 16 5 12 6 13 7 14 8 15 9 11 10 9 11
REMARK SMILES IDX 10 12 8 13 1 14 2 15 3 16 4 17 6 18 5 19 7 20 21 21 22 22
REMARK SMILES IDX 23 23 24 24 25 25 26 26 87 27 27 28 86 29 28 30 29 31 30 32
REMARK SMILES IDX 80 33 31 34 85 35 79 36 81 37 32 38 84 39 78 40 77 41 33 43
REMARK SMILES IDX 65 44 45 45 64 46 46 47 49 48 63 49 82 50 47 51 48 52 62 54
REMARK SMILES IDX 83 55 50 56 34 57 35 58 43 59 36 60 38 61 44 62 37 63 39 64
REMARK SMILES IDX 40 65 41 66 42 67 66 68 67 69 75 70 68 71 70 72 76 73 69 74
REMARK SMILES IDX 71 75 72 76 73 77 74 78 51 79 52 80 60 81 53 82 55 83 61 84
REMARK SMILES IDX 54 85 56 86 57 87 58 88 59 89
REMARK H PARENT 81 42 49 53
REMARK Flexibility Score: inf
ROOT
ATOM      1  C   UNL     1      -2.275  -1.385   2.557  1.00  0.00     0.275 C 
ENDROOT
BRANCH   1   2
ATOM      2  O   UNL     1      -0.978  -0.775   2.505  1.00  0.00    -0.457 OA
BRANCH   2   3
ATOM      3  C   UNL     1      -0.559  -0.304   3.713  1.00  0.00     0.355 C 
ATOM      4  O   UNL     1      -1.273  -0.128   4.688  1.00  0.00    -0.244 OA
BRANCH   3   5
ATOM      5  C   UNL     1       0.879  -0.159   3.709  1.00  0.00     0.128 A 
ATOM      6  N   UNL     1       1.618   0.957   3.367  1.00  0.00    -0.333 N 
ATOM      7  C   UNL     1       2.944   0.734   3.671  1.00  0.00     0.087 A 
ATOM      8  C   UNL     1       3.077  -0.557   4.122  1.00  0.00     0.020 A 
ATOM      9  C   UNL     1       1.784  -1.122   4.136  1.00  0.00     0.035 A 
BRANCH   6  10
ATOM     10  C   UNL     1       1.127   2.244   2.878  1.00  0.00     0.222 C 
BRANCH  10  11
ATOM     11  C   UNL     1       0.124   2.142   1.749  1.00  0.00     0.242 C 
ATOM     12  O   UNL     1      -1.035   2.527   1.948  1.00  0.00    -0.273 OA
BRANCH  11  13
ATOM     13  N   UNL     1       0.510   1.584   0.533  1.00  0.00    -0.336 N 
ATOM     14  C   UNL     1       2.213   2.491  -1.064  1.00  0.00     0.031 C 
ATOM     15  C   UNL     1       1.908   1.480   0.046  1.00  0.00     0.082 C 
ATOM     16  C   UNL     1       2.246   0.057  -0.404  1.00  0.00     0.025 C 
ATOM     17  C   UNL     1       1.209  -0.476  -1.384  1.00  0.00     0.004 C 
ATOM     18  C   UNL     1      -0.564   0.970  -0.273  1.00  0.00     0.082 C 
ATOM     19  C   UNL     1      -0.162  -0.428  -0.735  1.00  0.00     0.025 C 
ATOM     20  C   UNL     1      -1.082   1.839  -1.412  1.00  0.00     0.031 C 
ENDBRANCH  11  13
ENDBRANCH  10  11
ENDBRANCH   6  10
ENDBRANCH   3   5
ENDBRANCH   2   3
ENDBRANCH   1   2
BRANCH   1  21
ATOM     21  C   UNL     1      -2.589  -2.184   1.287  1.00  0.00     0.275 C 
BRANCH  21  22
ATOM     22  O   UNL     1      -1.526  -2.936   0.682  1.00  0.00    -0.458 OA
BRANCH  22  23
ATOM     23  C   UNL     1      -0.516  -3.461   1.412  1.00  0.00     0.338 C 
ATOM     24  O   UNL     1      -0.456  -3.570   2.621  1.00  0.00    -0.246 OA
BRANCH  23  25
ATOM     25  C   UNL     1       0.608  -3.702   0.472  1.00  0.00     0.060 A 
ATOM     26  C   UNL     1       1.915  -3.450   0.909  1.00  0.00     0.016 A 
ATOM     27  C   UNL     1       0.372  -4.112  -0.848  1.00  0.00     0.016 A 
ATOM     28  C   UNL     1       2.989  -3.647   0.040  1.00  0.00     0.010 A 
ATOM     29  C   UNL     1       1.442  -4.305  -1.719  1.00  0.00     0.010 A 
ATOM     30  C   UNL     1       2.755  -4.119  -1.261  1.00  0.00    -0.014 A 
BRANCH  30  31
ATOM     31  C   UNL     1       3.876  -4.755  -2.005  1.00  0.00     0.031 A 
ATOM     32  C   UNL     1       4.110  -6.215  -1.502  1.00  0.00     0.074 A 
ATOM     33  C   UNL     1       4.500  -4.022  -2.979  1.00  0.00     0.049 A 
ATOM     34  N   UNL     1       5.146  -6.997  -1.607  1.00  0.00    -0.248 NA
ATOM     35  C   UNL     1       3.050  -6.865  -0.673  1.00  0.00     0.031 C 
ATOM     36  C   UNL     1       4.146  -2.636  -3.360  1.00  0.00     0.029 A 
ATOM     37  N   UNL     1       5.542  -4.278  -3.852  1.00  0.00    -0.354 N 
ATOM     38  C   UNL     1       4.766  -8.264  -1.084  1.00  0.00     0.074 A 
ATOM     39  C   UNL     1       3.528  -8.079  -0.405  1.00  0.00     0.031 C 
ATOM     40  C   UNL     1       4.983  -2.162  -4.311  1.00  0.00     0.029 A 
ATOM     41  C   UNL     1       5.937  -3.193  -4.680  1.00  0.00     0.049 A 
ATOM     42  H   UNL     1       5.982  -5.158  -3.897  1.00  0.00     0.167 HD
ATOM     43  C   UNL     1       5.422  -9.431  -1.347  1.00  0.00     0.034 A 
ATOM     44  C   UNL     1       6.968  -3.122  -5.583  1.00  0.00     0.034 A 
ATOM     45  C   UNL     1       6.527  -9.178  -2.204  1.00  0.00     0.049 A 
ATOM     46  C   UNL     1       7.473  -4.495  -5.703  1.00  0.00     0.074 A 
ATOM     47  C   UNL     1       7.793  -8.711  -1.984  1.00  0.00     0.029 A 
ATOM     48  N   UNL     1       6.247  -9.147  -3.547  1.00  0.00    -0.354 N 
ATOM     49  N   UNL     1       6.845  -5.451  -6.320  1.00  0.00    -0.248 NA
ATOM     50  C   UNL     1       8.721  -4.861  -5.025  1.00  0.00     0.031 C 
ATOM     51  C   UNL     1       8.122  -8.049  -3.182  1.00  0.00     0.029 A 
ATOM     52  C   UNL     1       7.098  -8.236  -4.119  1.00  0.00     0.049 A 
ATOM     53  H   UNL     1       5.563  -9.679  -4.013  1.00  0.00     0.167 HD
ATOM     54  C   UNL     1       7.435  -6.571  -5.791  1.00  0.00     0.074 A 
ATOM     55  C   UNL     1       8.732  -6.159  -5.310  1.00  0.00     0.031 C 
ATOM     56  C   UNL     1       6.662  -7.587  -5.332  1.00  0.00     0.034 A 
BRANCH  43  57
ATOM     57  C   UNL     1       5.112 -10.886  -1.075  1.00  0.00     0.023 A 
ATOM     58  C   UNL     1       6.239 -11.757  -1.066  1.00  0.00     0.012 A 
ATOM     59  C   UNL     1       3.839 -11.484  -1.117  1.00  0.00     0.148 A 
ATOM     60  C   UNL     1       6.124 -13.139  -1.207  1.00  0.00     0.002 A 
ATOM     61  C   UNL     1       3.727 -12.878  -1.213  1.00  0.00     0.091 A 
ATOM     62  F   UNL     1       2.749 -10.709  -1.153  1.00  0.00    -0.205 F 
ATOM     63  C   UNL     1       4.864 -13.698  -1.294  1.00  0.00     0.022 A 
BRANCH  61  64
ATOM     64  S   UNL     1       2.145 -13.732  -1.254  1.00  0.00     0.127 S 
ATOM     65  O   UNL     1       2.005 -14.048  -2.673  1.00  0.00    -0.237 OA
ATOM     66  O   UNL     1       2.403 -14.895  -0.400  1.00  0.00    -0.237 OA
ATOM     67  O   UNL     1       1.181 -12.794  -0.696  1.00  0.00    -0.744 OA
ENDBRANCH  61  64
ENDBRANCH  43  57
BRANCH  44  68
ATOM     68  C   UNL     1       7.707  -2.062  -6.381  1.00  0.00     0.023 A 
ATOM     69  C   UNL     1       7.274  -0.737  -6.530  1.00  0.00     0.012 A 
ATOM     70  C   UNL     1       8.987  -2.356  -6.955  1.00  0.00     0.148 A 
ATOM     71  C   UNL     1       8.101   0.247  -7.114  1.00  0.00     0.002 A 
ATOM     72  C   UNL     1       9.851  -1.365  -7.412  1.00  0.00     0.091 A 
ATOM     73  F   UNL     1       9.377  -3.626  -7.096  1.00  0.00    -0.205 F 
ATOM     74  C   UNL     1       9.405  -0.053  -7.507  1.00  0.00     0.022 A 
BRANCH  72  75
ATOM     75  S   UNL     1      11.597  -1.695  -7.734  1.00  0.00     0.127 S 
ATOM     76  O   UNL     1      11.769  -1.178  -9.090  1.00  0.00    -0.237 OA
ATOM     77  O   UNL     1      12.240  -0.900  -6.688  1.00  0.00    -0.237 OA
ATOM     78  O   UNL     1      11.778  -3.134  -7.594  1.00  0.00    -0.744 OA
ENDBRANCH  72  75
ENDBRANCH  44  68
BRANCH  56  79
ATOM     79  C   UNL     1       5.278  -7.665  -5.974  1.00  0.00     0.023 A 
ATOM     80  C   UNL     1       5.232  -7.901  -7.363  1.00  0.00     0.012 A 
ATOM     81  C   UNL     1       4.047  -7.410  -5.322  1.00  0.00     0.148 A 
ATOM     82  C   UNL     1       4.029  -7.874  -8.075  1.00  0.00     0.002 A 
ATOM     83  C   UNL     1       2.843  -7.380  -6.034  1.00  0.00     0.091 A 
ATOM     84  F   UNL     1       4.055  -7.181  -4.011  1.00  0.00    -0.205 F 
ATOM     85  C   UNL     1       2.836  -7.616  -7.413  1.00  0.00     0.022 A 
BRANCH  83  86
ATOM     86  S   UNL     1       1.240  -7.019  -5.287  1.00  0.00     0.127 S 
ATOM     87  O   UNL     1       0.856  -5.771  -5.949  1.00  0.00    -0.237 OA
ATOM     88  O   UNL     1       0.443  -8.178  -5.688  1.00  0.00    -0.237 OA
ATOM     89  O   UNL     1       1.470  -6.893  -3.854  1.00  0.00    -0.744 OA
ENDBRANCH  83  86
ENDBRANCH  56  79
ENDBRANCH  30  31
ENDBRANCH  23  25
ENDBRANCH  22  23
ENDBRANCH  21  22
ENDBRANCH   1  21
TORSDOF 17
