REMARK SMILES CC1(C)C[C@@](Cc2ccccc2)(C(=O)OCCOC(=O)c2ccc(-c3c4nc(c(-c5cccc(S(=O)(=O)[O-])c5F)c5ccc([nH]5)c(-c5cccc(S(=O)(=O)[O-])c5F)c5nc(c(-c6cccc(S(=O)(=O)[O-])c6F)c6ccc3[nH]6)C=C5)C=C4)cc2)CCO1
REMARK SMILES IDX 17 1 16 2 15 3 13 4 14 5 5 6 1 7 2 8 3 9 4 10 86 11 85 12
REMARK SMILES IDX 84 13 6 14 7 15 8 16 12 17 9 18 11 19 10 20 18 21 19 22
REMARK SMILES IDX 20 23 21 24 22 25 83 26 23 27 82 28 24 29 25 30 26 31 76 32
REMARK SMILES IDX 27 33 81 34 75 35 77 36 28 37 80 38 74 39 73 40 29 42 61 43
REMARK SMILES IDX 41 44 60 45 42 46 45 47 59 48 78 49 43 50 44 51 58 53 79 54
REMARK SMILES IDX 46 55 30 56 31 57 39 58 32 59 34 60 40 61 33 62 35 63 36 64
REMARK SMILES IDX 37 65 38 66 62 67 63 68 71 69 64 70 66 71 72 72 65 73 67 74
REMARK SMILES IDX 68 75 69 76 70 77 47 78 48 79 56 80 49 81 51 82 57 83 50 84
REMARK SMILES IDX 52 85 53 86 54 87 55 88
REMARK H PARENT 77 41 45 52
REMARK Flexibility Score: inf
ROOT
ATOM      1  C   UNL     1       1.000   2.116  -2.928  1.00  0.00     0.275 C 
ENDROOT
BRANCH   1   2
ATOM      2  C   UNL     1      -0.463   1.728  -2.689  1.00  0.00     0.274 C 
BRANCH   2   3
ATOM      3  O   UNL     1      -0.738   1.854  -1.281  1.00  0.00    -0.462 OA
BRANCH   3   4
ATOM      4  C   UNL     1      -2.014   1.618  -0.872  1.00  0.00     0.312 C 
ATOM      5  O   UNL     1      -2.939   1.351  -1.629  1.00  0.00    -0.252 OA
BRANCH   4   6
ATOM      6  C   UNL     1      -2.149   1.789   0.649  1.00  0.00     0.077 C 
ATOM      7  C   UNL     1      -0.722  -1.204   0.240  1.00  0.00     0.042 C 
ATOM      8  C   UNL     1      -1.048  -0.422   1.529  1.00  0.00     0.064 C 
ATOM      9  C   UNL     1      -0.057  -0.817   2.639  1.00  0.00     0.042 C 
ATOM     10  C   UNL     1      -0.980   1.119   1.404  1.00  0.00     0.054 C 
ATOM     11  O   UNL     1      -2.342  -0.806   2.008  1.00  0.00    -0.376 OA
ATOM     12  C   UNL     1      -3.425  -0.363   1.198  1.00  0.00     0.162 C 
ATOM     13  C   UNL     1      -3.471   1.154   1.149  1.00  0.00     0.047 C 
BRANCH   6  14
ATOM     14  C   UNL     1      -2.243   3.324   0.940  1.00  0.00     0.054 C 
BRANCH  14  15
ATOM     15  C   UNL     1      -0.969   4.125   0.783  1.00  0.00    -0.047 A 
ATOM     16  C   UNL     1      -0.046   4.207   1.836  1.00  0.00     0.004 A 
ATOM     17  C   UNL     1      -0.667   4.759  -0.429  1.00  0.00     0.004 A 
ATOM     18  C   UNL     1       1.182   4.843   1.657  1.00  0.00     0.000 A 
ATOM     19  C   UNL     1       0.561   5.398  -0.606  1.00  0.00     0.000 A 
ATOM     20  C   UNL     1       1.491   5.426   0.432  1.00  0.00     0.000 A 
ENDBRANCH  14  15
ENDBRANCH   6  14
ENDBRANCH   4   6
ENDBRANCH   3   4
ENDBRANCH   2   3
ENDBRANCH   1   2
BRANCH   1  21
ATOM     21  O   UNL     1       1.826   1.194  -2.198  1.00  0.00    -0.458 OA
BRANCH  21  22
ATOM     22  C   UNL     1       2.995   1.663  -1.692  1.00  0.00     0.338 C 
ATOM     23  O   UNL     1       3.525   2.730  -1.941  1.00  0.00    -0.246 OA
BRANCH  22  24
ATOM     24  C   UNL     1       3.526   0.641  -0.753  1.00  0.00     0.060 A 
ATOM     25  C   UNL     1       2.625  -0.112  -0.005  1.00  0.00     0.016 A 
ATOM     26  C   UNL     1       4.894   0.441  -0.569  1.00  0.00     0.016 A 
ATOM     27  C   UNL     1       3.070  -1.060   0.909  1.00  0.00     0.010 A 
ATOM     28  C   UNL     1       5.343  -0.544   0.332  1.00  0.00     0.010 A 
ATOM     29  C   UNL     1       4.431  -1.301   1.092  1.00  0.00    -0.014 A 
BRANCH  29  30
ATOM     30  C   UNL     1       4.851  -2.255   2.159  1.00  0.00     0.031 A 
ATOM     31  C   UNL     1       5.689  -1.759   3.304  1.00  0.00     0.074 A 
ATOM     32  C   UNL     1       4.404  -3.528   2.190  1.00  0.00     0.049 A 
ATOM     33  N   UNL     1       6.322  -2.439   4.223  1.00  0.00    -0.248 NA
ATOM     34  C   UNL     1       5.829  -0.300   3.432  1.00  0.00     0.031 C 
ATOM     35  C   UNL     1       3.479  -4.123   1.225  1.00  0.00     0.029 A 
ATOM     36  N   UNL     1       4.643  -4.546   3.084  1.00  0.00    -0.354 N 
ATOM     37  C   UNL     1       7.038  -1.503   4.956  1.00  0.00     0.074 A 
ATOM     38  C   UNL     1       6.702  -0.200   4.423  1.00  0.00     0.031 C 
ATOM     39  C   UNL     1       3.184  -5.374   1.608  1.00  0.00     0.029 A 
ATOM     40  C   UNL     1       3.998  -5.721   2.769  1.00  0.00     0.049 A 
ATOM     41  H   UNL     1       5.221  -4.444   3.874  1.00  0.00     0.167 HD
ATOM     42  C   UNL     1       7.919  -1.718   5.961  1.00  0.00     0.034 A 
ATOM     43  C   UNL     1       4.096  -6.955   3.306  1.00  0.00     0.034 A 
ATOM     44  C   UNL     1       8.177  -3.008   6.540  1.00  0.00     0.049 A 
ATOM     45  C   UNL     1       5.070  -7.178   4.432  1.00  0.00     0.074 A 
ATOM     46  C   UNL     1       9.077  -3.345   7.535  1.00  0.00     0.029 A 
ATOM     47  N   UNL     1       7.515  -4.175   6.187  1.00  0.00    -0.354 N 
ATOM     48  N   UNL     1       5.817  -6.303   5.060  1.00  0.00    -0.248 NA
ATOM     49  C   UNL     1       5.234  -8.560   4.907  1.00  0.00     0.031 C 
ATOM     50  C   UNL     1       8.970  -4.721   7.772  1.00  0.00     0.029 A 
ATOM     51  C   UNL     1       7.986  -5.235   6.942  1.00  0.00     0.049 A 
ATOM     52  H   UNL     1       6.814  -4.240   5.500  1.00  0.00     0.167 HD
ATOM     53  C   UNL     1       6.550  -7.026   5.994  1.00  0.00     0.074 A 
ATOM     54  C   UNL     1       6.121  -8.405   5.882  1.00  0.00     0.031 C 
ATOM     55  C   UNL     1       7.519  -6.595   6.839  1.00  0.00     0.034 A 
BRANCH  42  56
ATOM     56  C   UNL     1       8.720  -0.535   6.433  1.00  0.00     0.023 A 
ATOM     57  C   UNL     1       8.139   0.454   7.249  1.00  0.00     0.012 A 
ATOM     58  C   UNL     1      10.068  -0.407   6.041  1.00  0.00     0.148 A 
ATOM     59  C   UNL     1       8.878   1.575   7.633  1.00  0.00     0.002 A 
ATOM     60  C   UNL     1      10.808   0.690   6.461  1.00  0.00     0.091 A 
ATOM     61  F   UNL     1      10.592  -1.344   5.238  1.00  0.00    -0.205 F 
ATOM     62  C   UNL     1      10.212   1.689   7.246  1.00  0.00     0.022 A 
BRANCH  60  63
ATOM     63  S   UNL     1      12.548   0.881   6.059  1.00  0.00     0.127 S 
ATOM     64  O   UNL     1      12.500   1.896   5.008  1.00  0.00    -0.237 OA
ATOM     65  O   UNL     1      13.111   1.343   7.329  1.00  0.00    -0.237 OA
ATOM     66  O   UNL     1      13.007  -0.437   5.642  1.00  0.00    -0.744 OA
ENDBRANCH  60  63
ENDBRANCH  42  56
BRANCH  43  67
ATOM     67  C   UNL     1       3.288  -8.078   2.741  1.00  0.00     0.023 A 
ATOM     68  C   UNL     1       2.291  -8.694   3.521  1.00  0.00     0.012 A 
ATOM     69  C   UNL     1       3.460  -8.495   1.405  1.00  0.00     0.148 A 
ATOM     70  C   UNL     1       1.482  -9.697   2.980  1.00  0.00     0.002 A 
ATOM     71  C   UNL     1       2.597  -9.430   0.849  1.00  0.00     0.091 A 
ATOM     72  F   UNL     1       4.449  -7.942   0.689  1.00  0.00    -0.205 F 
ATOM     73  C   UNL     1       1.617 -10.047   1.638  1.00  0.00     0.022 A 
BRANCH  71  74
ATOM     74  S   UNL     1       2.589  -9.775  -0.915  1.00  0.00     0.127 S 
ATOM     75  O   UNL     1       3.248 -11.077  -0.971  1.00  0.00    -0.237 OA
ATOM     76  O   UNL     1       1.157  -9.795  -1.217  1.00  0.00    -0.237 OA
ATOM     77  O   UNL     1       3.308  -8.666  -1.529  1.00  0.00    -0.744 OA
ENDBRANCH  71  74
ENDBRANCH  43  67
BRANCH  55  78
ATOM     78  C   UNL     1       8.185  -7.624   7.712  1.00  0.00     0.023 A 
ATOM     79  C   UNL     1       9.127  -8.507   7.148  1.00  0.00     0.012 A 
ATOM     80  C   UNL     1       7.941  -7.662   9.098  1.00  0.00     0.148 A 
ATOM     81  C   UNL     1       9.800  -9.430   7.947  1.00  0.00     0.002 A 
ATOM     82  C   UNL     1       8.646  -8.556   9.895  1.00  0.00     0.091 A 
ATOM     83  F   UNL     1       7.025  -6.828   9.610  1.00  0.00    -0.205 F 
ATOM     84  C   UNL     1       9.569  -9.447   9.321  1.00  0.00     0.022 A 
BRANCH  82  85
ATOM     85  S   UNL     1       8.477  -8.582  11.683  1.00  0.00     0.127 S 
ATOM     86  O   UNL     1       7.663  -9.779  11.888  1.00  0.00    -0.237 OA
ATOM     87  O   UNL     1       9.866  -8.704  12.128  1.00  0.00    -0.237 OA
ATOM     88  O   UNL     1       7.840  -7.321  12.041  1.00  0.00    -0.744 OA
ENDBRANCH  82  85
ENDBRANCH  55  78
ENDBRANCH  29  30
ENDBRANCH  22  24
ENDBRANCH  21  22
ENDBRANCH   1  21
TORSDOF 16
