REMARK SMILES C[C@@H](CC(=O)OCCOC(=O)c1ccc(-c2c3nc(c(-c4cccc(S(=O)(=O)[O-])c4F)c4ccc([nH]4)c(-c4cccc(S(=O)(=O)[O-])c4F)c4nc(c(-c5cccc(S(=O)(=O)[O-])c5F)c5ccc2[nH]5)C=C4)C=C3)cc1)CC(=O)N1C[C@H](C)[C@@H](C)C1
REMARK SMILES IDX 7 1 6 2 4 3 5 4 3 5 2 6 1 7 75 8 76 9 77 10 78 11 79 12
REMARK SMILES IDX 84 13 80 14 82 15 81 16 83 17 8 18 9 19 10 20 11 21 12 22
REMARK SMILES IDX 13 23 74 24 14 25 73 26 15 27 16 28 17 29 67 30 18 31 72 32
REMARK SMILES IDX 66 33 68 34 19 35 71 36 65 37 64 38 20 40 52 41 32 42 51 43
REMARK SMILES IDX 33 44 36 45 50 46 69 47 34 48 35 49 49 51 70 52 37 53 21 54
REMARK SMILES IDX 22 55 30 56 23 57 25 58 31 59 24 60 26 61 27 62 28 63 29 64
REMARK SMILES IDX 53 65 54 66 62 67 55 68 57 69 63 70 56 71 58 72 59 73 60 74
REMARK SMILES IDX 61 75 38 76 39 77 47 78 40 79 42 80 48 81 41 82 43 83 44 84
REMARK SMILES IDX 45 85 46 86
REMARK H PARENT 68 39 36 50
REMARK Flexibility Score: inf
ROOT
ATOM      1  C   UNL     1       0.636  -3.472   1.535  1.00  0.00     0.274 C 
ENDROOT
BRANCH   1   2
ATOM      2  O   UNL     1       0.848  -2.434   0.557  1.00  0.00    -0.462 OA
BRANCH   2   3
ATOM      3  C   UNL     1       1.399  -2.799  -0.626  1.00  0.00     0.306 C 
ATOM      4  O   UNL     1       1.812  -3.923  -0.884  1.00  0.00    -0.252 OA
BRANCH   3   5
ATOM      5  C   UNL     1       1.414  -1.683  -1.661  1.00  0.00     0.126 C 
BRANCH   5   6
ATOM      6  C   UNL     1       1.107  -0.239  -1.209  1.00  0.00     0.006 C 
ATOM      7  C   UNL     1       2.184   0.216  -0.223  1.00  0.00     0.009 C 
BRANCH   6   8
ATOM      8  C   UNL     1      -0.331  -0.114  -0.680  1.00  0.00     0.104 C 
BRANCH   8   9
ATOM      9  C   UNL     1      -1.029   1.231  -0.809  1.00  0.00     0.222 C 
ATOM     10  O   UNL     1      -1.639   1.544  -1.829  1.00  0.00    -0.275 OA
ATOM     11  N   UNL     1      -1.055   1.995   0.339  1.00  0.00    -0.342 N 
ATOM     12  C   UNL     1      -2.205   2.795   0.706  1.00  0.00     0.123 C 
ATOM     13  C   UNL     1       0.138   2.416   1.037  1.00  0.00     0.123 C 
ATOM     14  C   UNL     1      -1.630   4.033   1.391  1.00  0.00     0.010 C 
ATOM     15  C   UNL     1      -0.288   3.546   1.973  1.00  0.00     0.010 C 
ATOM     16  C   UNL     1      -1.438   5.156   0.372  1.00  0.00     0.010 C 
ATOM     17  C   UNL     1      -0.413   3.041   3.409  1.00  0.00     0.010 C 
ENDBRANCH   8   9
ENDBRANCH   6   8
ENDBRANCH   5   6
ENDBRANCH   3   5
ENDBRANCH   2   3
ENDBRANCH   1   2
BRANCH   1  18
ATOM     18  C   UNL     1      -0.852  -3.793   1.641  1.00  0.00     0.275 C 
BRANCH  18  19
ATOM     19  O   UNL     1      -1.327  -4.263   0.371  1.00  0.00    -0.458 OA
BRANCH  19  20
ATOM     20  C   UNL     1      -2.235  -3.471  -0.244  1.00  0.00     0.338 C 
ATOM     21  O   UNL     1      -2.737  -2.446   0.180  1.00  0.00    -0.246 OA
BRANCH  20  22
ATOM     22  C   UNL     1      -2.541  -4.041  -1.563  1.00  0.00     0.060 A 
ATOM     23  C   UNL     1      -1.567  -4.043  -2.565  1.00  0.00     0.016 A 
ATOM     24  C   UNL     1      -3.826  -4.511  -1.819  1.00  0.00     0.016 A 
ATOM     25  C   UNL     1      -1.891  -4.473  -3.850  1.00  0.00     0.010 A 
ATOM     26  C   UNL     1      -4.128  -5.006  -3.087  1.00  0.00     0.010 A 
ATOM     27  C   UNL     1      -3.171  -4.972  -4.117  1.00  0.00    -0.014 A 
BRANCH  27  28
ATOM     28  C   UNL     1      -3.539  -5.477  -5.462  1.00  0.00     0.031 A 
ATOM     29  C   UNL     1      -4.631  -4.795  -6.235  1.00  0.00     0.074 A 
ATOM     30  C   UNL     1      -2.965  -6.600  -5.932  1.00  0.00     0.049 A 
ATOM     31  N   UNL     1      -5.284  -5.213  -7.285  1.00  0.00    -0.248 NA
ATOM     32  C   UNL     1      -5.057  -3.472  -5.747  1.00  0.00     0.031 C 
ATOM     33  C   UNL     1      -1.886  -7.339  -5.273  1.00  0.00     0.029 A 
ATOM     34  N   UNL     1      -3.244  -7.345  -7.051  1.00  0.00    -0.354 N 
ATOM     35  C   UNL     1      -6.241  -4.241  -7.547  1.00  0.00     0.074 A 
ATOM     36  C   UNL     1      -6.074  -3.202  -6.554  1.00  0.00     0.031 C 
ATOM     37  C   UNL     1      -1.616  -8.446  -5.980  1.00  0.00     0.029 A 
ATOM     38  C   UNL     1      -2.542  -8.527  -7.104  1.00  0.00     0.049 A 
ATOM     39  H   UNL     1      -3.882  -7.062  -7.745  1.00  0.00     0.167 HD
ATOM     40  C   UNL     1      -7.171  -4.220  -8.530  1.00  0.00     0.034 A 
ATOM     41  C   UNL     1      -2.667  -9.583  -7.932  1.00  0.00     0.034 A 
ATOM     42  C   UNL     1      -7.289  -5.235  -9.542  1.00  0.00     0.049 A 
ATOM     43  C   UNL     1      -3.707  -9.534  -9.016  1.00  0.00     0.074 A 
ATOM     44  C   UNL     1      -8.164  -5.288 -10.612  1.00  0.00     0.029 A 
ATOM     45  N   UNL     1      -6.501  -6.375  -9.611  1.00  0.00    -0.354 N 
ATOM     46  N   UNL     1      -4.560  -8.579  -9.296  1.00  0.00    -0.248 NA
ATOM     47  C   UNL     1      -3.792 -10.698  -9.910  1.00  0.00     0.031 C 
ATOM     48  C   UNL     1      -7.909  -6.464 -11.325  1.00  0.00     0.029 A 
ATOM     49  C   UNL     1      -6.868  -7.138 -10.705  1.00  0.00     0.049 A 
ATOM     50  H   UNL     1      -5.785  -6.606  -8.976  1.00  0.00     0.167 HD
ATOM     51  C   UNL     1      -5.262  -9.009 -10.415  1.00  0.00     0.074 A 
ATOM     52  C   UNL     1      -4.725 -10.307 -10.770  1.00  0.00     0.031 C 
ATOM     53  C   UNL     1      -6.272  -8.395 -11.078  1.00  0.00     0.034 A 
BRANCH  40  54
ATOM     54  C   UNL     1      -8.117  -3.050  -8.582  1.00  0.00     0.023 A 
ATOM     55  C   UNL     1      -7.658  -1.805  -9.056  1.00  0.00     0.012 A 
ATOM     56  C   UNL     1      -9.471  -3.197  -8.221  1.00  0.00     0.148 A 
ATOM     57  C   UNL     1      -8.527  -0.718  -9.148  1.00  0.00     0.002 A 
ATOM     58  C   UNL     1     -10.339  -2.118  -8.350  1.00  0.00     0.091 A 
ATOM     59  F   UNL     1      -9.883  -4.381  -7.747  1.00  0.00    -0.205 F 
ATOM     60  C   UNL     1      -9.867  -0.876  -8.806  1.00  0.00     0.022 A 
BRANCH  58  61
ATOM     61  S   UNL     1     -12.097  -2.249  -8.000  1.00  0.00     0.127 S 
ATOM     62  O   UNL     1     -12.194  -1.565  -6.711  1.00  0.00    -0.237 OA
ATOM     63  O   UNL     1     -12.694  -1.522  -9.121  1.00  0.00    -0.237 OA
ATOM     64  O   UNL     1     -12.394  -3.674  -7.980  1.00  0.00    -0.744 OA
ENDBRANCH  58  61
ENDBRANCH  40  54
BRANCH  41  65
ATOM     65  C   UNL     1      -1.763 -10.756  -7.771  1.00  0.00     0.023 A 
ATOM     66  C   UNL     1      -0.760 -10.986  -8.731  1.00  0.00     0.012 A 
ATOM     67  C   UNL     1      -1.847 -11.604  -6.648  1.00  0.00     0.148 A 
ATOM     68  C   UNL     1       0.135 -12.047  -8.584  1.00  0.00     0.002 A 
ATOM     69  C   UNL     1      -0.918 -12.625  -6.480  1.00  0.00     0.091 A 
ATOM     70  F   UNL     1      -2.822 -11.383  -5.755  1.00  0.00    -0.205 F 
ATOM     71  C   UNL     1       0.066 -12.856  -7.453  1.00  0.00     0.022 A 
BRANCH  69  72
ATOM     72  S   UNL     1      -0.852 -13.620  -4.984  1.00  0.00     0.127 S 
ATOM     73  O   UNL     1      -1.461 -14.870  -5.429  1.00  0.00    -0.237 OA
ATOM     74  O   UNL     1       0.587 -13.693  -4.726  1.00  0.00    -0.237 OA
ATOM     75  O   UNL     1      -1.598 -12.866  -3.985  1.00  0.00    -0.744 OA
ENDBRANCH  69  72
ENDBRANCH  41  65
BRANCH  53  76
ATOM     76  C   UNL     1      -6.842  -9.092 -12.282  1.00  0.00     0.023 A 
ATOM     77  C   UNL     1      -7.732 -10.169 -12.105  1.00  0.00     0.012 A 
ATOM     78  C   UNL     1      -6.574  -8.615 -13.579  1.00  0.00     0.148 A 
ATOM     79  C   UNL     1      -8.337 -10.772 -13.206  1.00  0.00     0.002 A 
ATOM     80  C   UNL     1      -7.212  -9.194 -14.669  1.00  0.00     0.091 A 
ATOM     81  F   UNL     1      -5.708  -7.601 -13.722  1.00  0.00    -0.205 F 
ATOM     82  C   UNL     1      -8.088 -10.277 -14.485  1.00  0.00     0.022 A 
BRANCH  80  83
ATOM     83  S   UNL     1      -7.020  -8.568 -16.341  1.00  0.00     0.127 S 
ATOM     84  O   UNL     1      -6.193  -9.605 -16.955  1.00  0.00    -0.237 OA
ATOM     85  O   UNL     1      -8.403  -8.527 -16.819  1.00  0.00    -0.237 OA
ATOM     86  O   UNL     1      -6.389  -7.261 -16.210  1.00  0.00    -0.744 OA
ENDBRANCH  80  83
ENDBRANCH  53  76
ENDBRANCH  27  28
ENDBRANCH  20  22
ENDBRANCH  19  20
ENDBRANCH  18  19
ENDBRANCH   1  18
TORSDOF 17
