REMARK SMILES C[C@@](NC(=O)[C@H]1COc2ccccc21)(C(=O)OCCOC(=O)c1ccc(-c2c3nc(c(-c4cccc(S(=O)(=O)[O-])c4F)c4ccc([nH]4)c(-c4cccc(S(=O)(=O)[O-])c4F)c4nc(c(-c5cccc(S(=O)(=O)[O-])c5F)c5ccc2[nH]5)C=C4)C=C3)cc1)C(F)(F)F
REMARK SMILES IDX 19 1 18 2 17 3 15 4 16 5 2 6 1 7 3 8 4 9 5 11 6 12 7 13
REMARK SMILES IDX 14 14 8 15 9 16 13 17 10 18 12 19 11 20 86 21 87 22 88 23
REMARK SMILES IDX 89 24 20 25 21 26 22 27 23 28 24 29 85 30 25 31 84 32 26 33
REMARK SMILES IDX 27 34 28 35 78 36 29 37 83 38 77 39 79 40 30 41 82 42 76 43
REMARK SMILES IDX 75 44 31 46 63 47 43 48 62 49 44 50 47 51 61 52 80 53 45 54
REMARK SMILES IDX 46 55 60 57 81 58 48 59 32 60 33 61 41 62 34 63 36 64 42 65
REMARK SMILES IDX 35 66 37 67 38 68 39 69 40 70 64 71 65 72 73 73 66 74 68 75
REMARK SMILES IDX 74 76 67 77 69 78 70 79 71 80 72 81 49 82 50 83 58 84 51 85
REMARK SMILES IDX 53 86 59 87 52 88 54 89 55 90 56 91 57 92
REMARK H PARENT 3 10 79 45 47 56
REMARK Flexibility Score: inf
ROOT
ATOM      1  C   UNL     1      -3.843   0.111   0.440  1.00  0.00     0.275 C 
ENDROOT
BRANCH   1   2
ATOM      2  C   UNL     1      -3.106   1.296  -0.680  1.00  0.00     0.274 C 
BRANCH   2   3
ATOM      3  O   UNL     1      -1.107   1.786  -0.604  1.00  0.00    -0.460 OA
BRANCH   3   4
ATOM      4  C   UNL     1       0.108   2.196   0.021  1.00  0.00     0.341 C 
ATOM      5  O   UNL     1       0.243   2.603   1.164  1.00  0.00    -0.249 OA
BRANCH   4   6
ATOM      6  C   UNL     1       1.254   1.849  -0.890  1.00  0.00     0.231 C 
ATOM      7  C   UNL     1       1.625   0.351  -0.789  1.00  0.00     0.058 C 
BRANCH   6   8
ATOM      8  N   UNL     1       0.877   2.262  -2.289  1.00  0.00    -0.332 N 
ATOM      9  C   UNL     1      -0.326   2.303  -2.946  1.00  0.00     0.232 C 
ATOM     10  H   UNL     1       1.640   2.561  -2.835  1.00  0.00     0.164 HD
ATOM     11  O   UNL     1      -0.292   2.669  -4.127  1.00  0.00    -0.274 OA
BRANCH   9  12
ATOM     12  C   UNL     1      -1.704   1.960  -2.296  1.00  0.00     0.150 C 
ATOM     13  C   UNL     1      -1.519   0.216  -1.292  1.00  0.00     0.248 C 
ATOM     14  C   UNL     1      -2.200   3.283  -0.966  1.00  0.00     0.010 A 
ATOM     15  O   UNL     1      -1.761   0.750   0.569  1.00  0.00    -0.492 OA
ATOM     16  C   UNL     1      -2.254   2.555   0.657  1.00  0.00     0.123 A 
ATOM     17  C   UNL     1      -2.564   4.579  -1.100  1.00  0.00     0.008 A 
ATOM     18  C   UNL     1      -2.744   3.145   1.770  1.00  0.00     0.047 A 
ATOM     19  C   UNL     1      -3.003   5.135   0.140  1.00  0.00     0.001 A 
ATOM     20  C   UNL     1      -3.112   4.464   1.464  1.00  0.00     0.004 A 
ENDBRANCH   9  12
ENDBRANCH   6   8
BRANCH   6  21
ATOM     21  C   UNL     1       2.453   2.620  -0.302  1.00  0.00     0.422 C 
ATOM     22  F   UNL     1       2.779   2.212   0.946  1.00  0.00    -0.168 F 
ATOM     23  F   UNL     1       3.553   2.381  -1.071  1.00  0.00    -0.168 F 
ATOM     24  F   UNL     1       2.275   3.955  -0.295  1.00  0.00    -0.168 F 
ENDBRANCH   6  21
ENDBRANCH   4   6
ENDBRANCH   3   4
ENDBRANCH   2   3
ENDBRANCH   1   2
BRANCH   1  25
ATOM     25  O   UNL     1      -3.668   0.338   1.891  1.00  0.00    -0.458 OA
BRANCH  25  26
ATOM     26  C   UNL     1      -2.700  -0.404   2.542  1.00  0.00     0.338 C 
ATOM     27  O   UNL     1      -2.284  -1.498   2.183  1.00  0.00    -0.246 OA
BRANCH  26  28
ATOM     28  C   UNL     1      -1.993   0.441   3.572  1.00  0.00     0.060 A 
ATOM     29  C   UNL     1      -0.663   0.837   3.339  1.00  0.00     0.016 A 
ATOM     30  C   UNL     1      -2.638   0.949   4.699  1.00  0.00     0.016 A 
ATOM     31  C   UNL     1      -0.015   1.788   4.155  1.00  0.00     0.010 A 
ATOM     32  C   UNL     1      -1.970   1.869   5.546  1.00  0.00     0.010 A 
ATOM     33  C   UNL     1      -0.652   2.309   5.285  1.00  0.00    -0.014 A 
BRANCH  33  34
ATOM     34  C   UNL     1       0.136   3.069   6.318  1.00  0.00     0.031 A 
ATOM     35  C   UNL     1       0.660   2.281   7.497  1.00  0.00     0.074 A 
ATOM     36  C   UNL     1       0.428   4.389   6.264  1.00  0.00     0.049 A 
ATOM     37  N   UNL     1       1.318   2.684   8.555  1.00  0.00    -0.248 NA
ATOM     38  C   UNL     1       0.395   0.833   7.471  1.00  0.00     0.031 C 
ATOM     39  C   UNL     1       0.068   5.309   5.189  1.00  0.00     0.029 A 
ATOM     40  N   UNL     1       1.103   5.192   7.169  1.00  0.00    -0.354 N 
ATOM     41  C   UNL     1       1.502   1.551   9.339  1.00  0.00     0.074 A 
ATOM     42  C   UNL     1       0.881   0.448   8.639  1.00  0.00     0.031 C 
ATOM     43  C   UNL     1       0.507   6.546   5.502  1.00  0.00     0.029 A 
ATOM     44  C   UNL     1       1.166   6.523   6.811  1.00  0.00     0.049 A 
ATOM     45  H   UNL     1       1.504   4.842   7.997  1.00  0.00     0.167 HD
ATOM     46  C   UNL     1       2.137   1.417  10.528  1.00  0.00     0.034 A 
ATOM     47  C   UNL     1       1.684   7.596   7.456  1.00  0.00     0.034 A 
ATOM     48  C   UNL     1       2.797   2.477  11.237  1.00  0.00     0.049 A 
ATOM     49  C   UNL     1       2.359   7.428   8.806  1.00  0.00     0.074 A 
ATOM     50  C   UNL     1       3.486   2.406  12.436  1.00  0.00     0.029 A 
ATOM     51  N   UNL     1       2.849   3.796  10.825  1.00  0.00    -0.354 N 
ATOM     52  N   UNL     1       2.602   6.333   9.485  1.00  0.00    -0.248 NA
ATOM     53  C   UNL     1       2.861   8.650   9.464  1.00  0.00     0.031 C 
ATOM     54  C   UNL     1       3.931   3.691  12.764  1.00  0.00     0.029 A 
ATOM     55  C   UNL     1       3.550   4.553  11.750  1.00  0.00     0.049 A 
ATOM     56  H   UNL     1       2.448   4.146   9.997  1.00  0.00     0.167 HD
ATOM     57  C   UNL     1       3.323   6.728  10.612  1.00  0.00     0.074 A 
ATOM     58  C   UNL     1       3.492   8.160  10.523  1.00  0.00     0.031 C 
ATOM     59  C   UNL     1       3.791   5.968  11.634  1.00  0.00     0.034 A 
BRANCH  46  60
ATOM     60  C   UNL     1       2.142   0.044  11.145  1.00  0.00     0.023 A 
ATOM     61  C   UNL     1       2.947  -0.972  10.593  1.00  0.00     0.012 A 
ATOM     62  C   UNL     1       1.357  -0.231  12.280  1.00  0.00     0.148 A 
ATOM     63  C   UNL     1       2.935  -2.256  11.134  1.00  0.00     0.002 A 
ATOM     64  C   UNL     1       1.387  -1.499  12.844  1.00  0.00     0.091 A 
ATOM     65  F   UNL     1       0.581   0.745  12.774  1.00  0.00    -0.205 F 
ATOM     66  C   UNL     1       2.163  -2.517  12.264  1.00  0.00     0.022 A 
BRANCH  64  67
ATOM     67  S   UNL     1       0.491  -1.909  14.344  1.00  0.00     0.127 S 
ATOM     68  O   UNL     1      -0.578  -2.762  13.826  1.00  0.00    -0.237 OA
ATOM     69  O   UNL     1       1.507  -2.612  15.128  1.00  0.00    -0.237 OA
ATOM     70  O   UNL     1       0.058  -0.640  14.913  1.00  0.00    -0.744 OA
ENDBRANCH  64  67
ENDBRANCH  46  60
BRANCH  47  71
ATOM     71  C   UNL     1       1.635   8.964   6.843  1.00  0.00     0.023 A 
ATOM     72  C   UNL     1       2.838   9.603   6.473  1.00  0.00     0.012 A 
ATOM     73  C   UNL     1       0.421   9.662   6.687  1.00  0.00     0.148 A 
ATOM     74  C   UNL     1       2.837  10.918   6.000  1.00  0.00     0.002 A 
ATOM     75  C   UNL     1       0.422  10.952   6.162  1.00  0.00     0.091 A 
ATOM     76  F   UNL     1      -0.712   9.060   7.074  1.00  0.00    -0.205 F 
ATOM     77  C   UNL     1       1.630  11.589   5.836  1.00  0.00     0.022 A 
BRANCH  75  78
ATOM     78  S   UNL     1      -1.089  11.861   5.816  1.00  0.00     0.127 S 
ATOM     79  O   UNL     1      -1.015  12.950   6.788  1.00  0.00    -0.237 OA
ATOM     80  O   UNL     1      -0.885  12.264   4.424  1.00  0.00    -0.237 OA
ATOM     81  O   UNL     1      -2.176  10.912   6.016  1.00  0.00    -0.744 OA
ENDBRANCH  75  78
ENDBRANCH  47  71
BRANCH  59  82
ATOM     82  C   UNL     1       4.595   6.635  12.727  1.00  0.00     0.023 A 
ATOM     83  C   UNL     1       3.964   7.488  13.654  1.00  0.00     0.012 A 
ATOM     84  C   UNL     1       5.966   6.342  12.890  1.00  0.00     0.148 A 
ATOM     85  C   UNL     1       4.688   8.065  14.700  1.00  0.00     0.002 A 
ATOM     86  C   UNL     1       6.670   6.881  13.963  1.00  0.00     0.091 A 
ATOM     87  F   UNL     1       6.561   5.541  11.993  1.00  0.00    -0.205 F 
ATOM     88  C   UNL     1       6.036   7.752  14.861  1.00  0.00     0.022 A 
BRANCH  86  89
ATOM     89  S   UNL     1       8.382   6.451  14.305  1.00  0.00     0.127 S 
ATOM     90  O   UNL     1       9.086   7.656  13.870  1.00  0.00    -0.237 OA
ATOM     91  O   UNL     1       8.370   6.243  15.754  1.00  0.00    -0.237 OA
ATOM     92  O   UNL     1       8.655   5.249  13.528  1.00  0.00    -0.744 OA
ENDBRANCH  86  89
ENDBRANCH  59  82
ENDBRANCH  33  34
ENDBRANCH  26  28
ENDBRANCH  25  26
ENDBRANCH   1  25
TORSDOF 17
