REMARK SMILES CC(C)(CC(=O)OCCOC(=O)c1ccc(-c2c3nc(c(-c4cccc(S(=O)(=O)[O-])c4F)c4ccc([nH]4)c(-c4cccc(S(=O)(=O)[O-])c4F)c4nc(c(-c5cccc(S(=O)(=O)[O-])c5F)c5ccc2[nH]5)C=C4)C=C3)cc1)NC(=O)[C@H]1CC[C@@H]2CCCC[C@@H]2[NH2+]1
REMARK SMILES IDX 8 1 7 2 5 3 6 4 4 5 2 6 1 7 3 8 76 9 77 10 78 12 79 13 80 14
REMARK SMILES IDX 88 15 81 16 87 17 82 20 86 21 83 22 85 23 84 24 9 25 10 26
REMARK SMILES IDX 11 27 12 28 13 29 14 30 75 31 15 32 74 33 16 34 17 35 18 36
REMARK SMILES IDX 68 37 19 38 73 39 67 40 69 41 20 42 72 43 66 44 65 45 21 47
REMARK SMILES IDX 53 48 33 49 52 50 34 51 37 52 51 53 70 54 35 55 36 56 50 58
REMARK SMILES IDX 71 59 38 60 22 61 23 62 31 63 24 64 26 65 32 66 25 67 27 68
REMARK SMILES IDX 28 69 29 70 30 71 54 72 55 73 63 74 56 75 58 76 64 77 57 78
REMARK SMILES IDX 59 79 60 80 61 81 62 82 39 83 40 84 48 85 41 86 43 87 49 88
REMARK SMILES IDX 42 89 44 90 45 91 46 92 47 93
REMARK H PARENT 76 11 88 18 88 19 69 46 37 57
REMARK Flexibility Score: inf
ROOT
ATOM      1  C   UNL     1       2.985  -6.100   0.277  1.00  0.00     0.274 C 
ENDROOT
BRANCH   1   2
ATOM      2  O   UNL     1       3.123  -4.958  -0.597  1.00  0.00    -0.462 OA
BRANCH   2   3
ATOM      3  C   UNL     1       2.872  -5.160  -1.908  1.00  0.00     0.308 C 
ATOM      4  O   UNL     1       2.652  -6.259  -2.405  1.00  0.00    -0.252 OA
BRANCH   3   5
ATOM      5  C   UNL     1       2.907  -3.906  -2.761  1.00  0.00     0.150 C 
BRANCH   5   6
ATOM      6  C   UNL     1       2.931  -2.494  -2.109  1.00  0.00     0.045 C 
ATOM      7  C   UNL     1       4.327  -2.256  -1.534  1.00  0.00     0.035 C 
ATOM      8  C   UNL     1       2.753  -1.476  -3.267  1.00  0.00     0.035 C 
BRANCH   6   9
ATOM      9  N   UNL     1       1.766  -2.283  -1.207  1.00  0.00    -0.345 N 
ATOM     10  C   UNL     1       1.510  -1.391  -0.199  1.00  0.00     0.278 C 
ATOM     11  H   UNL     1       1.027  -2.914  -1.367  1.00  0.00     0.164 HD
ATOM     12  O   UNL     1       0.425  -0.798  -0.256  1.00  0.00    -0.268 OA
BRANCH  10  13
ATOM     13  C   UNL     1       2.438  -1.166   1.022  1.00  0.00     0.272 C 
ATOM     14  C   UNL     1       2.855  -2.502   1.636  1.00  0.00     0.076 C 
ATOM     15  N   UNL     1       3.516  -0.225   0.678  1.00  0.00    -0.333 N 
ATOM     16  C   UNL     1       4.071  -2.445   2.547  1.00  0.00     0.016 C 
ATOM     17  C   UNL     1       4.604  -0.147   1.654  1.00  0.00     0.186 C 
ATOM     18  H   UNL     1       3.106   0.704   0.585  1.00  0.00     0.347 HD
ATOM     19  H   UNL     1       3.932  -0.573  -0.186  1.00  0.00     0.347 HD
ATOM     20  C   UNL     1       5.164  -1.545   1.959  1.00  0.00     0.048 C 
ATOM     21  C   UNL     1       4.229   0.601   2.946  1.00  0.00     0.065 C 
ATOM     22  C   UNL     1       6.383  -1.438   2.877  1.00  0.00     0.010 C 
ATOM     23  C   UNL     1       5.382   0.628   3.958  1.00  0.00     0.006 C 
ATOM     24  C   UNL     1       6.063  -0.722   4.182  1.00  0.00     0.001 C 
ENDBRANCH  10  13
ENDBRANCH   6   9
ENDBRANCH   5   6
ENDBRANCH   3   5
ENDBRANCH   2   3
ENDBRANCH   1   2
BRANCH   1  25
ATOM     25  C   UNL     1       1.638  -6.067   0.999  1.00  0.00     0.275 C 
BRANCH  25  26
ATOM     26  O   UNL     1       0.582  -6.043   0.028  1.00  0.00    -0.458 OA
BRANCH  26  27
ATOM     27  C   UNL     1      -0.375  -5.107   0.208  1.00  0.00     0.338 C 
ATOM     28  O   UNL     1      -0.498  -4.339   1.153  1.00  0.00    -0.246 OA
BRANCH  27  29
ATOM     29  C   UNL     1      -1.270  -5.132  -0.958  1.00  0.00     0.060 A 
ATOM     30  C   UNL     1      -0.766  -4.778  -2.210  1.00  0.00     0.016 A 
ATOM     31  C   UNL     1      -2.615  -5.461  -0.809  1.00  0.00     0.016 A 
ATOM     32  C   UNL     1      -1.605  -4.720  -3.317  1.00  0.00     0.010 A 
ATOM     33  C   UNL     1      -3.448  -5.461  -1.934  1.00  0.00     0.010 A 
ATOM     34  C   UNL     1      -2.955  -5.071  -3.192  1.00  0.00    -0.014 A 
BRANCH  34  35
ATOM     35  C   UNL     1      -3.842  -5.011  -4.380  1.00  0.00     0.031 A 
ATOM     36  C   UNL     1      -4.948  -3.995  -4.447  1.00  0.00     0.074 A 
ATOM     37  C   UNL     1      -3.649  -5.869  -5.401  1.00  0.00     0.049 A 
ATOM     38  N   UNL     1      -5.847  -3.815  -5.380  1.00  0.00    -0.248 NA
ATOM     39  C   UNL     1      -5.065  -3.064  -3.313  1.00  0.00     0.031 C 
ATOM     40  C   UNL     1      -2.615  -6.905  -5.448  1.00  0.00     0.029 A 
ATOM     41  N   UNL     1      -4.317  -6.012  -6.591  1.00  0.00    -0.354 N 
ATOM     42  C   UNL     1      -6.665  -2.787  -4.927  1.00  0.00     0.074 A 
ATOM     43  C   UNL     1      -6.156  -2.383  -3.633  1.00  0.00     0.031 C 
ATOM     44  C   UNL     1      -2.713  -7.572  -6.609  1.00  0.00     0.029 A 
ATOM     45  C   UNL     1      -3.838  -7.039  -7.371  1.00  0.00     0.049 A 
ATOM     46  H   UNL     1      -5.067  -5.435  -6.861  1.00  0.00     0.167 HD
ATOM     47  C   UNL     1      -7.731  -2.220  -5.539  1.00  0.00     0.034 A 
ATOM     48  C   UNL     1      -4.263  -7.506  -8.562  1.00  0.00     0.034 A 
ATOM     49  C   UNL     1      -8.203  -2.590  -6.847  1.00  0.00     0.049 A 
ATOM     50  C   UNL     1      -5.425  -6.831  -9.236  1.00  0.00     0.074 A 
ATOM     51  C   UNL     1      -9.256  -2.053  -7.567  1.00  0.00     0.029 A 
ATOM     52  N   UNL     1      -7.648  -3.587  -7.636  1.00  0.00    -0.354 N 
ATOM     53  N   UNL     1      -6.128  -5.800  -8.832  1.00  0.00    -0.248 NA
ATOM     54  C   UNL     1      -5.834  -7.361 -10.545  1.00  0.00     0.031 C 
ATOM     55  C   UNL     1      -9.339  -2.728  -8.790  1.00  0.00     0.029 A 
ATOM     56  C   UNL     1      -8.331  -3.678  -8.837  1.00  0.00     0.049 A 
ATOM     57  H   UNL     1      -6.881  -4.148  -7.379  1.00  0.00     0.167 HD
ATOM     58  C   UNL     1      -7.043  -5.542  -9.845  1.00  0.00     0.074 A 
ATOM     59  C   UNL     1      -6.785  -6.506 -10.896  1.00  0.00     0.031 C 
ATOM     60  C   UNL     1      -8.024  -4.606  -9.894  1.00  0.00     0.034 A 
BRANCH  47  61
ATOM     61  C   UNL     1      -8.441  -1.107  -4.813  1.00  0.00     0.023 A 
ATOM     62  C   UNL     1      -7.842   0.167  -4.739  1.00  0.00     0.012 A 
ATOM     63  C   UNL     1      -9.714  -1.307  -4.245  1.00  0.00     0.148 A 
ATOM     64  C   UNL     1      -8.487   1.217  -4.087  1.00  0.00     0.002 A 
ATOM     65  C   UNL     1     -10.368  -0.244  -3.631  1.00  0.00     0.091 A 
ATOM     66  F   UNL     1     -10.256  -2.532  -4.302  1.00  0.00    -0.205 F 
ATOM     67  C   UNL     1      -9.752   1.015  -3.542  1.00  0.00     0.022 A 
BRANCH  65  68
ATOM     68  S   UNL     1     -12.030  -0.392  -2.964  1.00  0.00     0.127 S 
ATOM     69  O   UNL     1     -11.769  -0.449  -1.527  1.00  0.00    -0.237 OA
ATOM     70  O   UNL     1     -12.661   0.848  -3.420  1.00  0.00    -0.237 OA
ATOM     71  O   UNL     1     -12.588  -1.603  -3.552  1.00  0.00    -0.744 OA
ENDBRANCH  65  68
ENDBRANCH  47  61
BRANCH  48  72
ATOM     72  C   UNL     1      -3.540  -8.633  -9.216  1.00  0.00     0.023 A 
ATOM     73  C   UNL     1      -2.776  -8.385 -10.373  1.00  0.00     0.012 A 
ATOM     74  C   UNL     1      -3.566  -9.935  -8.678  1.00  0.00     0.148 A 
ATOM     75  C   UNL     1      -2.069  -9.416 -10.994  1.00  0.00     0.002 A 
ATOM     76  C   UNL     1      -2.814 -10.944  -9.269  1.00  0.00     0.091 A 
ATOM     77  F   UNL     1      -4.317 -10.159  -7.591  1.00  0.00    -0.205 F 
ATOM     78  C   UNL     1      -2.077 -10.691 -10.435  1.00  0.00     0.022 A 
BRANCH  76  79
ATOM     79  S   UNL     1      -2.660 -12.575  -8.530  1.00  0.00     0.127 S 
ATOM     80  O   UNL     1      -3.549 -13.371  -9.371  1.00  0.00    -0.237 OA
ATOM     81  O   UNL     1      -1.234 -12.857  -8.701  1.00  0.00    -0.237 OA
ATOM     82  O   UNL     1      -3.072 -12.410  -7.142  1.00  0.00    -0.744 OA
ENDBRANCH  76  79
ENDBRANCH  48  72
BRANCH  60  83
ATOM     83  C   UNL     1      -8.876  -4.563 -11.135  1.00  0.00     0.023 A 
ATOM     84  C   UNL     1      -9.846  -5.562 -11.347  1.00  0.00     0.012 A 
ATOM     85  C   UNL     1      -8.754  -3.509 -12.061  1.00  0.00     0.148 A 
ATOM     86  C   UNL     1     -10.659  -5.532 -12.480  1.00  0.00     0.002 A 
ATOM     87  C   UNL     1      -9.597  -3.463 -13.166  1.00  0.00     0.091 A 
ATOM     88  F   UNL     1      -7.809  -2.579 -11.857  1.00  0.00    -0.205 F 
ATOM     89  C   UNL     1     -10.542  -4.478 -13.383  1.00  0.00     0.022 A 
BRANCH  87  90
ATOM     90  S   UNL     1      -9.560  -2.090 -14.324  1.00  0.00     0.127 S 
ATOM     91  O   UNL     1      -8.704  -2.615 -15.386  1.00  0.00    -0.237 OA
ATOM     92  O   UNL     1     -10.969  -1.945 -14.693  1.00  0.00    -0.237 OA
ATOM     93  O   UNL     1      -9.022  -0.963 -13.573  1.00  0.00    -0.744 OA
ENDBRANCH  87  90
ENDBRANCH  60  83
ENDBRANCH  34  35
ENDBRANCH  27  29
ENDBRANCH  26  27
ENDBRANCH  25  26
ENDBRANCH   1  25
TORSDOF 17
