REMARK SMILES C#CCNC(=O)C[N@@H+](CC(=O)OCCOC(=O)c1ccc(-c2c3nc(c(-c4cccc(S(=O)(=O)[O-])c4F)c4ccc([nH]4)c(-c4cccc(S(=O)(=O)[O-])c4F)c4nc(c(-c5cccc(S(=O)(=O)[O-])c5F)c5ccc2[nH]5)C=C4)C=C3)cc1)C(C)(C)C
REMARK SMILES IDX 13 1 12 2 10 3 11 4 9 5 8 6 7 8 5 9 4 10 6 12 3 13 2 14 1 15
REMARK SMILES IDX 81 16 82 17 83 18 84 19 14 20 15 21 16 22 17 23 18 24 19 25
REMARK SMILES IDX 80 26 20 27 79 28 21 29 22 30 23 31 73 32 24 33 78 34 72 35
REMARK SMILES IDX 74 36 25 37 77 38 71 39 70 40 26 42 58 43 38 44 57 45 39 46
REMARK SMILES IDX 42 47 56 48 75 49 40 50 41 51 55 53 76 54 43 55 27 56 28 57
REMARK SMILES IDX 36 58 29 59 31 60 37 61 30 62 32 63 33 64 34 65 35 66 59 67
REMARK SMILES IDX 60 68 68 69 61 70 63 71 69 72 62 73 64 74 65 75 66 76 67 77
REMARK SMILES IDX 44 78 45 79 53 80 46 81 48 82 54 83 47 84 49 85 50 86 51 87
REMARK SMILES IDX 52 88
REMARK H PARENT 8 7 4 11 74 41 42 52
REMARK Flexibility Score: inf
ROOT
ATOM      1  C   UNL     1      -5.506   5.739   1.612  1.00  0.00     0.274 C 
ENDROOT
BRANCH   1   2
ATOM      2  O   UNL     1      -4.512   4.688   1.601  1.00  0.00    -0.458 OA
BRANCH   2   3
ATOM      3  C   UNL     1      -3.942   4.425   0.404  1.00  0.00     0.361 C 
ATOM      4  O   UNL     1      -4.334   4.911  -0.656  1.00  0.00    -0.245 OA
BRANCH   3   5
ATOM      5  C   UNL     1      -2.710   3.529   0.422  1.00  0.00     0.387 C 
BRANCH   5   6
ATOM      6  N   UNL     1      -2.459   2.570   1.521  1.00  0.00    -0.314 N 
ATOM      7  H   UNL     1      -1.756   1.955   1.111  1.00  0.00     0.349 HD
BRANCH   6   8
ATOM      8  C   UNL     1      -3.588   1.671   1.790  1.00  0.00     0.364 C 
BRANCH   8   9
ATOM      9  C   UNL     1      -3.166   0.218   2.042  1.00  0.00     0.275 C 
ATOM     10  N   UNL     1      -2.290  -0.415   1.207  1.00  0.00    -0.340 N 
ATOM     11  H   UNL     1      -1.991  -1.306   1.500  1.00  0.00     0.164 HD
ATOM     12  O   UNL     1      -3.648  -0.430   2.975  1.00  0.00    -0.268 OA
BRANCH  10  13
ATOM     13  C   UNL     1      -1.746   0.046  -0.043  1.00  0.00     0.206 C 
BRANCH  13  14
ATOM     14  C   UNL     1      -0.226   0.046  -0.043  1.00  0.00    -0.085 C 
ATOM     15  C   UNL     1       1.078   0.046  -0.043  1.00  0.00     0.006 C 
ENDBRANCH  13  14
ENDBRANCH  10  13
ENDBRANCH   8   9
ENDBRANCH   6   8
BRANCH   6  16
ATOM     16  C   UNL     1      -1.523   2.920   2.624  1.00  0.00     0.090 C 
ATOM     17  C   UNL     1      -2.219   3.599   3.820  1.00  0.00     0.078 C 
ATOM     18  C   UNL     1      -0.813   1.672   3.216  1.00  0.00     0.078 C 
ATOM     19  C   UNL     1      -0.350   3.793   2.107  1.00  0.00     0.078 C 
ENDBRANCH   6  16
ENDBRANCH   5   6
ENDBRANCH   3   5
ENDBRANCH   2   3
ENDBRANCH   1   2
BRANCH   1  20
ATOM     20  C   UNL     1      -5.010   6.948   2.410  1.00  0.00     0.275 C 
BRANCH  20  21
ATOM     21  O   UNL     1      -3.923   7.614   1.736  1.00  0.00    -0.458 OA
BRANCH  21  22
ATOM     22  C   UNL     1      -2.714   7.143   2.081  1.00  0.00     0.338 C 
ATOM     23  O   UNL     1      -2.494   6.222   2.885  1.00  0.00    -0.246 OA
BRANCH  22  24
ATOM     24  C   UNL     1      -1.587   7.812   1.461  1.00  0.00     0.060 A 
ATOM     25  C   UNL     1      -0.992   7.245   0.334  1.00  0.00     0.016 A 
ATOM     26  C   UNL     1      -0.940   8.800   2.203  1.00  0.00     0.016 A 
ATOM     27  C   UNL     1       0.292   7.647  -0.032  1.00  0.00     0.010 A 
ATOM     28  C   UNL     1       0.328   9.229   1.815  1.00  0.00     0.010 A 
ATOM     29  C   UNL     1       0.958   8.640   0.708  1.00  0.00    -0.014 A 
BRANCH  29  30
ATOM     30  C   UNL     1       2.268   9.153   0.255  1.00  0.00     0.031 A 
ATOM     31  C   UNL     1       3.538   8.838   0.986  1.00  0.00     0.074 A 
ATOM     32  C   UNL     1       2.276   9.958  -0.823  1.00  0.00     0.049 A 
ATOM     33  N   UNL     1       4.747   9.276   0.748  1.00  0.00    -0.248 NA
ATOM     34  C   UNL     1       3.446   7.914   2.127  1.00  0.00     0.031 C 
ATOM     35  C   UNL     1       1.086  10.330  -1.591  1.00  0.00     0.029 A 
ATOM     36  N   UNL     1       3.300  10.613  -1.450  1.00  0.00    -0.354 N 
ATOM     37  C   UNL     1       5.559   8.707   1.721  1.00  0.00     0.074 A 
ATOM     38  C   UNL     1       4.705   7.883   2.551  1.00  0.00     0.031 C 
ATOM     39  C   UNL     1       1.449  11.139  -2.594  1.00  0.00     0.029 A 
ATOM     40  C   UNL     1       2.885  11.379  -2.511  1.00  0.00     0.049 A 
ATOM     41  H   UNL     1       4.241  10.543  -1.168  1.00  0.00     0.167 HD
ATOM     42  C   UNL     1       6.895   8.851   1.890  1.00  0.00     0.034 A 
ATOM     43  C   UNL     1       3.579  12.200  -3.320  1.00  0.00     0.034 A 
ATOM     44  C   UNL     1       7.736   9.653   1.038  1.00  0.00     0.049 A 
ATOM     45  C   UNL     1       5.055  12.345  -3.106  1.00  0.00     0.074 A 
ATOM     46  C   UNL     1       9.105   9.847   1.113  1.00  0.00     0.029 A 
ATOM     47  N   UNL     1       7.288  10.394  -0.046  1.00  0.00    -0.354 N 
ATOM     48  N   UNL     1       5.818  11.741  -2.227  1.00  0.00    -0.248 NA
ATOM     49  C   UNL     1       5.767  13.270  -3.995  1.00  0.00     0.031 C 
ATOM     50  C   UNL     1       9.484  10.703   0.071  1.00  0.00     0.029 A 
ATOM     51  C   UNL     1       8.350  11.048  -0.647  1.00  0.00     0.049 A 
ATOM     52  H   UNL     1       6.351  10.447  -0.344  1.00  0.00     0.167 HD
ATOM     53  C   UNL     1       7.104  12.209  -2.457  1.00  0.00     0.074 A 
ATOM     54  C   UNL     1       7.019  13.125  -3.579  1.00  0.00     0.031 C 
ATOM     55  C   UNL     1       8.246  11.927  -1.784  1.00  0.00     0.034 A 
BRANCH  42  56
ATOM     56  C   UNL     1       7.548   8.084   3.007  1.00  0.00     0.023 A 
ATOM     57  C   UNL     1       7.878   6.730   2.806  1.00  0.00     0.012 A 
ATOM     58  C   UNL     1       7.899   8.707   4.220  1.00  0.00     0.148 A 
ATOM     59  C   UNL     1       8.539   6.004   3.798  1.00  0.00     0.002 A 
ATOM     60  C   UNL     1       8.578   7.982   5.196  1.00  0.00     0.091 A 
ATOM     61  F   UNL     1       7.553   9.988   4.412  1.00  0.00    -0.205 F 
ATOM     62  C   UNL     1       8.897   6.631   4.988  1.00  0.00     0.022 A 
BRANCH  60  63
ATOM     63  S   UNL     1       9.108   8.758   6.728  1.00  0.00     0.127 S 
ATOM     64  O   UNL     1       7.933   8.583   7.577  1.00  0.00    -0.237 OA
ATOM     65  O   UNL     1      10.266   7.951   7.121  1.00  0.00    -0.237 OA
ATOM     66  O   UNL     1       9.438  10.129   6.358  1.00  0.00    -0.744 OA
ENDBRANCH  60  63
ENDBRANCH  42  56
BRANCH  43  67
ATOM     67  C   UNL     1       2.865  12.877  -4.435  1.00  0.00     0.023 A 
ATOM     68  C   UNL     1       3.057  12.414  -5.749  1.00  0.00     0.012 A 
ATOM     69  C   UNL     1       1.898  13.870  -4.188  1.00  0.00     0.148 A 
ATOM     70  C   UNL     1       2.291  12.923  -6.798  1.00  0.00     0.002 A 
ATOM     71  C   UNL     1       1.096  14.328  -5.227  1.00  0.00     0.091 A 
ATOM     72  F   UNL     1       1.744  14.317  -2.933  1.00  0.00    -0.205 F 
ATOM     73  C   UNL     1       1.297  13.864  -6.535  1.00  0.00     0.022 A 
BRANCH  71  74
ATOM     74  S   UNL     1      -0.312  15.398  -4.905  1.00  0.00     0.127 S 
ATOM     75  O   UNL     1       0.270  16.726  -5.073  1.00  0.00    -0.237 OA
ATOM     76  O   UNL     1      -1.259  15.004  -5.950  1.00  0.00    -0.237 OA
ATOM     77  O   UNL     1      -0.742  15.045  -3.557  1.00  0.00    -0.744 OA
ENDBRANCH  71  74
ENDBRANCH  43  67
BRANCH  55  78
ATOM     78  C   UNL     1       9.490  12.639  -2.233  1.00  0.00     0.023 A 
ATOM     79  C   UNL     1       9.707  13.964  -1.806  1.00  0.00     0.012 A 
ATOM     80  C   UNL     1      10.457  11.998  -3.028  1.00  0.00     0.148 A 
ATOM     81  C   UNL     1      10.863  14.647  -2.179  1.00  0.00     0.002 A 
ATOM     82  C   UNL     1      11.620  12.677  -3.374  1.00  0.00     0.091 A 
ATOM     83  F   UNL     1      10.219  10.748  -3.450  1.00  0.00    -0.205 F 
ATOM     84  C   UNL     1      11.823  14.002  -2.954  1.00  0.00     0.022 A 
BRANCH  82  85
ATOM     85  S   UNL     1      12.918  11.875  -4.321  1.00  0.00     0.127 S 
ATOM     86  O   UNL     1      12.533  12.196  -5.694  1.00  0.00    -0.237 OA
ATOM     87  O   UNL     1      14.128  12.553  -3.854  1.00  0.00    -0.237 OA
ATOM     88  O   UNL     1      12.844  10.467  -3.948  1.00  0.00    -0.744 OA
ENDBRANCH  82  85
ENDBRANCH  55  78
ENDBRANCH  29  30
ENDBRANCH  22  24
ENDBRANCH  21  22
ENDBRANCH  20  21
ENDBRANCH   1  20
TORSDOF 20
