REMARK SMILES C[C@H]([N@H+](C)CCC(=O)OCCOC(=O)c1ccc(-c2c3nc(c(-c4cccc(S(=O)(=O)[O-])c4F)c4ccc([nH]4)c(-c4cccc(S(=O)(=O)[O-])c4F)c4nc(c(-c5cccc(S(=O)(=O)[O-])c5F)c5ccc2[nH]5)C=C4)C=C3)cc1)C1(C)CC1
REMARK SMILES IDX 10 1 9 2 7 3 8 4 6 5 5 6 3 7 4 8 2 10 1 11 78 12 79 13 80 14
REMARK SMILES IDX 81 15 11 16 12 17 13 18 14 19 15 20 16 21 77 22 17 23 76 24
REMARK SMILES IDX 18 25 19 26 20 27 70 28 21 29 75 30 69 31 71 32 22 33 74 34
REMARK SMILES IDX 68 35 67 36 23 38 55 39 35 40 54 41 36 42 39 43 53 44 72 45
REMARK SMILES IDX 37 46 38 47 52 49 73 50 40 51 24 52 25 53 33 54 26 55 28 56
REMARK SMILES IDX 34 57 27 58 29 59 30 60 31 61 32 62 56 63 57 64 65 65 58 66
REMARK SMILES IDX 60 67 66 68 59 69 61 70 62 71 63 72 64 73 41 74 42 75 50 76
REMARK SMILES IDX 43 77 45 78 51 79 44 80 46 81 47 82 48 83 49 84
REMARK H PARENT 3 9 71 37 39 48
REMARK Flexibility Score: inf
ROOT
ATOM      1  C   UNL     1       4.896   0.685   0.876  1.00  0.00     0.274 C 
ENDROOT
BRANCH   1   2
ATOM      2  O   UNL     1       3.692   0.028   0.448  1.00  0.00    -0.462 OA
BRANCH   2   3
ATOM      3  C   UNL     1       3.667  -1.326   0.494  1.00  0.00     0.311 C 
ATOM      4  O   UNL     1       4.616  -2.030   0.820  1.00  0.00    -0.252 OA
BRANCH   3   5
ATOM      5  C   UNL     1       2.346  -1.919   0.055  1.00  0.00     0.184 C 
BRANCH   5   6
ATOM      6  C   UNL     1       1.138  -0.990   0.202  1.00  0.00     0.274 C 
BRANCH   6   7
ATOM      7  N   UNL     1       1.078   0.039  -0.842  1.00  0.00    -0.334 N 
ATOM      8  C   UNL     1       0.670  -0.484  -2.134  1.00  0.00     0.332 C 
ATOM      9  H   UNL     1       2.037   0.334  -1.028  1.00  0.00     0.348 HD
BRANCH   7  10
ATOM     10  C   UNL     1       0.483   1.311  -0.397  1.00  0.00     0.186 C 
ATOM     11  C   UNL     1       0.965   2.454  -1.302  1.00  0.00     0.076 C 
BRANCH  10  12
ATOM     12  C   UNL     1      -1.031   1.309  -0.117  1.00  0.00     0.019 C 
ATOM     13  C   UNL     1      -1.382   0.982   1.323  1.00  0.00     0.018 C 
ATOM     14  C   UNL     1      -1.944   2.345  -0.770  1.00  0.00     0.013 C 
ATOM     15  C   UNL     1      -2.038   0.913  -1.187  1.00  0.00     0.013 C 
ENDBRANCH  10  12
ENDBRANCH   7  10
ENDBRANCH   6   7
ENDBRANCH   5   6
ENDBRANCH   3   5
ENDBRANCH   2   3
ENDBRANCH   1   2
BRANCH   1  16
ATOM     16  C   UNL     1       4.694   1.331   2.247  1.00  0.00     0.275 C 
BRANCH  16  17
ATOM     17  O   UNL     1       4.573   0.328   3.271  1.00  0.00    -0.458 OA
BRANCH  17  18
ATOM     18  C   UNL     1       3.307   0.008   3.624  1.00  0.00     0.338 C 
ATOM     19  O   UNL     1       2.272   0.518   3.233  1.00  0.00    -0.246 OA
BRANCH  18  20
ATOM     20  C   UNL     1       3.339  -1.176   4.494  1.00  0.00     0.060 A 
ATOM     21  C   UNL     1       2.830  -2.377   3.995  1.00  0.00     0.016 A 
ATOM     22  C   UNL     1       3.803  -1.087   5.807  1.00  0.00     0.016 A 
ATOM     23  C   UNL     1       2.774  -3.502   4.814  1.00  0.00     0.010 A 
ATOM     24  C   UNL     1       3.752  -2.219   6.625  1.00  0.00     0.010 A 
ATOM     25  C   UNL     1       3.224  -3.429   6.138  1.00  0.00    -0.014 A 
BRANCH  25  26
ATOM     26  C   UNL     1       3.110  -4.609   7.029  1.00  0.00     0.031 A 
ATOM     27  C   UNL     1       2.087  -4.619   8.128  1.00  0.00     0.074 A 
ATOM     28  C   UNL     1       3.937  -5.657   6.860  1.00  0.00     0.049 A 
ATOM     29  N   UNL     1       1.884  -5.515   9.058  1.00  0.00    -0.248 NA
ATOM     30  C   UNL     1       1.173  -3.467   8.193  1.00  0.00     0.031 C 
ATOM     31  C   UNL     1       4.970  -5.758   5.828  1.00  0.00     0.029 A 
ATOM     32  N   UNL     1       4.056  -6.825   7.570  1.00  0.00    -0.354 N 
ATOM     33  C   UNL     1       0.850  -5.021   9.842  1.00  0.00     0.074 A 
ATOM     34  C   UNL     1       0.467  -3.743   9.280  1.00  0.00     0.031 C 
ATOM     35  C   UNL     1       5.633  -6.915   5.985  1.00  0.00     0.029 A 
ATOM     36  C   UNL     1       5.095  -7.620   7.146  1.00  0.00     0.049 A 
ATOM     37  H   UNL     1       3.456  -7.070   8.311  1.00  0.00     0.167 HD
ATOM     38  C   UNL     1       0.261  -5.588  10.922  1.00  0.00     0.034 A 
ATOM     39  C   UNL     1       5.575  -8.773   7.652  1.00  0.00     0.034 A 
ATOM     40  C   UNL     1       0.621  -6.874  11.455  1.00  0.00     0.049 A 
ATOM     41  C   UNL     1       4.902  -9.382   8.852  1.00  0.00     0.074 A 
ATOM     42  C   UNL     1       0.058  -7.551  12.523  1.00  0.00     0.029 A 
ATOM     43  N   UNL     1       1.636  -7.679  10.962  1.00  0.00    -0.354 N 
ATOM     44  N   UNL     1       3.861  -8.950   9.521  1.00  0.00    -0.248 NA
ATOM     45  C   UNL     1       5.452 -10.651   9.351  1.00  0.00     0.031 C 
ATOM     46  C   UNL     1       0.740  -8.763  12.680  1.00  0.00     0.029 A 
ATOM     47  C   UNL     1       1.719  -8.846  11.703  1.00  0.00     0.049 A 
ATOM     48  H   UNL     1       2.213  -7.455  10.197  1.00  0.00     0.167 HD
ATOM     49  C   UNL     1       3.615  -9.903  10.503  1.00  0.00     0.074 A 
ATOM     50  C   UNL     1       4.601 -10.949  10.325  1.00  0.00     0.031 C 
ATOM     51  C   UNL     1       2.671  -9.903  11.477  1.00  0.00     0.034 A 
BRANCH  38  52
ATOM     52  C   UNL     1      -0.864  -4.834  11.579  1.00  0.00     0.023 A 
ATOM     53  C   UNL     1      -2.128  -4.796  10.956  1.00  0.00     0.012 A 
ATOM     54  C   UNL     1      -0.690  -4.211  12.830  1.00  0.00     0.148 A 
ATOM     55  C   UNL     1      -3.195  -4.127  11.556  1.00  0.00     0.002 A 
ATOM     56  C   UNL     1      -1.768  -3.578  13.439  1.00  0.00     0.091 A 
ATOM     57  F   UNL     1       0.526  -4.236  13.395  1.00  0.00    -0.205 F 
ATOM     58  C   UNL     1      -3.018  -3.527  12.800  1.00  0.00     0.022 A 
BRANCH  56  59
ATOM     59  S   UNL     1      -1.654  -2.835  15.071  1.00  0.00     0.127 S 
ATOM     60  O   UNL     1      -1.629  -1.410  14.746  1.00  0.00    -0.237 OA
ATOM     61  O   UNL     1      -2.890  -3.292  15.707  1.00  0.00    -0.237 OA
ATOM     62  O   UNL     1      -0.436  -3.366  15.667  1.00  0.00    -0.744 OA
ENDBRANCH  56  59
ENDBRANCH  38  52
BRANCH  39  63
ATOM     63  C   UNL     1       6.734  -9.442   6.997  1.00  0.00     0.023 A 
ATOM     64  C   UNL     1       6.534 -10.647   6.297  1.00  0.00     0.012 A 
ATOM     65  C   UNL     1       8.022  -8.872   7.028  1.00  0.00     0.148 A 
ATOM     66  C   UNL     1       7.599 -11.283   5.657  1.00  0.00     0.002 A 
ATOM     67  C   UNL     1       9.067  -9.482   6.344  1.00  0.00     0.091 A 
ATOM     68  F   UNL     1       8.199  -7.737   7.720  1.00  0.00    -0.205 F 
ATOM     69  C   UNL     1       8.861 -10.695   5.670  1.00  0.00     0.022 A 
BRANCH  67  70
ATOM     70  S   UNL     1      10.688  -8.720   6.200  1.00  0.00     0.127 S 
ATOM     71  O   UNL     1      11.474  -9.507   7.147  1.00  0.00    -0.237 OA
ATOM     72  O   UNL     1      11.012  -8.950   4.791  1.00  0.00    -0.237 OA
ATOM     73  O   UNL     1      10.490  -7.319   6.545  1.00  0.00    -0.744 OA
ENDBRANCH  67  70
ENDBRANCH  39  63
BRANCH  51  74
ATOM     74  C   UNL     1       2.641 -11.078  12.417  1.00  0.00     0.023 A 
ATOM     75  C   UNL     1       3.623 -11.188  13.422  1.00  0.00     0.012 A 
ATOM     76  C   UNL     1       1.602 -12.027  12.357  1.00  0.00     0.148 A 
ATOM     77  C   UNL     1       3.586 -12.240  14.336  1.00  0.00     0.002 A 
ATOM     78  C   UNL     1       1.548 -13.049  13.298  1.00  0.00     0.091 A 
ATOM     79  F   UNL     1       0.690 -11.917  11.380  1.00  0.00    -0.205 F 
ATOM     80  C   UNL     1       2.543 -13.163  14.282  1.00  0.00     0.022 A 
BRANCH  78  81
ATOM     81  S   UNL     1       0.192 -14.227  13.354  1.00  0.00     0.127 S 
ATOM     82  O   UNL     1       0.804 -15.415  12.763  1.00  0.00    -0.237 OA
ATOM     83  O   UNL     1      -0.076 -14.329  14.790  1.00  0.00    -0.237 OA
ATOM     84  O   UNL     1      -0.888 -13.625  12.584  1.00  0.00    -0.744 OA
ENDBRANCH  78  81
ENDBRANCH  51  74
ENDBRANCH  25  26
ENDBRANCH  18  20
ENDBRANCH  17  18
ENDBRANCH  16  17
ENDBRANCH   1  16
TORSDOF 18
