REMARK SMILES COCCC(=O)N1CCc2cc(C(=O)OCCOC(=O)c3ccc(-c4c5nc(c(-c6cccc(S(=O)(=O)[O-])c6F)c6ccc([nH]6)c(-c6cccc(S(=O)(=O)[O-])c6F)c6nc(c(-c7cccc(S(=O)(=O)[O-])c7F)c7ccc4[nH]7)C=C6)C=C5)cc3)ccc21
REMARK SMILES IDX 16 1 15 2 13 3 14 4 12 5 7 6 8 7 86 8 9 9 10 10 85 11 11 12
REMARK SMILES IDX 84 13 5 14 6 15 4 16 3 17 2 18 1 19 17 20 18 21 19 22 20 23
REMARK SMILES IDX 21 24 22 25 83 26 23 27 82 28 24 29 25 30 26 31 76 32 27 33
REMARK SMILES IDX 81 34 75 35 77 36 28 37 80 38 74 39 73 40 29 42 61 43 41 44
REMARK SMILES IDX 60 45 42 46 45 47 59 48 78 49 43 50 44 51 58 53 79 54 46 55
REMARK SMILES IDX 30 56 31 57 39 58 32 59 34 60 40 61 33 62 35 63 36 64 37 65
REMARK SMILES IDX 38 66 62 67 63 68 71 69 64 70 66 71 72 72 65 73 67 74 68 75
REMARK SMILES IDX 69 76 70 77 47 78 48 79 56 80 49 81 51 82 57 83 50 84 52 85
REMARK SMILES IDX 53 86 54 87 55 88
REMARK H PARENT 77 41 45 52
REMARK Flexibility Score: inf
ROOT
ATOM      1  C   UNL     1       0.427   5.602  -2.646  1.00  0.00     0.275 C 
ENDROOT
BRANCH   1   2
ATOM      2  O   UNL     1       0.485   4.311  -2.003  1.00  0.00    -0.458 OA
BRANCH   2   3
ATOM      3  C   UNL     1      -0.416   3.401  -2.449  1.00  0.00     0.338 C 
ATOM      4  O   UNL     1      -1.245   3.562  -3.325  1.00  0.00    -0.246 OA
BRANCH   3   5
ATOM      5  C   UNL     1      -0.278   2.122  -1.725  1.00  0.00     0.060 A 
ATOM      6  N   UNL     1       0.045  -1.646   0.062  1.00  0.00    -0.312 N 
ATOM      7  C   UNL     1       0.136  -2.511  -1.132  1.00  0.00     0.130 C 
ATOM      8  C   UNL     1      -0.193  -0.326  -0.370  1.00  0.00     0.047 A 
ATOM      9  C   UNL     1       0.320  -1.599  -2.341  1.00  0.00     0.059 C 
ATOM     10  C   UNL     1       0.004  -0.265  -1.746  1.00  0.00    -0.022 A 
ATOM     11  C   UNL     1      -0.496   0.841   0.322  1.00  0.00     0.027 A 
ATOM     12  C   UNL     1      -0.019   0.941  -2.424  1.00  0.00     0.021 A 
ATOM     13  C   UNL     1      -0.529   2.070  -0.354  1.00  0.00     0.018 A 
BRANCH   6  14
ATOM     14  C   UNL     1       0.276  -2.186   1.307  1.00  0.00     0.229 C 
ATOM     15  O   UNL     1       0.553  -3.386   1.438  1.00  0.00    -0.274 OA
BRANCH  14  16
ATOM     16  C   UNL     1       0.231  -1.334   2.551  1.00  0.00     0.129 C 
BRANCH  16  17
ATOM     17  C   UNL     1       1.530  -0.594   2.856  1.00  0.00     0.169 C 
BRANCH  17  18
ATOM     18  O   UNL     1       1.867   0.403   1.899  1.00  0.00    -0.384 OA
ATOM     19  C   UNL     1       2.881  -0.006   0.986  1.00  0.00     0.194 C 
ENDBRANCH  17  18
ENDBRANCH  16  17
ENDBRANCH  14  16
ENDBRANCH   6  14
ENDBRANCH   3   5
ENDBRANCH   2   3
ENDBRANCH   1   2
BRANCH   1  20
ATOM     20  C   UNL     1       1.522   5.782  -3.700  1.00  0.00     0.275 C 
BRANCH  20  21
ATOM     21  O   UNL     1       1.312   4.913  -4.826  1.00  0.00    -0.458 OA
BRANCH  21  22
ATOM     22  C   UNL     1       2.051   3.784  -4.807  1.00  0.00     0.338 C 
ATOM     23  O   UNL     1       2.875   3.449  -3.970  1.00  0.00    -0.246 OA
BRANCH  22  24
ATOM     24  C   UNL     1       1.662   2.898  -5.908  1.00  0.00     0.060 A 
ATOM     25  C   UNL     1       0.589   2.046  -5.692  1.00  0.00     0.016 A 
ATOM     26  C   UNL     1       2.471   2.732  -7.025  1.00  0.00     0.016 A 
ATOM     27  C   UNL     1       0.434   0.905  -6.463  1.00  0.00     0.010 A 
ATOM     28  C   UNL     1       2.193   1.687  -7.912  1.00  0.00     0.010 A 
ATOM     29  C   UNL     1       1.204   0.728  -7.614  1.00  0.00    -0.014 A 
BRANCH  29  30
ATOM     30  C   UNL     1       0.964  -0.436  -8.511  1.00  0.00     0.031 A 
ATOM     31  C   UNL     1       2.115  -1.311  -8.932  1.00  0.00     0.074 A 
ATOM     32  C   UNL     1      -0.277  -0.681  -8.983  1.00  0.00     0.049 A 
ATOM     33  N   UNL     1       2.177  -2.182  -9.904  1.00  0.00    -0.248 NA
ATOM     34  C   UNL     1       3.371  -1.171  -8.175  1.00  0.00     0.031 C 
ATOM     35  C   UNL     1      -1.490   0.061  -8.623  1.00  0.00     0.029 A 
ATOM     36  N   UNL     1      -0.723  -1.605  -9.897  1.00  0.00    -0.354 N 
ATOM     37  C   UNL     1       3.495  -2.622  -9.938  1.00  0.00     0.074 A 
ATOM     38  C   UNL     1       4.197  -1.938  -8.874  1.00  0.00     0.031 C 
ATOM     39  C   UNL     1      -2.535  -0.436  -9.295  1.00  0.00     0.029 A 
ATOM     40  C   UNL     1      -2.051  -1.444 -10.225  1.00  0.00     0.049 A 
ATOM     41  H   UNL     1      -0.151  -2.309 -10.279  1.00  0.00     0.167 HD
ATOM     42  C   UNL     1       4.065  -3.509 -10.788  1.00  0.00     0.034 A 
ATOM     43  C   UNL     1      -2.788  -1.979 -11.216  1.00  0.00     0.034 A 
ATOM     44  C   UNL     1       3.334  -4.219 -11.805  1.00  0.00     0.049 A 
ATOM     45  C   UNL     1      -2.128  -2.938 -12.160  1.00  0.00     0.074 A 
ATOM     46  C   UNL     1       3.801  -5.172 -12.693  1.00  0.00     0.029 A 
ATOM     47  N   UNL     1       1.982  -4.054 -12.068  1.00  0.00    -0.354 N 
ATOM     48  N   UNL     1      -0.887  -3.361 -12.169  1.00  0.00    -0.248 NA
ATOM     49  C   UNL     1      -2.968  -3.505 -13.223  1.00  0.00     0.031 C 
ATOM     50  C   UNL     1       2.739  -5.557 -13.516  1.00  0.00     0.029 A 
ATOM     51  C   UNL     1       1.599  -4.881 -13.109  1.00  0.00     0.049 A 
ATOM     52  H   UNL     1       1.384  -3.440 -11.584  1.00  0.00     0.167 HD
ATOM     53  C   UNL     1      -0.806  -4.275 -13.211  1.00  0.00     0.074 A 
ATOM     54  C   UNL     1      -2.127  -4.351 -13.803  1.00  0.00     0.031 C 
ATOM     55  C   UNL     1       0.265  -4.982 -13.643  1.00  0.00     0.034 A 
BRANCH  42  56
ATOM     56  C   UNL     1       5.547  -3.758 -10.669  1.00  0.00     0.023 A 
ATOM     57  C   UNL     1       6.064  -4.469  -9.568  1.00  0.00     0.012 A 
ATOM     58  C   UNL     1       6.426  -3.332 -11.687  1.00  0.00     0.148 A 
ATOM     59  C   UNL     1       7.433  -4.719  -9.463  1.00  0.00     0.002 A 
ATOM     60  C   UNL     1       7.781  -3.627 -11.600  1.00  0.00     0.091 A 
ATOM     61  F   UNL     1       5.920  -2.640 -12.718  1.00  0.00    -0.205 F 
ATOM     62  C   UNL     1       8.289  -4.308 -10.482  1.00  0.00     0.022 A 
BRANCH  60  63
ATOM     63  S   UNL     1       8.950  -3.214 -12.900  1.00  0.00     0.127 S 
ATOM     64  O   UNL     1       9.755  -2.178 -12.255  1.00  0.00    -0.237 OA
ATOM     65  O   UNL     1       9.643  -4.486 -13.104  1.00  0.00    -0.237 OA
ATOM     66  O   UNL     1       8.152  -2.767 -14.034  1.00  0.00    -0.744 OA
ENDBRANCH  60  63
ENDBRANCH  42  56
BRANCH  43  67
ATOM     67  C   UNL     1      -4.221  -1.597 -11.369  1.00  0.00     0.023 A 
ATOM     68  C   UNL     1      -5.222  -2.552 -11.113  1.00  0.00     0.012 A 
ATOM     69  C   UNL     1      -4.597  -0.284 -11.721  1.00  0.00     0.148 A 
ATOM     70  C   UNL     1      -6.571  -2.216 -11.233  1.00  0.00     0.002 A 
ATOM     71  C   UNL     1      -5.941   0.060 -11.778  1.00  0.00     0.091 A 
ATOM     72  F   UNL     1      -3.628   0.609 -11.970  1.00  0.00    -0.205 F 
ATOM     73  C   UNL     1      -6.931  -0.909 -11.552  1.00  0.00     0.022 A 
BRANCH  71  74
ATOM     74  S   UNL     1      -6.495   1.748 -12.044  1.00  0.00     0.127 S 
ATOM     75  O   UNL     1      -7.087   1.661 -13.376  1.00  0.00    -0.237 OA
ATOM     76  O   UNL     1      -7.454   1.926 -10.953  1.00  0.00    -0.237 OA
ATOM     77  O   UNL     1      -5.302   2.577 -11.936  1.00  0.00    -0.744 OA
ENDBRANCH  71  74
ENDBRANCH  43  67
BRANCH  55  78
ATOM     78  C   UNL     1       0.044  -5.962 -14.762  1.00  0.00     0.023 A 
ATOM     79  C   UNL     1      -0.149  -5.505 -16.079  1.00  0.00     0.012 A 
ATOM     80  C   UNL     1       0.117  -7.346 -14.508  1.00  0.00     0.148 A 
ATOM     81  C   UNL     1      -0.292  -6.415 -17.126  1.00  0.00     0.002 A 
ATOM     82  C   UNL     1       0.029  -8.243 -15.562  1.00  0.00     0.091 A 
ATOM     83  F   UNL     1       0.280  -7.755 -13.241  1.00  0.00    -0.205 F 
ATOM     84  C   UNL     1      -0.189  -7.781 -16.870  1.00  0.00     0.022 A 
BRANCH  82  85
ATOM     85  S   UNL     1       0.254 -10.011 -15.342  1.00  0.00     0.127 S 
ATOM     86  O   UNL     1      -1.089 -10.519 -15.617  1.00  0.00    -0.237 OA
ATOM     87  O   UNL     1       1.248 -10.324 -16.369  1.00  0.00    -0.237 OA
ATOM     88  O   UNL     1       0.719 -10.192 -13.973  1.00  0.00    -0.744 OA
ENDBRANCH  82  85
ENDBRANCH  55  78
ENDBRANCH  29  30
ENDBRANCH  22  24
ENDBRANCH  21  22
ENDBRANCH  20  21
ENDBRANCH   1  20
TORSDOF 18
