REMARK SMILES Cc1cc(N2N=C(C(=O)OCCOC(=O)c3ccc(-c4c5nc(c(-c6cccc(S(=O)(=O)[O-])c6F)c6ccc([nH]6)c(-c6cccc(S(=O)(=O)[O-])c6F)c6nc(c(-c7cccc(S(=O)(=O)[O-])c7F)c7ccc4[nH]7)C=C6)C=C5)cc3)C[C@H]2c2ccccc2)c([N+](=O)[O-])cc1C
REMARK SMILES IDX 12 1 11 2 10 3 8 4 9 5 7 6 5 7 6 8 80 9 79 10 4 11 1 12 2 13
REMARK SMILES IDX 3 14 92 15 91 16 93 17 87 18 88 19 89 20 90 21 81 22 82 23
REMARK SMILES IDX 86 24 83 25 85 26 84 27 13 28 14 29 15 30 16 31 17 32 78 33
REMARK SMILES IDX 18 34 77 35 19 36 20 37 21 38 71 39 22 40 76 41 70 42 72 43
REMARK SMILES IDX 23 44 75 45 69 46 68 47 24 49 56 50 36 51 55 52 37 53 40 54
REMARK SMILES IDX 54 55 73 56 38 57 39 58 53 60 74 61 41 62 25 63 26 64 34 65
REMARK SMILES IDX 27 66 29 67 35 68 28 69 30 70 31 71 32 72 33 73 57 74 58 75
REMARK SMILES IDX 66 76 59 77 61 78 67 79 60 80 62 81 63 82 64 83 65 84 42 85
REMARK SMILES IDX 43 86 51 87 44 88 46 89 52 90 45 91 47 92 48 93 49 94 50 95
REMARK H PARENT 72 48 40 59
REMARK Flexibility Score: inf
ROOT
ATOM      1  C   UNL     1      -8.874   1.403   2.428  1.00  0.00     0.275 C 
ENDROOT
BRANCH   1   2
ATOM      2  C   UNL     1      -8.151   2.733   2.203  1.00  0.00     0.275 C 
BRANCH   2   3
ATOM      3  O   UNL     1      -7.061   2.543   1.282  1.00  0.00    -0.458 OA
BRANCH   3   4
ATOM      4  C   UNL     1      -5.894   3.123   1.623  1.00  0.00     0.354 C 
ATOM      5  O   UNL     1      -5.684   3.914   2.516  1.00  0.00    -0.245 OA
BRANCH   4   6
ATOM      6  C   UNL     1      -4.811   2.645   0.690  1.00  0.00     0.148 C 
ATOM      7  N   UNL     1      -2.993   1.850  -0.029  1.00  0.00    -0.250 N 
ATOM      8  N   UNL     1      -3.708   2.093   1.102  1.00  0.00    -0.169 NA
ATOM      9  C   UNL     1      -3.532   2.522  -1.215  1.00  0.00     0.144 C 
ATOM     10  C   UNL     1      -4.992   2.737  -0.792  1.00  0.00     0.098 C 
BRANCH   7  11
ATOM     11  C   UNL     1      -1.895   1.005  -0.015  1.00  0.00     0.138 A 
ATOM     12  C   UNL     1       1.877   1.465   0.422  1.00  0.00     0.045 C 
ATOM     13  C   UNL     1       0.555   0.775   0.220  1.00  0.00    -0.046 A 
ATOM     14  C   UNL     1      -0.622   1.553   0.215  1.00  0.00     0.039 A 
ATOM     15  C   UNL     1       0.463  -0.615   0.034  1.00  0.00    -0.041 A 
ATOM     16  C   UNL     1      -0.801  -1.188  -0.162  1.00  0.00     0.091 A 
ATOM     17  C   UNL     1       1.655  -1.534   0.085  1.00  0.00     0.045 C 
ATOM     18  C   UNL     1      -1.954  -0.383  -0.208  1.00  0.00     0.294 A 
BRANCH  18  19
ATOM     19  N   UNL     1      -3.216  -1.051  -0.503  1.00  0.00     0.065 N 
ATOM     20  O   UNL     1      -3.416  -2.153   0.029  1.00  0.00    -0.258 OA
ATOM     21  O   UNL     1      -3.973  -0.525  -1.333  1.00  0.00    -0.258 OA
ENDBRANCH  18  19
ENDBRANCH   7  11
BRANCH   9  22
ATOM     22  C   UNL     1      -2.734   3.792  -1.497  1.00  0.00    -0.023 A 
ATOM     23  C   UNL     1      -3.051   5.042  -0.939  1.00  0.00     0.006 A 
ATOM     24  C   UNL     1      -1.570   3.696  -2.282  1.00  0.00     0.006 A 
ATOM     25  C   UNL     1      -2.238   6.156  -1.164  1.00  0.00     0.000 A 
ATOM     26  C   UNL     1      -0.748   4.805  -2.489  1.00  0.00     0.000 A 
ATOM     27  C   UNL     1      -1.084   6.036  -1.932  1.00  0.00     0.000 A 
ENDBRANCH   9  22
ENDBRANCH   4   6
ENDBRANCH   3   4
ENDBRANCH   2   3
ENDBRANCH   1   2
BRANCH   1  28
ATOM     28  O   UNL     1      -7.994   0.447   3.050  1.00  0.00    -0.458 OA
BRANCH  28  29
ATOM     29  C   UNL     1      -7.301  -0.331   2.181  1.00  0.00     0.338 C 
ATOM     30  O   UNL     1      -7.411  -0.348   0.966  1.00  0.00    -0.246 OA
BRANCH  29  31
ATOM     31  C   UNL     1      -6.242  -1.049   2.907  1.00  0.00     0.060 A 
ATOM     32  C   UNL     1      -4.924  -0.697   2.623  1.00  0.00     0.016 A 
ATOM     33  C   UNL     1      -6.517  -2.091   3.792  1.00  0.00     0.016 A 
ATOM     34  C   UNL     1      -3.867  -1.393   3.199  1.00  0.00     0.010 A 
ATOM     35  C   UNL     1      -5.452  -2.792   4.375  1.00  0.00     0.010 A 
ATOM     36  C   UNL     1      -4.120  -2.461   4.066  1.00  0.00    -0.014 A 
BRANCH  36  37
ATOM     37  C   UNL     1      -2.976  -3.239   4.605  1.00  0.00     0.031 A 
ATOM     38  C   UNL     1      -2.705  -4.631   4.108  1.00  0.00     0.074 A 
ATOM     39  C   UNL     1      -2.165  -2.682   5.525  1.00  0.00     0.049 A 
ATOM     40  N   UNL     1      -1.768  -5.468   4.476  1.00  0.00    -0.248 NA
ATOM     41  C   UNL     1      -3.605  -5.158   3.069  1.00  0.00     0.031 C 
ATOM     42  C   UNL     1      -2.323  -1.339   6.084  1.00  0.00     0.029 A 
ATOM     43  N   UNL     1      -1.053  -3.179   6.157  1.00  0.00    -0.354 N 
ATOM     44  C   UNL     1      -1.998  -6.636   3.760  1.00  0.00     0.074 A 
ATOM     45  C   UNL     1      -3.157  -6.399   2.926  1.00  0.00     0.031 C 
ATOM     46  C   UNL     1      -1.345  -1.119   6.978  1.00  0.00     0.029 A 
ATOM     47  C   UNL     1      -0.508  -2.312   7.075  1.00  0.00     0.049 A 
ATOM     48  H   UNL     1      -0.680  -4.071   5.970  1.00  0.00     0.167 HD
ATOM     49  C   UNL     1      -1.296  -7.793   3.782  1.00  0.00     0.034 A 
ATOM     50  C   UNL     1       0.540  -2.464   7.909  1.00  0.00     0.034 A 
ATOM     51  C   UNL     1      -0.091  -7.999   4.543  1.00  0.00     0.049 A 
ATOM     52  C   UNL     1       1.325  -3.747   7.877  1.00  0.00     0.074 A 
ATOM     53  C   UNL     1       0.738  -9.108   4.554  1.00  0.00     0.029 A 
ATOM     54  N   UNL     1       0.459  -7.079   5.420  1.00  0.00    -0.354 N 
ATOM     55  N   UNL     1       1.169  -4.790   7.099  1.00  0.00    -0.248 NA
ATOM     56  C   UNL     1       2.446  -3.864   8.820  1.00  0.00     0.031 C 
ATOM     57  C   UNL     1       1.790  -8.859   5.442  1.00  0.00     0.029 A 
ATOM     58  C   UNL     1       1.612  -7.597   5.986  1.00  0.00     0.049 A 
ATOM     59  H   UNL     1       0.086  -6.189   5.613  1.00  0.00     0.167 HD
ATOM     60  C   UNL     1       2.178  -5.679   7.447  1.00  0.00     0.074 A 
ATOM     61  C   UNL     1       2.962  -5.039   8.482  1.00  0.00     0.031 C 
ATOM     62  C   UNL     1       2.417  -6.926   6.972  1.00  0.00     0.034 A 
BRANCH  49  63
ATOM     63  C   UNL     1      -1.777  -8.928   2.921  1.00  0.00     0.023 A 
ATOM     64  C   UNL     1      -1.486  -8.922   1.543  1.00  0.00     0.012 A 
ATOM     65  C   UNL     1      -2.433 -10.037   3.489  1.00  0.00     0.148 A 
ATOM     66  C   UNL     1      -1.852 -10.001   0.739  1.00  0.00     0.002 A 
ATOM     67  C   UNL     1      -2.768 -11.122   2.686  1.00  0.00     0.091 A 
ATOM     68  F   UNL     1      -2.719 -10.010   4.798  1.00  0.00    -0.205 F 
ATOM     69  C   UNL     1      -2.482 -11.104   1.311  1.00  0.00     0.022 A 
BRANCH  67  70
ATOM     70  S   UNL     1      -3.523 -12.614   3.343  1.00  0.00     0.127 S 
ATOM     71  O   UNL     1      -4.894 -12.495   2.848  1.00  0.00    -0.237 OA
ATOM     72  O   UNL     1      -2.735 -13.669   2.704  1.00  0.00    -0.237 OA
ATOM     73  O   UNL     1      -3.370 -12.537   4.789  1.00  0.00    -0.744 OA
ENDBRANCH  67  70
ENDBRANCH  49  63
BRANCH  50  74
ATOM     74  C   UNL     1       0.937  -1.348   8.811  1.00  0.00     0.023 A 
ATOM     75  C   UNL     1       2.134  -0.650   8.561  1.00  0.00     0.012 A 
ATOM     76  C   UNL     1       0.128  -0.954   9.893  1.00  0.00     0.148 A 
ATOM     77  C   UNL     1       2.527   0.405   9.385  1.00  0.00     0.002 A 
ATOM     78  C   UNL     1       0.500   0.132  10.679  1.00  0.00     0.091 A 
ATOM     79  F   UNL     1      -0.995  -1.644  10.140  1.00  0.00    -0.205 F 
ATOM     80  C   UNL     1       1.705   0.805  10.436  1.00  0.00     0.022 A 
BRANCH  78  81
ATOM     81  S   UNL     1      -0.596   0.762  11.955  1.00  0.00     0.127 S 
ATOM     82  O   UNL     1      -0.199  -0.029  13.116  1.00  0.00    -0.237 OA
ATOM     83  O   UNL     1      -0.230   2.178  12.024  1.00  0.00    -0.237 OA
ATOM     84  O   UNL     1      -1.937   0.523  11.434  1.00  0.00    -0.744 OA
ENDBRANCH  78  81
ENDBRANCH  50  74
BRANCH  62  85
ATOM     85  C   UNL     1       3.573  -7.686   7.564  1.00  0.00     0.023 A 
ATOM     86  C   UNL     1       3.430  -8.265   8.840  1.00  0.00     0.012 A 
ATOM     87  C   UNL     1       4.763  -7.890   6.841  1.00  0.00     0.148 A 
ATOM     88  C   UNL     1       4.463  -9.017   9.397  1.00  0.00     0.002 A 
ATOM     89  C   UNL     1       5.776  -8.671   7.388  1.00  0.00     0.091 A 
ATOM     90  F   UNL     1       4.893  -7.311   5.638  1.00  0.00    -0.205 F 
ATOM     91  C   UNL     1       5.631  -9.230   8.668  1.00  0.00     0.022 A 
BRANCH  89  92
ATOM     92  S   UNL     1       7.271  -9.053   6.467  1.00  0.00     0.127 S 
ATOM     93  O   UNL     1       8.189  -8.019   6.940  1.00  0.00    -0.237 OA
ATOM     94  O   UNL     1       7.593 -10.406   6.921  1.00  0.00    -0.237 OA
ATOM     95  O   UNL     1       6.890  -8.972   5.062  1.00  0.00    -0.744 OA
ENDBRANCH  89  92
ENDBRANCH  62  85
ENDBRANCH  36  37
ENDBRANCH  29  31
ENDBRANCH  28  29
ENDBRANCH   1  28
TORSDOF 17
