REMARK SMILES Cc1cc(C)cc(Oc2nc3ccccn3c(=O)c2/C=C2\SC(=S)N(CCC(=O)OCCOC(=O)c3ccc(-c4c5nc(c(-c6cccc(S(=O)(=O)[O-])c6F)c6ccc([nH]6)c(-c6cccc(S(=O)(=O)[O-])c6F)c6nc(c(-c7cccc(S(=O)(=O)[O-])c7F)c7ccc4[nH]7)C=C6)C=C5)cc3)C2=O)c1
REMARK SMILES IDX 31 1 30 2 28 3 29 4 27 5 26 6 25 7 20 8 21 9 22 10 99 11
REMARK SMILES IDX 23 12 100 13 24 14 19 15 9 16 10 17 11 18 17 19 12 20 16 21
REMARK SMILES IDX 18 22 13 23 15 24 14 25 8 26 7 27 1 28 2 29 3 30 101 31 4 32
REMARK SMILES IDX 5 33 6 34 32 35 33 36 34 37 35 38 36 39 37 40 98 41 38 42
REMARK SMILES IDX 97 43 39 44 40 45 41 46 91 47 42 48 96 49 90 50 92 51 43 52
REMARK SMILES IDX 95 53 89 54 88 55 44 57 76 58 56 59 75 60 57 61 60 62 74 63
REMARK SMILES IDX 93 64 58 65 59 66 73 68 94 69 61 70 45 71 46 72 54 73 47 74
REMARK SMILES IDX 49 75 55 76 48 77 50 78 51 79 52 80 53 81 77 82 78 83 86 84
REMARK SMILES IDX 79 85 81 86 87 87 80 88 82 89 83 90 84 91 85 92 62 93 63 94
REMARK SMILES IDX 71 95 64 96 66 97 72 98 65 99 67 100 68 101 69 102 70 103
REMARK H PARENT 92 56 60 67
REMARK Flexibility Score: inf
ROOT
ATOM      1  C   UNL     1      -0.638  -0.142   4.077  1.00  0.00     0.274 C 
ENDROOT
BRANCH   1   2
ATOM      2  O   UNL     1       0.641   0.395   3.685  1.00  0.00    -0.462 OA
BRANCH   2   3
ATOM      3  C   UNL     1       0.874   1.698   3.970  1.00  0.00     0.307 C 
ATOM      4  O   UNL     1       0.037   2.492   4.376  1.00  0.00    -0.252 OA
BRANCH   3   5
ATOM      5  C   UNL     1       2.297   2.099   3.661  1.00  0.00     0.144 C 
BRANCH   5   6
ATOM      6  C   UNL     1       3.363   1.181   4.271  1.00  0.00     0.139 C 
BRANCH   6   7
ATOM      7  N   UNL     1       3.678   0.052   3.393  1.00  0.00    -0.292 N 
ATOM      8  C   UNL     1       2.304  -2.985   2.160  1.00  0.00     0.041 C 
ATOM      9  C   UNL     1       3.184  -2.007   2.413  1.00  0.00     0.081 C 
ATOM     10  S   UNL     1       4.487  -1.437   1.451  1.00  0.00    -0.054 SA
ATOM     11  C   UNL     1       3.032  -1.151   3.600  1.00  0.00     0.266 C 
ATOM     12  C   UNL     1       4.561   0.087   2.335  1.00  0.00     0.148 C 
ATOM     13  O   UNL     1       2.408  -1.503   4.585  1.00  0.00    -0.268 OA
ATOM     14  S   UNL     1       5.556   1.338   1.856  1.00  0.00    -0.052 S 
BRANCH   8  15
ATOM     15  C   UNL     1       2.372  -3.853   1.005  1.00  0.00     0.104 A 
ATOM     16  C   UNL     1       1.491  -3.863  -0.016  1.00  0.00     0.234 A 
ATOM     17  N   UNL     1       1.619  -4.681  -1.112  1.00  0.00    -0.194 NA
ATOM     18  C   UNL     1       2.658  -5.450  -1.189  1.00  0.00     0.143 A 
ATOM     19  C   UNL     1       3.516  -4.807   0.945  1.00  0.00     0.269 A 
ATOM     20  C   UNL     1       2.833  -6.312  -2.393  1.00  0.00     0.048 A 
ATOM     21  N   UNL     1       3.640  -5.538  -0.218  1.00  0.00    -0.267 N 
ATOM     22  O   UNL     1       4.273  -4.924   1.911  1.00  0.00    -0.268 OA
ATOM     23  C   UNL     1       3.910  -7.100  -2.502  1.00  0.00     0.005 A 
ATOM     24  C   UNL     1       4.737  -6.377  -0.368  1.00  0.00     0.096 A 
ATOM     25  C   UNL     1       4.900  -7.134  -1.459  1.00  0.00     0.019 A 
BRANCH  16  26
ATOM     26  O   UNL     1       0.299  -3.138   0.033  1.00  0.00    -0.438 OA
BRANCH  26  27
ATOM     27  C   UNL     1       0.266  -1.768  -0.108  1.00  0.00     0.130 A 
ATOM     28  C   UNL     1       2.390   1.333  -0.714  1.00  0.00     0.044 C 
ATOM     29  C   UNL     1       1.212   0.440  -0.459  1.00  0.00    -0.047 A 
ATOM     30  C   UNL     1      -0.044   1.011  -0.215  1.00  0.00     0.007 A 
ATOM     31  C   UNL     1       1.350  -0.957  -0.438  1.00  0.00     0.050 A 
ATOM     32  C   UNL     1      -1.159   0.206   0.035  1.00  0.00    -0.047 A 
ATOM     33  C   UNL     1      -2.504   0.841   0.237  1.00  0.00     0.044 C 
ATOM     34  C   UNL     1      -0.990  -1.182   0.106  1.00  0.00     0.050 A 
ENDBRANCH  26  27
ENDBRANCH  16  26
ENDBRANCH   8  15
ENDBRANCH   6   7
ENDBRANCH   5   6
ENDBRANCH   3   5
ENDBRANCH   2   3
ENDBRANCH   1   2
BRANCH   1  35
ATOM     35  C   UNL     1      -0.593  -0.731   5.489  1.00  0.00     0.275 C 
BRANCH  35  36
ATOM     36  O   UNL     1      -0.409   0.319   6.453  1.00  0.00    -0.458 OA
BRANCH  36  37
ATOM     37  C   UNL     1       0.717   0.265   7.195  1.00  0.00     0.338 C 
ATOM     38  O   UNL     1       1.594  -0.576   7.199  1.00  0.00    -0.246 OA
BRANCH  37  39
ATOM     39  C   UNL     1       0.760   1.445   8.059  1.00  0.00     0.060 A 
ATOM     40  C   UNL     1       1.327   2.631   7.585  1.00  0.00     0.016 A 
ATOM     41  C   UNL     1       0.309   1.329   9.372  1.00  0.00     0.016 A 
ATOM     42  C   UNL     1       1.453   3.719   8.444  1.00  0.00     0.010 A 
ATOM     43  C   UNL     1       0.412   2.427  10.220  1.00  0.00     0.010 A 
ATOM     44  C   UNL     1       0.997   3.621   9.765  1.00  0.00    -0.014 A 
BRANCH  44  45
ATOM     45  C   UNL     1       1.132   4.760  10.698  1.00  0.00     0.031 A 
ATOM     46  C   UNL     1       2.133   4.690  11.813  1.00  0.00     0.074 A 
ATOM     47  C   UNL     1       0.306   5.814  10.569  1.00  0.00     0.049 A 
ATOM     48  N   UNL     1       2.313   5.514  12.810  1.00  0.00    -0.248 NA
ATOM     49  C   UNL     1       3.048   3.535  11.810  1.00  0.00     0.031 C 
ATOM     50  C   UNL     1      -0.702   5.971   9.519  1.00  0.00     0.029 A 
ATOM     51  N   UNL     1       0.162   6.934  11.344  1.00  0.00    -0.354 N 
ATOM     52  C   UNL     1       3.338   4.966  13.572  1.00  0.00     0.074 A 
ATOM     53  C   UNL     1       3.737   3.735  12.926  1.00  0.00     0.031 C 
ATOM     54  C   UNL     1      -1.377   7.113   9.729  1.00  0.00     0.029 A 
ATOM     55  C   UNL     1      -0.875   7.744  10.945  1.00  0.00     0.049 A 
ATOM     56  H   UNL     1       0.744   7.139  12.111  1.00  0.00     0.167 HD
ATOM     57  C   UNL     1       3.903   5.458  14.699  1.00  0.00     0.034 A 
ATOM     58  C   UNL     1      -1.377   8.856  11.515  1.00  0.00     0.034 A 
ATOM     59  C   UNL     1       3.509   6.695  15.318  1.00  0.00     0.049 A 
ATOM     60  C   UNL     1      -0.739   9.370  12.777  1.00  0.00     0.074 A 
ATOM     61  C   UNL     1       4.024   7.295  16.452  1.00  0.00     0.029 A 
ATOM     62  N   UNL     1       2.500   7.524  14.849  1.00  0.00    -0.354 N 
ATOM     63  N   UNL     1       0.286   8.888  13.438  1.00  0.00    -0.248 NA
ATOM     64  C   UNL     1      -1.310  10.592  13.359  1.00  0.00     0.031 C 
ATOM     65  C   UNL     1       3.324   8.487  16.671  1.00  0.00     0.029 A 
ATOM     66  C   UNL     1       2.379   8.633  15.667  1.00  0.00     0.049 A 
ATOM     67  H   UNL     1       1.950   7.349  14.051  1.00  0.00     0.167 HD
ATOM     68  C   UNL     1       0.506   9.766  14.492  1.00  0.00     0.074 A 
ATOM     69  C   UNL     1      -0.482  10.819  14.371  1.00  0.00     0.031 C 
ATOM     70  C   UNL     1       1.428   9.699  15.485  1.00  0.00     0.034 A 
BRANCH  57  71
ATOM     71  C   UNL     1       5.040   4.682  15.308  1.00  0.00     0.023 A 
ATOM     72  C   UNL     1       6.308   4.725  14.694  1.00  0.00     0.012 A 
ATOM     73  C   UNL     1       4.875   3.962  16.507  1.00  0.00     0.148 A 
ATOM     74  C   UNL     1       7.390   4.045  15.251  1.00  0.00     0.002 A 
ATOM     75  C   UNL     1       5.968   3.314  17.075  1.00  0.00     0.091 A 
ATOM     76  F   UNL     1       3.656   3.912  17.062  1.00  0.00    -0.205 F 
ATOM     77  C   UNL     1       7.223   3.348  16.444  1.00  0.00     0.022 A 
BRANCH  75  78
ATOM     78  S   UNL     1       5.870   2.443  18.643  1.00  0.00     0.127 S 
ATOM     79  O   UNL     1       5.941   1.048  18.212  1.00  0.00    -0.237 OA
ATOM     80  O   UNL     1       7.062   2.926  19.341  1.00  0.00    -0.237 OA
ATOM     81  O   UNL     1       4.609   2.849  19.248  1.00  0.00    -0.744 OA
ENDBRANCH  75  78
ENDBRANCH  57  71
BRANCH  58  82
ATOM     82  C   UNL     1      -2.507   9.580  10.870  1.00  0.00     0.023 A 
ATOM     83  C   UNL     1      -2.268  10.836  10.280  1.00  0.00     0.012 A 
ATOM     84  C   UNL     1      -3.800   9.026  10.803  1.00  0.00     0.148 A 
ATOM     85  C   UNL     1      -3.301  11.539   9.659  1.00  0.00     0.002 A 
ATOM     86  C   UNL     1      -4.813   9.708  10.136  1.00  0.00     0.091 A 
ATOM     87  F   UNL     1      -4.018   7.840  11.388  1.00  0.00    -0.205 F 
ATOM     88  C   UNL     1      -4.569  10.971   9.577  1.00  0.00     0.022 A 
BRANCH  86  89
ATOM     89  S   UNL     1      -6.434   8.979   9.877  1.00  0.00     0.127 S 
ATOM     90  O   UNL     1      -7.218   9.602  10.938  1.00  0.00    -0.237 OA
ATOM     91  O   UNL     1      -6.765   9.427   8.523  1.00  0.00    -0.237 OA
ATOM     92  O   UNL     1      -6.227   7.541   9.991  1.00  0.00    -0.744 OA
ENDBRANCH  86  89
ENDBRANCH  58  82
BRANCH  70  93
ATOM     93  C   UNL     1       1.435  10.812  16.497  1.00  0.00     0.023 A 
ATOM     94  C   UNL     1       0.443  10.848  17.495  1.00  0.00     0.012 A 
ATOM     95  C   UNL     1       2.465  11.772  16.504  1.00  0.00     0.148 A 
ATOM     96  C   UNL     1       0.461  11.841  18.474  1.00  0.00     0.002 A 
ATOM     97  C   UNL     1       2.501  12.733  17.507  1.00  0.00     0.091 A 
ATOM     98  F   UNL     1       3.387  11.731  15.531  1.00  0.00    -0.205 F 
ATOM     99  C   UNL     1       1.495  12.774  18.487  1.00  0.00     0.022 A 
BRANCH  97 100
ATOM    100  S   UNL     1       3.843  13.918  17.648  1.00  0.00     0.127 S 
ATOM    101  O   UNL     1       3.221  15.136  17.134  1.00  0.00    -0.237 OA
ATOM    102  O   UNL     1       4.103  13.927  19.089  1.00  0.00    -0.237 OA
ATOM    103  O   UNL     1       4.934  13.381  16.846  1.00  0.00    -0.744 OA
ENDBRANCH  97 100
ENDBRANCH  70  93
ENDBRANCH  44  45
ENDBRANCH  37  39
ENDBRANCH  36  37
ENDBRANCH  35  36
ENDBRANCH   1  35
TORSDOF 19
