REMARK SMILES CC(C)[C@@H](CO)Nc1ccc(C(=O)OCCOC(=O)c2ccc(-c3c4nc(c(-c5cccc(S(=O)(=O)[O-])c5F)c5ccc([nH]5)c(-c5cccc(S(=O)(=O)[O-])c5F)c5nc(c(-c6cccc(S(=O)(=O)[O-])c6F)c6ccc3[nH]6)C=C5)C=C4)cc2)nn1
REMARK SMILES IDX 15 1 14 2 12 3 13 4 11 5 8 6 9 7 84 8 10 9 83 10 7 11 4 13
REMARK SMILES IDX 2 14 1 15 3 16 5 17 6 18 16 20 17 21 18 22 19 23 20 24 21 25
REMARK SMILES IDX 82 26 22 27 81 28 23 29 24 30 25 31 75 32 26 33 80 34 74 35
REMARK SMILES IDX 76 36 27 37 79 38 73 39 72 40 28 42 60 43 40 44 59 45 41 46
REMARK SMILES IDX 44 47 58 48 77 49 42 50 43 51 57 53 78 54 45 55 29 56 30 57
REMARK SMILES IDX 38 58 31 59 33 60 39 61 32 62 34 63 35 64 36 65 37 66 61 67
REMARK SMILES IDX 62 68 70 69 63 70 65 71 71 72 64 73 66 74 67 75 68 76 69 77
REMARK SMILES IDX 46 78 47 79 55 80 48 81 50 82 56 83 49 84 51 85 52 86 53 87
REMARK SMILES IDX 54 88
REMARK H PARENT 7 12 6 19 76 41 44 52
REMARK Flexibility Score: inf
ROOT
ATOM      1  C   UNL     1      -6.276   2.671  -6.824  1.00  0.00     0.275 C 
ENDROOT
BRANCH   1   2
ATOM      2  O   UNL     1      -5.570   2.344  -5.611  1.00  0.00    -0.457 OA
BRANCH   2   3
ATOM      3  C   UNL     1      -4.215   2.474  -5.676  1.00  0.00     0.358 C 
ATOM      4  O   UNL     1      -3.578   2.717  -6.684  1.00  0.00    -0.244 OA
BRANCH   3   5
ATOM      5  C   UNL     1      -3.605   2.360  -4.322  1.00  0.00     0.171 A 
ATOM      6  C   UNL     1      -2.329   2.416  -1.902  1.00  0.00     0.148 A 
ATOM      7  C   UNL     1      -3.515   1.706  -2.030  1.00  0.00     0.051 A 
ATOM      8  N   UNL     1      -1.808   3.054  -2.964  1.00  0.00    -0.132 NA
ATOM      9  C   UNL     1      -4.188   1.699  -3.256  1.00  0.00     0.042 A 
ATOM     10  N   UNL     1      -2.416   2.983  -4.192  1.00  0.00    -0.141 NA
BRANCH   6  11
ATOM     11  N   UNL     1      -1.621   2.476  -0.711  1.00  0.00    -0.363 N 
ATOM     12  H   UNL     1      -1.536   3.317  -0.206  1.00  0.00     0.162 HD
BRANCH  11  13
ATOM     13  C   UNL     1      -1.004   1.231  -0.235  1.00  0.00     0.108 C 
BRANCH  13  14
ATOM     14  C   UNL     1       0.551   1.338  -0.337  1.00  0.00     0.007 C 
ATOM     15  C   UNL     1       1.237   0.053   0.138  1.00  0.00     0.009 C 
ATOM     16  C   UNL     1       1.023   1.639  -1.768  1.00  0.00     0.009 C 
ENDBRANCH  13  14
BRANCH  13  17
ATOM     17  C   UNL     1      -1.518   0.941   1.200  1.00  0.00     0.181 C 
BRANCH  17  18
ATOM     18  O   UNL     1      -1.126   1.901   2.178  1.00  0.00    -0.394 OA
ATOM     19  H   UNL     1      -0.160   1.906   2.258  1.00  0.00     0.210 HD
ENDBRANCH  17  18
ENDBRANCH  13  17
ENDBRANCH  11  13
ENDBRANCH   6  11
ENDBRANCH   3   5
ENDBRANCH   2   3
ENDBRANCH   1   2
BRANCH   1  20
ATOM     20  C   UNL     1      -6.929   4.057  -6.746  1.00  0.00     0.275 C 
BRANCH  20  21
ATOM     21  O   UNL     1      -5.963   5.124  -6.718  1.00  0.00    -0.458 OA
BRANCH  21  22
ATOM     22  C   UNL     1      -5.574   5.514  -5.480  1.00  0.00     0.338 C 
ATOM     23  O   UNL     1      -5.959   5.050  -4.417  1.00  0.00    -0.246 OA
BRANCH  22  24
ATOM     24  C   UNL     1      -4.498   6.517  -5.574  1.00  0.00     0.060 A 
ATOM     25  C   UNL     1      -3.276   6.205  -4.979  1.00  0.00     0.016 A 
ATOM     26  C   UNL     1      -4.696   7.773  -6.151  1.00  0.00     0.016 A 
ATOM     27  C   UNL     1      -2.243   7.135  -4.953  1.00  0.00     0.010 A 
ATOM     28  C   UNL     1      -3.655   8.713  -6.125  1.00  0.00     0.010 A 
ATOM     29  C   UNL     1      -2.425   8.403  -5.515  1.00  0.00    -0.014 A 
BRANCH  29  30
ATOM     30  C   UNL     1      -1.333   9.403  -5.414  1.00  0.00     0.031 A 
ATOM     31  C   UNL     1      -1.457  10.563  -4.467  1.00  0.00     0.074 A 
ATOM     32  C   UNL     1      -0.211   9.246  -6.143  1.00  0.00     0.049 A 
ATOM     33  N   UNL     1      -0.621  11.544  -4.248  1.00  0.00    -0.248 NA
ATOM     34  C   UNL     1      -2.686  10.628  -3.659  1.00  0.00     0.031 C 
ATOM     35  C   UNL     1       0.039   8.146  -7.075  1.00  0.00     0.029 A 
ATOM     36  N   UNL     1       0.926  10.011  -6.213  1.00  0.00    -0.354 N 
ATOM     37  C   UNL     1      -1.233  12.364  -3.308  1.00  0.00     0.074 A 
ATOM     38  C   UNL     1      -2.517  11.767  -3.002  1.00  0.00     0.031 C 
ATOM     39  C   UNL     1       1.256   8.304  -7.620  1.00  0.00     0.029 A 
ATOM     40  C   UNL     1       1.856   9.532  -7.106  1.00  0.00     0.049 A 
ATOM     41  H   UNL     1       1.063  10.824  -5.676  1.00  0.00     0.167 HD
ATOM     42  C   UNL     1      -0.763  13.499  -2.737  1.00  0.00     0.034 A 
ATOM     43  C   UNL     1       3.051  10.032  -7.476  1.00  0.00     0.034 A 
ATOM     44  C   UNL     1       0.530  14.067  -3.010  1.00  0.00     0.049 A 
ATOM     45  C   UNL     1       3.541  11.306  -6.842  1.00  0.00     0.074 A 
ATOM     46  C   UNL     1       1.109  15.196  -2.458  1.00  0.00     0.029 A 
ATOM     47  N   UNL     1       1.449  13.549  -3.911  1.00  0.00    -0.354 N 
ATOM     48  N   UNL     1       2.984  12.025  -5.897  1.00  0.00    -0.248 NA
ATOM     49  C   UNL     1       4.833  11.826  -7.311  1.00  0.00     0.031 C 
ATOM     50  C   UNL     1       2.374  15.367  -3.034  1.00  0.00     0.029 A 
ATOM     51  C   UNL     1       2.587  14.338  -3.937  1.00  0.00     0.049 A 
ATOM     52  H   UNL     1       1.312  12.738  -4.453  1.00  0.00     0.167 HD
ATOM     53  C   UNL     1       3.866  13.068  -5.641  1.00  0.00     0.074 A 
ATOM     54  C   UNL     1       5.007  12.874  -6.514  1.00  0.00     0.031 C 
ATOM     55  C   UNL     1       3.736  14.104  -4.776  1.00  0.00     0.034 A 
BRANCH  42  56
ATOM     56  C   UNL     1      -1.649  14.185  -1.732  1.00  0.00     0.023 A 
ATOM     57  C   UNL     1      -1.800  13.630  -0.445  1.00  0.00     0.012 A 
ATOM     58  C   UNL     1      -2.309  15.389  -2.046  1.00  0.00     0.148 A 
ATOM     59  C   UNL     1      -2.620  14.244   0.502  1.00  0.00     0.002 A 
ATOM     60  C   UNL     1      -3.095  16.015  -1.084  1.00  0.00     0.091 A 
ATOM     61  F   UNL     1      -2.178  15.890  -3.283  1.00  0.00    -0.205 F 
ATOM     62  C   UNL     1      -3.260  15.440   0.186  1.00  0.00     0.022 A 
BRANCH  60  63
ATOM     63  S   UNL     1      -3.901  17.593  -1.389  1.00  0.00     0.127 S 
ATOM     64  O   UNL     1      -5.266  17.174  -1.699  1.00  0.00    -0.237 OA
ATOM     65  O   UNL     1      -3.752  18.276  -0.103  1.00  0.00    -0.237 OA
ATOM     66  O   UNL     1      -3.160  18.206  -2.483  1.00  0.00    -0.744 OA
ENDBRANCH  60  63
ENDBRANCH  42  56
BRANCH  43  67
ATOM     67  C   UNL     1       3.888   9.292  -8.462  1.00  0.00     0.023 A 
ATOM     68  C   UNL     1       5.068   8.660  -8.027  1.00  0.00     0.012 A 
ATOM     69  C   UNL     1       3.500   9.170  -9.811  1.00  0.00     0.148 A 
ATOM     70  C   UNL     1       5.855   7.932  -8.919  1.00  0.00     0.002 A 
ATOM     71  C   UNL     1       4.261   8.400 -10.683  1.00  0.00     0.091 A 
ATOM     72  F   UNL     1       2.386   9.799 -10.211  1.00  0.00    -0.205 F 
ATOM     73  C   UNL     1       5.446   7.790 -10.242  1.00  0.00     0.022 A 
BRANCH  71  74
ATOM     74  S   UNL     1       3.744   8.061 -12.370  1.00  0.00     0.127 S 
ATOM     75  O   UNL     1       4.699   8.854 -13.140  1.00  0.00    -0.237 OA
ATOM     76  O   UNL     1       3.933   6.612 -12.461  1.00  0.00    -0.237 OA
ATOM     77  O   UNL     1       2.355   8.492 -12.450  1.00  0.00    -0.744 OA
ENDBRANCH  71  74
ENDBRANCH  43  67
BRANCH  55  78
ATOM     78  C   UNL     1       4.858  15.107  -4.717  1.00  0.00     0.023 A 
ATOM     79  C   UNL     1       5.007  16.042  -5.760  1.00  0.00     0.012 A 
ATOM     80  C   UNL     1       5.717  15.171  -3.602  1.00  0.00     0.148 A 
ATOM     81  C   UNL     1       6.010  17.010  -5.707  1.00  0.00     0.002 A 
ATOM     82  C   UNL     1       6.688  16.165  -3.537  1.00  0.00     0.091 A 
ATOM     83  F   UNL     1       5.574  14.259  -2.629  1.00  0.00    -0.205 F 
ATOM     84  C   UNL     1       6.842  17.078  -4.592  1.00  0.00     0.022 A 
BRANCH  82  85
ATOM     85  S   UNL     1       7.744  16.379  -2.099  1.00  0.00     0.127 S 
ATOM     86  O   UNL     1       9.006  15.809  -2.567  1.00  0.00    -0.237 OA
ATOM     87  O   UNL     1       7.757  17.833  -1.932  1.00  0.00    -0.237 OA
ATOM     88  O   UNL     1       7.091  15.657  -1.015  1.00  0.00    -0.744 OA
ENDBRANCH  82  85
ENDBRANCH  55  78
ENDBRANCH  29  30
ENDBRANCH  22  24
ENDBRANCH  21  22
ENDBRANCH  20  21
ENDBRANCH   1  20
TORSDOF 19
