REMARK SMILES CC(C)c1ccc(O[C@H](C)C(=O)Nc2ccccc2C(=O)OCCOC(=O)c2ccc(-c3c4nc(c(-c5cccc(S(=O)(=O)[O-])c5F)c5ccc([nH]5)c(-c5cccc(S(=O)(=O)[O-])c5F)c5nc(c(-c6cccc(S(=O)(=O)[O-])c6F)c6ccc3[nH]6)C=C5)C=C4)cc2)cc1
REMARK SMILES IDX 23 1 22 2 20 3 21 4 19 5 14 6 15 7 16 8 18 9 17 10 13 11
REMARK SMILES IDX 11 12 12 13 9 15 10 16 8 17 7 18 4 19 5 20 92 21 6 22 91 23
REMARK SMILES IDX 2 24 1 25 3 26 24 27 25 28 26 29 27 30 28 31 29 32 90 33
REMARK SMILES IDX 30 34 89 35 31 36 32 37 33 38 83 39 34 40 88 41 82 42 84 43
REMARK SMILES IDX 35 44 87 45 81 46 80 47 36 49 68 50 48 51 67 52 49 53 52 54
REMARK SMILES IDX 66 55 85 56 50 57 51 58 65 60 86 61 53 62 37 63 38 64 46 65
REMARK SMILES IDX 39 66 41 67 47 68 40 69 42 70 43 71 44 72 45 73 69 74 70 75
REMARK SMILES IDX 78 76 71 77 73 78 79 79 72 80 74 81 75 82 76 83 77 84 54 85
REMARK SMILES IDX 55 86 63 87 56 88 58 89 64 90 57 91 59 92 60 93 61 94 62 95
REMARK H PARENT 13 14 84 48 52 59
REMARK Flexibility Score: inf
ROOT
ATOM      1  C   UNL     1      -5.381   1.583   2.031  1.00  0.00     0.275 C 
ENDROOT
BRANCH   1   2
ATOM      2  O   UNL     1      -4.271   0.733   1.672  1.00  0.00    -0.458 OA
BRANCH   2   3
ATOM      3  C   UNL     1      -3.933   0.813   0.368  1.00  0.00     0.340 C 
ATOM      4  O   UNL     1      -4.365   1.646  -0.421  1.00  0.00    -0.246 OA
BRANCH   3   5
ATOM      5  C   UNL     1      -3.019  -0.244  -0.071  1.00  0.00     0.083 A 
ATOM      6  C   UNL     1      -3.402  -1.593  -0.084  1.00  0.00     0.055 A 
ATOM      7  C   UNL     1      -2.475  -2.557  -0.499  1.00  0.00     0.027 A 
ATOM      8  C   UNL     1      -1.232  -2.171  -1.012  1.00  0.00     0.002 A 
ATOM      9  C   UNL     1      -1.758   0.134  -0.557  1.00  0.00     0.018 A 
ATOM     10  C   UNL     1      -0.877  -0.826  -1.052  1.00  0.00     0.001 A 
BRANCH   6  11
ATOM     11  N   UNL     1      -4.676  -2.048   0.307  1.00  0.00    -0.322 N 
ATOM     12  C   UNL     1      -5.917  -1.584  -0.069  1.00  0.00     0.265 C 
ATOM     13  O   UNL     1      -6.860  -1.791   0.705  1.00  0.00    -0.270 OA
ATOM     14  H   UNL     1      -4.680  -2.805   0.937  1.00  0.00     0.170 HD
BRANCH  12  15
ATOM     15  C   UNL     1      -6.167  -1.014  -1.504  1.00  0.00     0.259 C 
ATOM     16  C   UNL     1      -7.048   0.234  -1.436  1.00  0.00     0.064 C 
BRANCH  15  17
ATOM     17  O   UNL     1      -4.960  -0.930  -2.251  1.00  0.00    -0.481 OA
BRANCH  17  18
ATOM     18  C   UNL     1      -4.941  -0.290  -3.451  1.00  0.00     0.120 A 
ATOM     19  C   UNL     1      -4.202   0.968  -5.855  1.00  0.00    -0.045 A 
ATOM     20  C   UNL     1      -4.366   1.709  -4.681  1.00  0.00     0.008 A 
ATOM     21  C   UNL     1      -4.479  -0.408  -5.821  1.00  0.00     0.008 A 
ATOM     22  C   UNL     1      -4.725   1.082  -3.493  1.00  0.00     0.047 A 
ATOM     23  C   UNL     1      -4.829  -1.038  -4.618  1.00  0.00     0.047 A 
BRANCH  19  24
ATOM     24  C   UNL     1      -3.720   1.695  -7.097  1.00  0.00     0.013 C 
ATOM     25  C   UNL     1      -2.669   0.914  -7.890  1.00  0.00     0.012 C 
ATOM     26  C   UNL     1      -4.902   2.091  -7.979  1.00  0.00     0.012 C 
ENDBRANCH  19  24
ENDBRANCH  17  18
ENDBRANCH  15  17
ENDBRANCH  12  15
ENDBRANCH   6  11
ENDBRANCH   3   5
ENDBRANCH   2   3
ENDBRANCH   1   2
BRANCH   1  27
ATOM     27  C   UNL     1      -5.013   3.030   2.390  1.00  0.00     0.275 C 
BRANCH  27  28
ATOM     28  O   UNL     1      -4.448   3.778   1.297  1.00  0.00    -0.458 OA
BRANCH  28  29
ATOM     29  C   UNL     1      -3.096   3.813   1.284  1.00  0.00     0.338 C 
ATOM     30  O   UNL     1      -2.343   3.298   2.095  1.00  0.00    -0.246 OA
BRANCH  29  31
ATOM     31  C   UNL     1      -2.579   4.543   0.115  1.00  0.00     0.060 A 
ATOM     32  C   UNL     1      -2.296   3.837  -1.056  1.00  0.00     0.016 A 
ATOM     33  C   UNL     1      -2.124   5.850   0.270  1.00  0.00     0.016 A 
ATOM     34  C   UNL     1      -1.460   4.378  -2.024  1.00  0.00     0.010 A 
ATOM     35  C   UNL     1      -1.345   6.424  -0.738  1.00  0.00     0.010 A 
ATOM     36  C   UNL     1      -0.959   5.671  -1.864  1.00  0.00    -0.014 A 
BRANCH  36  37
ATOM     37  C   UNL     1       0.054   6.210  -2.803  1.00  0.00     0.031 A 
ATOM     38  C   UNL     1       1.414   6.569  -2.272  1.00  0.00     0.074 A 
ATOM     39  C   UNL     1      -0.245   6.401  -4.101  1.00  0.00     0.049 A 
ATOM     40  N   UNL     1       2.343   7.313  -2.808  1.00  0.00    -0.248 NA
ATOM     41  C   UNL     1       1.766   6.031  -0.945  1.00  0.00     0.031 C 
ATOM     42  C   UNL     1      -1.501   6.020  -4.748  1.00  0.00     0.029 A 
ATOM     43  N   UNL     1       0.478   7.001  -5.101  1.00  0.00    -0.354 N 
ATOM     44  C   UNL     1       3.347   7.411  -1.851  1.00  0.00     0.074 A 
ATOM     45  C   UNL     1       2.928   6.625  -0.712  1.00  0.00     0.031 C 
ATOM     46  C   UNL     1      -1.475   6.421  -6.028  1.00  0.00     0.029 A 
ATOM     47  C   UNL     1      -0.239   7.159  -6.264  1.00  0.00     0.049 A 
ATOM     48  H   UNL     1       1.414   7.290  -4.996  1.00  0.00     0.167 HD
ATOM     49  C   UNL     1       4.508   8.103  -1.921  1.00  0.00     0.034 A 
ATOM     50  C   UNL     1       0.038   7.878  -7.368  1.00  0.00     0.034 A 
ATOM     51  C   UNL     1       4.931   8.822  -3.092  1.00  0.00     0.049 A 
ATOM     52  C   UNL     1       1.329   8.650  -7.421  1.00  0.00     0.074 A 
ATOM     53  C   UNL     1       6.096   9.540  -3.290  1.00  0.00     0.029 A 
ATOM     54  N   UNL     1       4.204   8.902  -4.271  1.00  0.00    -0.354 N 
ATOM     55  N   UNL     1       2.276   8.733  -6.518  1.00  0.00    -0.248 NA
ATOM     56  C   UNL     1       1.595   9.416  -8.646  1.00  0.00     0.031 C 
ATOM     57  C   UNL     1       6.068  10.063  -4.587  1.00  0.00     0.029 A 
ATOM     58  C   UNL     1       4.896   9.651  -5.204  1.00  0.00     0.049 A 
ATOM     59  H   UNL     1       3.325   8.485  -4.422  1.00  0.00     0.167 HD
ATOM     60  C   UNL     1       3.268   9.530  -7.078  1.00  0.00     0.074 A 
ATOM     61  C   UNL     1       2.809   9.894  -8.404  1.00  0.00     0.031 C 
ATOM     62  C   UNL     1       4.444   9.937  -6.542  1.00  0.00     0.034 A 
BRANCH  49  63
ATOM     63  C   UNL     1       5.397   8.118  -0.706  1.00  0.00     0.023 A 
ATOM     64  C   UNL     1       6.131   6.969  -0.352  1.00  0.00     0.012 A 
ATOM     65  C   UNL     1       5.540   9.292   0.062  1.00  0.00     0.148 A 
ATOM     66  C   UNL     1       6.968   6.977   0.764  1.00  0.00     0.002 A 
ATOM     67  C   UNL     1       6.409   9.306   1.147  1.00  0.00     0.091 A 
ATOM     68  F   UNL     1       4.816  10.369  -0.275  1.00  0.00    -0.205 F 
ATOM     69  C   UNL     1       7.115   8.146   1.506  1.00  0.00     0.022 A 
BRANCH  67  70
ATOM     70  S   UNL     1       6.723  10.785   2.118  1.00  0.00     0.127 S 
ATOM     71  O   UNL     1       6.036  10.469   3.369  1.00  0.00    -0.237 OA
ATOM     72  O   UNL     1       8.183  10.791   2.209  1.00  0.00    -0.237 OA
ATOM     73  O   UNL     1       6.160  11.891   1.356  1.00  0.00    -0.744 OA
ENDBRANCH  67  70
ENDBRANCH  49  63
BRANCH  50  74
ATOM     74  C   UNL     1      -0.930   7.902  -8.501  1.00  0.00     0.023 A 
ATOM     75  C   UNL     1      -0.593   7.270  -9.712  1.00  0.00     0.012 A 
ATOM     76  C   UNL     1      -2.199   8.502  -8.370  1.00  0.00     0.148 A 
ATOM     77  C   UNL     1      -1.492   7.251 -10.778  1.00  0.00     0.002 A 
ATOM     78  C   UNL     1      -3.113   8.427  -9.415  1.00  0.00     0.091 A 
ATOM     79  F   UNL     1      -2.497   9.117  -7.216  1.00  0.00    -0.205 F 
ATOM     80  C   UNL     1      -2.756   7.816 -10.626  1.00  0.00     0.022 A 
BRANCH  78  81
ATOM     81  S   UNL     1      -4.808   8.999  -9.252  1.00  0.00     0.127 S 
ATOM     82  O   UNL     1      -4.795  10.210 -10.068  1.00  0.00    -0.237 OA
ATOM     83  O   UNL     1      -5.562   7.881  -9.821  1.00  0.00    -0.237 OA
ATOM     84  O   UNL     1      -5.019   9.196  -7.824  1.00  0.00    -0.744 OA
ENDBRANCH  78  81
ENDBRANCH  50  74
BRANCH  62  85
ATOM     85  C   UNL     1       5.353  10.767  -7.405  1.00  0.00     0.023 A 
ATOM     86  C   UNL     1       5.064  12.127  -7.624  1.00  0.00     0.012 A 
ATOM     87  C   UNL     1       6.548  10.217  -7.910  1.00  0.00     0.148 A 
ATOM     88  C   UNL     1       5.944  12.925  -8.354  1.00  0.00     0.002 A 
ATOM     89  C   UNL     1       7.441  11.030  -8.595  1.00  0.00     0.091 A 
ATOM     90  F   UNL     1       6.789   8.915  -7.703  1.00  0.00    -0.205 F 
ATOM     91  C   UNL     1       7.137  12.381  -8.826  1.00  0.00     0.022 A 
BRANCH  89  92
ATOM     92  S   UNL     1       9.043  10.439  -9.152  1.00  0.00     0.127 S 
ATOM     93  O   UNL     1       8.851  10.379 -10.600  1.00  0.00    -0.237 OA
ATOM     94  O   UNL     1       9.941  11.502  -8.699  1.00  0.00    -0.237 OA
ATOM     95  O   UNL     1       9.249   9.154  -8.497  1.00  0.00    -0.744 OA
ENDBRANCH  89  92
ENDBRANCH  62  85
ENDBRANCH  36  37
ENDBRANCH  29  31
ENDBRANCH  28  29
ENDBRANCH  27  28
ENDBRANCH   1  27
TORSDOF 19
