REMARK SMILES Cc1cccc(CC(=O)N2CCC3(CCC(=O)N([C@H](C)C(=O)OCCOC(=O)c4ccc(-c5c6nc(c(-c7cccc(S(=O)(=O)[O-])c7F)c7ccc([nH]7)c(-c7cccc(S(=O)(=O)[O-])c7F)c7nc(c(-c8cccc(S(=O)(=O)[O-])c8F)c8ccc5[nH]8)C=C7)C=C6)cc4)C3)CC2)c1
REMARK SMILES IDX 24 1 23 2 21 3 22 4 19 5 20 6 18 7 8 8 9 9 10 10 11 11 94 12
REMARK SMILES IDX 12 13 93 14 13 15 14 16 92 17 15 18 16 19 17 20 7 21 6 22
REMARK SMILES IDX 1 23 2 24 3 25 95 26 4 27 5 28 25 29 26 30 27 31 28 32 29 33
REMARK SMILES IDX 30 34 91 35 31 36 90 37 32 38 33 39 34 40 84 41 35 42 89 43
REMARK SMILES IDX 83 44 85 45 36 46 88 47 82 48 81 49 37 51 69 52 49 53 68 54
REMARK SMILES IDX 50 55 53 56 67 57 86 58 51 59 52 60 66 62 87 63 54 64 38 65
REMARK SMILES IDX 39 66 47 67 40 68 42 69 48 70 41 71 43 72 44 73 45 74 46 75
REMARK SMILES IDX 70 76 71 77 79 78 72 79 74 80 80 81 73 82 75 83 76 84 77 85
REMARK SMILES IDX 78 86 55 87 56 88 64 89 57 90 59 91 65 92 58 93 60 94 61 95
REMARK SMILES IDX 62 96 63 97
REMARK H PARENT 85 50 53 61
REMARK Flexibility Score: inf
ROOT
ATOM      1  C   UNL     1      -3.082   5.278  -8.087  1.00  0.00     0.274 C 
ENDROOT
BRANCH   1   2
ATOM      2  O   UNL     1      -1.666   5.481  -8.056  1.00  0.00    -0.461 OA
BRANCH   2   3
ATOM      3  C   UNL     1      -0.960   4.363  -7.743  1.00  0.00     0.328 C 
ATOM      4  O   UNL     1      -1.497   3.275  -7.545  1.00  0.00    -0.250 OA
BRANCH   3   5
ATOM      5  C   UNL     1       0.524   4.678  -7.423  1.00  0.00     0.192 C 
ATOM      6  C   UNL     1       1.166   3.408  -6.870  1.00  0.00     0.044 C 
BRANCH   5   7
ATOM      7  N   UNL     1       1.393   5.322  -8.437  1.00  0.00    -0.329 N 
ATOM      8  C   UNL     1       7.853   5.273  -7.080  1.00  0.00     0.226 C 
ATOM      9  O   UNL     1       8.290   4.116  -7.028  1.00  0.00    -0.275 OA
ATOM     10  N   UNL     1       6.626   5.561  -7.673  1.00  0.00    -0.342 N 
ATOM     11  C   UNL     1       5.777   4.440  -8.042  1.00  0.00     0.120 C 
ATOM     12  C   UNL     1       6.248   6.843  -8.275  1.00  0.00     0.120 C 
ATOM     13  C   UNL     1       4.313   4.755  -7.769  1.00  0.00     0.030 C 
ATOM     14  C   UNL     1       4.766   7.188  -8.083  1.00  0.00     0.030 C 
ATOM     15  C   UNL     1       3.810   6.033  -8.476  1.00  0.00    -0.008 C 
ATOM     16  C   UNL     1       3.740   5.907 -10.009  1.00  0.00     0.019 C 
ATOM     17  C   UNL     1       2.368   6.341  -8.014  1.00  0.00     0.127 C 
ATOM     18  C   UNL     1       2.748   4.851 -10.468  1.00  0.00     0.101 C 
ATOM     19  C   UNL     1       1.444   4.750  -9.696  1.00  0.00     0.223 C 
ATOM     20  O   UNL     1       0.526   4.045 -10.119  1.00  0.00    -0.275 OA
BRANCH   8  21
ATOM     21  C   UNL     1       8.598   6.362  -6.320  1.00  0.00     0.135 C 
BRANCH  21  22
ATOM     22  C   UNL     1       9.188   7.484  -7.131  1.00  0.00    -0.038 A 
ATOM     23  C   UNL     1       8.783  11.267  -7.314  1.00  0.00     0.044 C 
ATOM     24  C   UNL     1       9.266   9.876  -7.598  1.00  0.00    -0.051 A 
ATOM     25  C   UNL     1      10.080   9.617  -8.705  1.00  0.00     0.003 A 
ATOM     26  C   UNL     1       8.854   8.807  -6.799  1.00  0.00     0.007 A 
ATOM     27  C   UNL     1      10.471   8.310  -9.007  1.00  0.00     0.001 A 
ATOM     28  C   UNL     1      10.027   7.244  -8.224  1.00  0.00     0.004 A 
ENDBRANCH  21  22
ENDBRANCH   8  21
ENDBRANCH   5   7
ENDBRANCH   3   5
ENDBRANCH   2   3
ENDBRANCH   1   2
BRANCH   1  29
ATOM     29  C   UNL     1      -3.779   5.080  -6.716  1.00  0.00     0.275 C 
BRANCH  29  30
ATOM     30  O   UNL     1      -2.981   4.920  -5.502  1.00  0.00    -0.458 OA
BRANCH  30  31
ATOM     31  C   UNL     1      -2.350   5.853  -4.727  1.00  0.00     0.338 C 
ATOM     32  O   UNL     1      -2.036   5.617  -3.566  1.00  0.00    -0.246 OA
BRANCH  31  33
ATOM     33  C   UNL     1      -1.897   7.072  -5.412  1.00  0.00     0.060 A 
ATOM     34  C   UNL     1      -0.540   7.428  -5.445  1.00  0.00     0.016 A 
ATOM     35  C   UNL     1      -2.805   7.717  -6.218  1.00  0.00     0.016 A 
ATOM     36  C   UNL     1      -0.067   8.257  -6.471  1.00  0.00     0.010 A 
ATOM     37  C   UNL     1      -2.318   8.318  -7.347  1.00  0.00     0.010 A 
ATOM     38  C   UNL     1      -0.948   8.614  -7.489  1.00  0.00    -0.014 A 
BRANCH  38  39
ATOM     39  C   UNL     1      -0.691   9.563  -8.572  1.00  0.00     0.031 A 
ATOM     40  C   UNL     1       0.132   9.341  -9.766  1.00  0.00     0.074 A 
ATOM     41  C   UNL     1      -1.483  10.653  -8.489  1.00  0.00     0.049 A 
ATOM     42  N   UNL     1       0.866  10.272 -10.282  1.00  0.00    -0.248 NA
ATOM     43  C   UNL     1       0.155   8.089 -10.516  1.00  0.00     0.031 C 
ATOM     44  C   UNL     1      -1.863  11.640  -9.470  1.00  0.00     0.029 A 
ATOM     45  N   UNL     1      -2.128  11.062  -7.324  1.00  0.00    -0.354 N 
ATOM     46  C   UNL     1       1.202   9.851 -11.552  1.00  0.00     0.074 A 
ATOM     47  C   UNL     1       0.868   8.442 -11.597  1.00  0.00     0.031 C 
ATOM     48  C   UNL     1      -2.487  12.650  -8.829  1.00  0.00     0.029 A 
ATOM     49  C   UNL     1      -2.394  12.415  -7.389  1.00  0.00     0.049 A 
ATOM     50  H   UNL     1      -2.359  10.474  -6.569  1.00  0.00     0.167 HD
ATOM     51  C   UNL     1       1.478  10.757 -12.535  1.00  0.00     0.034 A 
ATOM     52  C   UNL     1      -1.931  13.229  -6.396  1.00  0.00     0.034 A 
ATOM     53  C   UNL     1       1.136  12.117 -12.095  1.00  0.00     0.049 A 
ATOM     54  C   UNL     1      -0.809  14.085  -6.952  1.00  0.00     0.074 A 
ATOM     55  C   UNL     1      -0.020  12.862 -12.278  1.00  0.00     0.029 A 
ATOM     56  N   UNL     1       1.852  12.758 -11.090  1.00  0.00    -0.354 N 
ATOM     57  N   UNL     1      -0.407  14.042  -8.193  1.00  0.00    -0.248 NA
ATOM     58  C   UNL     1       0.003  14.987  -6.141  1.00  0.00     0.031 C 
ATOM     59  C   UNL     1      -0.048  13.886 -11.299  1.00  0.00     0.029 A 
ATOM     60  C   UNL     1       1.099  13.788 -10.533  1.00  0.00     0.049 A 
ATOM     61  H   UNL     1       2.765  12.517 -10.812  1.00  0.00     0.167 HD
ATOM     62  C   UNL     1       0.792  14.682  -8.301  1.00  0.00     0.074 A 
ATOM     63  C   UNL     1       0.954  15.346  -7.019  1.00  0.00     0.031 C 
ATOM     64  C   UNL     1       1.605  14.544  -9.391  1.00  0.00     0.034 A 
BRANCH  51  65
ATOM     65  C   UNL     1       1.637  10.373 -13.997  1.00  0.00     0.023 A 
ATOM     66  C   UNL     1       1.109  11.240 -14.982  1.00  0.00     0.012 A 
ATOM     67  C   UNL     1       2.285   9.206 -14.468  1.00  0.00     0.148 A 
ATOM     68  C   UNL     1       1.135  10.937 -16.346  1.00  0.00     0.002 A 
ATOM     69  C   UNL     1       2.286   8.887 -15.834  1.00  0.00     0.091 A 
ATOM     70  F   UNL     1       2.925   8.421 -13.589  1.00  0.00    -0.205 F 
ATOM     71  C   UNL     1       1.703   9.748 -16.772  1.00  0.00     0.022 A 
BRANCH  69  72
ATOM     72  S   UNL     1       2.951   7.344 -16.485  1.00  0.00     0.127 S 
ATOM     73  O   UNL     1       1.864   6.879 -17.349  1.00  0.00    -0.237 OA
ATOM     74  O   UNL     1       4.143   7.795 -17.200  1.00  0.00    -0.237 OA
ATOM     75  O   UNL     1       3.193   6.497 -15.324  1.00  0.00    -0.744 OA
ENDBRANCH  69  72
ENDBRANCH  51  65
BRANCH  52  76
ATOM     76  C   UNL     1      -1.919  12.541  -5.040  1.00  0.00     0.023 A 
ATOM     77  C   UNL     1      -3.144  11.967  -4.596  1.00  0.00     0.012 A 
ATOM     78  C   UNL     1      -0.732  12.080  -4.440  1.00  0.00     0.148 A 
ATOM     79  C   UNL     1      -3.166  10.879  -3.714  1.00  0.00     0.002 A 
ATOM     80  C   UNL     1      -0.764  10.994  -3.559  1.00  0.00     0.091 A 
ATOM     81  F   UNL     1       0.437  12.630  -4.790  1.00  0.00    -0.205 F 
ATOM     82  C   UNL     1      -1.971  10.370  -3.220  1.00  0.00     0.022 A 
BRANCH  80  83
ATOM     83  S   UNL     1       0.785  10.284  -2.982  1.00  0.00     0.127 S 
ATOM     84  O   UNL     1       0.388   8.964  -2.493  1.00  0.00    -0.237 OA
ATOM     85  O   UNL     1       1.613  10.242  -4.181  1.00  0.00    -0.237 OA
ATOM     86  O   UNL     1       1.179  11.229  -1.943  1.00  0.00    -0.744 OA
ENDBRANCH  80  83
ENDBRANCH  52  76
BRANCH  64  87
ATOM     87  C   UNL     1       2.973  15.153  -9.461  1.00  0.00     0.023 A 
ATOM     88  C   UNL     1       3.827  15.200  -8.344  1.00  0.00     0.012 A 
ATOM     89  C   UNL     1       3.476  15.605 -10.700  1.00  0.00     0.148 A 
ATOM     90  C   UNL     1       5.098  15.771  -8.431  1.00  0.00     0.002 A 
ATOM     91  C   UNL     1       4.778  16.076 -10.803  1.00  0.00     0.091 A 
ATOM     92  F   UNL     1       2.680  15.601 -11.780  1.00  0.00    -0.205 F 
ATOM     93  C   UNL     1       5.580  16.197  -9.664  1.00  0.00     0.022 A 
BRANCH  91  94
ATOM     94  S   UNL     1       5.497  16.414 -12.412  1.00  0.00     0.127 S 
ATOM     95  O   UNL     1       5.147  17.818 -12.614  1.00  0.00    -0.237 OA
ATOM     96  O   UNL     1       6.922  16.168 -12.181  1.00  0.00    -0.237 OA
ATOM     97  O   UNL     1       4.867  15.455 -13.310  1.00  0.00    -0.744 OA
ENDBRANCH  91  94
ENDBRANCH  64  87
ENDBRANCH  38  39
ENDBRANCH  31  33
ENDBRANCH  30  31
ENDBRANCH  29  30
ENDBRANCH   1  29
TORSDOF 17
