REMARK SMILES C[C@H]1CC[C@@](CCOCCO)(C(=O)OCCOC(=O)c2ccc(-c3c4nc(c(-c5cccc(S(=O)(=O)[O-])c5F)c5ccc([nH]5)c(-c5cccc(S(=O)(=O)[O-])c5F)c5nc(c(-c6cccc(S(=O)(=O)[O-])c6F)c6ccc3[nH]6)C=C5)C=C4)cc2)C1
REMARK SMILES IDX 14 1 12 2 13 3 5 4 1 5 2 6 3 7 83 8 4 9 6 10 7 11 8 12 9 13
REMARK SMILES IDX 10 14 11 15 15 17 16 18 17 19 18 20 19 21 20 22 21 23 82 24
REMARK SMILES IDX 22 25 81 26 23 27 24 28 25 29 75 30 26 31 80 32 74 33 76 34
REMARK SMILES IDX 27 35 79 36 73 37 72 38 28 40 60 41 40 42 59 43 41 44 44 45
REMARK SMILES IDX 58 46 77 47 42 48 43 49 57 51 78 52 45 53 29 54 30 55 38 56
REMARK SMILES IDX 31 57 33 58 39 59 32 60 34 61 35 62 36 63 37 64 61 65 62 66
REMARK SMILES IDX 70 67 63 68 65 69 71 70 64 71 66 72 67 73 68 74 69 75 46 76
REMARK SMILES IDX 47 77 55 78 48 79 50 80 56 81 49 82 51 83 52 84 53 85 54 86
REMARK H PARENT 11 16 76 39 44 50
REMARK Flexibility Score: inf
ROOT
ATOM      1  O   UNL     1      -3.248   1.456   0.122  1.00  0.00    -0.462 OA
ENDROOT
BRANCH   1   2
ATOM      2  C   UNL     1      -2.103   2.018  -0.342  1.00  0.00     0.312 C 
ATOM      3  O   UNL     1      -1.919   3.228  -0.421  1.00  0.00    -0.252 OA
BRANCH   2   4
ATOM      4  C   UNL     1      -1.061   0.984  -0.808  1.00  0.00     0.070 C 
ATOM      5  C   UNL     1       2.216   0.185   1.033  1.00  0.00     0.007 C 
ATOM      6  C   UNL     1       1.054   0.072   0.060  1.00  0.00    -0.013 C 
ATOM      7  C   UNL     1      -0.057  -0.804   0.602  1.00  0.00     0.004 C 
ATOM      8  C   UNL     1       0.329   1.391  -0.216  1.00  0.00     0.022 C 
ATOM      9  C   UNL     1      -1.255  -0.462  -0.272  1.00  0.00     0.019 C 
BRANCH   4  10
ATOM     10  C   UNL     1      -0.992   1.092  -2.360  1.00  0.00     0.047 C 
BRANCH  10  11
ATOM     11  C   UNL     1      -1.925   0.234  -3.219  1.00  0.00     0.161 C 
BRANCH  11  12
ATOM     12  O   UNL     1      -3.309   0.522  -3.089  1.00  0.00    -0.379 OA
BRANCH  12  13
ATOM     13  C   UNL     1      -4.063  -0.330  -2.226  1.00  0.00     0.188 C 
BRANCH  13  14
ATOM     14  C   UNL     1      -4.448  -1.687  -2.817  1.00  0.00     0.184 C 
BRANCH  14  15
ATOM     15  O   UNL     1      -3.340  -2.575  -2.923  1.00  0.00    -0.394 OA
ATOM     16  H   UNL     1      -2.675  -2.193  -3.517  1.00  0.00     0.210 HD
ENDBRANCH  14  15
ENDBRANCH  13  14
ENDBRANCH  12  13
ENDBRANCH  11  12
ENDBRANCH  10  11
ENDBRANCH   4  10
ENDBRANCH   2   4
ENDBRANCH   1   2
BRANCH   1  17
ATOM     17  C   UNL     1      -4.324   2.353   0.468  1.00  0.00     0.274 C 
BRANCH  17  18
ATOM     18  C   UNL     1      -5.095   1.785   1.660  1.00  0.00     0.275 C 
BRANCH  18  19
ATOM     19  O   UNL     1      -4.274   1.936   2.830  1.00  0.00    -0.458 OA
BRANCH  19  20
ATOM     20  C   UNL     1      -3.604   0.834   3.224  1.00  0.00     0.338 C 
ATOM     21  O   UNL     1      -3.797  -0.327   2.889  1.00  0.00    -0.246 OA
BRANCH  20  22
ATOM     22  C   UNL     1      -2.436   1.286   3.983  1.00  0.00     0.060 A 
ATOM     23  C   UNL     1      -1.342   1.750   3.253  1.00  0.00     0.016 A 
ATOM     24  C   UNL     1      -2.383   1.211   5.370  1.00  0.00     0.016 A 
ATOM     25  C   UNL     1      -0.160   2.089   3.898  1.00  0.00     0.010 A 
ATOM     26  C   UNL     1      -1.214   1.616   6.023  1.00  0.00     0.010 A 
ATOM     27  C   UNL     1      -0.081   2.031   5.293  1.00  0.00    -0.014 A 
BRANCH  27  28
ATOM     28  C   UNL     1       1.199   2.340   5.984  1.00  0.00     0.031 A 
ATOM     29  C   UNL     1       1.851   1.284   6.833  1.00  0.00     0.074 A 
ATOM     30  C   UNL     1       1.778   3.551   5.861  1.00  0.00     0.049 A 
ATOM     31  N   UNL     1       2.825   1.402   7.697  1.00  0.00    -0.248 NA
ATOM     32  C   UNL     1       1.321  -0.084   6.708  1.00  0.00     0.031 C 
ATOM     33  C   UNL     1       1.275   4.652   5.037  1.00  0.00     0.029 A 
ATOM     34  N   UNL     1       2.912   4.064   6.441  1.00  0.00    -0.354 N 
ATOM     35  C   UNL     1       2.959   0.151   8.287  1.00  0.00     0.074 A 
ATOM     36  C   UNL     1       1.985  -0.719   7.664  1.00  0.00     0.031 C 
ATOM     37  C   UNL     1       2.102   5.702   5.153  1.00  0.00     0.029 A 
ATOM     38  C   UNL     1       3.146   5.381   6.120  1.00  0.00     0.049 A 
ATOM     39  H   UNL     1       3.502   3.539   7.030  1.00  0.00     0.167 HD
ATOM     40  C   UNL     1       3.818  -0.236   9.259  1.00  0.00     0.034 A 
ATOM     41  C   UNL     1       4.068   6.248   6.584  1.00  0.00     0.034 A 
ATOM     42  C   UNL     1       4.843   0.611   9.807  1.00  0.00     0.049 A 
ATOM     43  C   UNL     1       5.043   5.782   7.630  1.00  0.00     0.074 A 
ATOM     44  C   UNL     1       5.776   0.313  10.784  1.00  0.00     0.029 A 
ATOM     45  N   UNL     1       5.088   1.914   9.402  1.00  0.00    -0.354 N 
ATOM     46  N   UNL     1       5.156   4.597   8.181  1.00  0.00    -0.248 NA
ATOM     47  C   UNL     1       6.022   6.766   8.114  1.00  0.00     0.031 C 
ATOM     48  C   UNL     1       6.590   1.437  10.966  1.00  0.00     0.029 A 
ATOM     49  C   UNL     1       6.168   2.431  10.097  1.00  0.00     0.049 A 
ATOM     50  H   UNL     1       4.570   2.401   8.721  1.00  0.00     0.167 HD
ATOM     51  C   UNL     1       6.221   4.690   9.069  1.00  0.00     0.074 A 
ATOM     52  C   UNL     1       6.743   6.037   8.955  1.00  0.00     0.031 C 
ATOM     53  C   UNL     1       6.704   3.756   9.925  1.00  0.00     0.034 A 
BRANCH  40  54
ATOM     54  C   UNL     1       3.695  -1.643   9.779  1.00  0.00     0.023 A 
ATOM     55  C   UNL     1       4.163  -2.721   9.002  1.00  0.00     0.012 A 
ATOM     56  C   UNL     1       3.147  -1.894  11.052  1.00  0.00     0.148 A 
ATOM     57  C   UNL     1       4.058  -4.031   9.471  1.00  0.00     0.002 A 
ATOM     58  C   UNL     1       3.082  -3.198  11.530  1.00  0.00     0.091 A 
ATOM     59  F   UNL     1       2.681  -0.858  11.765  1.00  0.00    -0.205 F 
ATOM     60  C   UNL     1       3.528  -4.268  10.737  1.00  0.00     0.022 A 
BRANCH  58  61
ATOM     61  S   UNL     1       2.481  -3.590  13.177  1.00  0.00     0.127 S 
ATOM     62  O   UNL     1       1.149  -4.120  12.888  1.00  0.00    -0.237 OA
ATOM     63  O   UNL     1       3.448  -4.590  13.633  1.00  0.00    -0.237 OA
ATOM     64  O   UNL     1       2.513  -2.338  13.920  1.00  0.00    -0.744 OA
ENDBRANCH  58  61
ENDBRANCH  40  54
BRANCH  41  65
ATOM     65  C   UNL     1       4.111   7.640   6.049  1.00  0.00     0.023 A 
ATOM     66  C   UNL     1       5.194   8.038   5.242  1.00  0.00     0.012 A 
ATOM     67  C   UNL     1       3.061   8.550   6.282  1.00  0.00     0.148 A 
ATOM     68  C   UNL     1       5.236   9.319   4.688  1.00  0.00     0.002 A 
ATOM     69  C   UNL     1       3.078   9.801   5.675  1.00  0.00     0.091 A 
ATOM     70  F   UNL     1       2.052   8.169   7.079  1.00  0.00    -0.205 F 
ATOM     71  C   UNL     1       4.171  10.194   4.890  1.00  0.00     0.022 A 
BRANCH  69  72
ATOM     72  S   UNL     1       1.668  10.913   5.759  1.00  0.00     0.127 S 
ATOM     73  O   UNL     1       2.095  11.863   6.782  1.00  0.00    -0.237 OA
ATOM     74  O   UNL     1       1.617  11.452   4.399  1.00  0.00    -0.237 OA
ATOM     75  O   UNL     1       0.533  10.066   6.104  1.00  0.00    -0.744 OA
ENDBRANCH  69  72
ENDBRANCH  41  65
BRANCH  53  76
ATOM     76  C   UNL     1       7.866   4.151  10.795  1.00  0.00     0.023 A 
ATOM     77  C   UNL     1       7.643   4.976  11.914  1.00  0.00     0.012 A 
ATOM     78  C   UNL     1       9.158   3.648  10.549  1.00  0.00     0.148 A 
ATOM     79  C   UNL     1       8.695   5.316  12.764  1.00  0.00     0.002 A 
ATOM     80  C   UNL     1      10.194   3.959  11.422  1.00  0.00     0.091 A 
ATOM     81  F   UNL     1       9.353   2.884   9.465  1.00  0.00    -0.205 F 
ATOM     82  C   UNL     1       9.966   4.799  12.525  1.00  0.00     0.022 A 
BRANCH  80  83
ATOM     83  S   UNL     1      11.840   3.267  11.231  1.00  0.00     0.127 S 
ATOM     84  O   UNL     1      12.565   4.381  10.624  1.00  0.00    -0.237 OA
ATOM     85  O   UNL     1      12.222   2.973  12.614  1.00  0.00    -0.237 OA
ATOM     86  O   UNL     1      11.677   2.087  10.392  1.00  0.00    -0.744 OA
ENDBRANCH  80  83
ENDBRANCH  53  76
ENDBRANCH  27  28
ENDBRANCH  20  22
ENDBRANCH  19  20
ENDBRANCH  18  19
ENDBRANCH  17  18
ENDBRANCH   1  17
TORSDOF 20
