REMARK SMILES O=C(OCCOC(=O)[C@@]1([C@@H]2CCO[C@@]3(CCOC3)C2)CCOC1)c1ccc(-c2c3nc(c(-c4cccc(S(=O)(=O)[O-])c4F)c4ccc([nH]4)c(-c4cccc(S(=O)(=O)[O-])c4F)c4nc(c(-c5cccc(S(=O)(=O)[O-])c5F)c5ccc2[nH]5)C=C4)C=C3)cc1
REMARK SMILES IDX 4 1 3 2 2 3 1 4 24 5 25 6 86 7 26 8 85 9 27 10 28 11 29 12
REMARK SMILES IDX 79 13 30 14 84 15 78 16 80 17 31 18 83 19 77 20 76 21 32 23
REMARK SMILES IDX 64 24 44 25 63 26 45 27 48 28 62 29 81 30 46 31 47 32 61 34
REMARK SMILES IDX 82 35 49 36 33 37 34 38 42 39 35 40 37 41 43 42 36 43 38 44
REMARK SMILES IDX 39 45 40 46 41 47 65 48 66 49 74 50 67 51 69 52 75 53 68 54
REMARK SMILES IDX 70 55 71 56 72 57 73 58 50 59 51 60 59 61 52 62 54 63 60 64
REMARK SMILES IDX 53 65 55 66 56 67 57 68 58 69 5 70 6 71 7 72 8 73 9 74 20 75
REMARK SMILES IDX 23 76 21 77 22 78 10 79 11 80 19 81 12 82 14 83 13 84 15 85
REMARK SMILES IDX 18 86 16 87 17 88
REMARK H PARENT 80 22 48 33
REMARK Flexibility Score: inf
ROOT
ATOM      1  C   UNL     1       3.167   2.918  -5.992  1.00  0.00     0.275 C 
ENDROOT
BRANCH   1   2
ATOM      2  O   UNL     1       3.888   4.012  -5.445  1.00  0.00    -0.458 OA
BRANCH   2   3
ATOM      3  C   UNL     1       4.872   3.662  -4.585  1.00  0.00     0.338 C 
ATOM      4  O   UNL     1       5.574   2.683  -4.655  1.00  0.00    -0.246 OA
BRANCH   3   5
ATOM      5  C   UNL     1       4.664   4.556  -3.418  1.00  0.00     0.060 A 
ATOM      6  C   UNL     1       4.096   5.816  -3.568  1.00  0.00     0.016 A 
ATOM      7  C   UNL     1       4.846   4.048  -2.142  1.00  0.00     0.016 A 
ATOM      8  C   UNL     1       3.696   6.532  -2.447  1.00  0.00     0.010 A 
ATOM      9  C   UNL     1       4.443   4.740  -1.018  1.00  0.00     0.010 A 
ATOM     10  C   UNL     1       3.866   5.988  -1.173  1.00  0.00    -0.014 A 
BRANCH  10  11
ATOM     11  C   UNL     1       3.486   6.718   0.032  1.00  0.00     0.031 A 
ATOM     12  C   UNL     1       4.580   7.234   0.908  1.00  0.00     0.074 A 
ATOM     13  C   UNL     1       2.188   6.824   0.361  1.00  0.00     0.049 A 
ATOM     14  N   UNL     1       4.497   8.124   1.853  1.00  0.00    -0.248 NA
ATOM     15  C   UNL     1       5.938   6.689   0.708  1.00  0.00     0.031 C 
ATOM     16  C   UNL     1       1.070   6.184  -0.341  1.00  0.00     0.029 A 
ATOM     17  N   UNL     1       1.597   7.480   1.401  1.00  0.00    -0.354 N 
ATOM     18  C   UNL     1       5.796   8.294   2.307  1.00  0.00     0.074 A 
ATOM     19  C   UNL     1       6.628   7.330   1.635  1.00  0.00     0.031 C 
ATOM     20  C   UNL     1      -0.071   6.454   0.318  1.00  0.00     0.029 A 
ATOM     21  C   UNL     1       0.234   7.321   1.450  1.00  0.00     0.049 A 
ATOM     22  H   UNL     1       2.100   8.017   2.055  1.00  0.00     0.167 HD
ATOM     23  C   UNL     1       6.252   9.238   3.155  1.00  0.00     0.034 A 
ATOM     24  C   UNL     1      -0.656   7.864   2.299  1.00  0.00     0.034 A 
ATOM     25  C   UNL     1       5.369  10.139   3.834  1.00  0.00     0.049 A 
ATOM     26  C   UNL     1      -0.146   8.920   3.245  1.00  0.00     0.074 A 
ATOM     27  C   UNL     1       5.675  11.216   4.639  1.00  0.00     0.029 A 
ATOM     28  N   UNL     1       3.985  10.025   3.810  1.00  0.00    -0.354 N 
ATOM     29  N   UNL     1       1.091   9.306   3.459  1.00  0.00    -0.248 NA
ATOM     30  C   UNL     1      -1.154   9.690   3.981  1.00  0.00     0.031 C 
ATOM     31  C   UNL     1       4.472  11.723   5.143  1.00  0.00     0.029 A 
ATOM     32  C   UNL     1       3.417  10.995   4.609  1.00  0.00     0.049 A 
ATOM     33  H   UNL     1       3.483   9.351   3.298  1.00  0.00     0.167 HD
ATOM     34  C   UNL     1       1.010  10.406   4.302  1.00  0.00     0.074 A 
ATOM     35  C   UNL     1      -0.403  10.621   4.556  1.00  0.00     0.031 C 
ATOM     36  C   UNL     1       2.001  11.180   4.811  1.00  0.00     0.034 A 
BRANCH  23  37
ATOM     37  C   UNL     1       7.741   9.356   3.317  1.00  0.00     0.023 A 
ATOM     38  C   UNL     1       8.528   9.753   2.211  1.00  0.00     0.012 A 
ATOM     39  C   UNL     1       8.366   9.087   4.545  1.00  0.00     0.148 A 
ATOM     40  C   UNL     1       9.915   9.837   2.314  1.00  0.00     0.002 A 
ATOM     41  C   UNL     1       9.745   9.220   4.654  1.00  0.00     0.091 A 
ATOM     42  F   UNL     1       7.606   8.687   5.574  1.00  0.00    -0.205 F 
ATOM     43  C   UNL     1      10.521   9.580   3.539  1.00  0.00     0.022 A 
BRANCH  41  44
ATOM     44  S   UNL     1      10.622   8.981   6.202  1.00  0.00     0.127 S 
ATOM     45  O   UNL     1      11.465   7.828   5.889  1.00  0.00    -0.237 OA
ATOM     46  O   UNL     1      11.344  10.246   6.337  1.00  0.00    -0.237 OA
ATOM     47  O   UNL     1       9.602   8.746   7.213  1.00  0.00    -0.744 OA
ENDBRANCH  41  44
ENDBRANCH  23  37
BRANCH  24  48
ATOM     48  C   UNL     1      -2.104   7.550   2.166  1.00  0.00     0.023 A 
ATOM     49  C   UNL     1      -2.970   8.494   1.580  1.00  0.00     0.012 A 
ATOM     50  C   UNL     1      -2.622   6.304   2.574  1.00  0.00     0.148 A 
ATOM     51  C   UNL     1      -4.331   8.222   1.439  1.00  0.00     0.002 A 
ATOM     52  C   UNL     1      -3.973   6.025   2.398  1.00  0.00     0.091 A 
ATOM     53  F   UNL     1      -1.778   5.416   3.117  1.00  0.00    -0.205 F 
ATOM     54  C   UNL     1      -4.832   6.988   1.843  1.00  0.00     0.022 A 
BRANCH  52  55
ATOM     55  S   UNL     1      -4.701   4.432   2.799  1.00  0.00     0.127 S 
ATOM     56  O   UNL     1      -5.577   4.777   3.915  1.00  0.00    -0.237 OA
ATOM     57  O   UNL     1      -5.393   4.098   1.553  1.00  0.00    -0.237 OA
ATOM     58  O   UNL     1      -3.583   3.558   3.122  1.00  0.00    -0.744 OA
ENDBRANCH  52  55
ENDBRANCH  24  48
BRANCH  36  59
ATOM     59  C   UNL     1       1.591  12.349   5.661  1.00  0.00     0.023 A 
ATOM     60  C   UNL     1       1.066  12.135   6.949  1.00  0.00     0.012 A 
ATOM     61  C   UNL     1       1.810  13.663   5.204  1.00  0.00     0.148 A 
ATOM     62  C   UNL     1       0.728  13.217   7.758  1.00  0.00     0.002 A 
ATOM     63  C   UNL     1       1.529  14.733   6.039  1.00  0.00     0.091 A 
ATOM     64  F   UNL     1       2.296  13.838   3.967  1.00  0.00    -0.205 F 
ATOM     65  C   UNL     1       0.972  14.514   7.310  1.00  0.00     0.022 A 
BRANCH  63  66
ATOM     66  S   UNL     1       1.918  16.427   5.592  1.00  0.00     0.127 S 
ATOM     67  O   UNL     1       0.585  17.000   5.413  1.00  0.00    -0.237 OA
ATOM     68  O   UNL     1       2.633  16.901   6.777  1.00  0.00    -0.237 OA
ATOM     69  O   UNL     1       2.729  16.351   4.384  1.00  0.00    -0.744 OA
ENDBRANCH  63  66
ENDBRANCH  36  59
ENDBRANCH  10  11
ENDBRANCH   3   5
ENDBRANCH   2   3
ENDBRANCH   1   2
BRANCH   1  70
ATOM     70  C   UNL     1       2.274   2.155  -4.971  1.00  0.00     0.274 C 
BRANCH  70  71
ATOM     71  O   UNL     1       2.833   1.914  -3.650  1.00  0.00    -0.462 OA
BRANCH  71  72
ATOM     72  C   UNL     1       2.437   0.787  -2.949  1.00  0.00     0.314 C 
ATOM     73  O   UNL     1       1.849  -0.156  -3.458  1.00  0.00    -0.252 OA
BRANCH  72  74
ATOM     74  C   UNL     1       2.832   0.867  -1.436  1.00  0.00     0.096 C 
ATOM     75  C   UNL     1       2.318   2.258  -1.027  1.00  0.00     0.050 C 
ATOM     76  C   UNL     1       1.858   0.117  -0.497  1.00  0.00     0.179 C 
ATOM     77  C   UNL     1       2.038   2.253   0.443  1.00  0.00     0.161 C 
ATOM     78  O   UNL     1       1.738   0.886   0.725  1.00  0.00    -0.380 OA
BRANCH  74  79
ATOM     79  C   UNL     1       4.294   0.173  -1.273  1.00  0.00     0.014 C 
ATOM     80  C   UNL     1       4.950  -0.270   0.063  1.00  0.00     0.033 C 
ATOM     81  C   UNL     1       5.420   0.662  -2.206  1.00  0.00     0.043 C 
ATOM     82  C   UNL     1       6.361  -0.921  -0.174  1.00  0.00     0.161 C 
ATOM     83  C   UNL     1       6.780   1.014  -1.538  1.00  0.00     0.094 C 
ATOM     84  O   UNL     1       7.261  -0.256  -1.076  1.00  0.00    -0.372 OA
ATOM     85  C   UNL     1       7.769   1.618  -2.540  1.00  0.00     0.066 C 
ATOM     86  C   UNL     1       6.873   2.000  -0.357  1.00  0.00     0.195 C 
ATOM     87  C   UNL     1       7.978   3.056  -2.106  1.00  0.00     0.163 C 
ATOM     88  O   UNL     1       7.638   3.151  -0.729  1.00  0.00    -0.378 OA
ENDBRANCH  74  79
ENDBRANCH  72  74
ENDBRANCH  71  72
ENDBRANCH  70  71
ENDBRANCH   1  70
TORSDOF 15
