REMARK SMILES CC[C@@H](NC(=O)[C@H](C)C[NH2+]C)C(=O)OCCOC(=O)c1ccc(-c2c3nc(c(-c4cccc(S(=O)(=O)[O-])c4F)c4ccc([nH]4)c(-c4cccc(S(=O)(=O)[O-])c4F)c4nc(c(-c5cccc(S(=O)(=O)[O-])c5F)c5ccc2[nH]5)C=C4)C=C3)cc1
REMARK SMILES IDX 15 1 14 2 12 3 13 4 3 5 2 6 1 7 4 8 5 9 6 11 7 12 8 13 9 14
REMARK SMILES IDX 10 15 11 16 16 19 17 20 18 21 19 22 20 23 21 24 82 25 22 26
REMARK SMILES IDX 81 27 23 28 24 29 25 30 75 31 26 32 80 33 74 34 76 35 27 36
REMARK SMILES IDX 79 37 73 38 72 39 28 41 60 42 40 43 59 44 41 45 44 46 58 47
REMARK SMILES IDX 77 48 42 49 43 50 57 52 78 53 45 54 29 55 30 56 38 57 31 58
REMARK SMILES IDX 33 59 39 60 32 61 34 62 35 63 36 64 37 65 61 66 62 67 70 68
REMARK SMILES IDX 63 69 65 70 71 71 64 72 66 73 67 74 68 75 69 76 46 77 47 78
REMARK SMILES IDX 55 79 48 80 50 81 56 82 49 83 51 84 52 85 53 86 54 87
REMARK H PARENT 4 10 10 17 10 18 76 40 44 51
REMARK Flexibility Score: inf
ROOT
ATOM      1  C   UNL     1       2.363  -0.646   4.512  1.00  0.00     0.274 C 
ENDROOT
BRANCH   1   2
ATOM      2  O   UNL     1       1.818  -1.234   3.309  1.00  0.00    -0.461 OA
BRANCH   2   3
ATOM      3  C   UNL     1       0.536  -0.882   3.017  1.00  0.00     0.328 C 
ATOM      4  O   UNL     1      -0.106  -0.056   3.657  1.00  0.00    -0.250 OA
BRANCH   3   5
ATOM      5  C   UNL     1      -0.084  -1.660   1.842  1.00  0.00     0.192 C 
BRANCH   5   6
ATOM      6  C   UNL     1       0.940  -1.777   0.691  1.00  0.00     0.033 C 
ATOM      7  C   UNL     1       0.294  -1.929  -0.682  1.00  0.00     0.007 C 
ENDBRANCH   5   6
BRANCH   5   8
ATOM      8  N   UNL     1      -0.715  -2.981   2.061  1.00  0.00    -0.342 N 
ATOM      9  C   UNL     1      -1.519  -3.479   3.039  1.00  0.00     0.229 C 
ATOM     10  H   UNL     1      -0.511  -3.634   1.353  1.00  0.00     0.164 HD
ATOM     11  O   UNL     1      -2.447  -4.207   2.673  1.00  0.00    -0.275 OA
BRANCH   9  12
ATOM     12  C   UNL     1      -1.205  -3.325   4.522  1.00  0.00     0.130 C 
ATOM     13  C   UNL     1      -1.637  -1.979   5.088  1.00  0.00     0.024 C 
BRANCH  12  14
ATOM     14  C   UNL     1       0.240  -3.799   4.769  1.00  0.00     0.273 C 
BRANCH  14  15
ATOM     15  N   UNL     1       0.764  -3.560   6.118  1.00  0.00    -0.348 N 
ATOM     16  C   UNL     1       2.138  -4.042   6.216  1.00  0.00     0.330 C 
ATOM     17  H   UNL     1       0.184  -4.053   6.797  1.00  0.00     0.346 HD
ATOM     18  H   UNL     1       0.747  -2.558   6.310  1.00  0.00     0.346 HD
ENDBRANCH  14  15
ENDBRANCH  12  14
ENDBRANCH   9  12
ENDBRANCH   5   8
ENDBRANCH   3   5
ENDBRANCH   2   3
ENDBRANCH   1   2
BRANCH   1  19
ATOM     19  C   UNL     1       3.137   0.655   4.281  1.00  0.00     0.275 C 
BRANCH  19  20
ATOM     20  O   UNL     1       2.276   1.734   3.896  1.00  0.00    -0.458 OA
BRANCH  20  21
ATOM     21  C   UNL     1       2.061   1.829   2.563  1.00  0.00     0.338 C 
ATOM     22  O   UNL     1       2.581   1.155   1.690  1.00  0.00    -0.246 OA
BRANCH  21  23
ATOM     23  C   UNL     1       0.959   2.765   2.296  1.00  0.00     0.060 A 
ATOM     24  C   UNL     1      -0.061   2.337   1.437  1.00  0.00     0.016 A 
ATOM     25  C   UNL     1       0.960   4.059   2.818  1.00  0.00     0.016 A 
ATOM     26  C   UNL     1      -1.073   3.213   1.066  1.00  0.00     0.010 A 
ATOM     27  C   UNL     1      -0.047   4.944   2.433  1.00  0.00     0.010 A 
ATOM     28  C   UNL     1      -1.044   4.531   1.531  1.00  0.00    -0.014 A 
BRANCH  28  29
ATOM     29  C   UNL     1      -1.961   5.529   0.944  1.00  0.00     0.031 A 
ATOM     30  C   UNL     1      -1.429   6.441  -0.124  1.00  0.00     0.074 A 
ATOM     31  C   UNL     1      -3.232   5.617   1.368  1.00  0.00     0.049 A 
ATOM     32  N   UNL     1      -2.008   7.452  -0.711  1.00  0.00    -0.248 NA
ATOM     33  C   UNL     1      -0.055   6.179  -0.587  1.00  0.00     0.031 C 
ATOM     34  C   UNL     1      -3.845   4.759   2.382  1.00  0.00     0.029 A 
ATOM     35  N   UNL     1      -4.225   6.494   1.019  1.00  0.00    -0.354 N 
ATOM     36  C   UNL     1      -1.059   7.975  -1.581  1.00  0.00     0.074 A 
ATOM     37  C   UNL     1       0.134   7.169  -1.447  1.00  0.00     0.031 C 
ATOM     38  C   UNL     1      -5.102   5.180   2.604  1.00  0.00     0.029 A 
ATOM     39  C   UNL     1      -5.366   6.352   1.773  1.00  0.00     0.049 A 
ATOM     40  H   UNL     1      -4.131   7.160   0.301  1.00  0.00     0.167 HD
ATOM     41  C   UNL     1      -1.178   9.028  -2.422  1.00  0.00     0.034 A 
ATOM     42  C   UNL     1      -6.479   7.109   1.807  1.00  0.00     0.034 A 
ATOM     43  C   UNL     1      -2.379   9.805  -2.556  1.00  0.00     0.049 A 
ATOM     44  C   UNL     1      -6.580   8.287   0.874  1.00  0.00     0.074 A 
ATOM     45  C   UNL     1      -2.624  10.875  -3.396  1.00  0.00     0.029 A 
ATOM     46  N   UNL     1      -3.537   9.598  -1.819  1.00  0.00    -0.354 N 
ATOM     47  N   UNL     1      -5.711   8.719  -0.009  1.00  0.00    -0.248 NA
ATOM     48  C   UNL     1      -7.826   9.066   0.919  1.00  0.00     0.031 C 
ATOM     49  C   UNL     1      -3.925  11.329  -3.153  1.00  0.00     0.029 A 
ATOM     50  C   UNL     1      -4.499  10.523  -2.181  1.00  0.00     0.049 A 
ATOM     51  H   UNL     1      -3.655   8.896  -1.140  1.00  0.00     0.167 HD
ATOM     52  C   UNL     1      -6.315   9.796  -0.648  1.00  0.00     0.074 A 
ATOM     53  C   UNL     1      -7.633   9.938  -0.062  1.00  0.00     0.031 C 
ATOM     54  C   UNL     1      -5.823  10.605  -1.619  1.00  0.00     0.034 A 
BRANCH  41  55
ATOM     55  C   UNL     1       0.015   9.385  -3.267  1.00  0.00     0.023 A 
ATOM     56  C   UNL     1       0.378   8.559  -4.350  1.00  0.00     0.012 A 
ATOM     57  C   UNL     1       0.755  10.556  -3.013  1.00  0.00     0.148 A 
ATOM     58  C   UNL     1       1.478   8.875  -5.147  1.00  0.00     0.002 A 
ATOM     59  C   UNL     1       1.824  10.887  -3.838  1.00  0.00     0.091 A 
ATOM     60  F   UNL     1       0.410  11.315  -1.963  1.00  0.00    -0.205 F 
ATOM     61  C   UNL     1       2.193  10.043  -4.897  1.00  0.00     0.022 A 
BRANCH  59  62
ATOM     62  S   UNL     1       2.766  12.404  -3.642  1.00  0.00     0.127 S 
ATOM     63  O   UNL     1       4.052  11.894  -3.169  1.00  0.00    -0.237 OA
ATOM     64  O   UNL     1       2.785  12.932  -5.007  1.00  0.00    -0.237 OA
ATOM     65  O   UNL     1       2.027  13.217  -2.686  1.00  0.00    -0.744 OA
ENDBRANCH  59  62
ENDBRANCH  41  55
BRANCH  42  66
ATOM     66  C   UNL     1      -7.589   6.763   2.739  1.00  0.00     0.023 A 
ATOM     67  C   UNL     1      -8.809   6.286   2.222  1.00  0.00     0.012 A 
ATOM     68  C   UNL     1      -7.435   6.879   4.135  1.00  0.00     0.148 A 
ATOM     69  C   UNL     1      -9.864   5.958   3.075  1.00  0.00     0.002 A 
ATOM     70  C   UNL     1      -8.470   6.500   4.981  1.00  0.00     0.091 A 
ATOM     71  F   UNL     1      -6.274   7.352   4.609  1.00  0.00    -0.205 F 
ATOM     72  C   UNL     1      -9.691   6.054   4.453  1.00  0.00     0.022 A 
BRANCH  70  73
ATOM     73  S   UNL     1      -8.291   6.472   6.769  1.00  0.00     0.127 S 
ATOM     74  O   UNL     1      -9.114   7.609   7.170  1.00  0.00    -0.237 OA
ATOM     75  O   UNL     1      -8.844   5.160   7.109  1.00  0.00    -0.237 OA
ATOM     76  O   UNL     1      -6.862   6.603   7.021  1.00  0.00    -0.744 OA
ENDBRANCH  70  73
ENDBRANCH  42  66
BRANCH  54  77
ATOM     77  C   UNL     1      -6.725  11.692  -2.141  1.00  0.00     0.023 A 
ATOM     78  C   UNL     1      -6.981  12.830  -1.352  1.00  0.00     0.012 A 
ATOM     79  C   UNL     1      -7.247  11.620  -3.447  1.00  0.00     0.148 A 
ATOM     80  C   UNL     1      -7.771  13.868  -1.844  1.00  0.00     0.002 A 
ATOM     81  C   UNL     1      -7.991  12.681  -3.949  1.00  0.00     0.091 A 
ATOM     82  F   UNL     1      -7.005  10.520  -4.174  1.00  0.00    -0.205 F 
ATOM     83  C   UNL     1      -8.264  13.799  -3.145  1.00  0.00     0.022 A 
BRANCH  81  84
ATOM     84  S   UNL     1      -8.580  12.722  -5.646  1.00  0.00     0.127 S 
ATOM     85  O   UNL     1     -10.012  12.485  -5.470  1.00  0.00    -0.237 OA
ATOM     86  O   UNL     1      -8.233  14.081  -6.062  1.00  0.00    -0.237 OA
ATOM     87  O   UNL     1      -7.853  11.673  -6.348  1.00  0.00    -0.744 OA
ENDBRANCH  81  84
ENDBRANCH  54  77
ENDBRANCH  28  29
ENDBRANCH  21  23
ENDBRANCH  20  21
ENDBRANCH  19  20
ENDBRANCH   1  19
TORSDOF 19
