REMARK SMILES CC(C)c1ccc([C@]2(C(=O)OCCOC(=O)c3ccc(-c4c5nc(c(-c6cccc(S(=O)(=O)[O-])c6F)c6ccc([nH]6)c(-c6cccc(S(=O)(=O)[O-])c6F)c6nc(c(-c7cccc(S(=O)(=O)[O-])c7F)c7ccc4[nH]7)C=C6)C=C5)cc3)CCC[C@@H]2C)cc1
REMARK SMILES IDX 13 1 12 2 11 3 9 4 10 5 8 6 80 7 83 8 81 9 82 10 84 11 7 12
REMARK SMILES IDX 4 13 5 14 86 15 6 16 85 17 2 18 1 19 3 20 14 21 15 22 16 23
REMARK SMILES IDX 17 24 18 25 79 26 19 27 78 28 20 29 21 30 22 31 72 32 23 33
REMARK SMILES IDX 77 34 71 35 73 36 24 37 76 38 70 39 69 40 25 42 57 43 37 44
REMARK SMILES IDX 56 45 38 46 41 47 55 48 74 49 39 50 40 51 54 53 75 54 42 55
REMARK SMILES IDX 26 56 27 57 35 58 28 59 30 60 36 61 29 62 31 63 32 64 33 65
REMARK SMILES IDX 34 66 58 67 59 68 67 69 60 70 62 71 68 72 61 73 63 74 64 75
REMARK SMILES IDX 65 76 66 77 43 78 44 79 52 80 45 81 47 82 53 83 46 84 48 85
REMARK SMILES IDX 49 86 50 87 51 88
REMARK H PARENT 73 41 41 52
REMARK Flexibility Score: inf
ROOT
ATOM      1  C   UNL     1      -6.757  -4.041   3.918  1.00  0.00     0.275 C 
ENDROOT
BRANCH   1   2
ATOM      2  C   UNL     1      -7.203  -2.605   3.674  1.00  0.00     0.274 C 
BRANCH   2   3
ATOM      3  O   UNL     1      -6.743  -2.162   2.381  1.00  0.00    -0.461 OA
BRANCH   3   4
ATOM      4  C   UNL     1      -5.829  -1.151   2.357  1.00  0.00     0.316 C 
ATOM      5  O   UNL     1      -5.386  -0.612   3.366  1.00  0.00    -0.251 OA
BRANCH   4   6
ATOM      6  C   UNL     1      -5.492  -0.680   0.909  1.00  0.00     0.095 C 
ATOM      7  C   UNL     1      -6.199  -1.537  -0.173  1.00  0.00     0.024 C 
ATOM      8  C   UNL     1      -6.215   0.695   0.714  1.00  0.00     0.008 C 
ATOM      9  C   UNL     1      -7.638  -1.020  -0.271  1.00  0.00     0.002 C 
ATOM     10  C   UNL     1      -7.682   0.287   0.515  1.00  0.00     0.005 C 
ATOM     11  C   UNL     1      -5.750   1.526  -0.491  1.00  0.00     0.009 C 
BRANCH   6  12
ATOM     12  C   UNL     1      -3.963  -0.631   0.751  1.00  0.00    -0.030 A 
ATOM     13  C   UNL     1      -1.114  -0.527   0.536  1.00  0.00    -0.045 A 
ATOM     14  C   UNL     1      -1.821   0.467   1.218  1.00  0.00     0.004 A 
ATOM     15  C   UNL     1      -1.850  -1.571  -0.043  1.00  0.00     0.004 A 
ATOM     16  C   UNL     1      -3.215   0.406   1.338  1.00  0.00     0.005 A 
ATOM     17  C   UNL     1      -3.247  -1.628   0.071  1.00  0.00     0.005 A 
BRANCH  13  18
ATOM     18  C   UNL     1       0.405  -0.534   0.427  1.00  0.00     0.013 C 
ATOM     19  C   UNL     1       0.851   0.104  -0.889  1.00  0.00     0.012 C 
ATOM     20  C   UNL     1       1.128   0.135   1.602  1.00  0.00     0.012 C 
ENDBRANCH  13  18
ENDBRANCH   6  12
ENDBRANCH   4   6
ENDBRANCH   3   4
ENDBRANCH   2   3
ENDBRANCH   1   2
BRANCH   1  21
ATOM     21  O   UNL     1      -5.325  -4.069   4.007  1.00  0.00    -0.458 OA
BRANCH  21  22
ATOM     22  C   UNL     1      -4.680  -4.736   3.028  1.00  0.00     0.338 C 
ATOM     23  O   UNL     1      -5.178  -5.415   2.137  1.00  0.00    -0.246 OA
BRANCH  22  24
ATOM     24  C   UNL     1      -3.234  -4.515   3.165  1.00  0.00     0.060 A 
ATOM     25  C   UNL     1      -2.737  -3.214   3.177  1.00  0.00     0.016 A 
ATOM     26  C   UNL     1      -2.360  -5.602   3.171  1.00  0.00     0.016 A 
ATOM     27  C   UNL     1      -1.362  -3.003   3.099  1.00  0.00     0.010 A 
ATOM     28  C   UNL     1      -0.978  -5.380   3.179  1.00  0.00     0.010 A 
ATOM     29  C   UNL     1      -0.458  -4.077   3.087  1.00  0.00    -0.014 A 
BRANCH  29  30
ATOM     30  C   UNL     1       1.005  -3.833   2.900  1.00  0.00     0.031 A 
ATOM     31  C   UNL     1       1.750  -4.491   1.763  1.00  0.00     0.074 A 
ATOM     32  C   UNL     1       1.675  -2.987   3.710  1.00  0.00     0.049 A 
ATOM     33  N   UNL     1       3.037  -4.519   1.527  1.00  0.00    -0.248 NA
ATOM     34  C   UNL     1       0.951  -5.232   0.772  1.00  0.00     0.031 C 
ATOM     35  C   UNL     1       1.093  -2.250   4.830  1.00  0.00     0.029 A 
ATOM     36  N   UNL     1       2.987  -2.574   3.691  1.00  0.00    -0.354 N 
ATOM     37  C   UNL     1       3.210  -5.375   0.445  1.00  0.00     0.074 A 
ATOM     38  C   UNL     1       1.892  -5.806   0.035  1.00  0.00     0.031 C 
ATOM     39  C   UNL     1       2.009  -1.406   5.327  1.00  0.00     0.029 A 
ATOM     40  C   UNL     1       3.275  -1.608   4.629  1.00  0.00     0.049 A 
ATOM     41  H   UNL     1       3.657  -2.935   3.066  1.00  0.00     0.167 HD
ATOM     42  C   UNL     1       4.361  -5.771  -0.147  1.00  0.00     0.034 A 
ATOM     43  C   UNL     1       4.428  -0.965   4.907  1.00  0.00     0.034 A 
ATOM     44  C   UNL     1       5.663  -5.253   0.180  1.00  0.00     0.049 A 
ATOM     45  C   UNL     1       5.677  -1.340   4.160  1.00  0.00     0.074 A 
ATOM     46  C   UNL     1       6.889  -5.600  -0.362  1.00  0.00     0.029 A 
ATOM     47  N   UNL     1       5.905  -4.248   1.103  1.00  0.00    -0.354 N 
ATOM     48  N   UNL     1       5.823  -2.177   3.162  1.00  0.00    -0.248 NA
ATOM     49  C   UNL     1       6.927  -0.693   4.588  1.00  0.00     0.031 C 
ATOM     50  C   UNL     1       7.872  -4.795   0.225  1.00  0.00     0.029 A 
ATOM     51  C   UNL     1       7.256  -3.948   1.132  1.00  0.00     0.049 A 
ATOM     52  H   UNL     1       5.217  -3.812   1.656  1.00  0.00     0.167 HD
ATOM     53  C   UNL     1       7.180  -2.175   2.859  1.00  0.00     0.074 A 
ATOM     54  C   UNL     1       7.804  -1.204   3.734  1.00  0.00     0.031 C 
ATOM     55  C   UNL     1       7.857  -2.947   1.973  1.00  0.00     0.034 A 
BRANCH  42  56
ATOM     56  C   UNL     1       4.274  -6.818  -1.225  1.00  0.00     0.023 A 
ATOM     57  C   UNL     1       3.865  -6.461  -2.523  1.00  0.00     0.012 A 
ATOM     58  C   UNL     1       4.669  -8.146  -0.963  1.00  0.00     0.148 A 
ATOM     59  C   UNL     1       3.831  -7.415  -3.541  1.00  0.00     0.002 A 
ATOM     60  C   UNL     1       4.669  -9.082  -1.990  1.00  0.00     0.091 A 
ATOM     61  F   UNL     1       5.028  -8.473   0.287  1.00  0.00    -0.205 F 
ATOM     62  C   UNL     1       4.244  -8.720  -3.278  1.00  0.00     0.022 A 
BRANCH  60  63
ATOM     63  S   UNL     1       5.261 -10.762  -1.752  1.00  0.00     0.127 S 
ATOM     64  O   UNL     1       4.008 -11.502  -1.619  1.00  0.00    -0.237 OA
ATOM     65  O   UNL     1       5.990 -11.018  -2.996  1.00  0.00    -0.237 OA
ATOM     66  O   UNL     1       6.101 -10.718  -0.563  1.00  0.00    -0.744 OA
ENDBRANCH  60  63
ENDBRANCH  42  56
BRANCH  43  67
ATOM     67  C   UNL     1       4.439   0.137   5.914  1.00  0.00     0.023 A 
ATOM     68  C   UNL     1       4.675   1.456   5.481  1.00  0.00     0.012 A 
ATOM     69  C   UNL     1       4.153  -0.092   7.273  1.00  0.00     0.148 A 
ATOM     70  C   UNL     1       4.630   2.522   6.381  1.00  0.00     0.002 A 
ATOM     71  C   UNL     1       4.034   0.982   8.149  1.00  0.00     0.091 A 
ATOM     72  F   UNL     1       3.974  -1.354   7.689  1.00  0.00    -0.205 F 
ATOM     73  C   UNL     1       4.288   2.289   7.711  1.00  0.00     0.022 A 
BRANCH  71  74
ATOM     74  S   UNL     1       3.404   0.741   9.814  1.00  0.00     0.127 S 
ATOM     75  O   UNL     1       4.626   0.499  10.572  1.00  0.00    -0.237 OA
ATOM     76  O   UNL     1       2.746   2.018  10.097  1.00  0.00    -0.237 OA
ATOM     77  O   UNL     1       2.481  -0.382   9.692  1.00  0.00    -0.744 OA
ENDBRANCH  71  74
ENDBRANCH  43  67
BRANCH  55  78
ATOM     78  C   UNL     1       9.354  -2.799   1.925  1.00  0.00     0.023 A 
ATOM     79  C   UNL     1      10.128  -3.375   2.952  1.00  0.00     0.012 A 
ATOM     80  C   UNL     1       9.997  -2.168   0.844  1.00  0.00     0.148 A 
ATOM     81  C   UNL     1      11.519  -3.305   2.917  1.00  0.00     0.002 A 
ATOM     82  C   UNL     1      11.387  -2.131   0.798  1.00  0.00     0.091 A 
ATOM     83  F   UNL     1       9.243  -1.607  -0.113  1.00  0.00    -0.205 F 
ATOM     84  C   UNL     1      12.149  -2.692   1.836  1.00  0.00     0.022 A 
BRANCH  82  85
ATOM     85  S   UNL     1      12.278  -1.427  -0.595  1.00  0.00     0.127 S 
ATOM     86  O   UNL     1      12.655  -0.114  -0.075  1.00  0.00    -0.237 OA
ATOM     87  O   UNL     1      13.393  -2.360  -0.762  1.00  0.00    -0.237 OA
ATOM     88  O   UNL     1      11.332  -1.419  -1.703  1.00  0.00    -0.744 OA
ENDBRANCH  82  85
ENDBRANCH  55  78
ENDBRANCH  29  30
ENDBRANCH  22  24
ENDBRANCH  21  22
ENDBRANCH   1  21
TORSDOF 16
