REMARK SMILES Cc1c(Cl)cc2c(c1C)O[C@@H](C(F)(F)F)C(C(=O)OCCOC(=O)c1ccc(-c3c4nc(c(-c5cccc(S(=O)(=O)[O-])c5F)c5ccc([nH]5)c(-c5cccc(S(=O)(=O)[O-])c5F)c5nc(c(-c6cccc(S(=O)(=O)[O-])c6F)c6ccc3[nH]6)C=C5)C=C4)cc1)=C2
REMARK SMILES IDX 21 1 20 2 19 3 17 4 18 5 16 6 1 7 2 8 3 9 8 10 4 11 5 12
REMARK SMILES IDX 7 13 9 14 6 15 10 16 88 17 11 18 12 19 13 20 14 21 15 22
REMARK SMILES IDX 22 23 23 24 24 25 25 26 26 27 87 28 27 29 86 30 28 31 29 32
REMARK SMILES IDX 30 33 80 34 31 35 85 36 79 37 81 38 32 39 84 40 78 41 77 42
REMARK SMILES IDX 33 44 65 45 45 46 64 47 46 48 49 49 63 50 82 51 47 52 48 53
REMARK SMILES IDX 62 55 83 56 50 57 34 58 35 59 43 60 36 61 38 62 44 63 37 64
REMARK SMILES IDX 39 65 40 66 41 67 42 68 66 69 67 70 75 71 68 72 70 73 76 74
REMARK SMILES IDX 69 75 71 76 72 77 73 78 74 79 51 80 52 81 60 82 53 83 55 84
REMARK SMILES IDX 61 85 54 86 56 87 57 88 58 89 59 90
REMARK H PARENT 81 43 49 54
REMARK Flexibility Score: inf
ROOT
ATOM      1  C   UNL     1      -2.889   3.545  -9.286  1.00  0.00     0.275 C 
ENDROOT
BRANCH   1   2
ATOM      2  C   UNL     1      -1.952   2.342  -9.356  1.00  0.00     0.275 C 
BRANCH   2   3
ATOM      3  O   UNL     1      -1.808   1.742  -8.051  1.00  0.00    -0.459 OA
BRANCH   3   4
ATOM      4  C   UNL     1      -0.610   1.889  -7.450  1.00  0.00     0.338 C 
ATOM      5  O   UNL     1       0.379   2.427  -7.926  1.00  0.00    -0.246 OA
BRANCH   4   6
ATOM      6  C   UNL     1      -0.650   1.350  -6.080  1.00  0.00     0.087 C 
ATOM      7  C   UNL     1       0.920  -0.139   0.088  1.00  0.00     0.046 C 
ATOM      8  C   UNL     1       0.508   0.428  -1.248  1.00  0.00    -0.026 A 
ATOM      9  C   UNL     1       0.678   1.811  -1.479  1.00  0.00     0.045 A 
ATOM     10  C   UNL     1       0.045  -0.386  -2.316  1.00  0.00    -0.004 A 
ATOM     11  Cl  UNL     1       1.275   2.882  -0.256  1.00  0.00    -0.084 Cl
ATOM     12  C   UNL     1       0.415   2.373  -2.727  1.00  0.00     0.032 A 
ATOM     13  C   UNL     1      -0.236   0.205  -3.569  1.00  0.00     0.131 A 
ATOM     14  C   UNL     1      -0.144  -1.879  -2.204  1.00  0.00     0.049 C 
ATOM     15  C   UNL     1      -0.017   1.565  -3.777  1.00  0.00     0.019 A 
ATOM     16  O   UNL     1      -0.655  -0.628  -4.578  1.00  0.00    -0.475 OA
ATOM     17  C   UNL     1      -0.121   2.111  -5.115  1.00  0.00     0.027 C 
ATOM     18  C   UNL     1      -1.119  -0.053  -5.835  1.00  0.00     0.316 C 
BRANCH  18  19
ATOM     19  C   UNL     1      -2.637  -0.259  -5.979  1.00  0.00     0.430 C 
ATOM     20  F   UNL     1      -3.360   0.755  -5.461  1.00  0.00    -0.167 F 
ATOM     21  F   UNL     1      -2.993  -0.406  -7.280  1.00  0.00    -0.167 F 
ATOM     22  F   UNL     1      -3.040  -1.398  -5.358  1.00  0.00    -0.167 F 
ENDBRANCH  18  19
ENDBRANCH   4   6
ENDBRANCH   3   4
ENDBRANCH   2   3
ENDBRANCH   1   2
BRANCH   1  23
ATOM     23  O   UNL     1      -2.261   4.600  -8.537  1.00  0.00    -0.458 OA
BRANCH  23  24
ATOM     24  C   UNL     1      -2.771   4.821  -7.304  1.00  0.00     0.338 C 
ATOM     25  O   UNL     1      -3.735   4.279  -6.793  1.00  0.00    -0.246 OA
BRANCH  24  26
ATOM     26  C   UNL     1      -1.927   5.788  -6.587  1.00  0.00     0.060 A 
ATOM     27  C   UNL     1      -0.625   5.425  -6.264  1.00  0.00     0.016 A 
ATOM     28  C   UNL     1      -2.469   6.969  -6.088  1.00  0.00     0.016 A 
ATOM     29  C   UNL     1       0.083   6.154  -5.312  1.00  0.00     0.010 A 
ATOM     30  C   UNL     1      -1.693   7.780  -5.249  1.00  0.00     0.010 A 
ATOM     31  C   UNL     1      -0.430   7.355  -4.799  1.00  0.00    -0.014 A 
BRANCH  31  32
ATOM     32  C   UNL     1       0.344   8.133  -3.783  1.00  0.00     0.031 A 
ATOM     33  C   UNL     1      -0.283   8.516  -2.462  1.00  0.00     0.074 A 
ATOM     34  C   UNL     1       1.625   8.485  -4.030  1.00  0.00     0.049 A 
ATOM     35  N   UNL     1       0.195   9.279  -1.512  1.00  0.00    -0.248 NA
ATOM     36  C   UNL     1      -1.630   7.992  -2.176  1.00  0.00     0.031 C 
ATOM     37  C   UNL     1       2.362   8.180  -5.259  1.00  0.00     0.029 A 
ATOM     38  N   UNL     1       2.540   9.166  -3.264  1.00  0.00    -0.354 N 
ATOM     39  C   UNL     1      -0.811   9.382  -0.556  1.00  0.00     0.074 A 
ATOM     40  C   UNL     1      -1.933   8.611  -1.044  1.00  0.00     0.031 C 
ATOM     41  C   UNL     1       3.624   8.614  -5.139  1.00  0.00     0.029 A 
ATOM     42  C   UNL     1       3.767   9.317  -3.871  1.00  0.00     0.049 A 
ATOM     43  H   UNL     1       2.338   9.513  -2.365  1.00  0.00     0.167 HD
ATOM     44  C   UNL     1      -0.797  10.038   0.630  1.00  0.00     0.034 A 
ATOM     45  C   UNL     1       4.877   9.975  -3.477  1.00  0.00     0.034 A 
ATOM     46  C   UNL     1       0.351  10.728   1.154  1.00  0.00     0.049 A 
ATOM     47  C   UNL     1       4.864  10.701  -2.161  1.00  0.00     0.074 A 
ATOM     48  C   UNL     1       0.479  11.374   2.371  1.00  0.00     0.029 A 
ATOM     49  N   UNL     1       1.569  10.851   0.505  1.00  0.00    -0.354 N 
ATOM     50  N   UNL     1       3.921  10.737  -1.252  1.00  0.00    -0.248 NA
ATOM     51  C   UNL     1       6.063  11.478  -1.816  1.00  0.00     0.031 C 
ATOM     52  C   UNL     1       1.768  11.908   2.448  1.00  0.00     0.029 A 
ATOM     53  C   UNL     1       2.450  11.577   1.289  1.00  0.00     0.049 A 
ATOM     54  H   UNL     1       1.778  10.477  -0.381  1.00  0.00     0.167 HD
ATOM     55  C   UNL     1       4.413  11.534  -0.225  1.00  0.00     0.074 A 
ATOM     56  C   UNL     1       5.753  11.930  -0.607  1.00  0.00     0.031 C 
ATOM     57  C   UNL     1       3.797  11.927   0.917  1.00  0.00     0.034 A 
BRANCH  44  58
ATOM     58  C   UNL     1      -2.045  10.009   1.477  1.00  0.00     0.023 A 
ATOM     59  C   UNL     1      -2.408   8.824   2.148  1.00  0.00     0.012 A 
ATOM     60  C   UNL     1      -2.807  11.179   1.683  1.00  0.00     0.148 A 
ATOM     61  C   UNL     1      -3.522   8.794   2.986  1.00  0.00     0.002 A 
ATOM     62  C   UNL     1      -3.889  11.153   2.556  1.00  0.00     0.091 A 
ATOM     63  F   UNL     1      -2.455  12.294   1.027  1.00  0.00    -0.205 F 
ATOM     64  C   UNL     1      -4.255   9.959   3.199  1.00  0.00     0.022 A 
BRANCH  62  65
ATOM     65  S   UNL     1      -4.846  12.617   2.966  1.00  0.00     0.127 S 
ATOM     66  O   UNL     1      -6.137  12.308   2.352  1.00  0.00    -0.237 OA
ATOM     67  O   UNL     1      -4.846  12.585   4.429  1.00  0.00    -0.237 OA
ATOM     68  O   UNL     1      -4.133  13.743   2.381  1.00  0.00    -0.744 OA
ENDBRANCH  62  65
ENDBRANCH  44  58
BRANCH  45  69
ATOM     69  C   UNL     1       6.097   9.952  -4.338  1.00  0.00     0.023 A 
ATOM     70  C   UNL     1       7.244   9.271  -3.889  1.00  0.00     0.012 A 
ATOM     71  C   UNL     1       6.108  10.539  -5.620  1.00  0.00     0.148 A 
ATOM     72  C   UNL     1       8.380   9.181  -4.696  1.00  0.00     0.002 A 
ATOM     73  C   UNL     1       7.217  10.389  -6.444  1.00  0.00     0.091 A 
ATOM     74  F   UNL     1       5.016  11.206  -6.022  1.00  0.00    -0.205 F 
ATOM     75  C   UNL     1       8.361   9.724  -5.978  1.00  0.00     0.022 A 
BRANCH  73  76
ATOM     76  S   UNL     1       7.221  10.916  -8.162  1.00  0.00     0.127 S 
ATOM     77  O   UNL     1       8.169  12.026  -8.132  1.00  0.00    -0.237 OA
ATOM     78  O   UNL     1       7.700   9.713  -8.845  1.00  0.00    -0.237 OA
ATOM     79  O   UNL     1       5.842  11.270  -8.468  1.00  0.00    -0.744 OA
ENDBRANCH  73  76
ENDBRANCH  45  69
BRANCH  57  80
ATOM     80  C   UNL     1       4.547  12.844   1.846  1.00  0.00     0.023 A 
ATOM     81  C   UNL     1       4.693  14.202   1.500  1.00  0.00     0.012 A 
ATOM     82  C   UNL     1       4.980  12.400   3.111  1.00  0.00     0.148 A 
ATOM     83  C   UNL     1       5.267  15.103   2.395  1.00  0.00     0.002 A 
ATOM     84  C   UNL     1       5.506  13.313   4.017  1.00  0.00     0.091 A 
ATOM     85  F   UNL     1       4.840  11.101   3.413  1.00  0.00    -0.205 F 
ATOM     86  C   UNL     1       5.658  14.663   3.658  1.00  0.00     0.022 A 
BRANCH  84  87
ATOM     87  S   UNL     1       5.942  12.868   5.702  1.00  0.00     0.127 S 
ATOM     88  O   UNL     1       7.389  13.079   5.700  1.00  0.00    -0.237 OA
ATOM     89  O   UNL     1       5.185  13.845   6.484  1.00  0.00    -0.237 OA
ATOM     90  O   UNL     1       5.520  11.486   5.879  1.00  0.00    -0.744 OA
ENDBRANCH  84  87
ENDBRANCH  57  80
ENDBRANCH  31  32
ENDBRANCH  24  26
ENDBRANCH  23  24
ENDBRANCH   1  23
TORSDOF 15
