REMARK SMILES C[NH+]1CCN(C(=O)c2ccc3c(c2)N(CC(=O)OCCOC(=O)c2ccc(-c4c5nc(c(-c6cccc(S(=O)(=O)[O-])c6F)c6ccc([nH]6)c(-c6cccc(S(=O)(=O)[O-])c6F)c6nc(c(-c7cccc(S(=O)(=O)[O-])c7F)c7ccc4[nH]7)C=C6)C=C5)cc2)C(=O)CO3)CC1
REMARK SMILES IDX 20 1 19 2 18 3 16 4 17 5 15 6 14 7 8 8 9 9 13 10 10 11 12 12
REMARK SMILES IDX 11 13 90 14 87 15 89 16 88 17 6 18 1 19 2 20 3 21 92 22 4 24
REMARK SMILES IDX 91 25 5 26 7 27 21 28 22 29 23 30 24 31 25 32 86 33 26 34
REMARK SMILES IDX 85 35 27 36 28 37 29 38 79 39 30 40 84 41 78 42 80 43 31 44
REMARK SMILES IDX 83 45 77 46 76 47 32 49 64 50 44 51 63 52 45 53 48 54 62 55
REMARK SMILES IDX 81 56 46 57 47 58 61 60 82 61 49 62 33 63 34 64 42 65 35 66
REMARK SMILES IDX 37 67 43 68 36 69 38 70 39 71 40 72 41 73 65 74 66 75 74 76
REMARK SMILES IDX 67 77 69 78 75 79 68 80 70 81 71 82 72 83 73 84 50 85 51 86
REMARK SMILES IDX 59 87 52 88 54 89 60 90 53 91 55 92 56 93 57 94 58 95
REMARK H PARENT 2 23 80 48 48 59
REMARK Flexibility Score: inf
ROOT
ATOM      1  C   UNL     1       0.917  -4.530   0.945  1.00  0.00     0.275 C 
ENDROOT
BRANCH   1   2
ATOM      2  C   UNL     1       0.004  -5.720   1.286  1.00  0.00     0.274 C 
BRANCH   2   3
ATOM      3  O   UNL     1      -1.304  -5.332   1.758  1.00  0.00    -0.461 OA
BRANCH   3   4
ATOM      4  C   UNL     1      -1.386  -5.125   3.102  1.00  0.00     0.326 C 
ATOM      5  O   UNL     1      -0.449  -5.302   3.878  1.00  0.00    -0.250 OA
BRANCH   4   6
ATOM      6  C   UNL     1      -2.691  -4.480   3.566  1.00  0.00     0.248 C 
BRANCH   6   7
ATOM      7  N   UNL     1      -3.863  -4.559   2.710  1.00  0.00    -0.295 N 
ATOM      8  C   UNL     1      -3.888  -1.437   0.590  1.00  0.00     0.042 A 
ATOM      9  C   UNL     1      -4.918  -1.737  -0.300  1.00  0.00     0.018 A 
ATOM     10  C   UNL     1      -3.595  -2.309   1.655  1.00  0.00     0.044 A 
ATOM     11  C   UNL     1      -5.626  -2.927  -0.145  1.00  0.00     0.049 A 
ATOM     12  C   UNL     1      -4.239  -3.550   1.771  1.00  0.00     0.087 A 
ATOM     13  C   UNL     1      -5.290  -3.822   0.876  1.00  0.00     0.143 A 
ATOM     14  O   UNL     1      -6.029  -4.977   0.903  1.00  0.00    -0.482 OA
ATOM     15  C   UNL     1      -4.627  -5.714   2.824  1.00  0.00     0.265 C 
ATOM     16  C   UNL     1      -5.990  -5.617   2.165  1.00  0.00     0.330 C 
ATOM     17  O   UNL     1      -4.295  -6.693   3.492  1.00  0.00    -0.270 OA
BRANCH   8  18
ATOM     18  C   UNL     1      -3.213  -0.122   0.478  1.00  0.00     0.254 C 
ATOM     19  C   UNL     1       1.826   0.540  -1.363  1.00  0.00     0.332 C 
ATOM     20  N   UNL     1       0.392   0.546  -1.694  1.00  0.00    -0.334 N 
ATOM     21  C   UNL     1      -0.293   1.592  -0.898  1.00  0.00     0.283 C 
ATOM     22  C   UNL     1      -0.175  -0.804  -1.489  1.00  0.00     0.283 C 
ATOM     23  H   UNL     1       0.250   0.777  -2.677  1.00  0.00     0.347 HD
ATOM     24  C   UNL     1      -1.829   1.474  -0.810  1.00  0.00     0.181 C 
ATOM     25  C   UNL     1      -1.720  -0.886  -1.443  1.00  0.00     0.181 C 
ATOM     26  N   UNL     1      -2.287   0.110  -0.536  1.00  0.00    -0.327 N 
ATOM     27  O   UNL     1      -3.569   0.733   1.285  1.00  0.00    -0.269 OA
ENDBRANCH   8  18
ENDBRANCH   6   7
ENDBRANCH   4   6
ENDBRANCH   3   4
ENDBRANCH   2   3
ENDBRANCH   1   2
BRANCH   1  28
ATOM     28  O   UNL     1       0.945  -3.520   1.975  1.00  0.00    -0.458 OA
BRANCH  28  29
ATOM     29  C   UNL     1      -0.042  -2.613   1.807  1.00  0.00     0.338 C 
ATOM     30  O   UNL     1      -0.872  -2.648   0.912  1.00  0.00    -0.246 OA
BRANCH  29  31
ATOM     31  C   UNL     1      -0.080  -1.523   2.792  1.00  0.00     0.060 A 
ATOM     32  C   UNL     1      -0.431  -1.722   4.124  1.00  0.00     0.016 A 
ATOM     33  C   UNL     1      -0.053  -0.233   2.269  1.00  0.00     0.016 A 
ATOM     34  C   UNL     1      -0.823  -0.621   4.900  1.00  0.00     0.010 A 
ATOM     35  C   UNL     1      -0.387   0.868   3.046  1.00  0.00     0.010 A 
ATOM     36  C   UNL     1      -0.787   0.686   4.370  1.00  0.00    -0.014 A 
BRANCH  36  37
ATOM     37  C   UNL     1      -0.896   1.890   5.229  1.00  0.00     0.031 A 
ATOM     38  C   UNL     1      -1.956   2.943   5.041  1.00  0.00     0.074 A 
ATOM     39  C   UNL     1       0.149   2.121   6.046  1.00  0.00     0.049 A 
ATOM     40  N   UNL     1      -2.093   4.089   5.661  1.00  0.00    -0.248 NA
ATOM     41  C   UNL     1      -2.970   2.705   4.005  1.00  0.00     0.031 C 
ATOM     42  C   UNL     1       1.322   1.248   6.164  1.00  0.00     0.029 A 
ATOM     43  N   UNL     1       0.429   3.168   6.880  1.00  0.00    -0.354 N 
ATOM     44  C   UNL     1      -3.181   4.725   5.068  1.00  0.00     0.074 A 
ATOM     45  C   UNL     1      -3.661   3.840   4.028  1.00  0.00     0.031 C 
ATOM     46  C   UNL     1       2.195   1.795   7.017  1.00  0.00     0.029 A 
ATOM     47  C   UNL     1       1.654   3.061   7.492  1.00  0.00     0.049 A 
ATOM     48  H   UNL     1      -0.186   3.922   7.027  1.00  0.00     0.167 HD
ATOM     49  C   UNL     1      -3.733   5.925   5.383  1.00  0.00     0.034 A 
ATOM     50  C   UNL     1       2.280   3.884   8.351  1.00  0.00     0.034 A 
ATOM     51  C   UNL     1      -3.263   6.762   6.461  1.00  0.00     0.049 A 
ATOM     52  C   UNL     1       1.567   5.120   8.799  1.00  0.00     0.074 A 
ATOM     53  C   UNL     1      -3.830   7.920   6.967  1.00  0.00     0.029 A 
ATOM     54  N   UNL     1      -2.111   6.531   7.197  1.00  0.00    -0.354 N 
ATOM     55  N   UNL     1       0.419   5.598   8.385  1.00  0.00    -0.248 NA
ATOM     56  C   UNL     1       2.202   5.901   9.866  1.00  0.00     0.031 C 
ATOM     57  C   UNL     1      -3.017   8.389   8.006  1.00  0.00     0.029 A 
ATOM     58  C   UNL     1      -1.948   7.521   8.152  1.00  0.00     0.049 A 
ATOM     59  H   UNL     1      -1.497   5.773   7.061  1.00  0.00     0.167 HD
ATOM     60  C   UNL     1       0.180   6.726   9.155  1.00  0.00     0.074 A 
ATOM     61  C   UNL     1       1.292   6.842  10.079  1.00  0.00     0.031 C 
ATOM     62  C   UNL     1      -0.855   7.598   9.088  1.00  0.00     0.034 A 
BRANCH  49  63
ATOM     63  C   UNL     1      -4.965   6.379   4.632  1.00  0.00     0.023 A 
ATOM     64  C   UNL     1      -6.194   5.734   4.880  1.00  0.00     0.012 A 
ATOM     65  C   UNL     1      -4.945   7.512   3.790  1.00  0.00     0.148 A 
ATOM     66  C   UNL     1      -7.375   6.190   4.292  1.00  0.00     0.002 A 
ATOM     67  C   UNL     1      -6.133   7.984   3.236  1.00  0.00     0.091 A 
ATOM     68  F   UNL     1      -3.771   8.111   3.550  1.00  0.00    -0.205 F 
ATOM     69  C   UNL     1      -7.346   7.321   3.481  1.00  0.00     0.022 A 
BRANCH  67  70
ATOM     70  S   UNL     1      -6.217   9.485   2.246  1.00  0.00     0.127 S 
ATOM     71  O   UNL     1      -6.386   8.944   0.898  1.00  0.00    -0.237 OA
ATOM     72  O   UNL     1      -7.404  10.150   2.786  1.00  0.00    -0.237 OA
ATOM     73  O   UNL     1      -4.967  10.192   2.487  1.00  0.00    -0.744 OA
ENDBRANCH  67  70
ENDBRANCH  49  63
BRANCH  50  74
ATOM     74  C   UNL     1       3.577   3.449   8.929  1.00  0.00     0.023 A 
ATOM     75  C   UNL     1       3.590   2.920  10.233  1.00  0.00     0.012 A 
ATOM     76  C   UNL     1       4.750   3.400   8.152  1.00  0.00     0.148 A 
ATOM     77  C   UNL     1       4.751   2.356  10.758  1.00  0.00     0.002 A 
ATOM     78  C   UNL     1       5.888   2.785   8.661  1.00  0.00     0.091 A 
ATOM     79  F   UNL     1       4.717   3.908   6.911  1.00  0.00    -0.205 F 
ATOM     80  C   UNL     1       5.895   2.273   9.967  1.00  0.00     0.022 A 
BRANCH  78  81
ATOM     81  S   UNL     1       7.333   2.489   7.633  1.00  0.00     0.127 S 
ATOM     82  O   UNL     1       8.178   3.632   7.962  1.00  0.00    -0.237 OA
ATOM     83  O   UNL     1       7.817   1.201   8.132  1.00  0.00    -0.237 OA
ATOM     84  O   UNL     1       6.819   2.437   6.269  1.00  0.00    -0.744 OA
ENDBRANCH  78  81
ENDBRANCH  50  74
BRANCH  62  85
ATOM     85  C   UNL     1      -0.826   8.758  10.043  1.00  0.00     0.023 A 
ATOM     86  C   UNL     1       0.053   9.831   9.794  1.00  0.00     0.012 A 
ATOM     87  C   UNL     1      -1.680   8.803  11.160  1.00  0.00     0.148 A 
ATOM     88  C   UNL     1       0.104  10.919  10.662  1.00  0.00     0.002 A 
ATOM     89  C   UNL     1      -1.649   9.909  12.002  1.00  0.00     0.091 A 
ATOM     90  F   UNL     1      -2.488   7.759  11.394  1.00  0.00    -0.205 F 
ATOM     91  C   UNL     1      -0.753  10.963  11.760  1.00  0.00     0.022 A 
BRANCH  89  92
ATOM     92  S   UNL     1      -2.768  10.070  13.397  1.00  0.00     0.127 S 
ATOM     93  O   UNL     1      -1.921   9.651  14.511  1.00  0.00    -0.237 OA
ATOM     94  O   UNL     1      -3.091  11.498  13.381  1.00  0.00    -0.237 OA
ATOM     95  O   UNL     1      -3.897   9.199  13.097  1.00  0.00    -0.744 OA
ENDBRANCH  89  92
ENDBRANCH  62  85
ENDBRANCH  36  37
ENDBRANCH  29  31
ENDBRANCH  28  29
ENDBRANCH   1  28
TORSDOF 16
