REMARK SMILES C[C@@H](C(=O)OCCOC(=O)c1ccc(-c2c3nc(c(-c4cccc(S(=O)(=O)[O-])c4F)c4ccc([nH]4)c(-c4cccc(S(=O)(=O)[O-])c4F)c4nc(c(-c5cccc(S(=O)(=O)[O-])c5F)c5ccc2[nH]5)C=C4)C=C3)cc1)[C@H](C)n1ncc2ccc([N+](=O)[O-])cc21
REMARK SMILES IDX 6 1 5 2 3 3 4 4 2 5 1 6 74 7 75 8 76 9 77 10 87 11 78 12
REMARK SMILES IDX 79 13 86 14 80 15 82 16 81 17 83 18 84 19 85 20 7 21 8 22
REMARK SMILES IDX 9 23 10 24 11 25 12 26 73 27 13 28 72 29 14 30 15 31 16 32
REMARK SMILES IDX 66 33 17 34 71 35 65 36 67 37 18 38 70 39 64 40 63 41 19 43
REMARK SMILES IDX 51 44 31 45 50 46 32 47 35 48 49 49 68 50 33 51 34 52 48 54
REMARK SMILES IDX 69 55 36 56 20 57 21 58 29 59 22 60 24 61 30 62 23 63 25 64
REMARK SMILES IDX 26 65 27 66 28 67 52 68 53 69 61 70 54 71 56 72 62 73 55 74
REMARK SMILES IDX 57 75 58 76 59 77 60 78 37 79 38 80 46 81 39 82 41 83 47 84
REMARK SMILES IDX 40 85 42 86 43 87 44 88 45 89
REMARK H PARENT 67 42 35 53
REMARK Flexibility Score: inf
ROOT
ATOM      1  C   UNL     1      -4.339  -4.369  -0.658  1.00  0.00     0.274 C 
ENDROOT
BRANCH   1   2
ATOM      2  O   UNL     1      -3.228  -3.507  -0.937  1.00  0.00    -0.462 OA
BRANCH   2   3
ATOM      3  C   UNL     1      -3.433  -2.196  -0.686  1.00  0.00     0.310 C 
ATOM      4  O   UNL     1      -4.518  -1.673  -0.460  1.00  0.00    -0.252 OA
BRANCH   3   5
ATOM      5  C   UNL     1      -2.148  -1.432  -0.561  1.00  0.00     0.120 C 
ATOM      6  C   UNL     1      -0.879  -2.191  -0.995  1.00  0.00     0.022 C 
BRANCH   5   7
ATOM      7  C   UNL     1      -2.137  -0.890   0.880  1.00  0.00     0.119 C 
ATOM      8  C   UNL     1      -0.778  -0.076   1.046  1.00  0.00     0.034 C 
BRANCH   7   9
ATOM      9  N   UNL     1      -2.292  -2.051   1.864  1.00  0.00    -0.261 N 
ATOM     10  N   UNL     1      -0.572  -2.655   2.176  1.00  0.00    -0.180 NA
ATOM     11  C   UNL     1      -3.369  -2.084   3.385  1.00  0.00     0.075 A 
ATOM     12  C   UNL     1      -0.398  -2.966   3.851  1.00  0.00     0.143 A 
ATOM     13  C   UNL     1      -2.327  -2.654   4.753  1.00  0.00     0.020 A 
ATOM     14  C   UNL     1      -4.568  -1.459   3.900  1.00  0.00     0.114 A 
ATOM     15  C   UNL     1      -3.062  -2.930   5.999  1.00  0.00     0.019 A 
ATOM     16  C   UNL     1      -4.977  -1.660   5.306  1.00  0.00     0.271 A 
ATOM     17  C   UNL     1      -4.327  -2.467   6.245  1.00  0.00     0.086 A 
BRANCH  16  18
ATOM     18  N   UNL     1      -6.079  -0.867   5.919  1.00  0.00     0.062 N 
ATOM     19  O   UNL     1      -6.386  -1.120   7.094  1.00  0.00    -0.258 OA
ATOM     20  O   UNL     1      -6.600   0.007   5.219  1.00  0.00    -0.258 OA
ENDBRANCH  16  18
ENDBRANCH   7   9
ENDBRANCH   5   7
ENDBRANCH   3   5
ENDBRANCH   2   3
ENDBRANCH   1   2
BRANCH   1  21
ATOM     21  C   UNL     1      -3.976  -5.271   0.517  1.00  0.00     0.275 C 
BRANCH  21  22
ATOM     22  O   UNL     1      -3.646  -4.458   1.669  1.00  0.00    -0.458 OA
BRANCH  22  23
ATOM     23  C   UNL     1      -2.342  -4.527   2.051  1.00  0.00     0.338 C 
ATOM     24  O   UNL     1      -1.527  -5.316   1.591  1.00  0.00    -0.246 OA
BRANCH  23  25
ATOM     25  C   UNL     1      -1.973  -3.578   3.231  1.00  0.00     0.060 A 
ATOM     26  C   UNL     1      -1.473  -1.567   3.551  1.00  0.00     0.016 A 
ATOM     27  C   UNL     1      -1.456  -4.639   4.568  1.00  0.00     0.016 A 
ATOM     28  C   UNL     1      -0.693  -1.010   4.832  1.00  0.00     0.010 A 
ATOM     29  C   UNL     1      -0.697  -3.820   5.910  1.00  0.00     0.010 A 
ATOM     30  C   UNL     1      -0.483  -2.058   5.991  1.00  0.00    -0.014 A 
BRANCH  30  31
ATOM     31  C   UNL     1      -0.446  -1.239   7.220  1.00  0.00     0.031 A 
ATOM     32  C   UNL     1       0.784  -1.450   7.963  1.00  0.00     0.074 A 
ATOM     33  C   UNL     1      -1.335  -0.230   7.489  1.00  0.00     0.049 A 
ATOM     34  N   UNL     1       1.143  -0.907   9.072  1.00  0.00    -0.248 NA
ATOM     35  C   UNL     1       1.746  -2.395   7.361  1.00  0.00     0.031 C 
ATOM     36  C   UNL     1      -2.472   0.218   6.649  1.00  0.00     0.029 A 
ATOM     37  N   UNL     1      -1.415   0.666   8.529  1.00  0.00    -0.354 N 
ATOM     38  C   UNL     1       2.363  -1.479   9.327  1.00  0.00     0.074 A 
ATOM     39  C   UNL     1       2.634  -2.478   8.325  1.00  0.00     0.031 C 
ATOM     40  C   UNL     1      -3.147   1.223   7.220  1.00  0.00     0.029 A 
ATOM     41  C   UNL     1      -2.516   1.512   8.482  1.00  0.00     0.049 A 
ATOM     42  H   UNL     1      -0.745   0.705   9.249  1.00  0.00     0.167 HD
ATOM     43  C   UNL     1       3.206  -1.135  10.306  1.00  0.00     0.034 A 
ATOM     44  C   UNL     1      -2.970   2.419   9.368  1.00  0.00     0.034 A 
ATOM     45  C   UNL     1       2.874  -0.154  11.281  1.00  0.00     0.049 A 
ATOM     46  C   UNL     1      -2.096   2.617  10.568  1.00  0.00     0.074 A 
ATOM     47  C   UNL     1       3.583   0.194  12.405  1.00  0.00     0.029 A 
ATOM     48  N   UNL     1       1.709   0.605  11.264  1.00  0.00    -0.354 N 
ATOM     49  N   UNL     1      -0.944   2.046  10.830  1.00  0.00    -0.248 NA
ATOM     50  C   UNL     1      -2.536   3.592  11.568  1.00  0.00     0.031 C 
ATOM     51  C   UNL     1       2.807   1.109  13.114  1.00  0.00     0.029 A 
ATOM     52  C   UNL     1       1.664   1.407  12.381  1.00  0.00     0.049 A 
ATOM     53  H   UNL     1       1.021   0.572  10.560  1.00  0.00     0.167 HD
ATOM     54  C   UNL     1      -0.493   2.623  12.000  1.00  0.00     0.074 A 
ATOM     55  C   UNL     1      -1.494   3.602  12.388  1.00  0.00     0.031 C 
ATOM     56  C   UNL     1       0.643   2.374  12.692  1.00  0.00     0.034 A 
BRANCH  43  57
ATOM     57  C   UNL     1       4.437  -1.959  10.376  1.00  0.00     0.023 A 
ATOM     58  C   UNL     1       5.420  -1.883   9.367  1.00  0.00     0.012 A 
ATOM     59  C   UNL     1       4.503  -2.949  11.362  1.00  0.00     0.148 A 
ATOM     60  C   UNL     1       6.439  -2.829   9.321  1.00  0.00     0.002 A 
ATOM     61  C   UNL     1       5.561  -3.834  11.355  1.00  0.00     0.091 A 
ATOM     62  F   UNL     1       3.492  -3.048  12.236  1.00  0.00    -0.205 F 
ATOM     63  C   UNL     1       6.519  -3.792  10.325  1.00  0.00     0.022 A 
BRANCH  61  64
ATOM     64  S   UNL     1       5.771  -5.053  12.645  1.00  0.00     0.127 S 
ATOM     65  O   UNL     1       5.758  -6.300  11.880  1.00  0.00    -0.237 OA
ATOM     66  O   UNL     1       7.074  -4.677  13.190  1.00  0.00    -0.237 OA
ATOM     67  O   UNL     1       4.647  -4.882  13.555  1.00  0.00    -0.744 OA
ENDBRANCH  61  64
ENDBRANCH  43  57
BRANCH  44  68
ATOM     68  C   UNL     1      -4.255   3.178   9.193  1.00  0.00     0.023 A 
ATOM     69  C   UNL     1      -4.244   4.585   9.082  1.00  0.00     0.012 A 
ATOM     70  C   UNL     1      -5.504   2.518   9.218  1.00  0.00     0.148 A 
ATOM     71  C   UNL     1      -5.437   5.317   9.061  1.00  0.00     0.002 A 
ATOM     72  C   UNL     1      -6.690   3.250   9.160  1.00  0.00     0.091 A 
ATOM     73  F   UNL     1      -5.508   1.182   9.322  1.00  0.00    -0.205 F 
ATOM     74  C   UNL     1      -6.657   4.651   9.101  1.00  0.00     0.022 A 
BRANCH  72  75
ATOM     75  S   UNL     1      -8.324   2.495   9.177  1.00  0.00     0.127 S 
ATOM     76  O   UNL     1      -8.911   3.081  10.382  1.00  0.00    -0.237 OA
ATOM     77  O   UNL     1      -8.891   2.987   7.922  1.00  0.00    -0.237 OA
ATOM     78  O   UNL     1      -8.101   1.059   9.239  1.00  0.00    -0.744 OA
ENDBRANCH  72  75
ENDBRANCH  44  68
BRANCH  56  79
ATOM     79  C   UNL     1       0.892   3.222  13.899  1.00  0.00     0.023 A 
ATOM     80  C   UNL     1       0.116   3.057  15.059  1.00  0.00     0.012 A 
ATOM     81  C   UNL     1       1.986   4.106  13.895  1.00  0.00     0.148 A 
ATOM     82  C   UNL     1       0.410   3.796  16.200  1.00  0.00     0.002 A 
ATOM     83  C   UNL     1       2.317   4.779  15.054  1.00  0.00     0.091 A 
ATOM     84  F   UNL     1       2.697   4.240  12.765  1.00  0.00    -0.205 F 
ATOM     85  C   UNL     1       1.520   4.641  16.203  1.00  0.00     0.022 A 
BRANCH  83  86
ATOM     86  S   UNL     1       3.793   5.787  15.179  1.00  0.00     0.127 S 
ATOM     87  O   UNL     1       3.223   7.122  15.351  1.00  0.00    -0.237 OA
ATOM     88  O   UNL     1       4.437   5.236  16.372  1.00  0.00    -0.237 OA
ATOM     89  O   UNL     1       4.533   5.584  13.941  1.00  0.00    -0.744 OA
ENDBRANCH  83  86
ENDBRANCH  56  79
ENDBRANCH  30  31
ENDBRANCH  23  25
ENDBRANCH  22  23
ENDBRANCH  21  22
ENDBRANCH   1  21
TORSDOF 17
