REMARK SMILES O=C(C[C@H]1C(=O)NCC[N@H+]1[C@H]1CCO[C@@]2(CCSC2)C1)OCCOC(=O)c1ccc(-c2c3nc(c(-c4cccc(S(=O)(=O)[O-])c4F)c4ccc([nH]4)c(-c4cccc(S(=O)(=O)[O-])c4F)c4nc(c(-c5cccc(S(=O)(=O)[O-])c5F)c5ccc2[nH]5)C=C4)C=C3)cc1
REMARK SMILES IDX 23 1 22 2 21 3 2 4 1 5 3 6 4 7 5 8 10 9 6 10 7 11 9 12 8 14
REMARK SMILES IDX 11 16 12 17 20 18 13 19 15 20 14 21 16 22 19 23 17 24 18 25
REMARK SMILES IDX 24 26 25 27 26 28 27 29 28 30 89 31 29 32 88 33 30 34 31 35
REMARK SMILES IDX 32 36 82 37 33 38 87 39 81 40 83 41 34 42 86 43 80 44 79 45
REMARK SMILES IDX 35 47 67 48 47 49 66 50 48 51 51 52 65 53 84 54 49 55 50 56
REMARK SMILES IDX 64 58 85 59 52 60 36 61 37 62 45 63 38 64 40 65 46 66 39 67
REMARK SMILES IDX 41 68 42 69 43 70 44 71 68 72 69 73 77 74 70 75 72 76 78 77
REMARK SMILES IDX 71 78 73 79 74 80 75 81 76 82 53 83 54 84 62 85 55 86 57 87
REMARK SMILES IDX 63 88 56 89 58 90 59 91 60 92 61 93
REMARK H PARENT 10 13 7 15 83 46 51 57
REMARK Flexibility Score: inf
ROOT
ATOM      1  C   UNL     1      -1.293   1.353  -0.343  1.00  0.00     0.275 C 
ENDROOT
BRANCH   1   2
ATOM      2  C   UNL     1      -0.545   2.361   0.532  1.00  0.00     0.274 C 
BRANCH   2   3
ATOM      3  O   UNL     1      -0.158   1.704   1.756  1.00  0.00    -0.462 OA
BRANCH   3   4
ATOM      4  C   UNL     1      -0.184   2.254   2.983  1.00  0.00     0.312 C 
ATOM      5  O   UNL     1      -0.171   1.537   3.984  1.00  0.00    -0.252 OA
BRANCH   4   6
ATOM      6  C   UNL     1      -0.199   3.737   3.116  1.00  0.00     0.198 C 
BRANCH   6   7
ATOM      7  C   UNL     1       1.075   4.505   2.711  1.00  0.00     0.285 C 
ATOM      8  C   UNL     1       0.854   5.879   3.399  1.00  0.00     0.279 C 
ATOM      9  N   UNL     1       2.444   4.019   3.044  1.00  0.00    -0.320 N 
ATOM     10  O   UNL     1       0.153   6.751   2.890  1.00  0.00    -0.268 OA
ATOM     11  N   UNL     1       1.322   6.024   4.680  1.00  0.00    -0.345 N 
ATOM     12  C   UNL     1       2.607   3.877   4.501  1.00  0.00     0.284 C 
ATOM     13  H   UNL     1       3.024   4.784   2.698  1.00  0.00     0.349 HD
ATOM     14  C   UNL     1       2.393   5.218   5.221  1.00  0.00     0.177 C 
ATOM     15  H   UNL     1       0.910   6.708   5.256  1.00  0.00     0.163 HD
BRANCH   9  16
ATOM     16  C   UNL     1       3.107   2.966   2.228  1.00  0.00     0.189 C 
ATOM     17  C   UNL     1       2.947   1.530   2.758  1.00  0.00     0.093 C 
ATOM     18  C   UNL     1       3.022   3.151   0.689  1.00  0.00     0.101 C 
ATOM     19  C   UNL     1       2.845   0.411   1.739  1.00  0.00     0.167 C 
ATOM     20  C   UNL     1       3.203   1.857  -0.131  1.00  0.00     0.084 C 
ATOM     21  O   UNL     1       2.397   0.838   0.464  1.00  0.00    -0.374 OA
ATOM     22  C   UNL     1       2.679   1.986  -1.576  1.00  0.00     0.047 C 
ATOM     23  C   UNL     1       4.666   1.418  -0.298  1.00  0.00     0.105 C 
ATOM     24  C   UNL     1       3.688   2.743  -2.413  1.00  0.00     0.072 C 
ATOM     25  S   UNL     1       5.305   2.222  -1.796  1.00  0.00    -0.159 SA
ENDBRANCH   9  16
ENDBRANCH   6   7
ENDBRANCH   4   6
ENDBRANCH   3   4
ENDBRANCH   2   3
ENDBRANCH   1   2
BRANCH   1  26
ATOM     26  O   UNL     1      -2.661   1.333   0.081  1.00  0.00    -0.458 OA
BRANCH  26  27
ATOM     27  C   UNL     1      -2.841   0.679   1.255  1.00  0.00     0.338 C 
ATOM     28  O   UNL     1      -2.370  -0.406   1.547  1.00  0.00    -0.246 OA
BRANCH  27  29
ATOM     29  C   UNL     1      -3.506   1.606   2.205  1.00  0.00     0.060 A 
ATOM     30  C   UNL     1      -3.362   1.363   3.577  1.00  0.00     0.016 A 
ATOM     31  C   UNL     1      -4.214   2.731   1.760  1.00  0.00     0.016 A 
ATOM     32  C   UNL     1      -4.003   2.184   4.503  1.00  0.00     0.010 A 
ATOM     33  C   UNL     1      -4.855   3.554   2.680  1.00  0.00     0.010 A 
ATOM     34  C   UNL     1      -4.808   3.235   4.046  1.00  0.00    -0.014 A 
BRANCH  34  35
ATOM     35  C   UNL     1      -5.880   3.762   4.914  1.00  0.00     0.031 A 
ATOM     36  C   UNL     1      -7.210   3.059   4.841  1.00  0.00     0.074 A 
ATOM     37  C   UNL     1      -5.705   4.857   5.671  1.00  0.00     0.049 A 
ATOM     38  N   UNL     1      -8.338   3.348   5.431  1.00  0.00    -0.248 NA
ATOM     39  C   UNL     1      -7.280   1.874   3.963  1.00  0.00     0.031 C 
ATOM     40  C   UNL     1      -4.466   5.623   5.782  1.00  0.00     0.029 A 
ATOM     41  N   UNL     1      -6.596   5.533   6.461  1.00  0.00    -0.354 N 
ATOM     42  C   UNL     1      -9.248   2.399   4.979  1.00  0.00     0.074 A 
ATOM     43  C   UNL     1      -8.556   1.538   4.051  1.00  0.00     0.031 C 
ATOM     44  C   UNL     1      -4.687   6.692   6.570  1.00  0.00     0.029 A 
ATOM     45  C   UNL     1      -6.083   6.687   7.003  1.00  0.00     0.049 A 
ATOM     46  H   UNL     1      -7.516   5.223   6.625  1.00  0.00     0.167 HD
ATOM     47  C   UNL     1     -10.547   2.247   5.319  1.00  0.00     0.034 A 
ATOM     48  C   UNL     1      -6.689   7.631   7.750  1.00  0.00     0.034 A 
ATOM     49  C   UNL     1     -11.225   3.108   6.242  1.00  0.00     0.049 A 
ATOM     50  C   UNL     1      -8.139   7.438   8.122  1.00  0.00     0.074 A 
ATOM     51  C   UNL     1     -12.527   3.033   6.696  1.00  0.00     0.029 A 
ATOM     52  N   UNL     1     -10.648   4.217   6.842  1.00  0.00    -0.354 N 
ATOM     53  N   UNL     1      -8.951   6.457   7.804  1.00  0.00    -0.248 NA
ATOM     54  C   UNL     1      -8.746   8.460   8.986  1.00  0.00     0.031 C 
ATOM     55  C   UNL     1     -12.743   4.110   7.562  1.00  0.00     0.029 A 
ATOM     56  C   UNL     1     -11.568   4.841   7.661  1.00  0.00     0.049 A 
ATOM     57  H   UNL     1      -9.720   4.516   6.704  1.00  0.00     0.167 HD
ATOM     58  C   UNL     1     -10.150   6.723   8.458  1.00  0.00     0.074 A 
ATOM     59  C   UNL     1      -9.952   7.950   9.203  1.00  0.00     0.031 C 
ATOM     60  C   UNL     1     -11.314   6.027   8.438  1.00  0.00     0.034 A 
BRANCH  47  61
ATOM     61  C   UNL     1     -11.291   1.091   4.708  1.00  0.00     0.023 A 
ATOM     62  C   UNL     1     -11.002  -0.223   5.135  1.00  0.00     0.012 A 
ATOM     63  C   UNL     1     -12.276   1.297   3.724  1.00  0.00     0.148 A 
ATOM     64  C   UNL     1     -11.658  -1.314   4.568  1.00  0.00     0.002 A 
ATOM     65  C   UNL     1     -12.955   0.207   3.194  1.00  0.00     0.091 A 
ATOM     66  F   UNL     1     -12.512   2.550   3.308  1.00  0.00    -0.205 F 
ATOM     67  C   UNL     1     -12.640  -1.099   3.606  1.00  0.00     0.022 A 
BRANCH  65  68
ATOM     68  S   UNL     1     -14.281   0.382   1.995  1.00  0.00     0.127 S 
ATOM     69  O   UNL     1     -13.653  -0.139   0.781  1.00  0.00    -0.237 OA
ATOM     70  O   UNL     1     -15.322  -0.478   2.560  1.00  0.00    -0.237 OA
ATOM     71  O   UNL     1     -14.613   1.800   1.968  1.00  0.00    -0.744 OA
ENDBRANCH  65  68
ENDBRANCH  47  61
BRANCH  48  72
ATOM     72  C   UNL     1      -5.915   8.805   8.246  1.00  0.00     0.023 A 
ATOM     73  C   UNL     1      -5.616   8.903   9.620  1.00  0.00     0.012 A 
ATOM     74  C   UNL     1      -5.454   9.808   7.372  1.00  0.00     0.148 A 
ATOM     75  C   UNL     1      -4.899   9.992  10.117  1.00  0.00     0.002 A 
ATOM     76  C   UNL     1      -4.698  10.866   7.867  1.00  0.00     0.091 A 
ATOM     77  F   UNL     1      -5.761   9.707   6.071  1.00  0.00    -0.205 F 
ATOM     78  C   UNL     1      -4.432  10.967   9.241  1.00  0.00     0.022 A 
BRANCH  76  79
ATOM     79  S   UNL     1      -3.954  12.106   6.800  1.00  0.00     0.127 S 
ATOM     80  O   UNL     1      -4.756  13.286   7.108  1.00  0.00    -0.237 OA
ATOM     81  O   UNL     1      -2.579  12.148   7.300  1.00  0.00    -0.237 OA
ATOM     82  O   UNL     1      -4.084  11.587   5.446  1.00  0.00    -0.744 OA
ENDBRANCH  76  79
ENDBRANCH  48  72
BRANCH  60  83
ATOM     83  C   UNL     1     -12.454   6.545   9.273  1.00  0.00     0.023 A 
ATOM     84  C   UNL     1     -13.178   7.673   8.843  1.00  0.00     0.012 A 
ATOM     85  C   UNL     1     -12.873   5.845  10.421  1.00  0.00     0.148 A 
ATOM     86  C   UNL     1     -14.290   8.112   9.559  1.00  0.00     0.002 A 
ATOM     87  C   UNL     1     -14.010   6.260  11.102  1.00  0.00     0.091 A 
ATOM     88  F   UNL     1     -12.158   4.783  10.820  1.00  0.00    -0.205 F 
ATOM     89  C   UNL     1     -14.714   7.399  10.678  1.00  0.00     0.022 A 
BRANCH  87  90
ATOM     90  S   UNL     1     -14.683   5.339  12.489  1.00  0.00     0.127 S 
ATOM     91  O   UNL     1     -14.293   6.178  13.621  1.00  0.00    -0.237 OA
ATOM     92  O   UNL     1     -16.117   5.338  12.197  1.00  0.00    -0.237 OA
ATOM     93  O   UNL     1     -14.058   4.024  12.438  1.00  0.00    -0.744 OA
ENDBRANCH  87  90
ENDBRANCH  60  83
ENDBRANCH  34  35
ENDBRANCH  27  29
ENDBRANCH  26  27
ENDBRANCH   1  26
TORSDOF 16
