REMARK SMILES NC(=O)c1ccc(NC(=O)Cc2ccccc2C(=O)OCCOC(=O)c2ccc(-c3c4nc(c(-c5cccc(S(=O)(=O)[O-])c5F)c5ccc([nH]5)c(-c5cccc(S(=O)(=O)[O-])c5F)c5nc(c(-c6cccc(S(=O)(=O)[O-])c6F)c6ccc3[nH]6)C=C5)C=C4)cc2)cc1
REMARK SMILES IDX 21 1 20 2 18 3 19 4 17 5 12 6 13 7 14 8 16 9 15 10 11 11
REMARK SMILES IDX 9 12 8 13 10 15 7 16 4 17 5 18 90 19 6 20 89 21 2 22 1 23
REMARK SMILES IDX 3 26 22 27 23 28 24 29 25 30 26 31 27 32 88 33 28 34 87 35
REMARK SMILES IDX 29 36 30 37 31 38 81 39 32 40 86 41 80 42 82 43 33 44 85 45
REMARK SMILES IDX 79 46 78 47 34 49 66 50 46 51 65 52 47 53 50 54 64 55 83 56
REMARK SMILES IDX 48 57 49 58 63 60 84 61 51 62 35 63 36 64 44 65 37 66 39 67
REMARK SMILES IDX 45 68 38 69 40 70 41 71 42 72 43 73 67 74 68 75 76 76 69 77
REMARK SMILES IDX 71 78 77 79 70 80 72 81 73 82 74 83 75 84 52 85 53 86 61 87
REMARK SMILES IDX 54 88 56 89 62 90 55 91 57 92 58 93 59 94 60 95
REMARK H PARENT 8 14 1 24 1 25 82 48 50 59
REMARK Flexibility Score: inf
ROOT
ATOM      1  C   UNL     1       2.598  -6.453  -8.224  1.00  0.00     0.275 C 
ENDROOT
BRANCH   1   2
ATOM      2  O   UNL     1       1.842  -5.508  -7.439  1.00  0.00    -0.458 OA
BRANCH   2   3
ATOM      3  C   UNL     1       0.522  -5.717  -7.297  1.00  0.00     0.338 C 
ATOM      4  O   UNL     1      -0.104  -6.661  -7.762  1.00  0.00    -0.246 OA
BRANCH   3   5
ATOM      5  C   UNL     1      -0.123  -4.670  -6.451  1.00  0.00     0.063 A 
ATOM      6  C   UNL     1       0.225  -3.306  -6.455  1.00  0.00    -0.024 A 
ATOM      7  C   UNL     1      -0.684  -2.403  -5.861  1.00  0.00     0.005 A 
ATOM      8  C   UNL     1      -1.756  -2.838  -5.082  1.00  0.00     0.000 A 
ATOM      9  C   UNL     1      -1.238  -5.090  -5.695  1.00  0.00     0.016 A 
ATOM     10  C   UNL     1      -2.005  -4.192  -4.958  1.00  0.00     0.001 A 
BRANCH   6  11
ATOM     11  C   UNL     1       1.501  -2.740  -7.052  1.00  0.00     0.136 C 
BRANCH  11  12
ATOM     12  C   UNL     1       2.820  -3.167  -6.395  1.00  0.00     0.228 C 
ATOM     13  N   UNL     1       3.018  -3.216  -5.043  1.00  0.00    -0.326 N 
ATOM     14  H   UNL     1       3.747  -3.819  -4.773  1.00  0.00     0.169 HD
ATOM     15  O   UNL     1       3.779  -3.484  -7.114  1.00  0.00    -0.274 OA
BRANCH  13  16
ATOM     16  C   UNL     1       2.389  -2.577  -3.963  1.00  0.00     0.041 A 
ATOM     17  C   UNL     1       1.126  -1.419  -1.745  1.00  0.00     0.039 A 
ATOM     18  C   UNL     1       0.930  -0.889  -3.016  1.00  0.00     0.016 A 
ATOM     19  C   UNL     1       1.995  -2.496  -1.558  1.00  0.00     0.016 A 
ATOM     20  C   UNL     1       1.610  -1.433  -4.105  1.00  0.00     0.027 A 
ATOM     21  C   UNL     1       2.616  -3.079  -2.673  1.00  0.00     0.027 A 
BRANCH  17  22
ATOM     22  C   UNL     1       0.415  -0.779  -0.624  1.00  0.00     0.248 C 
ATOM     23  N   UNL     1       1.207  -0.256   0.354  1.00  0.00    -0.366 N 
ATOM     24  H   UNL     1       0.799   0.187   1.133  1.00  0.00     0.159 HD
ATOM     25  H   UNL     1       2.186  -0.321   0.282  1.00  0.00     0.159 HD
ATOM     26  O   UNL     1      -0.800  -0.647  -0.627  1.00  0.00    -0.270 OA
ENDBRANCH  17  22
ENDBRANCH  13  16
ENDBRANCH  11  12
ENDBRANCH   6  11
ENDBRANCH   3   5
ENDBRANCH   2   3
ENDBRANCH   1   2
BRANCH   1  27
ATOM     27  C   UNL     1       3.551  -7.245  -7.330  1.00  0.00     0.275 C 
BRANCH  27  28
ATOM     28  O   UNL     1       2.813  -8.184  -6.527  1.00  0.00    -0.458 OA
BRANCH  28  29
ATOM     29  C   UNL     1       2.526  -7.756  -5.277  1.00  0.00     0.338 C 
ATOM     30  O   UNL     1       2.897  -6.727  -4.738  1.00  0.00    -0.246 OA
BRANCH  29  31
ATOM     31  C   UNL     1       1.548  -8.661  -4.657  1.00  0.00     0.060 A 
ATOM     32  C   UNL     1       0.209  -8.312  -4.772  1.00  0.00     0.016 A 
ATOM     33  C   UNL     1       1.930  -9.701  -3.819  1.00  0.00     0.016 A 
ATOM     34  C   UNL     1      -0.747  -8.890  -3.948  1.00  0.00     0.010 A 
ATOM     35  C   UNL     1       0.948 -10.364  -3.068  1.00  0.00     0.010 A 
ATOM     36  C   UNL     1      -0.392  -9.924  -3.076  1.00  0.00    -0.014 A 
BRANCH  36  37
ATOM     37  C   UNL     1      -1.404 -10.481  -2.131  1.00  0.00     0.031 A 
ATOM     38  C   UNL     1      -1.129 -10.478  -0.647  1.00  0.00     0.074 A 
ATOM     39  C   UNL     1      -2.575 -10.972  -2.587  1.00  0.00     0.049 A 
ATOM     40  N   UNL     1      -1.791 -11.058   0.321  1.00  0.00    -0.248 NA
ATOM     41  C   UNL     1       0.063  -9.742  -0.192  1.00  0.00     0.031 C 
ATOM     42  C   UNL     1      -2.991 -11.010  -3.991  1.00  0.00     0.029 A 
ATOM     43  N   UNL     1      -3.632 -11.541  -1.918  1.00  0.00    -0.354 N 
ATOM     44  C   UNL     1      -1.051 -10.837   1.478  1.00  0.00     0.074 A 
ATOM     45  C   UNL     1       0.109 -10.063   1.093  1.00  0.00     0.031 C 
ATOM     46  C   UNL     1      -4.215 -11.550  -4.077  1.00  0.00     0.029 A 
ATOM     47  C   UNL     1      -4.634 -11.984  -2.751  1.00  0.00     0.049 A 
ATOM     48  H   UNL     1      -3.668 -11.625  -0.937  1.00  0.00     0.167 HD
ATOM     49  C   UNL     1      -1.315 -11.237   2.745  1.00  0.00     0.034 A 
ATOM     50  C   UNL     1      -5.742 -12.705  -2.491  1.00  0.00     0.034 A 
ATOM     51  C   UNL     1      -2.509 -11.940   3.132  1.00  0.00     0.049 A 
ATOM     52  C   UNL     1      -6.019 -13.126  -1.076  1.00  0.00     0.074 A 
ATOM     53  C   UNL     1      -2.895 -12.352   4.395  1.00  0.00     0.029 A 
ATOM     54  N   UNL     1      -3.517 -12.328   2.261  1.00  0.00    -0.354 N 
ATOM     55  N   UNL     1      -5.321 -12.887   0.007  1.00  0.00    -0.248 NA
ATOM     56  C   UNL     1      -7.245 -13.901  -0.844  1.00  0.00     0.031 C 
ATOM     57  C   UNL     1      -4.122 -13.015   4.284  1.00  0.00     0.029 A 
ATOM     58  C   UNL     1      -4.522 -12.976   2.958  1.00  0.00     0.049 A 
ATOM     59  H   UNL     1      -3.517 -12.166   1.290  1.00  0.00     0.167 HD
ATOM     60  C   UNL     1      -6.041 -13.449   1.055  1.00  0.00     0.074 A 
ATOM     61  C   UNL     1      -7.239 -14.023   0.476  1.00  0.00     0.031 C 
ATOM     62  C   UNL     1      -5.733 -13.496   2.374  1.00  0.00     0.034 A 
BRANCH  49  63
ATOM     63  C   UNL     1      -0.291 -10.925   3.809  1.00  0.00     0.023 A 
ATOM     64  C   UNL     1      -0.094  -9.598   4.243  1.00  0.00     0.012 A 
ATOM     65  C   UNL     1       0.452 -11.962   4.410  1.00  0.00     0.148 A 
ATOM     66  C   UNL     1       0.856  -9.303   5.221  1.00  0.00     0.002 A 
ATOM     67  C   UNL     1       1.360 -11.666   5.420  1.00  0.00     0.091 A 
ATOM     68  F   UNL     1       0.267 -13.216   3.975  1.00  0.00    -0.205 F 
ATOM     69  C   UNL     1       1.575 -10.337   5.816  1.00  0.00     0.022 A 
BRANCH  67  70
ATOM     70  S   UNL     1       2.272 -12.936   6.306  1.00  0.00     0.127 S 
ATOM     71  O   UNL     1       3.632 -12.718   5.816  1.00  0.00    -0.237 OA
ATOM     72  O   UNL     1       2.059 -12.549   7.702  1.00  0.00    -0.237 OA
ATOM     73  O   UNL     1       1.667 -14.205   5.928  1.00  0.00    -0.744 OA
ENDBRANCH  67  70
ENDBRANCH  49  63
BRANCH  50  74
ATOM     74  C   UNL     1      -6.670 -13.070  -3.600  1.00  0.00     0.023 A 
ATOM     75  C   UNL     1      -7.957 -12.502  -3.648  1.00  0.00     0.012 A 
ATOM     76  C   UNL     1      -6.270 -13.951  -4.626  1.00  0.00     0.148 A 
ATOM     77  C   UNL     1      -8.839 -12.825  -4.681  1.00  0.00     0.002 A 
ATOM     78  C   UNL     1      -7.129 -14.218  -5.684  1.00  0.00     0.091 A 
ATOM     79  F   UNL     1      -5.047 -14.494  -4.555  1.00  0.00    -0.205 F 
ATOM     80  C   UNL     1      -8.421 -13.671  -5.705  1.00  0.00     0.022 A 
BRANCH  78  81
ATOM     81  S   UNL     1      -6.626 -15.182  -7.114  1.00  0.00     0.127 S 
ATOM     82  O   UNL     1      -7.435 -16.389  -6.959  1.00  0.00    -0.237 OA
ATOM     83  O   UNL     1      -7.024 -14.311  -8.220  1.00  0.00    -0.237 OA
ATOM     84  O   UNL     1      -5.188 -15.366  -6.980  1.00  0.00    -0.744 OA
ENDBRANCH  78  81
ENDBRANCH  50  74
BRANCH  62  85
ATOM     85  C   UNL     1      -6.738 -14.132   3.297  1.00  0.00     0.023 A 
ATOM     86  C   UNL     1      -6.937 -15.527   3.279  1.00  0.00     0.012 A 
ATOM     87  C   UNL     1      -7.450 -13.344   4.222  1.00  0.00     0.148 A 
ATOM     88  C   UNL     1      -7.862 -16.121   4.138  1.00  0.00     0.002 A 
ATOM     89  C   UNL     1      -8.329 -13.948   5.112  1.00  0.00     0.091 A 
ATOM     90  F   UNL     1      -7.263 -12.016   4.210  1.00  0.00    -0.205 F 
ATOM     91  C   UNL     1      -8.548 -15.334   5.060  1.00  0.00     0.022 A 
BRANCH  89  92
ATOM     92  S   UNL     1      -9.174 -13.026   6.400  1.00  0.00     0.127 S 
ATOM     93  O   UNL     1     -10.543 -12.988   5.889  1.00  0.00    -0.237 OA
ATOM     94  O   UNL     1      -8.984 -13.883   7.571  1.00  0.00    -0.237 OA
ATOM     95  O   UNL     1      -8.499 -11.738   6.480  1.00  0.00    -0.744 OA
ENDBRANCH  89  92
ENDBRANCH  62  85
ENDBRANCH  36  37
ENDBRANCH  29  31
ENDBRANCH  28  29
ENDBRANCH  27  28
ENDBRANCH   1  27
TORSDOF 18
