REMARK SMILES CS(=O)(=O)c1ccc(/C=C(/C(=O)OCCOC(=O)c2ccc(-c3c4nc(c(-c5cccc(S(=O)(=O)[O-])c5F)c5ccc([nH]5)c(-c5cccc(S(=O)(=O)[O-])c5F)c5nc(c(-c6cccc(S(=O)(=O)[O-])c6F)c6ccc3[nH]6)C=C5)C=C4)cc2)c2cccc(Br)c2)cc1
REMARK SMILES IDX 15 1 14 2 13 3 11 4 12 5 10 6 9 7 8 8 5 9 6 10 90 11 7 12
REMARK SMILES IDX 89 13 2 14 1 15 3 16 4 17 82 18 83 19 88 20 84 21 86 22
REMARK SMILES IDX 85 23 87 24 16 25 17 26 18 27 19 28 20 29 81 30 21 31 80 32
REMARK SMILES IDX 22 33 23 34 24 35 74 36 25 37 79 38 73 39 75 40 26 41 78 42
REMARK SMILES IDX 72 43 71 44 27 46 59 47 39 48 58 49 40 50 43 51 57 52 76 53
REMARK SMILES IDX 41 54 42 55 56 57 77 58 44 59 28 60 29 61 37 62 30 63 32 64
REMARK SMILES IDX 38 65 31 66 33 67 34 68 35 69 36 70 60 71 61 72 69 73 62 74
REMARK SMILES IDX 64 75 70 76 63 77 65 78 66 79 67 80 68 81 45 82 46 83 54 84
REMARK SMILES IDX 47 85 49 86 55 87 48 88 50 89 51 90 52 91 53 92
REMARK H PARENT 75 45 43 56
REMARK Flexibility Score: inf
ROOT
ATOM      1  C   UNL     1       2.073   4.969  10.333  1.00  0.00     0.275 C 
ENDROOT
BRANCH   1   2
ATOM      2  C   UNL     1       2.764   5.436   9.054  1.00  0.00     0.275 C 
BRANCH   2   3
ATOM      3  O   UNL     1       2.178   4.799   7.899  1.00  0.00    -0.458 OA
BRANCH   3   4
ATOM      4  C   UNL     1       2.893   3.767   7.380  1.00  0.00     0.338 C 
ATOM      5  O   UNL     1       3.989   3.391   7.771  1.00  0.00    -0.246 OA
BRANCH   4   6
ATOM      6  C   UNL     1       2.168   3.098   6.259  1.00  0.00     0.067 C 
ATOM      7  C   UNL     1       1.617   3.874   5.298  1.00  0.00     0.024 C 
BRANCH   7   8
ATOM      8  C   UNL     1       1.116   3.429   3.980  1.00  0.00    -0.025 A 
ATOM      9  C   UNL     1       0.513   2.523   1.395  1.00  0.00     0.067 A 
ATOM     10  C   UNL     1       0.072   1.799   2.499  1.00  0.00     0.021 A 
ATOM     11  C   UNL     1       1.171   3.742   1.565  1.00  0.00     0.021 A 
ATOM     12  C   UNL     1       0.351   2.272   3.783  1.00  0.00     0.009 A 
ATOM     13  C   UNL     1       1.471   4.189   2.855  1.00  0.00     0.009 A 
BRANCH   9  14
ATOM     14  S   UNL     1       0.263   1.865  -0.234  1.00  0.00     0.175 S 
ATOM     15  C   UNL     1       1.051   0.273  -0.190  1.00  0.00     0.163 C 
ATOM     16  O   UNL     1       1.010   2.693  -1.160  1.00  0.00    -0.224 OA
ATOM     17  O   UNL     1      -1.167   1.672  -0.396  1.00  0.00    -0.224 OA
ENDBRANCH   9  14
ENDBRANCH   7   8
BRANCH   6  18
ATOM     18  C   UNL     1       2.246   1.627   6.156  1.00  0.00    -0.010 A 
ATOM     19  C   UNL     1       1.220   0.843   6.708  1.00  0.00     0.009 A 
ATOM     20  C   UNL     1       3.284   1.004   5.455  1.00  0.00     0.024 A 
ATOM     21  C   UNL     1       1.214  -0.543   6.534  1.00  0.00     0.002 A 
ATOM     22  C   UNL     1       3.274  -0.383   5.292  1.00  0.00     0.018 A 
ATOM     23  C   UNL     1       2.244  -1.158   5.825  1.00  0.00     0.016 A 
ATOM     24  Br  UNL     1       4.657  -1.216   4.309  1.00  0.00    -0.051 Br
ENDBRANCH   6  18
ENDBRANCH   4   6
ENDBRANCH   3   4
ENDBRANCH   2   3
ENDBRANCH   1   2
BRANCH   1  25
ATOM     25  O   UNL     1       2.292   3.560  10.510  1.00  0.00    -0.458 OA
BRANCH  25  26
ATOM     26  C   UNL     1       1.184   2.790  10.590  1.00  0.00     0.338 C 
ATOM     27  O   UNL     1       0.021   3.173  10.602  1.00  0.00    -0.246 OA
BRANCH  26  28
ATOM     28  C   UNL     1       1.552   1.362  10.622  1.00  0.00     0.060 A 
ATOM     29  C   UNL     1       2.491   0.860   9.726  1.00  0.00     0.016 A 
ATOM     30  C   UNL     1       0.850   0.484  11.450  1.00  0.00     0.016 A 
ATOM     31  C   UNL     1       2.625  -0.519   9.562  1.00  0.00     0.010 A 
ATOM     32  C   UNL     1       1.079  -0.896  11.361  1.00  0.00     0.010 A 
ATOM     33  C   UNL     1       1.923  -1.427  10.371  1.00  0.00    -0.014 A 
BRANCH  33  34
ATOM     34  C   UNL     1       2.035  -2.906  10.149  1.00  0.00     0.031 A 
ATOM     35  C   UNL     1       0.796  -3.769  10.028  1.00  0.00     0.074 A 
ATOM     36  C   UNL     1       3.242  -3.503  10.043  1.00  0.00     0.049 A 
ATOM     37  N   UNL     1       0.693  -5.075  10.043  1.00  0.00    -0.248 NA
ATOM     38  C   UNL     1      -0.498  -3.079   9.893  1.00  0.00     0.031 C 
ATOM     39  C   UNL     1       4.535  -2.823  10.121  1.00  0.00     0.029 A 
ATOM     40  N   UNL     1       3.581  -4.822   9.846  1.00  0.00    -0.354 N 
ATOM     41  C   UNL     1      -0.670  -5.356  10.032  1.00  0.00     0.074 A 
ATOM     42  C   UNL     1      -1.358  -4.085   9.976  1.00  0.00     0.031 C 
ATOM     43  C   UNL     1       5.518  -3.709   9.914  1.00  0.00     0.029 A 
ATOM     44  C   UNL     1       4.940  -5.042   9.807  1.00  0.00     0.049 A 
ATOM     45  H   UNL     1       2.915  -5.540   9.742  1.00  0.00     0.167 HD
ATOM     46  C   UNL     1      -1.293  -6.560  10.061  1.00  0.00     0.034 A 
ATOM     47  C   UNL     1       5.657  -6.183   9.745  1.00  0.00     0.034 A 
ATOM     48  C   UNL     1      -0.617  -7.829   9.992  1.00  0.00     0.049 A 
ATOM     49  C   UNL     1       4.944  -7.503   9.727  1.00  0.00     0.074 A 
ATOM     50  C   UNL     1      -1.173  -9.097   9.960  1.00  0.00     0.029 A 
ATOM     51  N   UNL     1       0.756  -7.995   9.916  1.00  0.00    -0.354 N 
ATOM     52  N   UNL     1       3.655  -7.742   9.715  1.00  0.00    -0.248 NA
ATOM     53  C   UNL     1       5.781  -8.711   9.720  1.00  0.00     0.031 C 
ATOM     54  C   UNL     1      -0.135 -10.030   9.862  1.00  0.00     0.029 A 
ATOM     55  C   UNL     1       1.066  -9.342   9.826  1.00  0.00     0.049 A 
ATOM     56  H   UNL     1       1.415  -7.263   9.924  1.00  0.00     0.167 HD
ATOM     57  C   UNL     1       3.527  -9.126   9.696  1.00  0.00     0.074 A 
ATOM     58  C   UNL     1       4.868  -9.672   9.659  1.00  0.00     0.031 C 
ATOM     59  C   UNL     1       2.400  -9.875   9.738  1.00  0.00     0.034 A 
BRANCH  46  60
ATOM     60  C   UNL     1      -2.799  -6.581  10.138  1.00  0.00     0.023 A 
ATOM     61  C   UNL     1      -3.566  -6.306   8.990  1.00  0.00     0.012 A 
ATOM     62  C   UNL     1      -3.449  -6.969  11.328  1.00  0.00     0.148 A 
ATOM     63  C   UNL     1      -4.957  -6.396   9.029  1.00  0.00     0.002 A 
ATOM     64  C   UNL     1      -4.834  -7.096  11.348  1.00  0.00     0.091 A 
ATOM     65  F   UNL     1      -2.705  -7.206  12.417  1.00  0.00    -0.205 F 
ATOM     66  C   UNL     1      -5.590  -6.802  10.202  1.00  0.00     0.022 A 
BRANCH  64  67
ATOM     67  S   UNL     1      -5.723  -7.696  12.790  1.00  0.00     0.127 S 
ATOM     68  O   UNL     1      -6.270  -6.455  13.337  1.00  0.00    -0.237 OA
ATOM     69  O   UNL     1      -6.718  -8.590  12.195  1.00  0.00    -0.237 OA
ATOM     70  O   UNL     1      -4.729  -8.366  13.617  1.00  0.00    -0.744 OA
ENDBRANCH  64  67
ENDBRANCH  46  60
BRANCH  47  71
ATOM     71  C   UNL     1       7.145  -6.110   9.697  1.00  0.00     0.023 A 
ATOM     72  C   UNL     1       7.818  -6.469   8.514  1.00  0.00     0.012 A 
ATOM     73  C   UNL     1       7.890  -5.613  10.784  1.00  0.00     0.148 A 
ATOM     74  C   UNL     1       9.204  -6.336   8.416  1.00  0.00     0.002 A 
ATOM     75  C   UNL     1       9.259  -5.413  10.654  1.00  0.00     0.091 A 
ATOM     76  F   UNL     1       7.241  -5.311  11.918  1.00  0.00    -0.205 F 
ATOM     77  C   UNL     1       9.921  -5.788   9.477  1.00  0.00     0.022 A 
BRANCH  75  78
ATOM     78  S   UNL     1      10.201  -4.539  11.911  1.00  0.00     0.127 S 
ATOM     79  O   UNL     1      10.806  -5.639  12.654  1.00  0.00    -0.237 OA
ATOM     80  O   UNL     1      11.136  -3.750  11.107  1.00  0.00    -0.237 OA
ATOM     81  O   UNL     1       9.219  -3.738  12.630  1.00  0.00    -0.744 OA
ENDBRANCH  75  78
ENDBRANCH  47  71
BRANCH  59  82
ATOM     82  C   UNL     1       2.558 -11.371   9.735  1.00  0.00     0.023 A 
ATOM     83  C   UNL     1       2.961 -12.025  10.916  1.00  0.00     0.012 A 
ATOM     84  C   UNL     1       2.243 -12.132   8.593  1.00  0.00     0.148 A 
ATOM     85  C   UNL     1       3.071 -13.414  10.953  1.00  0.00     0.002 A 
ATOM     86  C   UNL     1       2.320 -13.519   8.648  1.00  0.00     0.091 A 
ATOM     87  F   UNL     1       1.882 -11.487   7.474  1.00  0.00    -0.205 F 
ATOM     88  C   UNL     1       2.741 -14.161   9.824  1.00  0.00     0.022 A 
BRANCH  86  89
ATOM     89  S   UNL     1       1.841 -14.562   7.266  1.00  0.00     0.127 S 
ATOM     90  O   UNL     1       3.141 -14.993   6.754  1.00  0.00    -0.237 OA
ATOM     91  O   UNL     1       1.064 -15.614   7.922  1.00  0.00    -0.237 OA
ATOM     92  O   UNL     1       1.067 -13.710   6.374  1.00  0.00    -0.744 OA
ENDBRANCH  86  89
ENDBRANCH  59  82
ENDBRANCH  33  34
ENDBRANCH  26  28
ENDBRANCH  25  26
ENDBRANCH   1  25
TORSDOF 17
