REMARK SMILES O=C(NCc1ccsc1)NC[C@H]1CC[C@@H](C(=O)OCCOC(=O)c2ccc(-c3c4nc(c(-c5cccc(S(=O)(=O)[O-])c5F)c5ccc([nH]5)c(-c5cccc(S(=O)(=O)[O-])c5F)c5nc(c(-c6cccc(S(=O)(=O)[O-])c6F)c6ccc3[nH]6)C=C5)C=C4)cc2)CC1
REMARK SMILES IDX 19 1 18 2 16 3 17 4 15 5 12 6 13 7 88 8 14 9 87 10 11 11
REMARK SMILES IDX 10 12 1 13 2 14 3 15 4 18 5 19 6 20 9 21 7 22 8 23 20 24
REMARK SMILES IDX 21 25 22 26 23 27 24 28 25 29 86 30 26 31 85 32 27 33 28 34
REMARK SMILES IDX 29 35 79 36 30 37 84 38 78 39 80 40 31 41 83 42 77 43 76 44
REMARK SMILES IDX 32 46 64 47 44 48 63 49 45 50 48 51 62 52 81 53 46 54 47 55
REMARK SMILES IDX 61 57 82 58 49 59 33 60 34 61 42 62 35 63 37 64 43 65 36 66
REMARK SMILES IDX 38 67 39 68 40 69 41 70 65 71 66 72 74 73 67 74 69 75 75 76
REMARK SMILES IDX 68 77 70 78 71 79 72 80 73 81 50 82 51 83 59 84 52 85 54 86
REMARK SMILES IDX 60 87 53 88 55 89 56 90 57 91 58 92
REMARK H PARENT 3 16 10 17 80 45 48 56
REMARK Flexibility Score: inf
ROOT
ATOM      1  C   UNL     1      -1.379   5.218  -1.105  1.00  0.00     0.274 C 
ENDROOT
BRANCH   1   2
ATOM      2  O   UNL     1       0.046   5.007  -1.131  1.00  0.00    -0.462 OA
BRANCH   2   3
ATOM      3  C   UNL     1       0.788   5.901  -1.830  1.00  0.00     0.309 C 
ATOM      4  O   UNL     1       0.329   6.835  -2.476  1.00  0.00    -0.252 OA
BRANCH   3   5
ATOM      5  C   UNL     1       2.281   5.591  -1.797  1.00  0.00     0.099 C 
ATOM      6  C   UNL     1       2.877   2.668  -1.915  1.00  0.00     0.008 C 
ATOM      7  C   UNL     1       2.314   3.435  -3.119  1.00  0.00     0.006 C 
ATOM      8  C   UNL     1       2.490   3.333  -0.586  1.00  0.00     0.006 C 
ATOM      9  C   UNL     1       2.710   4.906  -3.091  1.00  0.00     0.015 C 
ATOM     10  C   UNL     1       2.779   4.833  -0.562  1.00  0.00     0.015 C 
BRANCH   6  11
ATOM     11  C   UNL     1       2.397   1.209  -1.968  1.00  0.00     0.121 C 
BRANCH  11  12
ATOM     12  N   UNL     1       3.071   0.396  -0.978  1.00  0.00    -0.338 N 
ATOM     13  O   UNL     1       1.190  -0.239   0.145  1.00  0.00    -0.249 OA
ATOM     14  C   UNL     1       2.412  -0.228   0.032  1.00  0.00     0.315 C 
ATOM     15  N   UNL     1       3.164  -0.862   0.960  1.00  0.00    -0.334 N 
ATOM     16  H   UNL     1       2.647  -1.337   1.650  1.00  0.00     0.165 HD
ATOM     17  H   UNL     1       4.047   0.290  -1.040  1.00  0.00     0.165 HD
BRANCH  15  18
ATOM     18  C   UNL     1       4.596  -0.960   1.110  1.00  0.00     0.154 C 
BRANCH  18  19
ATOM     19  C   UNL     1       4.971  -0.432   2.457  1.00  0.00    -0.018 A 
ATOM     20  C   UNL     1       5.471  -1.233   3.538  1.00  0.00     0.017 A 
ATOM     21  C   UNL     1       4.896   0.899   2.832  1.00  0.00     0.070 A 
ATOM     22  C   UNL     1       5.756  -0.491   4.662  1.00  0.00     0.065 A 
ATOM     23  S   UNL     1       5.423   1.169   4.435  1.00  0.00    -0.152 S 
ENDBRANCH  18  19
ENDBRANCH  15  18
ENDBRANCH  11  12
ENDBRANCH   6  11
ENDBRANCH   3   5
ENDBRANCH   2   3
ENDBRANCH   1   2
BRANCH   1  24
ATOM     24  C   UNL     1      -1.829   5.749   0.256  1.00  0.00     0.275 C 
BRANCH  24  25
ATOM     25  O   UNL     1      -1.307   7.068   0.490  1.00  0.00    -0.458 OA
BRANCH  25  26
ATOM     26  C   UNL     1      -0.167   7.113   1.216  1.00  0.00     0.338 C 
ATOM     27  O   UNL     1       0.414   6.182   1.746  1.00  0.00    -0.246 OA
BRANCH  26  28
ATOM     28  C   UNL     1       0.381   8.475   1.169  1.00  0.00     0.060 A 
ATOM     29  C   UNL     1       1.571   8.680   0.467  1.00  0.00     0.016 A 
ATOM     30  C   UNL     1      -0.224   9.518   1.870  1.00  0.00     0.016 A 
ATOM     31  C   UNL     1       2.173   9.934   0.465  1.00  0.00     0.010 A 
ATOM     32  C   UNL     1       0.381  10.777   1.868  1.00  0.00     0.010 A 
ATOM     33  C   UNL     1       1.589  10.988   1.179  1.00  0.00    -0.014 A 
BRANCH  33  34
ATOM     34  C   UNL     1       2.280  12.295   1.259  1.00  0.00     0.031 A 
ATOM     35  C   UNL     1       2.964  12.695   2.534  1.00  0.00     0.074 A 
ATOM     36  C   UNL     1       2.281  13.119   0.196  1.00  0.00     0.049 A 
ATOM     37  N   UNL     1       3.553  13.821   2.837  1.00  0.00    -0.248 NA
ATOM     38  C   UNL     1       2.984  11.693   3.613  1.00  0.00     0.031 C 
ATOM     39  C   UNL     1       1.663  12.827  -1.097  1.00  0.00     0.029 A 
ATOM     40  N   UNL     1       2.804  14.378   0.043  1.00  0.00    -0.354 N 
ATOM     41  C   UNL     1       3.975  13.684   4.154  1.00  0.00     0.074 A 
ATOM     42  C   UNL     1       3.575  12.364   4.592  1.00  0.00     0.031 C 
ATOM     43  C   UNL     1       1.825  13.886  -1.907  1.00  0.00     0.029 A 
ATOM     44  C   UNL     1       2.525  14.941  -1.180  1.00  0.00     0.049 A 
ATOM     45  H   UNL     1       3.327  14.834   0.741  1.00  0.00     0.167 HD
ATOM     46  C   UNL     1       4.646  14.574   4.922  1.00  0.00     0.034 A 
ATOM     47  C   UNL     1       2.785  16.177  -1.649  1.00  0.00     0.034 A 
ATOM     48  C   UNL     1       5.072  15.870   4.468  1.00  0.00     0.049 A 
ATOM     49  C   UNL     1       3.523  17.151  -0.771  1.00  0.00     0.074 A 
ATOM     50  C   UNL     1       5.795  16.829   5.154  1.00  0.00     0.029 A 
ATOM     51  N   UNL     1       4.811  16.391   3.208  1.00  0.00    -0.354 N 
ATOM     52  N   UNL     1       3.998  16.975   0.439  1.00  0.00    -0.248 NA
ATOM     53  C   UNL     1       3.781  18.486  -1.329  1.00  0.00     0.031 C 
ATOM     54  C   UNL     1       5.960  17.936   4.313  1.00  0.00     0.029 A 
ATOM     55  C   UNL     1       5.353  17.660   3.099  1.00  0.00     0.049 A 
ATOM     56  H   UNL     1       4.315  15.925   2.497  1.00  0.00     0.167 HD
ATOM     57  C   UNL     1       4.634  18.164   0.777  1.00  0.00     0.074 A 
ATOM     58  C   UNL     1       4.502  19.046  -0.366  1.00  0.00     0.031 C 
ATOM     59  C   UNL     1       5.256  18.503   1.933  1.00  0.00     0.034 A 
BRANCH  46  60
ATOM     60  C   UNL     1       4.982  14.160   6.330  1.00  0.00     0.023 A 
ATOM     61  C   UNL     1       6.014  13.226   6.552  1.00  0.00     0.012 A 
ATOM     62  C   UNL     1       4.302  14.715   7.431  1.00  0.00     0.148 A 
ATOM     63  C   UNL     1       6.343  12.828   7.847  1.00  0.00     0.002 A 
ATOM     64  C   UNL     1       4.661  14.341   8.721  1.00  0.00     0.091 A 
ATOM     65  F   UNL     1       3.304  15.579   7.199  1.00  0.00    -0.205 F 
ATOM     66  C   UNL     1       5.674  13.391   8.931  1.00  0.00     0.022 A 
BRANCH  64  67
ATOM     67  S   UNL     1       3.899  15.066  10.177  1.00  0.00     0.127 S 
ATOM     68  O   UNL     1       2.976  14.010  10.586  1.00  0.00    -0.237 OA
ATOM     69  O   UNL     1       5.044  15.254  11.070  1.00  0.00    -0.237 OA
ATOM     70  O   UNL     1       3.282  16.305   9.724  1.00  0.00    -0.744 OA
ENDBRANCH  64  67
ENDBRANCH  46  60
BRANCH  47  71
ATOM     71  C   UNL     1       2.380  16.541  -3.036  1.00  0.00     0.023 A 
ATOM     72  C   UNL     1       3.371  16.709  -4.021  1.00  0.00     0.012 A 
ATOM     73  C   UNL     1       1.024  16.673  -3.394  1.00  0.00     0.148 A 
ATOM     74  C   UNL     1       3.021  17.020  -5.336  1.00  0.00     0.002 A 
ATOM     75  C   UNL     1       0.680  16.931  -4.716  1.00  0.00     0.091 A 
ATOM     76  F   UNL     1       0.097  16.530  -2.437  1.00  0.00    -0.205 F 
ATOM     77  C   UNL     1       1.677  17.118  -5.686  1.00  0.00     0.022 A 
BRANCH  75  78
ATOM     78  S   UNL     1      -1.026  16.948  -5.281  1.00  0.00     0.127 S 
ATOM     79  O   UNL     1      -1.243  18.370  -5.533  1.00  0.00    -0.237 OA
ATOM     80  O   UNL     1      -0.956  16.113  -6.482  1.00  0.00    -0.237 OA
ATOM     81  O   UNL     1      -1.804  16.369  -4.194  1.00  0.00    -0.744 OA
ENDBRANCH  75  78
ENDBRANCH  47  71
BRANCH  59  82
ATOM     82  C   UNL     1       5.864  19.878   2.020  1.00  0.00     0.023 A 
ATOM     83  C   UNL     1       5.027  20.998   2.188  1.00  0.00     0.012 A 
ATOM     84  C   UNL     1       7.262  20.052   2.014  1.00  0.00     0.148 A 
ATOM     85  C   UNL     1       5.571  22.274   2.325  1.00  0.00     0.002 A 
ATOM     86  C   UNL     1       7.798  21.321   2.194  1.00  0.00     0.091 A 
ATOM     87  F   UNL     1       8.041  18.976   1.831  1.00  0.00    -0.205 F 
ATOM     88  C   UNL     1       6.955  22.435   2.340  1.00  0.00     0.022 A 
BRANCH  86  89
ATOM     89  S   UNL     1       9.569  21.603   2.317  1.00  0.00     0.127 S 
ATOM     90  O   UNL     1       9.876  22.153   0.998  1.00  0.00    -0.237 OA
ATOM     91  O   UNL     1       9.658  22.567   3.415  1.00  0.00    -0.237 OA
ATOM     92  O   UNL     1      10.158  20.304   2.611  1.00  0.00    -0.744 OA
ENDBRANCH  86  89
ENDBRANCH  59  82
ENDBRANCH  33  34
ENDBRANCH  26  28
ENDBRANCH  25  26
ENDBRANCH  24  25
ENDBRANCH   1  24
TORSDOF 18
