REMARK SMILES CCNC(=O)NC(=O)[C@@H](C)[NH2+][C@](C)(CC)C(=O)OCCOC(=O)c1ccc(-c2c3nc(c(-c4cccc(S(=O)(=O)[O-])c4F)c4ccc([nH]4)c(-c4cccc(S(=O)(=O)[O-])c4F)c4nc(c(-c5cccc(S(=O)(=O)[O-])c5F)c5ccc2[nH]5)C=C4)C=C3)cc1
REMARK SMILES IDX 19 1 18 2 16 3 17 4 12 5 13 6 11 7 9 10 10 11 7 12 3 13 4 14
REMARK SMILES IDX 5 16 6 17 8 19 2 20 1 21 14 22 15 23 20 24 21 25 22 26 23 27
REMARK SMILES IDX 24 28 25 29 86 30 26 31 85 32 27 33 28 34 29 35 79 36 30 37
REMARK SMILES IDX 84 38 78 39 80 40 31 41 83 42 77 43 76 44 32 46 64 47 44 48
REMARK SMILES IDX 63 49 45 50 48 51 62 52 81 53 46 54 47 55 61 57 82 58 49 59
REMARK SMILES IDX 33 60 34 61 42 62 35 63 37 64 43 65 36 66 38 67 39 68 40 69
REMARK SMILES IDX 41 70 65 71 66 72 74 73 67 74 69 75 75 76 68 77 70 78 71 79
REMARK SMILES IDX 72 80 73 81 50 82 51 83 59 84 52 85 54 86 60 87 53 88 55 89
REMARK SMILES IDX 56 90 57 91 58 92
REMARK H PARENT 11 8 11 9 3 15 6 18 80 45 48 56
REMARK Flexibility Score: inf
ROOT
ATOM      1  C   UNL     1       0.124  -5.221  -1.488  1.00  0.00     0.274 C 
ENDROOT
BRANCH   1   2
ATOM      2  O   UNL     1       0.787  -4.529  -0.408  1.00  0.00    -0.457 OA
BRANCH   2   3
ATOM      3  C   UNL     1       0.351  -3.260  -0.155  1.00  0.00     0.367 C 
ATOM      4  O   UNL     1      -0.603  -2.756  -0.740  1.00  0.00    -0.245 OA
BRANCH   3   5
ATOM      5  C   UNL     1       1.265  -2.475   0.845  1.00  0.00     0.191 C 
ATOM      6  C   UNL     1       0.421  -1.716   1.888  1.00  0.00     0.092 C 
BRANCH   5   7
ATOM      7  N   UNL     1       2.134  -1.564   0.017  1.00  0.00    -0.322 N 
ATOM      8  H   UNL     1       3.022  -1.467   0.509  1.00  0.00     0.347 HD
ATOM      9  H   UNL     1       2.171  -2.018  -0.896  1.00  0.00     0.347 HD
BRANCH   7  10
ATOM     10  C   UNL     1       1.647  -0.195  -0.281  1.00  0.00     0.270 C 
ATOM     11  C   UNL     1       0.322   0.093  -0.997  1.00  0.00     0.086 C 
BRANCH  10  12
ATOM     12  C   UNL     1       2.729   0.597  -1.026  1.00  0.00     0.285 C 
ATOM     13  N   UNL     1       3.122  -1.946  -3.260  1.00  0.00    -0.338 N 
ATOM     14  C   UNL     1       3.827  -0.865  -2.941  1.00  0.00     0.321 C 
ATOM     15  H   UNL     1       3.657  -2.605  -3.760  1.00  0.00     0.165 HD
ATOM     16  O   UNL     1       4.957  -0.783  -3.440  1.00  0.00    -0.248 OA
ATOM     17  N   UNL     1       3.439   0.169  -2.139  1.00  0.00    -0.273 N 
ATOM     18  H   UNL     1       3.848   0.977  -2.525  1.00  0.00     0.175 HD
ATOM     19  O   UNL     1       3.032   1.728  -0.612  1.00  0.00    -0.268 OA
BRANCH  13  20
ATOM     20  C   UNL     1       1.770  -2.387  -3.053  1.00  0.00     0.114 C 
ATOM     21  C   UNL     1       0.892  -2.213  -4.275  1.00  0.00     0.027 C 
ENDBRANCH  13  20
ENDBRANCH  10  12
ENDBRANCH   7  10
ENDBRANCH   5   7
BRANCH   5  22
ATOM     22  C   UNL     1       2.242  -3.424   1.613  1.00  0.00     0.077 C 
ATOM     23  C   UNL     1       1.604  -4.456   2.546  1.00  0.00     0.011 C 
ENDBRANCH   5  22
ENDBRANCH   3   5
ENDBRANCH   2   3
ENDBRANCH   1   2
BRANCH   1  24
ATOM     24  C   UNL     1      -1.024  -6.101  -1.007  1.00  0.00     0.275 C 
BRANCH  24  25
ATOM     25  O   UNL     1      -1.998  -5.295  -0.332  1.00  0.00    -0.458 OA
BRANCH  25  26
ATOM     26  C   UNL     1      -2.416  -5.767   0.863  1.00  0.00     0.338 C 
ATOM     27  O   UNL     1      -2.134  -6.837   1.372  1.00  0.00    -0.246 OA
BRANCH  26  28
ATOM     28  C   UNL     1      -3.254  -4.755   1.529  1.00  0.00     0.060 A 
ATOM     29  C   UNL     1      -2.752  -3.471   1.735  1.00  0.00     0.016 A 
ATOM     30  C   UNL     1      -4.471  -5.128   2.091  1.00  0.00     0.016 A 
ATOM     31  C   UNL     1      -3.401  -2.588   2.590  1.00  0.00     0.010 A 
ATOM     32  C   UNL     1      -5.167  -4.213   2.884  1.00  0.00     0.010 A 
ATOM     33  C   UNL     1      -4.608  -2.958   3.189  1.00  0.00    -0.014 A 
BRANCH  33  34
ATOM     34  C   UNL     1      -5.226  -2.094   4.227  1.00  0.00     0.031 A 
ATOM     35  C   UNL     1      -5.378  -2.628   5.627  1.00  0.00     0.074 A 
ATOM     36  C   UNL     1      -5.633  -0.845   3.934  1.00  0.00     0.049 A 
ATOM     37  N   UNL     1      -6.051  -2.135   6.632  1.00  0.00    -0.248 NA
ATOM     38  C   UNL     1      -4.695  -3.898   5.929  1.00  0.00     0.031 C 
ATOM     39  C   UNL     1      -5.494  -0.191   2.633  1.00  0.00     0.029 A 
ATOM     40  N   UNL     1      -6.252   0.098   4.716  1.00  0.00    -0.354 N 
ATOM     41  C   UNL     1      -5.957  -3.079   7.648  1.00  0.00     0.074 A 
ATOM     42  C   UNL     1      -5.138  -4.161   7.150  1.00  0.00     0.031 C 
ATOM     43  C   UNL     1      -5.993   1.052   2.710  1.00  0.00     0.029 A 
ATOM     44  C   UNL     1      -6.554   1.258   4.041  1.00  0.00     0.049 A 
ATOM     45  H   UNL     1      -6.461  -0.042   5.668  1.00  0.00     0.167 HD
ATOM     46  C   UNL     1      -6.503  -3.044   8.886  1.00  0.00     0.034 A 
ATOM     47  C   UNL     1      -7.238   2.348   4.441  1.00  0.00     0.034 A 
ATOM     48  C   UNL     1      -7.230  -1.920   9.409  1.00  0.00     0.049 A 
ATOM     49  C   UNL     1      -7.806   2.377   5.833  1.00  0.00     0.074 A 
ATOM     50  C   UNL     1      -7.785  -1.760  10.665  1.00  0.00     0.029 A 
ATOM     51  N   UNL     1      -7.482  -0.751   8.707  1.00  0.00    -0.354 N 
ATOM     52  N   UNL     1      -7.696   1.485   6.788  1.00  0.00    -0.248 NA
ATOM     53  C   UNL     1      -8.593   3.562   6.202  1.00  0.00     0.031 C 
ATOM     54  C   UNL     1      -8.373  -0.491  10.723  1.00  0.00     0.029 A 
ATOM     55  C   UNL     1      -8.182   0.139   9.502  1.00  0.00     0.049 A 
ATOM     56  H   UNL     1      -7.204  -0.579   7.778  1.00  0.00     0.167 HD
ATOM     57  C   UNL     1      -8.390   2.004   7.875  1.00  0.00     0.074 A 
ATOM     58  C   UNL     1      -8.887   3.304   7.470  1.00  0.00     0.031 C 
ATOM     59  C   UNL     1      -8.623   1.446   9.089  1.00  0.00     0.034 A 
BRANCH  46  60
ATOM     60  C   UNL     1      -6.319  -4.254   9.761  1.00  0.00     0.023 A 
ATOM     61  C   UNL     1      -5.080  -4.489  10.389  1.00  0.00     0.012 A 
ATOM     62  C   UNL     1      -7.385  -5.149   9.979  1.00  0.00     0.148 A 
ATOM     63  C   UNL     1      -4.896  -5.612  11.195  1.00  0.00     0.002 A 
ATOM     64  C   UNL     1      -7.205  -6.247  10.813  1.00  0.00     0.091 A 
ATOM     65  F   UNL     1      -8.547  -4.931   9.346  1.00  0.00    -0.205 F 
ATOM     66  C   UNL     1      -5.959  -6.485  11.416  1.00  0.00     0.022 A 
BRANCH  64  67
ATOM     67  S   UNL     1      -8.545  -7.380  11.198  1.00  0.00     0.127 S 
ATOM     68  O   UNL     1      -8.277  -8.482  10.276  1.00  0.00    -0.237 OA
ATOM     69  O   UNL     1      -8.300  -7.692  12.607  1.00  0.00    -0.237 OA
ATOM     70  O   UNL     1      -9.771  -6.631  10.956  1.00  0.00    -0.744 OA
ENDBRANCH  64  67
ENDBRANCH  46  60
BRANCH  47  71
ATOM     71  C   UNL     1      -7.393   3.506   3.516  1.00  0.00     0.023 A 
ATOM     72  C   UNL     1      -6.713   4.706   3.799  1.00  0.00     0.012 A 
ATOM     73  C   UNL     1      -8.153   3.413   2.334  1.00  0.00     0.148 A 
ATOM     74  C   UNL     1      -6.794   5.793   2.928  1.00  0.00     0.002 A 
ATOM     75  C   UNL     1      -8.180   4.478   1.440  1.00  0.00     0.091 A 
ATOM     76  F   UNL     1      -8.821   2.275   2.094  1.00  0.00    -0.205 F 
ATOM     77  C   UNL     1      -7.513   5.674   1.742  1.00  0.00     0.022 A 
BRANCH  75  78
ATOM     78  S   UNL     1      -8.956   4.343  -0.175  1.00  0.00     0.127 S 
ATOM     79  O   UNL     1     -10.211   5.057   0.033  1.00  0.00    -0.237 OA
ATOM     80  O   UNL     1      -7.992   5.028  -1.039  1.00  0.00    -0.237 OA
ATOM     81  O   UNL     1      -9.067   2.912  -0.429  1.00  0.00    -0.744 OA
ENDBRANCH  75  78
ENDBRANCH  47  71
BRANCH  59  82
ATOM     82  C   UNL     1      -9.447   2.241  10.063  1.00  0.00     0.023 A 
ATOM     83  C   UNL     1     -10.843   2.311   9.888  1.00  0.00     0.012 A 
ATOM     84  C   UNL     1      -8.854   2.867  11.175  1.00  0.00     0.148 A 
ATOM     85  C   UNL     1     -11.634   3.016  10.793  1.00  0.00     0.002 A 
ATOM     86  C   UNL     1      -9.655   3.536  12.095  1.00  0.00     0.091 A 
ATOM     87  F   UNL     1      -7.521   2.811  11.312  1.00  0.00    -0.205 F 
ATOM     88  C   UNL     1     -11.043   3.619  11.901  1.00  0.00     0.022 A 
BRANCH  86  89
ATOM     89  S   UNL     1      -8.965   4.261  13.586  1.00  0.00     0.127 S 
ATOM     90  O   UNL     1      -8.746   5.646  13.174  1.00  0.00    -0.237 OA
ATOM     91  O   UNL     1     -10.042   4.078  14.560  1.00  0.00    -0.237 OA
ATOM     92  O   UNL     1      -7.765   3.485  13.873  1.00  0.00    -0.744 OA
ENDBRANCH  86  89
ENDBRANCH  59  82
ENDBRANCH  33  34
ENDBRANCH  26  28
ENDBRANCH  25  26
ENDBRANCH  24  25
ENDBRANCH   1  24
TORSDOF 19
