REMARK SMILES O=C(Nc1ccc(F)cc1)N[C@H]1CCCCC[C@H]1C(=O)OCCOC(=O)c1ccc(-c2c3nc(c(-c4cccc(S(=O)(=O)[O-])c4F)c4ccc([nH]4)c(-c4cccc(S(=O)(=O)[O-])c4F)c4nc(c(-c5cccc(S(=O)(=O)[O-])c5F)c5ccc2[nH]5)C=C4)C=C3)cc1
REMARK SMILES IDX 22 1 21 2 19 3 20 4 18 5 12 6 11 7 1 8 2 9 3 10 4 13 5 14
REMARK SMILES IDX 10 15 6 16 9 17 7 18 8 19 13 20 14 21 17 23 16 24 15 25
REMARK SMILES IDX 23 27 24 28 25 29 26 30 27 31 28 32 89 33 29 34 88 35 30 36
REMARK SMILES IDX 31 37 32 38 82 39 33 40 87 41 81 42 83 43 34 44 86 45 80 46
REMARK SMILES IDX 79 47 35 49 67 50 47 51 66 52 48 53 51 54 65 55 84 56 49 57
REMARK SMILES IDX 50 58 64 60 85 61 52 62 36 63 37 64 45 65 38 66 40 67 46 68
REMARK SMILES IDX 39 69 41 70 42 71 43 72 44 73 68 74 69 75 77 76 70 77 72 78
REMARK SMILES IDX 78 79 71 80 73 81 74 82 75 83 76 84 53 85 54 86 62 87 55 88
REMARK SMILES IDX 57 89 63 90 56 91 58 92 59 93 60 94 61 95
REMARK H PARENT 3 11 11 12 83 48 51 59
REMARK Flexibility Score: 90.00
ROOT
ATOM      1  C   UNL     1      -1.529   4.578   2.570  1.00  0.00     0.274 C 
ENDROOT
BRANCH   1   2
ATOM      2  O   UNL     1      -0.200   4.417   2.028  1.00  0.00    -0.462 OA
BRANCH   2   3
ATOM      3  C   UNL     1       0.654   3.685   2.779  1.00  0.00     0.311 C 
ATOM      4  O   UNL     1       0.408   3.316   3.926  1.00  0.00    -0.252 OA
BRANCH   3   5
ATOM      5  C   UNL     1       1.959   3.298   2.091  1.00  0.00     0.121 C 
BRANCH   5   6
ATOM      6  C   UNL     1       2.190   3.539   0.572  1.00  0.00     0.098 C 
BRANCH   6   7
ATOM      7  N   UNL     1       1.037   3.270  -0.311  1.00  0.00    -0.334 N 
ATOM      8  O   UNL     1       0.875   5.222  -1.464  1.00  0.00    -0.248 OA
ATOM      9  C   UNL     1       0.559   4.040  -1.310  1.00  0.00     0.319 C 
ATOM     10  N   UNL     1      -0.238   3.522  -2.278  1.00  0.00    -0.308 N 
ATOM     11  H   UNL     1      -0.377   4.185  -2.992  1.00  0.00     0.171 HD
ATOM     12  H   UNL     1       0.559   2.424  -0.151  1.00  0.00     0.165 HD
BRANCH  10  13
ATOM     13  C   UNL     1      -0.929   2.333  -2.583  1.00  0.00     0.043 A 
ATOM     14  C   UNL     1      -1.119   1.238  -1.747  1.00  0.00     0.029 A 
ATOM     15  C   UNL     1      -1.529   2.286  -3.856  1.00  0.00     0.029 A 
ATOM     16  C   UNL     1      -1.958   0.175  -2.115  1.00  0.00     0.041 A 
ATOM     17  C   UNL     1      -2.326   1.206  -4.252  1.00  0.00     0.041 A 
ATOM     18  C   UNL     1      -2.556   0.169  -3.364  1.00  0.00     0.123 A 
ATOM     19  F   UNL     1      -3.355  -0.844  -3.716  1.00  0.00    -0.207 F 
ENDBRANCH  10  13
ENDBRANCH   6   7
BRANCH   6  20
ATOM     20  C   UNL     1       3.075   4.749   0.222  1.00  0.00     0.026 C 
BRANCH  20  21
ATOM     21  C   UNL     1       2.707   6.039   0.946  1.00  0.00     0.002 CG0
ATOM     22  G   UNL     1       3.482   6.211   2.250  1.00  0.00     0.000 G0
ENDBRANCH  20  21
ENDBRANCH   6  20
ENDBRANCH   5   6
BRANCH   5  23
ATOM     23  C   UNL     1       3.132   3.752   2.989  1.00  0.00     0.017 C 
BRANCH  23  24
ATOM     24  C   UNL     1       3.125   5.237   3.366  1.00  0.00     0.001 C 
BRANCH  24  25
ATOM     25  C   UNL     1       3.482   6.211   2.250  1.00  0.00     0.000 CG0
ATOM     26  G   UNL     1       2.707   6.039   0.946  1.00  0.00     0.000 G0
ENDBRANCH  24  25
ENDBRANCH  23  24
ENDBRANCH   5  23
ENDBRANCH   3   5
ENDBRANCH   2   3
ENDBRANCH   1   2
BRANCH   1  27
ATOM     27  C   UNL     1      -2.522   3.565   1.976  1.00  0.00     0.275 C 
BRANCH  27  28
ATOM     28  O   UNL     1      -2.420   2.235   2.535  1.00  0.00    -0.458 OA
BRANCH  28  29
ATOM     29  C   UNL     1      -1.417   1.498   2.018  1.00  0.00     0.338 C 
ATOM     30  O   UNL     1      -0.587   1.878   1.208  1.00  0.00    -0.246 OA
BRANCH  29  31
ATOM     31  C   UNL     1      -1.341   0.118   2.487  1.00  0.00     0.060 A 
ATOM     32  C   UNL     1      -0.063  -0.365   2.795  1.00  0.00     0.016 A 
ATOM     33  C   UNL     1      -2.436  -0.740   2.396  1.00  0.00     0.016 A 
ATOM     34  C   UNL     1       0.133  -1.722   2.998  1.00  0.00     0.010 A 
ATOM     35  C   UNL     1      -2.241  -2.103   2.621  1.00  0.00     0.010 A 
ATOM     36  C   UNL     1      -0.958  -2.596   2.914  1.00  0.00    -0.014 A 
BRANCH  36  37
ATOM     37  C   UNL     1      -0.761  -4.017   3.257  1.00  0.00     0.031 A 
ATOM     38  C   UNL     1      -0.672  -5.066   2.196  1.00  0.00     0.074 A 
ATOM     39  C   UNL     1      -0.667  -4.327   4.562  1.00  0.00     0.049 A 
ATOM     40  N   UNL     1      -0.533  -6.357   2.337  1.00  0.00    -0.248 NA
ATOM     41  C   UNL     1      -0.740  -4.615   0.797  1.00  0.00     0.031 C 
ATOM     42  C   UNL     1      -0.734  -3.354   5.655  1.00  0.00     0.029 A 
ATOM     43  N   UNL     1      -0.512  -5.531   5.191  1.00  0.00    -0.354 N 
ATOM     44  C   UNL     1      -0.521  -6.881   1.052  1.00  0.00     0.074 A 
ATOM     45  C   UNL     1      -0.663  -5.766   0.139  1.00  0.00     0.031 C 
ATOM     46  C   UNL     1      -0.631  -4.002   6.823  1.00  0.00     0.029 A 
ATOM     47  C   UNL     1      -0.530  -5.433   6.561  1.00  0.00     0.049 A 
ATOM     48  H   UNL     1      -0.398  -6.383   4.711  1.00  0.00     0.167 HD
ATOM     49  C   UNL     1      -0.388  -8.175   0.679  1.00  0.00     0.034 A 
ATOM     50  C   UNL     1      -0.492  -6.393   7.503  1.00  0.00     0.034 A 
ATOM     51  C   UNL     1      -0.225  -9.262   1.609  1.00  0.00     0.049 A 
ATOM     52  C   UNL     1      -0.366  -7.820   7.061  1.00  0.00     0.074 A 
ATOM     53  C   UNL     1      -0.047 -10.606   1.337  1.00  0.00     0.029 A 
ATOM     54  N   UNL     1      -0.227  -9.129   2.990  1.00  0.00    -0.354 N 
ATOM     55  N   UNL     1      -0.266  -8.293   5.841  1.00  0.00    -0.248 NA
ATOM     56  C   UNL     1      -0.329  -8.844   8.111  1.00  0.00     0.031 C 
ATOM     57  C   UNL     1       0.052 -11.287   2.555  1.00  0.00     0.029 A 
ATOM     58  C   UNL     1      -0.063 -10.366   3.586  1.00  0.00     0.049 A 
ATOM     59  H   UNL     1      -0.330  -8.278   3.475  1.00  0.00     0.167 HD
ATOM     60  C   UNL     1      -0.142  -9.668   5.973  1.00  0.00     0.074 A 
ATOM     61  C   UNL     1      -0.157  -9.950   7.396  1.00  0.00     0.031 C 
ATOM     62  C   UNL     1      -0.046 -10.613   5.006  1.00  0.00     0.034 A 
BRANCH  49  63
ATOM     63  C   UNL     1      -0.366  -8.489  -0.791  1.00  0.00     0.023 A 
ATOM     64  C   UNL     1       0.819  -8.275  -1.522  1.00  0.00     0.012 A 
ATOM     65  C   UNL     1      -1.478  -9.070  -1.431  1.00  0.00     0.148 A 
ATOM     66  C   UNL     1       0.896  -8.626  -2.870  1.00  0.00     0.002 A 
ATOM     67  C   UNL     1      -1.386  -9.442  -2.769  1.00  0.00     0.091 A 
ATOM     68  F   UNL     1      -2.606  -9.240  -0.726  1.00  0.00    -0.205 F 
ATOM     69  C   UNL     1      -0.202  -9.218  -3.490  1.00  0.00     0.022 A 
BRANCH  67  70
ATOM     70  S   UNL     1      -2.729 -10.265  -3.634  1.00  0.00     0.127 S 
ATOM     71  O   UNL     1      -3.268  -9.175  -4.447  1.00  0.00    -0.237 OA
ATOM     72  O   UNL     1      -2.026 -11.300  -4.393  1.00  0.00    -0.237 OA
ATOM     73  O   UNL     1      -3.615 -10.775  -2.597  1.00  0.00    -0.744 OA
ENDBRANCH  67  70
ENDBRANCH  49  63
BRANCH  50  74
ATOM     74  C   UNL     1      -0.515  -5.994   8.936  1.00  0.00     0.023 A 
ATOM     75  C   UNL     1       0.668  -6.074   9.691  1.00  0.00     0.012 A 
ATOM     76  C   UNL     1      -1.660  -5.405   9.509  1.00  0.00     0.148 A 
ATOM     77  C   UNL     1       0.715  -5.568  10.991  1.00  0.00     0.002 A 
ATOM     78  C   UNL     1      -1.591  -4.851  10.783  1.00  0.00     0.091 A 
ATOM     79  F   UNL     1      -2.785  -5.357   8.781  1.00  0.00    -0.205 F 
ATOM     80  C   UNL     1      -0.407  -4.940  11.529  1.00  0.00     0.022 A 
BRANCH  78  81
ATOM     81  S   UNL     1      -2.942  -3.881  11.465  1.00  0.00     0.127 S 
ATOM     82  O   UNL     1      -3.592  -4.848  12.344  1.00  0.00    -0.237 OA
ATOM     83  O   UNL     1      -2.233  -2.801  12.154  1.00  0.00    -0.237 OA
ATOM     84  O   UNL     1      -3.715  -3.439  10.311  1.00  0.00    -0.744 OA
ENDBRANCH  78  81
ENDBRANCH  50  74
BRANCH  62  85
ATOM     85  C   UNL     1       0.035 -12.046   5.449  1.00  0.00     0.023 A 
ATOM     86  C   UNL     1      -1.146 -12.710   5.833  1.00  0.00     0.012 A 
ATOM     87  C   UNL     1       1.247 -12.758   5.388  1.00  0.00     0.148 A 
ATOM     88  C   UNL     1      -1.120 -14.064   6.160  1.00  0.00     0.002 A 
ATOM     89  C   UNL     1       1.259 -14.116   5.681  1.00  0.00     0.091 A 
ATOM     90  F   UNL     1       2.362 -12.097   5.042  1.00  0.00    -0.205 F 
ATOM     91  C   UNL     1       0.078 -14.769   6.072  1.00  0.00     0.022 A 
BRANCH  89  92
ATOM     92  S   UNL     1       2.742 -15.116   5.513  1.00  0.00     0.127 S 
ATOM     93  O   UNL     1       3.162 -15.263   6.905  1.00  0.00    -0.237 OA
ATOM     94  O   UNL     1       2.228 -16.341   4.898  1.00  0.00    -0.237 OA
ATOM     95  O   UNL     1       3.641 -14.349   4.661  1.00  0.00    -0.744 OA
ENDBRANCH  89  92
ENDBRANCH  62  85
ENDBRANCH  36  37
ENDBRANCH  29  31
ENDBRANCH  28  29
ENDBRANCH  27  28
ENDBRANCH   1  27
TORSDOF 16
