REMARK SMILES N#Cc1cc([N+](=O)[O-])cnc1Oc1csc(C(=O)OCCOC(=O)c2ccc(-c3c4nc(c(-c5cccc(S(=O)(=O)[O-])c5F)c5ccc([nH]5)c(-c5cccc(S(=O)(=O)[O-])c5F)c5nc(c(-c6cccc(S(=O)(=O)[O-])c6F)c6ccc3[nH]6)C=C5)C=C4)cc2)c1
REMARK SMILES IDX 20 1 19 2 17 3 18 4 16 5 13 6 14 7 88 8 15 9 12 10 11 11
REMARK SMILES IDX 3 12 4 13 5 14 10 15 9 16 2 17 1 18 6 19 7 20 8 21 21 22
REMARK SMILES IDX 22 23 23 24 24 25 25 26 26 27 87 28 27 29 86 30 28 31 29 32
REMARK SMILES IDX 30 33 80 34 31 35 85 36 79 37 81 38 32 39 84 40 78 41 77 42
REMARK SMILES IDX 33 44 65 45 45 46 64 47 46 48 49 49 63 50 82 51 47 52 48 53
REMARK SMILES IDX 62 55 83 56 50 57 34 58 35 59 43 60 36 61 38 62 44 63 37 64
REMARK SMILES IDX 39 65 40 66 41 67 42 68 66 69 67 70 75 71 68 72 70 73 76 74
REMARK SMILES IDX 69 75 71 76 72 77 73 78 74 79 51 80 52 81 60 82 53 83 55 84
REMARK SMILES IDX 61 85 54 86 56 87 57 88 58 89 59 90
REMARK H PARENT 81 43 49 54
REMARK Flexibility Score: inf
ROOT
ATOM      1  C   UNL     1       5.673  -5.062  -3.002  1.00  0.00     0.275 C 
ENDROOT
BRANCH   1   2
ATOM      2  O   UNL     1       4.546  -4.542  -2.270  1.00  0.00    -0.458 OA
BRANCH   2   3
ATOM      3  C   UNL     1       4.651  -4.536  -0.905  1.00  0.00     0.348 C 
ATOM      4  O   UNL     1       5.604  -4.995  -0.291  1.00  0.00    -0.245 OA
BRANCH   3   5
ATOM      5  C   UNL     1       3.490  -3.882  -0.323  1.00  0.00     0.116 A 
ATOM      6  C   UNL     1       1.486  -2.714  -0.055  1.00  0.00     0.141 A 
ATOM      7  C   UNL     1       1.964  -2.689   1.234  1.00  0.00     0.112 A 
ATOM      8  C   UNL     1       2.339  -3.429  -0.940  1.00  0.00     0.074 A 
ATOM      9  S   UNL     1       3.433  -3.566   1.367  1.00  0.00    -0.133 S 
BRANCH   6  10
ATOM     10  O   UNL     1       0.308  -2.207  -0.472  1.00  0.00    -0.437 OA
BRANCH  10  11
ATOM     11  C   UNL     1      -0.195  -0.980  -0.127  1.00  0.00     0.237 A 
ATOM     12  C   UNL     1       0.532   0.212  -0.110  1.00  0.00     0.121 A 
ATOM     13  C   UNL     1      -0.175   1.421   0.009  1.00  0.00     0.112 A 
ATOM     14  C   UNL     1      -1.569   1.395   0.087  1.00  0.00     0.289 A 
ATOM     15  N   UNL     1      -1.553  -1.004  -0.025  1.00  0.00    -0.213 NA
ATOM     16  C   UNL     1      -2.214   0.173   0.082  1.00  0.00     0.200 A 
BRANCH  12  17
ATOM     17  C   UNL     1       1.953   0.274  -0.272  1.00  0.00     0.105 C 
ATOM     18  N   UNL     1       3.099   0.370  -0.386  1.00  0.00    -0.192 NA
ENDBRANCH  12  17
BRANCH  14  19
ATOM     19  N   UNL     1      -2.351   2.623   0.116  1.00  0.00     0.064 N 
ATOM     20  O   UNL     1      -3.586   2.518   0.123  1.00  0.00    -0.258 OA
ATOM     21  O   UNL     1      -1.735   3.695   0.111  1.00  0.00    -0.258 OA
ENDBRANCH  14  19
ENDBRANCH  10  11
ENDBRANCH   6  10
ENDBRANCH   3   5
ENDBRANCH   2   3
ENDBRANCH   1   2
BRANCH   1  22
ATOM     22  C   UNL     1       6.559  -3.949  -3.574  1.00  0.00     0.275 C 
BRANCH  22  23
ATOM     23  O   UNL     1       7.255  -3.225  -2.542  1.00  0.00    -0.458 OA
BRANCH  23  24
ATOM     24  C   UNL     1       6.593  -2.134  -2.090  1.00  0.00     0.338 C 
ATOM     25  O   UNL     1       5.515  -1.726  -2.492  1.00  0.00    -0.246 OA
BRANCH  24  26
ATOM     26  C   UNL     1       7.271  -1.559  -0.917  1.00  0.00     0.060 A 
ATOM     27  C   UNL     1       6.543  -1.517   0.269  1.00  0.00     0.016 A 
ATOM     28  C   UNL     1       8.523  -0.947  -0.996  1.00  0.00     0.016 A 
ATOM     29  C   UNL     1       7.025  -0.820   1.369  1.00  0.00     0.010 A 
ATOM     30  C   UNL     1       9.020  -0.259   0.122  1.00  0.00     0.010 A 
ATOM     31  C   UNL     1       8.256  -0.158   1.301  1.00  0.00    -0.014 A 
BRANCH  31  32
ATOM     32  C   UNL     1       8.659   0.718   2.436  1.00  0.00     0.031 A 
ATOM     33  C   UNL     1       8.731   2.211   2.246  1.00  0.00     0.074 A 
ATOM     34  C   UNL     1       8.888   0.187   3.653  1.00  0.00     0.049 A 
ATOM     35  N   UNL     1       9.074   3.139   3.104  1.00  0.00    -0.248 NA
ATOM     36  C   UNL     1       8.374   2.731   0.916  1.00  0.00     0.031 C 
ATOM     37  C   UNL     1       8.834  -1.240   3.976  1.00  0.00     0.029 A 
ATOM     38  N   UNL     1       9.215   0.785   4.845  1.00  0.00    -0.354 N 
ATOM     39  C   UNL     1       9.012   4.343   2.410  1.00  0.00     0.074 A 
ATOM     40  C   UNL     1       8.621   4.026   1.054  1.00  0.00     0.031 C 
ATOM     41  C   UNL     1       9.123  -1.407   5.276  1.00  0.00     0.029 A 
ATOM     42  C   UNL     1       9.431  -0.109   5.867  1.00  0.00     0.049 A 
ATOM     43  H   UNL     1       9.289   1.761   4.957  1.00  0.00     0.167 HD
ATOM     44  C   UNL     1       9.237   5.600   2.863  1.00  0.00     0.034 A 
ATOM     45  C   UNL     1       9.860   0.089   7.129  1.00  0.00     0.034 A 
ATOM     46  C   UNL     1       9.597   5.918   4.221  1.00  0.00     0.049 A 
ATOM     47  C   UNL     1      10.123   1.493   7.600  1.00  0.00     0.074 A 
ATOM     48  C   UNL     1       9.832   7.162   4.781  1.00  0.00     0.029 A 
ATOM     49  N   UNL     1       9.776   4.987   5.232  1.00  0.00    -0.354 N 
ATOM     50  N   UNL     1      10.004   2.623   6.946  1.00  0.00    -0.248 NA
ATOM     51  C   UNL     1      10.545   1.653   8.999  1.00  0.00     0.031 C 
ATOM     52  C   UNL     1      10.185   6.980   6.122  1.00  0.00     0.029 A 
ATOM     53  C   UNL     1      10.117   5.627   6.413  1.00  0.00     0.049 A 
ATOM     54  H   UNL     1       9.675   4.013   5.127  1.00  0.00     0.167 HD
ATOM     55  C   UNL     1      10.295   3.627   7.862  1.00  0.00     0.074 A 
ATOM     56  C   UNL     1      10.569   2.971   9.124  1.00  0.00     0.031 C 
ATOM     57  C   UNL     1      10.342   4.969   7.674  1.00  0.00     0.034 A 
BRANCH  44  58
ATOM     58  C   UNL     1       9.082   6.736   1.882  1.00  0.00     0.023 A 
ATOM     59  C   UNL     1       7.801   7.089   1.411  1.00  0.00     0.012 A 
ATOM     60  C   UNL     1      10.200   7.488   1.465  1.00  0.00     0.148 A 
ATOM     61  C   UNL     1       7.638   8.143   0.512  1.00  0.00     0.002 A 
ATOM     62  C   UNL     1      10.024   8.568   0.609  1.00  0.00     0.091 A 
ATOM     63  F   UNL     1      11.412   7.131   1.912  1.00  0.00    -0.205 F 
ATOM     64  C   UNL     1       8.746   8.888   0.119  1.00  0.00     0.022 A 
BRANCH  62  65
ATOM     65  S   UNL     1      11.373   9.642   0.107  1.00  0.00     0.127 S 
ATOM     66  O   UNL     1      11.457   9.361  -1.326  1.00  0.00    -0.237 OA
ATOM     67  O   UNL     1      10.848  10.967   0.438  1.00  0.00    -0.237 OA
ATOM     68  O   UNL     1      12.531   9.231   0.889  1.00  0.00    -0.744 OA
ENDBRANCH  62  65
ENDBRANCH  44  58
BRANCH  45  69
ATOM     69  C   UNL     1      10.076  -1.073   8.038  1.00  0.00     0.023 A 
ATOM     70  C   UNL     1       9.268  -1.238   9.180  1.00  0.00     0.012 A 
ATOM     71  C   UNL     1      11.094  -2.011   7.777  1.00  0.00     0.148 A 
ATOM     72  C   UNL     1       9.501  -2.289  10.069  1.00  0.00     0.002 A 
ATOM     73  C   UNL     1      11.278  -3.090   8.631  1.00  0.00     0.091 A 
ATOM     74  F   UNL     1      11.861  -1.830   6.693  1.00  0.00    -0.205 F 
ATOM     75  C   UNL     1      10.499  -3.219   9.790  1.00  0.00     0.022 A 
BRANCH  73  76
ATOM     76  S   UNL     1      12.453  -4.403   8.282  1.00  0.00     0.127 S 
ATOM     77  O   UNL     1      13.454  -4.193   9.325  1.00  0.00    -0.237 OA
ATOM     78  O   UNL     1      11.626  -5.598   8.452  1.00  0.00    -0.237 OA
ATOM     79  O   UNL     1      12.907  -4.175   6.917  1.00  0.00    -0.744 OA
ENDBRANCH  73  76
ENDBRANCH  45  69
BRANCH  57  80
ATOM     80  C   UNL     1      10.633   5.827   8.880  1.00  0.00     0.023 A 
ATOM     81  C   UNL     1      11.906   5.805   9.484  1.00  0.00     0.012 A 
ATOM     82  C   UNL     1       9.639   6.679   9.403  1.00  0.00     0.148 A 
ATOM     83  C   UNL     1      12.166   6.568  10.623  1.00  0.00     0.002 A 
ATOM     84  C   UNL     1       9.922   7.481  10.501  1.00  0.00     0.091 A 
ATOM     85  F   UNL     1       8.427   6.677   8.828  1.00  0.00    -0.205 F 
ATOM     86  C   UNL     1      11.178   7.412  11.125  1.00  0.00     0.022 A 
BRANCH  84  87
ATOM     87  S   UNL     1       8.745   8.671  11.151  1.00  0.00     0.127 S 
ATOM     88  O   UNL     1       8.323   8.025  12.393  1.00  0.00    -0.237 OA
ATOM     89  O   UNL     1       9.576   9.861  11.334  1.00  0.00    -0.237 OA
ATOM     90  O   UNL     1       7.711   8.809  10.134  1.00  0.00    -0.744 OA
ENDBRANCH  84  87
ENDBRANCH  57  80
ENDBRANCH  31  32
ENDBRANCH  24  26
ENDBRANCH  23  24
ENDBRANCH  22  23
ENDBRANCH   1  22
TORSDOF 18
