REMARK SMILES O=C(OCCOC(=O)c1nnn(-c2ccccc2C(F)(F)F)c1-c1cccc(Cl)c1)c1ccc(-c2c3nc(c(-c4cccc(S(=O)(=O)[O-])c4F)c4ccc([nH]4)c(-c4cccc(S(=O)(=O)[O-])c4F)c4nc(c(-c5cccc(S(=O)(=O)[O-])c5F)c5ccc2[nH]5)C=C4)C=C3)cc1
REMARK SMILES IDX 4 1 3 2 2 3 1 4 31 5 32 6 93 7 33 8 92 9 34 10 35 11 36 12
REMARK SMILES IDX 86 13 37 14 91 15 85 16 87 17 38 18 90 19 84 20 83 21 39 23
REMARK SMILES IDX 71 24 51 25 70 26 52 27 55 28 69 29 88 30 53 31 54 32 68 34
REMARK SMILES IDX 89 35 56 36 40 37 41 38 49 39 42 40 44 41 50 42 43 43 45 44
REMARK SMILES IDX 46 45 47 46 48 47 72 48 73 49 81 50 74 51 76 52 82 53 75 54
REMARK SMILES IDX 77 55 78 56 79 57 80 58 57 59 58 60 66 61 59 62 61 63 67 64
REMARK SMILES IDX 60 65 62 66 63 67 64 68 65 69 5 70 6 71 7 72 8 73 9 74 10 75
REMARK SMILES IDX 23 76 11 77 12 78 24 79 25 80 30 81 26 82 28 83 27 84 29 85
REMARK SMILES IDX 13 86 14 87 18 88 15 89 17 90 16 91 19 92 20 93 21 94 22 95
REMARK H PARENT 87 22 55 33
REMARK Flexibility Score: inf
ROOT
ATOM      1  C   UNL     1       4.588  -0.252   1.083  1.00  0.00     0.275 C 
ENDROOT
BRANCH   1   2
ATOM      2  O   UNL     1       3.489   0.569   1.530  1.00  0.00    -0.458 OA
BRANCH   2   3
ATOM      3  C   UNL     1       2.345   0.571   0.805  1.00  0.00     0.338 C 
ATOM      4  O   UNL     1       1.515  -0.320   0.827  1.00  0.00    -0.246 OA
BRANCH   3   5
ATOM      5  C   UNL     1       2.203   1.837   0.047  1.00  0.00     0.060 A 
ATOM      6  C   UNL     1       3.316   2.647  -0.210  1.00  0.00     0.016 A 
ATOM      7  C   UNL     1       0.939   2.209  -0.427  1.00  0.00     0.016 A 
ATOM      8  C   UNL     1       3.157   3.846  -0.884  1.00  0.00     0.010 A 
ATOM      9  C   UNL     1       0.777   3.420  -1.099  1.00  0.00     0.010 A 
ATOM     10  C   UNL     1       1.885   4.246  -1.303  1.00  0.00    -0.014 A 
BRANCH  10  11
ATOM     11  C   UNL     1       1.800   5.540  -1.970  1.00  0.00     0.031 A 
ATOM     12  C   UNL     1       2.416   5.646  -3.319  1.00  0.00     0.074 A 
ATOM     13  C   UNL     1       1.182   6.612  -1.441  1.00  0.00     0.049 A 
ATOM     14  N   UNL     1       3.454   6.340  -3.663  1.00  0.00    -0.248 NA
ATOM     15  C   UNL     1       1.833   4.852  -4.405  1.00  0.00     0.031 C 
ATOM     16  C   UNL     1       0.266   6.648  -0.301  1.00  0.00     0.029 A 
ATOM     17  N   UNL     1       1.165   7.896  -1.907  1.00  0.00    -0.354 N 
ATOM     18  C   UNL     1       3.539   6.236  -5.051  1.00  0.00     0.074 A 
ATOM     19  C   UNL     1       2.594   5.218  -5.438  1.00  0.00     0.031 C 
ATOM     20  C   UNL     1      -0.396   7.827  -0.311  1.00  0.00     0.029 A 
ATOM     21  C   UNL     1       0.152   8.670  -1.362  1.00  0.00     0.049 A 
ATOM     22  H   UNL     1       1.810   8.239  -2.567  1.00  0.00     0.167 HD
ATOM     23  C   UNL     1       4.249   7.122  -5.802  1.00  0.00     0.034 A 
ATOM     24  C   UNL     1      -0.251   9.888  -1.788  1.00  0.00     0.034 A 
ATOM     25  C   UNL     1       5.139   7.925  -5.007  1.00  0.00     0.049 A 
ATOM     26  C   UNL     1       0.848  10.492  -2.574  1.00  0.00     0.074 A 
ATOM     27  C   UNL     1       6.193   7.685  -4.149  1.00  0.00     0.029 A 
ATOM     28  N   UNL     1       4.804   9.244  -4.829  1.00  0.00    -0.354 N 
ATOM     29  N   UNL     1       1.963  10.931  -2.060  1.00  0.00    -0.248 NA
ATOM     30  C   UNL     1       0.842  10.342  -4.019  1.00  0.00     0.031 C 
ATOM     31  C   UNL     1       6.136   8.734  -3.185  1.00  0.00     0.029 A 
ATOM     32  C   UNL     1       5.055   9.551  -3.520  1.00  0.00     0.049 A 
ATOM     33  H   UNL     1       4.450   9.855  -5.515  1.00  0.00     0.167 HD
ATOM     34  C   UNL     1       2.914  10.701  -3.044  1.00  0.00     0.074 A 
ATOM     35  C   UNL     1       2.146  10.484  -4.265  1.00  0.00     0.031 C 
ATOM     36  C   UNL     1       4.211  10.414  -2.721  1.00  0.00     0.034 A 
BRANCH  23  37
ATOM     37  C   UNL     1       3.950   7.504  -7.235  1.00  0.00     0.023 A 
ATOM     38  C   UNL     1       4.925   8.265  -7.925  1.00  0.00     0.012 A 
ATOM     39  C   UNL     1       2.678   7.399  -7.836  1.00  0.00     0.148 A 
ATOM     40  C   UNL     1       4.632   8.931  -9.119  1.00  0.00     0.002 A 
ATOM     41  C   UNL     1       2.418   7.994  -9.068  1.00  0.00     0.091 A 
ATOM     42  F   UNL     1       1.666   6.838  -7.165  1.00  0.00    -0.205 F 
ATOM     43  C   UNL     1       3.379   8.788  -9.697  1.00  0.00     0.022 A 
BRANCH  41  44
ATOM     44  S   UNL     1       0.842   7.765  -9.899  1.00  0.00     0.127 S 
ATOM     45  O   UNL     1       0.150   9.005  -9.564  1.00  0.00    -0.237 OA
ATOM     46  O   UNL     1       1.252   7.640 -11.299  1.00  0.00    -0.237 OA
ATOM     47  O   UNL     1       0.295   6.538  -9.332  1.00  0.00    -0.744 OA
ENDBRANCH  41  44
ENDBRANCH  23  37
BRANCH  24  48
ATOM     48  C   UNL     1      -1.585  10.520  -1.704  1.00  0.00     0.023 A 
ATOM     49  C   UNL     1      -1.697  11.921  -1.775  1.00  0.00     0.012 A 
ATOM     50  C   UNL     1      -2.763   9.748  -1.811  1.00  0.00     0.148 A 
ATOM     51  C   UNL     1      -2.939  12.535  -1.972  1.00  0.00     0.002 A 
ATOM     52  C   UNL     1      -3.998  10.363  -1.993  1.00  0.00     0.091 A 
ATOM     53  F   UNL     1      -2.663   8.412  -1.831  1.00  0.00    -0.205 F 
ATOM     54  C   UNL     1      -4.088  11.757  -2.085  1.00  0.00     0.022 A 
BRANCH  52  55
ATOM     55  S   UNL     1      -5.517   9.416  -2.153  1.00  0.00     0.127 S 
ATOM     56  O   UNL     1      -6.452  10.194  -1.339  1.00  0.00    -0.237 OA
ATOM     57  O   UNL     1      -5.761   9.475  -3.591  1.00  0.00    -0.237 OA
ATOM     58  O   UNL     1      -5.214   8.097  -1.610  1.00  0.00    -0.744 OA
ENDBRANCH  52  55
ENDBRANCH  24  48
BRANCH  36  59
ATOM     59  C   UNL     1       4.690  10.700  -1.320  1.00  0.00     0.023 A 
ATOM     60  C   UNL     1       4.087  10.106  -0.192  1.00  0.00     0.012 A 
ATOM     61  C   UNL     1       5.877  11.434  -1.144  1.00  0.00     0.148 A 
ATOM     62  C   UNL     1       4.632  10.270   1.083  1.00  0.00     0.002 A 
ATOM     63  C   UNL     1       6.446  11.550   0.120  1.00  0.00     0.091 A 
ATOM     64  F   UNL     1       6.451  11.991  -2.223  1.00  0.00    -0.205 F 
ATOM     65  C   UNL     1       5.819  10.981   1.238  1.00  0.00     0.022 A 
BRANCH  63  66
ATOM     66  S   UNL     1       8.052  12.322   0.350  1.00  0.00     0.127 S 
ATOM     67  O   UNL     1       7.688  13.679   0.751  1.00  0.00    -0.237 OA
ATOM     68  O   UNL     1       8.650  11.511   1.412  1.00  0.00    -0.237 OA
ATOM     69  O   UNL     1       8.730  12.200  -0.936  1.00  0.00    -0.744 OA
ENDBRANCH  63  66
ENDBRANCH  36  59
ENDBRANCH  10  11
ENDBRANCH   3   5
ENDBRANCH   2   3
ENDBRANCH   1   2
BRANCH   1  70
ATOM     70  C   UNL     1       4.266  -1.387   0.115  1.00  0.00     0.275 C 
BRANCH  70  71
ATOM     71  O   UNL     1       3.848  -0.834  -1.143  1.00  0.00    -0.457 OA
BRANCH  71  72
ATOM     72  C   UNL     1       2.801  -1.472  -1.747  1.00  0.00     0.361 C 
ATOM     73  O   UNL     1       2.264  -2.490  -1.332  1.00  0.00    -0.244 OA
BRANCH  72  74
ATOM     74  C   UNL     1       2.526  -0.917  -3.052  1.00  0.00     0.198 A 
ATOM     75  N   UNL     1       1.542  -0.005  -3.322  1.00  0.00    -0.122 NA
ATOM     76  C   UNL     1       3.224  -1.213  -4.211  1.00  0.00     0.109 A 
ATOM     77  N   UNL     1       1.579   0.260  -4.624  1.00  0.00    -0.061 NA
ATOM     78  N   UNL     1       2.463  -0.589  -5.188  1.00  0.00    -0.211 N 
BRANCH  76  79
ATOM     79  C   UNL     1       4.439  -1.991  -4.426  1.00  0.00     0.004 A 
ATOM     80  C   UNL     1       5.500  -1.458  -5.174  1.00  0.00     0.010 A 
ATOM     81  C   UNL     1       4.572  -3.270  -3.872  1.00  0.00     0.031 A 
ATOM     82  C   UNL     1       6.658  -2.205  -5.394  1.00  0.00     0.002 A 
ATOM     83  C   UNL     1       5.731  -4.010  -4.094  1.00  0.00     0.041 A 
ATOM     84  C   UNL     1       6.772  -3.486  -4.857  1.00  0.00     0.020 A 
ATOM     85  Cl  UNL     1       5.872  -5.590  -3.427  1.00  0.00    -0.084 Cl
ENDBRANCH  76  79
BRANCH  78  86
ATOM     86  C   UNL     1       2.551  -0.761  -6.586  1.00  0.00     0.079 A 
ATOM     87  C   UNL     1       2.780   0.382  -7.366  1.00  0.00     0.029 A 
ATOM     88  C   UNL     1       2.516  -2.044  -7.173  1.00  0.00     0.081 A 
ATOM     89  C   UNL     1       3.090   0.240  -8.718  1.00  0.00     0.002 A 
ATOM     90  C   UNL     1       2.846  -2.156  -8.536  1.00  0.00     0.015 A 
ATOM     91  C   UNL     1       3.147  -1.026  -9.297  1.00  0.00     0.001 A 
BRANCH  88  92
ATOM     92  C   UNL     1       2.053  -3.299  -6.467  1.00  0.00     0.418 C 
ATOM     93  F   UNL     1       1.119  -3.980  -7.193  1.00  0.00    -0.166 F 
ATOM     94  F   UNL     1       3.067  -4.188  -6.271  1.00  0.00    -0.166 F 
ATOM     95  F   UNL     1       1.481  -3.105  -5.250  1.00  0.00    -0.166 F 
ENDBRANCH  88  92
ENDBRANCH  78  86
ENDBRANCH  72  74
ENDBRANCH  71  72
ENDBRANCH  70  71
ENDBRANCH   1  70
TORSDOF 17
