REMARK SMILES Cc1cc2n(n1)[C@H](C(F)(F)F)CCN2C(=O)c1cnn([C@@H](C)C(=O)OCCOC(=O)c2ccc(-c3c4nc(c(-c5cccc(S(=O)(=O)[O-])c5F)c5ccc([nH]5)c(-c5cccc(S(=O)(=O)[O-])c5F)c5nc(c(-c6cccc(S(=O)(=O)[O-])c6F)c6ccc3[nH]6)C=C5)C=C4)cc2)c1
REMARK SMILES IDX 26 1 25 2 23 3 24 4 21 5 22 6 20 7 17 8 18 9 94 10 19 11
REMARK SMILES IDX 15 12 16 13 14 14 1 15 2 16 3 17 6 18 4 19 5 20 7 21 13 22
REMARK SMILES IDX 12 23 8 24 9 25 10 26 11 27 27 28 28 29 29 30 30 31 31 32
REMARK SMILES IDX 32 33 93 34 33 35 92 36 34 37 35 38 36 39 86 40 37 41 91 42
REMARK SMILES IDX 85 43 87 44 38 45 90 46 84 47 83 48 39 50 71 51 51 52 70 53
REMARK SMILES IDX 52 54 55 55 69 56 88 57 53 58 54 59 68 61 89 62 56 63 40 64
REMARK SMILES IDX 41 65 49 66 42 67 44 68 50 69 43 70 45 71 46 72 47 73 48 74
REMARK SMILES IDX 72 75 73 76 81 77 74 78 76 79 82 80 75 81 77 82 78 83 79 84
REMARK SMILES IDX 80 85 57 86 58 87 66 88 59 89 61 90 67 91 60 92 62 93 63 94
REMARK SMILES IDX 64 95 65 96
REMARK H PARENT 87 49 55 60
REMARK Flexibility Score: inf
ROOT
ATOM      1  C   UNL     1       3.242 -12.631  -2.059  1.00  0.00     0.274 C 
ENDROOT
BRANCH   1   2
ATOM      2  O   UNL     1       2.157 -11.689  -2.213  1.00  0.00    -0.460 OA
BRANCH   2   3
ATOM      3  C   UNL     1       1.184 -11.720  -1.265  1.00  0.00     0.330 C 
ATOM      4  O   UNL     1       1.082 -12.609  -0.420  1.00  0.00    -0.250 OA
BRANCH   3   5
ATOM      5  C   UNL     1       0.158 -10.612  -1.357  1.00  0.00     0.213 C 
ATOM      6  C   UNL     1      -0.959 -11.033  -2.298  1.00  0.00     0.046 C 
BRANCH   5   7
ATOM      7  N   UNL     1       0.664  -9.271  -1.657  1.00  0.00    -0.258 N 
ATOM      8  C   UNL     1       1.067  -7.093  -1.552  1.00  0.00     0.078 A 
ATOM      9  C   UNL     1       1.644  -7.708  -2.684  1.00  0.00     0.149 A 
ATOM     10  C   UNL     1       0.453  -8.143  -0.893  1.00  0.00     0.123 A 
ATOM     11  N   UNL     1       1.236  -8.970  -2.844  1.00  0.00    -0.180 NA
BRANCH   8  12
ATOM     12  C   UNL     1       1.143  -5.721  -1.106  1.00  0.00     0.262 C 
ATOM     13  O   UNL     1       1.607  -5.378  -0.029  1.00  0.00    -0.269 OA
BRANCH  12  14
ATOM     14  N   UNL     1       0.501  -4.768  -2.015  1.00  0.00    -0.293 N 
ATOM     15  C   UNL     1       1.061  -0.131  -0.110  1.00  0.00     0.069 C 
ATOM     16  C   UNL     1       0.731  -1.323  -0.934  1.00  0.00     0.062 A 
ATOM     17  C   UNL     1       1.075  -2.680  -0.686  1.00  0.00     0.072 A 
ATOM     18  N   UNL     1       0.028  -1.195  -2.067  1.00  0.00    -0.176 NA
ATOM     19  C   UNL     1       0.506  -3.396  -1.715  1.00  0.00     0.134 A 
ATOM     20  N   UNL     1      -0.132  -2.456  -2.480  1.00  0.00    -0.237 N 
ATOM     21  C   UNL     1      -0.873  -2.745  -3.686  1.00  0.00     0.216 C 
ATOM     22  C   UNL     1      -0.358  -5.214  -3.140  1.00  0.00     0.130 C 
ATOM     23  C   UNL     1      -0.512  -4.138  -4.218  1.00  0.00     0.059 C 
BRANCH  21  24
ATOM     24  C   UNL     1      -2.358  -2.590  -3.447  1.00  0.00     0.410 C 
ATOM     25  F   UNL     1      -3.031  -2.856  -4.598  1.00  0.00    -0.169 F 
ATOM     26  F   UNL     1      -2.810  -3.469  -2.525  1.00  0.00    -0.169 F 
ATOM     27  F   UNL     1      -2.720  -1.350  -3.070  1.00  0.00    -0.169 F 
ENDBRANCH  21  24
ENDBRANCH  12  14
ENDBRANCH   8  12
ENDBRANCH   5   7
ENDBRANCH   3   5
ENDBRANCH   2   3
ENDBRANCH   1   2
BRANCH   1  28
ATOM     28  C   UNL     1       4.378 -12.062  -1.215  1.00  0.00     0.275 C 
BRANCH  28  29
ATOM     29  O   UNL     1       3.964 -11.898   0.139  1.00  0.00    -0.458 OA
BRANCH  29  30
ATOM     30  C   UNL     1       3.420 -10.685   0.394  1.00  0.00     0.338 C 
ATOM     31  O   UNL     1       3.118  -9.835  -0.406  1.00  0.00    -0.246 OA
BRANCH  30  32
ATOM     32  C   UNL     1       3.385 -10.431   1.832  1.00  0.00     0.060 A 
ATOM     33  C   UNL     1       2.715  -9.263   2.225  1.00  0.00     0.016 A 
ATOM     34  C   UNL     1       4.351 -11.058   2.618  1.00  0.00     0.016 A 
ATOM     35  C   UNL     1       3.200  -8.575   3.308  1.00  0.00     0.010 A 
ATOM     36  C   UNL     1       4.857 -10.352   3.673  1.00  0.00     0.010 A 
ATOM     37  C   UNL     1       4.329  -9.088   3.943  1.00  0.00    -0.014 A 
BRANCH  37  38
ATOM     38  C   UNL     1       4.984  -8.274   4.936  1.00  0.00     0.031 A 
ATOM     39  C   UNL     1       4.360  -8.374   6.272  1.00  0.00     0.074 A 
ATOM     40  C   UNL     1       6.148  -7.668   4.643  1.00  0.00     0.049 A 
ATOM     41  N   UNL     1       3.826  -7.434   6.979  1.00  0.00    -0.248 NA
ATOM     42  C   UNL     1       4.149  -9.729   6.808  1.00  0.00     0.031 C 
ATOM     43  C   UNL     1       6.955  -7.814   3.424  1.00  0.00     0.029 A 
ATOM     44  N   UNL     1       6.949  -6.938   5.458  1.00  0.00    -0.354 N 
ATOM     45  C   UNL     1       3.415  -8.064   8.152  1.00  0.00     0.074 A 
ATOM     46  C   UNL     1       3.415  -9.475   7.887  1.00  0.00     0.031 C 
ATOM     47  C   UNL     1       8.221  -7.423   3.688  1.00  0.00     0.029 A 
ATOM     48  C   UNL     1       8.274  -6.901   5.042  1.00  0.00     0.049 A 
ATOM     49  H   UNL     1       6.623  -6.478   6.266  1.00  0.00     0.167 HD
ATOM     50  C   UNL     1       3.382  -7.410   9.342  1.00  0.00     0.034 A 
ATOM     51  C   UNL     1       9.340  -6.583   5.816  1.00  0.00     0.034 A 
ATOM     52  C   UNL     1       3.407  -5.983   9.162  1.00  0.00     0.049 A 
ATOM     53  C   UNL     1       8.821  -5.880   7.015  1.00  0.00     0.074 A 
ATOM     54  C   UNL     1       2.581  -5.064   8.551  1.00  0.00     0.029 A 
ATOM     55  N   UNL     1       4.616  -5.356   9.341  1.00  0.00    -0.354 N 
ATOM     56  N   UNL     1       8.238  -4.715   6.975  1.00  0.00    -0.248 NA
ATOM     57  C   UNL     1       8.553  -6.670   8.208  1.00  0.00     0.031 C 
ATOM     58  C   UNL     1       3.459  -4.089   7.996  1.00  0.00     0.029 A 
ATOM     59  C   UNL     1       4.769  -4.446   8.329  1.00  0.00     0.049 A 
ATOM     60  H   UNL     1       5.257  -5.529  10.067  1.00  0.00     0.167 HD
ATOM     61  C   UNL     1       7.205  -4.804   7.900  1.00  0.00     0.074 A 
ATOM     62  C   UNL     1       7.524  -5.979   8.709  1.00  0.00     0.031 C 
ATOM     63  C   UNL     1       6.044  -4.102   7.732  1.00  0.00     0.034 A 
BRANCH  50  64
ATOM     64  C   UNL     1       3.686  -8.057  10.672  1.00  0.00     0.023 A 
ATOM     65  C   UNL     1       3.435  -7.294  11.832  1.00  0.00     0.012 A 
ATOM     66  C   UNL     1       4.426  -9.252  10.843  1.00  0.00     0.148 A 
ATOM     67  C   UNL     1       3.928  -7.678  13.083  1.00  0.00     0.002 A 
ATOM     68  C   UNL     1       4.833  -9.677  12.101  1.00  0.00     0.091 A 
ATOM     69  F   UNL     1       4.874  -9.929   9.782  1.00  0.00    -0.205 F 
ATOM     70  C   UNL     1       4.616  -8.877  13.222  1.00  0.00     0.022 A 
BRANCH  68  71
ATOM     71  S   UNL     1       5.670 -11.252  12.324  1.00  0.00     0.127 S 
ATOM     72  O   UNL     1       7.061 -10.830  12.450  1.00  0.00    -0.237 OA
ATOM     73  O   UNL     1       5.056 -11.749  13.556  1.00  0.00    -0.237 OA
ATOM     74  O   UNL     1       5.336 -12.034  11.139  1.00  0.00    -0.744 OA
ENDBRANCH  68  71
ENDBRANCH  50  64
BRANCH  51  75
ATOM     75  C   UNL     1      10.721  -7.112   5.742  1.00  0.00     0.023 A 
ATOM     76  C   UNL     1      11.781  -6.380   6.308  1.00  0.00     0.012 A 
ATOM     77  C   UNL     1      10.971  -8.444   5.338  1.00  0.00     0.148 A 
ATOM     78  C   UNL     1      13.045  -6.960   6.481  1.00  0.00     0.002 A 
ATOM     79  C   UNL     1      12.231  -9.011   5.497  1.00  0.00     0.091 A 
ATOM     80  F   UNL     1       9.950  -9.184   4.885  1.00  0.00    -0.205 F 
ATOM     81  C   UNL     1      13.269  -8.275   6.079  1.00  0.00     0.022 A 
BRANCH  79  82
ATOM     82  S   UNL     1      12.583 -10.706   5.010  1.00  0.00     0.127 S 
ATOM     83  O   UNL     1      13.827 -10.551   4.255  1.00  0.00    -0.237 OA
ATOM     84  O   UNL     1      12.728 -11.367   6.303  1.00  0.00    -0.237 OA
ATOM     85  O   UNL     1      11.445 -11.131   4.204  1.00  0.00    -0.744 OA
ENDBRANCH  79  82
ENDBRANCH  51  75
BRANCH  63  86
ATOM     86  C   UNL     1       6.000  -3.070   6.626  1.00  0.00     0.023 A 
ATOM     87  C   UNL     1       6.116  -3.435   5.267  1.00  0.00     0.012 A 
ATOM     88  C   UNL     1       5.642  -1.749   6.939  1.00  0.00     0.148 A 
ATOM     89  C   UNL     1       5.907  -2.504   4.246  1.00  0.00     0.002 A 
ATOM     90  C   UNL     1       5.384  -0.838   5.920  1.00  0.00     0.091 A 
ATOM     91  F   UNL     1       5.519  -1.414   8.232  1.00  0.00    -0.205 F 
ATOM     92  C   UNL     1       5.528  -1.208   4.573  1.00  0.00     0.022 A 
BRANCH  90  93
ATOM     93  S   UNL     1       4.741   0.803   6.259  1.00  0.00     0.127 S 
ATOM     94  O   UNL     1       5.906   1.646   6.002  1.00  0.00    -0.237 OA
ATOM     95  O   UNL     1       3.668   0.926   5.269  1.00  0.00    -0.237 OA
ATOM     96  O   UNL     1       4.276   0.773   7.639  1.00  0.00    -0.744 OA
ENDBRANCH  90  93
ENDBRANCH  63  86
ENDBRANCH  37  38
ENDBRANCH  30  32
ENDBRANCH  29  30
ENDBRANCH  28  29
ENDBRANCH   1  28
TORSDOF 18
