REMARK SMILES CCCOC(=O)c1c(NC(=O)[C@@H]2CC=CC[C@H]2C(=O)OCCOC(=O)c2ccc(-c3c4nc(c(-c5cccc(S(=O)(=O)[O-])c5F)c5ccc([nH]5)c(-c5cccc(S(=O)(=O)[O-])c5F)c5nc(c(-c6cccc(S(=O)(=O)[O-])c6F)c6ccc3[nH]6)C=C5)C=C4)cc2)sc2c1CCCC2
REMARK SMILES IDX 20 1 18 2 19 3 17 4 12 5 13 6 14 7 16 8 15 9 10 10 9 11
REMARK SMILES IDX 11 13 8 14 7 15 91 16 89 17 90 18 92 19 95 20 93 21 94 22
REMARK SMILES IDX 5 23 6 24 4 25 3 26 2 27 1 28 21 29 22 30 23 31 24 32 25 33
REMARK SMILES IDX 26 34 27 35 88 36 28 37 87 38 29 39 30 40 31 41 81 42 32 43
REMARK SMILES IDX 86 44 80 45 82 46 33 47 85 48 79 49 78 50 34 52 66 53 46 54
REMARK SMILES IDX 65 55 47 56 50 57 64 58 83 59 48 60 49 61 63 63 84 64 51 65
REMARK SMILES IDX 35 66 36 67 44 68 37 69 39 70 45 71 38 72 40 73 41 74 42 75
REMARK SMILES IDX 43 76 67 77 68 78 76 79 69 80 71 81 77 82 70 83 72 84 73 85
REMARK SMILES IDX 74 86 75 87 52 88 53 89 61 90 54 91 56 92 62 93 55 94 57 95
REMARK SMILES IDX 58 96 59 97 60 98
REMARK H PARENT 9 12 82 51 50 62
REMARK Flexibility Score: inf
ROOT
ATOM      1  O   UNL     1       0.470   2.789   1.173  1.00  0.00    -0.462 OA
ENDROOT
BRANCH   1   2
ATOM      2  C   UNL     1       1.311   1.853   0.658  1.00  0.00     0.310 C 
ATOM      3  O   UNL     1       2.093   2.166  -0.206  1.00  0.00    -0.252 OA
BRANCH   2   4
ATOM      4  C   UNL     1       1.211   0.362   1.137  1.00  0.00     0.116 C 
ATOM      5  C   UNL     1       0.398  -0.021   2.359  1.00  0.00     0.097 C 
ATOM      6  C   UNL     1       1.016  -1.297   2.973  1.00  0.00     0.041 C 
ATOM      7  C   UNL     1       1.004  -2.412   1.958  1.00  0.00    -0.030 C 
ATOM      8  C   UNL     1       0.794  -0.745   0.121  1.00  0.00     0.043 C 
ATOM      9  C   UNL     1       0.870  -2.155   0.651  1.00  0.00    -0.030 C 
BRANCH   5  10
ATOM     10  C   UNL     1       0.298   1.097   3.312  1.00  0.00     0.229 C 
ATOM     11  N   UNL     1      -0.791   1.898   3.225  1.00  0.00    -0.317 N 
ATOM     12  H   UNL     1      -0.795   2.607   3.908  1.00  0.00     0.170 HD
ATOM     13  O   UNL     1       1.141   1.292   4.185  1.00  0.00    -0.274 OA
BRANCH  11  14
ATOM     14  C   UNL     1      -1.901   1.949   2.398  1.00  0.00     0.110 A 
ATOM     15  C   UNL     1      -2.444   1.641   1.127  1.00  0.00     0.098 A 
ATOM     16  C   UNL     1      -3.903   1.917   1.217  1.00  0.00    -0.017 A 
ATOM     17  S   UNL     1      -3.046   2.673   3.467  1.00  0.00    -0.122 S 
ATOM     18  C   UNL     1      -4.327   2.255   2.484  1.00  0.00     0.011 A 
ATOM     19  C   UNL     1      -4.914   1.806   0.104  1.00  0.00     0.038 C 
ATOM     20  C   UNL     1      -5.733   2.396   2.964  1.00  0.00     0.047 C 
ATOM     21  C   UNL     1      -6.247   2.472   0.494  1.00  0.00     0.005 C 
ATOM     22  C   UNL     1      -6.718   1.984   1.869  1.00  0.00     0.006 C 
BRANCH  15  23
ATOM     23  C   UNL     1      -1.939   1.082  -0.204  1.00  0.00     0.341 C 
ATOM     24  O   UNL     1      -2.634   0.282  -0.828  1.00  0.00    -0.246 OA
BRANCH  23  25
ATOM     25  O   UNL     1      -0.767   1.560  -0.783  1.00  0.00    -0.462 OA
BRANCH  25  26
ATOM     26  C   UNL     1      -0.414   1.108  -2.153  1.00  0.00     0.233 C 
BRANCH  26  27
ATOM     27  C   UNL     1       1.005   1.459  -2.742  1.00  0.00     0.038 C 
ATOM     28  C   UNL     1       2.251   0.575  -2.512  1.00  0.00     0.007 C 
ENDBRANCH  26  27
ENDBRANCH  25  26
ENDBRANCH  23  25
ENDBRANCH  15  23
ENDBRANCH  11  14
ENDBRANCH   5  10
ENDBRANCH   2   4
ENDBRANCH   1   2
BRANCH   1  29
ATOM     29  C   UNL     1       0.092   3.932   0.335  1.00  0.00     0.274 C 
BRANCH  29  30
ATOM     30  C   UNL     1       0.815   5.246   0.583  1.00  0.00     0.275 C 
BRANCH  30  31
ATOM     31  O   UNL     1       2.143   5.145   0.067  1.00  0.00    -0.458 OA
BRANCH  31  32
ATOM     32  C   UNL     1       3.112   5.213   1.002  1.00  0.00     0.338 C 
ATOM     33  O   UNL     1       2.970   5.530   2.174  1.00  0.00    -0.246 OA
BRANCH  32  34
ATOM     34  C   UNL     1       4.402   4.769   0.446  1.00  0.00     0.060 A 
ATOM     35  C   UNL     1       4.466   3.700  -0.441  1.00  0.00     0.016 A 
ATOM     36  C   UNL     1       5.572   5.283   0.992  1.00  0.00     0.016 A 
ATOM     37  C   UNL     1       5.640   2.972  -0.563  1.00  0.00     0.010 A 
ATOM     38  C   UNL     1       6.788   4.669   0.701  1.00  0.00     0.010 A 
ATOM     39  C   UNL     1       6.826   3.451  -0.004  1.00  0.00    -0.014 A 
BRANCH  39  40
ATOM     40  C   UNL     1       8.095   2.677  -0.084  1.00  0.00     0.031 A 
ATOM     41  C   UNL     1       8.905   2.466   1.170  1.00  0.00     0.074 A 
ATOM     42  C   UNL     1       8.549   2.195  -1.258  1.00  0.00     0.049 A 
ATOM     43  N   UNL     1      10.171   2.169   1.296  1.00  0.00    -0.248 NA
ATOM     44  C   UNL     1       8.203   2.655   2.453  1.00  0.00     0.031 C 
ATOM     45  C   UNL     1       7.848   2.259  -2.541  1.00  0.00     0.029 A 
ATOM     46  N   UNL     1       9.734   1.570  -1.563  1.00  0.00    -0.354 N 
ATOM     47  C   UNL     1      10.444   2.259   2.657  1.00  0.00     0.074 A 
ATOM     48  C   UNL     1       9.206   2.609   3.318  1.00  0.00     0.031 C 
ATOM     49  C   UNL     1       8.598   1.680  -3.487  1.00  0.00     0.029 A 
ATOM     50  C   UNL     1       9.886   1.329  -2.909  1.00  0.00     0.049 A 
ATOM     51  H   UNL     1      10.406   1.321  -0.888  1.00  0.00     0.167 HD
ATOM     52  C   UNL     1      11.627   2.075   3.290  1.00  0.00     0.034 A 
ATOM     53  C   UNL     1      10.965   0.952  -3.621  1.00  0.00     0.034 A 
ATOM     54  C   UNL     1      12.821   1.626   2.625  1.00  0.00     0.049 A 
ATOM     55  C   UNL     1      12.264   0.742  -2.901  1.00  0.00     0.074 A 
ATOM     56  C   UNL     1      14.066   1.365   3.169  1.00  0.00     0.029 A 
ATOM     57  N   UNL     1      12.910   1.348   1.268  1.00  0.00    -0.354 N 
ATOM     58  N   UNL     1      12.526   0.854  -1.621  1.00  0.00    -0.248 NA
ATOM     59  C   UNL     1      13.419   0.356  -3.722  1.00  0.00     0.031 C 
ATOM     60  C   UNL     1      14.912   0.942   2.137  1.00  0.00     0.029 A 
ATOM     61  C   UNL     1      14.187   0.915   0.956  1.00  0.00     0.049 A 
ATOM     62  H   UNL     1      12.173   1.444   0.623  1.00  0.00     0.167 HD
ATOM     63  C   UNL     1      13.869   0.532  -1.478  1.00  0.00     0.074 A 
ATOM     64  C   UNL     1      14.359   0.195  -2.800  1.00  0.00     0.031 C 
ATOM     65  C   UNL     1      14.635   0.536  -0.360  1.00  0.00     0.034 A 
BRANCH  52  66
ATOM     66  C   UNL     1      11.688   2.361   4.769  1.00  0.00     0.023 A 
ATOM     67  C   UNL     1      11.063   1.497   5.689  1.00  0.00     0.012 A 
ATOM     68  C   UNL     1      12.402   3.479   5.249  1.00  0.00     0.148 A 
ATOM     69  C   UNL     1      11.111   1.763   7.058  1.00  0.00     0.002 A 
ATOM     70  C   UNL     1      12.486   3.711   6.617  1.00  0.00     0.091 A 
ATOM     71  F   UNL     1      12.972   4.305   4.359  1.00  0.00    -0.205 F 
ATOM     72  C   UNL     1      11.830   2.862   7.522  1.00  0.00     0.022 A 
BRANCH  70  73
ATOM     73  S   UNL     1      13.457   5.054   7.312  1.00  0.00     0.127 S 
ATOM     74  O   UNL     1      12.414   5.977   7.755  1.00  0.00    -0.237 OA
ATOM     75  O   UNL     1      14.178   4.385   8.397  1.00  0.00    -0.237 OA
ATOM     76  O   UNL     1      14.305   5.537   6.232  1.00  0.00    -0.744 OA
ENDBRANCH  70  73
ENDBRANCH  52  66
BRANCH  53  77
ATOM     77  C   UNL     1      10.851   0.780  -5.097  1.00  0.00     0.023 A 
ATOM     78  C   UNL     1      10.945  -0.510  -5.650  1.00  0.00     0.012 A 
ATOM     79  C   UNL     1      10.581   1.873  -5.946  1.00  0.00     0.148 A 
ATOM     80  C   UNL     1      10.786  -0.708  -7.022  1.00  0.00     0.002 A 
ATOM     81  C   UNL     1      10.355   1.661  -7.300  1.00  0.00     0.091 A 
ATOM     82  F   UNL     1      10.514   3.098  -5.405  1.00  0.00    -0.205 F 
ATOM     83  C   UNL     1      10.475   0.373  -7.844  1.00  0.00     0.022 A 
BRANCH  81  84
ATOM     84  S   UNL     1       9.789   2.966  -8.398  1.00  0.00     0.127 S 
ATOM     85  O   UNL     1      10.969   3.194  -9.226  1.00  0.00    -0.237 OA
ATOM     86  O   UNL     1       8.669   2.320  -9.084  1.00  0.00    -0.237 OA
ATOM     87  O   UNL     1       9.400   4.069  -7.530  1.00  0.00    -0.744 OA
ENDBRANCH  81  84
ENDBRANCH  53  77
BRANCH  65  88
ATOM     88  C   UNL     1      16.073   0.122  -0.510  1.00  0.00     0.023 A 
ATOM     89  C   UNL     1      16.995   1.000  -1.113  1.00  0.00     0.012 A 
ATOM     90  C   UNL     1      16.521  -1.109   0.006  1.00  0.00     0.148 A 
ATOM     91  C   UNL     1      18.338   0.644  -1.228  1.00  0.00     0.002 A 
ATOM     92  C   UNL     1      17.869  -1.436  -0.068  1.00  0.00     0.091 A 
ATOM     93  F   UNL     1      15.621  -1.937   0.556  1.00  0.00    -0.205 F 
ATOM     94  C   UNL     1      18.776  -0.566  -0.696  1.00  0.00     0.022 A 
BRANCH  92  95
ATOM     95  S   UNL     1      18.537  -2.929   0.673  1.00  0.00     0.127 S 
ATOM     96  O   UNL     1      18.818  -3.747  -0.506  1.00  0.00    -0.237 OA
ATOM     97  O   UNL     1      19.724  -2.427   1.365  1.00  0.00    -0.237 OA
ATOM     98  O   UNL     1      17.495  -3.439   1.555  1.00  0.00    -0.744 OA
ENDBRANCH  92  95
ENDBRANCH  65  88
ENDBRANCH  39  40
ENDBRANCH  32  34
ENDBRANCH  31  32
ENDBRANCH  30  31
ENDBRANCH  29  30
ENDBRANCH   1  29
TORSDOF 20
