REMARK SMILES O=C(OCCOC(=O)[C@H](c1c[nH]c2ccc(Br)cc12)[N@H+]1CCC[C@H](c2nc3ccccc3s2)C1)c1ccc(-c2c3nc(c(-c4cccc(S(=O)(=O)[O-])c4F)c4ccc([nH]4)c(-c4cccc(S(=O)(=O)[O-])c4F)c4nc(c(-c5cccc(S(=O)(=O)[O-])c5F)c5ccc2[nH]5)C=C4)C=C3)cc1
REMARK SMILES IDX 4 1 3 2 2 3 1 4 35 5 36 6 97 7 37 8 96 9 38 10 39 11 40 12
REMARK SMILES IDX 90 13 41 14 95 15 89 16 91 17 42 18 94 19 88 20 87 21 43 23
REMARK SMILES IDX 75 24 55 25 74 26 56 27 59 28 73 29 92 30 57 31 58 32 72 34
REMARK SMILES IDX 93 35 60 36 44 37 45 38 53 39 46 40 48 41 54 42 47 43 49 44
REMARK SMILES IDX 50 45 51 46 52 47 76 48 77 49 85 50 78 51 80 52 86 53 79 54
REMARK SMILES IDX 81 55 82 56 83 57 84 58 61 59 62 60 70 61 63 62 65 63 71 64
REMARK SMILES IDX 64 65 66 66 67 67 68 68 69 69 5 70 6 71 7 72 8 73 9 74 20 75
REMARK SMILES IDX 21 76 34 77 22 79 24 80 23 81 25 82 26 83 33 84 27 85 32 86
REMARK SMILES IDX 28 87 31 88 29 89 30 90 10 91 11 92 19 93 12 94 13 95 18 96
REMARK SMILES IDX 14 98 16 99 15 100 17 101
REMARK H PARENT 91 22 59 33 20 78 12 97
REMARK Flexibility Score: inf
ROOT
ATOM      1  C   UNL     1       4.813   4.256  -1.669  1.00  0.00     0.275 C 
ENDROOT
BRANCH   1   2
ATOM      2  O   UNL     1       5.156   3.258  -0.701  1.00  0.00    -0.458 OA
BRANCH   2   3
ATOM      3  C   UNL     1       4.346   2.517   0.088  1.00  0.00     0.338 C 
ATOM      4  O   UNL     1       4.872   1.809   0.948  1.00  0.00    -0.246 OA
BRANCH   3   5
ATOM      5  C   UNL     1       2.851   2.447  -0.069  1.00  0.00     0.060 A 
ATOM      6  C   UNL     1       2.013   3.325  -0.772  1.00  0.00     0.016 A 
ATOM      7  C   UNL     1       2.242   1.351   0.545  1.00  0.00     0.016 A 
ATOM      8  C   UNL     1       0.642   3.083  -0.933  1.00  0.00     0.010 A 
ATOM      9  C   UNL     1       0.878   1.106   0.387  1.00  0.00     0.010 A 
ATOM     10  C   UNL     1       0.060   1.963  -0.357  1.00  0.00    -0.014 A 
BRANCH  10  11
ATOM     11  C   UNL     1      -1.413   1.790  -0.324  1.00  0.00     0.031 A 
ATOM     12  C   UNL     1      -2.066   1.787   1.030  1.00  0.00     0.074 A 
ATOM     13  C   UNL     1      -2.150   1.596  -1.435  1.00  0.00     0.049 A 
ATOM     14  N   UNL     1      -3.283   1.466   1.368  1.00  0.00    -0.248 NA
ATOM     15  C   UNL     1      -1.193   2.117   2.172  1.00  0.00     0.031 C 
ATOM     16  C   UNL     1      -1.638   1.536  -2.805  1.00  0.00     0.029 A 
ATOM     17  N   UNL     1      -3.501   1.391  -1.579  1.00  0.00    -0.354 N 
ATOM     18  C   UNL     1      -3.278   1.441   2.757  1.00  0.00     0.074 A 
ATOM     19  C   UNL     1      -1.927   1.705   3.188  1.00  0.00     0.031 C 
ATOM     20  C   UNL     1      -2.664   1.321  -3.649  1.00  0.00     0.029 A 
ATOM     21  C   UNL     1      -3.901   1.191  -2.881  1.00  0.00     0.049 A 
ATOM     22  H   UNL     1      -4.127   1.388  -0.819  1.00  0.00     0.167 HD
ATOM     23  C   UNL     1      -4.313   1.268   3.607  1.00  0.00     0.034 A 
ATOM     24  C   UNL     1      -5.125   0.927  -3.383  1.00  0.00     0.034 A 
ATOM     25  C   UNL     1      -5.667   1.132   3.165  1.00  0.00     0.049 A 
ATOM     26  C   UNL     1      -6.295   0.838  -2.431  1.00  0.00     0.074 A 
ATOM     27  C   UNL     1      -6.819   1.067   3.922  1.00  0.00     0.029 A 
ATOM     28  N   UNL     1      -6.046   1.057   1.833  1.00  0.00    -0.354 N 
ATOM     29  N   UNL     1      -6.301   0.934  -1.123  1.00  0.00    -0.248 NA
ATOM     30  C   UNL     1      -7.629   0.638  -3.019  1.00  0.00     0.031 C 
ATOM     31  C   UNL     1      -7.898   0.930   3.045  1.00  0.00     0.029 A 
ATOM     32  C   UNL     1      -7.419   0.953   1.742  1.00  0.00     0.049 A 
ATOM     33  H   UNL     1      -5.428   1.075   1.067  1.00  0.00     0.167 HD
ATOM     34  C   UNL     1      -7.634   0.847  -0.734  1.00  0.00     0.074 A 
ATOM     35  C   UNL     1      -8.411   0.697  -1.947  1.00  0.00     0.031 C 
ATOM     36  C   UNL     1      -8.167   0.881   0.512  1.00  0.00     0.034 A 
BRANCH  23  37
ATOM     37  C   UNL     1      -3.992   1.254   5.078  1.00  0.00     0.023 A 
ATOM     38  C   UNL     1      -3.482   2.411   5.707  1.00  0.00     0.012 A 
ATOM     39  C   UNL     1      -4.128   0.068   5.823  1.00  0.00     0.148 A 
ATOM     40  C   UNL     1      -3.018   2.360   7.020  1.00  0.00     0.002 A 
ATOM     41  C   UNL     1      -3.727   0.045   7.152  1.00  0.00     0.091 A 
ATOM     42  F   UNL     1      -4.599  -1.026   5.208  1.00  0.00    -0.205 F 
ATOM     43  C   UNL     1      -3.146   1.179   7.744  1.00  0.00     0.022 A 
BRANCH  41  44
ATOM     44  S   UNL     1      -3.941  -1.398   8.197  1.00  0.00     0.127 S 
ATOM     45  O   UNL     1      -2.567  -1.875   8.331  1.00  0.00    -0.237 OA
ATOM     46  O   UNL     1      -4.506  -0.814   9.413  1.00  0.00    -0.237 OA
ATOM     47  O   UNL     1      -4.846  -2.284   7.475  1.00  0.00    -0.744 OA
ENDBRANCH  41  44
ENDBRANCH  23  37
BRANCH  24  48
ATOM     48  C   UNL     1      -5.320   0.788  -4.858  1.00  0.00     0.023 A 
ATOM     49  C   UNL     1      -6.015   1.788  -5.568  1.00  0.00     0.012 A 
ATOM     50  C   UNL     1      -4.795  -0.311  -5.566  1.00  0.00     0.148 A 
ATOM     51  C   UNL     1      -6.209   1.683  -6.947  1.00  0.00     0.002 A 
ATOM     52  C   UNL     1      -4.946  -0.383  -6.948  1.00  0.00     0.091 A 
ATOM     53  F   UNL     1      -4.139  -1.254  -4.877  1.00  0.00    -0.205 F 
ATOM     54  C   UNL     1      -5.668   0.603  -7.638  1.00  0.00     0.022 A 
BRANCH  52  55
ATOM     55  S   UNL     1      -4.176  -1.667  -7.942  1.00  0.00     0.127 S 
ATOM     56  O   UNL     1      -5.340  -2.341  -8.515  1.00  0.00    -0.237 OA
ATOM     57  O   UNL     1      -3.394  -0.874  -8.893  1.00  0.00    -0.237 OA
ATOM     58  O   UNL     1      -3.381  -2.461  -7.021  1.00  0.00    -0.744 OA
ENDBRANCH  52  55
ENDBRANCH  24  48
BRANCH  36  59
ATOM     59  C   UNL     1      -9.663   0.832   0.656  1.00  0.00     0.023 A 
ATOM     60  C   UNL     1     -10.347  -0.389   0.513  1.00  0.00     0.012 A 
ATOM     61  C   UNL     1     -10.354   1.970   1.120  1.00  0.00     0.148 A 
ATOM     62  C   UNL     1     -11.702  -0.476   0.831  1.00  0.00     0.002 A 
ATOM     63  C   UNL     1     -11.687   1.862   1.487  1.00  0.00     0.091 A 
ATOM     64  F   UNL     1      -9.679   3.123   1.232  1.00  0.00    -0.205 F 
ATOM     65  C   UNL     1     -12.366   0.641   1.336  1.00  0.00     0.022 A 
BRANCH  63  66
ATOM     66  S   UNL     1     -12.585   3.211   2.263  1.00  0.00     0.127 S 
ATOM     67  O   UNL     1     -13.572   3.540   1.236  1.00  0.00    -0.237 OA
ATOM     68  O   UNL     1     -13.134   2.568   3.456  1.00  0.00    -0.237 OA
ATOM     69  O   UNL     1     -11.600   4.251   2.532  1.00  0.00    -0.744 OA
ENDBRANCH  63  66
ENDBRANCH  36  59
ENDBRANCH  10  11
ENDBRANCH   3   5
ENDBRANCH   2   3
ENDBRANCH   1   2
BRANCH   1  70
ATOM     70  C   UNL     1       4.467   3.705  -3.059  1.00  0.00     0.274 C 
BRANCH  70  71
ATOM     71  O   UNL     1       3.517   2.621  -3.063  1.00  0.00    -0.457 OA
BRANCH  71  72
ATOM     72  C   UNL     1       4.066   1.358  -3.021  1.00  0.00     0.370 C 
ATOM     73  O   UNL     1       5.280   1.182  -2.956  1.00  0.00    -0.245 OA
BRANCH  72  74
ATOM     74  C   UNL     1       2.951   0.233  -3.050  1.00  0.00     0.328 C 
BRANCH  74  75
ATOM     75  N   UNL     1       2.948  -0.388  -4.391  1.00  0.00    -0.319 N 
ATOM     76  C   UNL     1       2.345  -1.713  -4.523  1.00  0.00     0.263 C 
ATOM     77  C   UNL     1       2.386   0.516  -5.421  1.00  0.00     0.274 C 
ATOM     78  H   UNL     1       3.944  -0.544  -4.545  1.00  0.00     0.349 HD
ATOM     79  C   UNL     1       2.742  -2.303  -5.880  1.00  0.00     0.062 C 
ATOM     80  C   UNL     1       2.830   0.065  -6.833  1.00  0.00     0.104 C 
ATOM     81  C   UNL     1       2.369  -1.388  -7.047  1.00  0.00     0.022 C 
BRANCH  80  82
ATOM     82  C   UNL     1       4.329   0.281  -6.987  1.00  0.00     0.103 A 
ATOM     83  N   UNL     1       5.060   0.921  -6.098  1.00  0.00    -0.241 NA
ATOM     84  S   UNL     1       5.198  -0.225  -8.383  1.00  0.00    -0.118 S 
ATOM     85  C   UNL     1       6.397   0.816  -6.396  1.00  0.00     0.082 A 
ATOM     86  C   UNL     1       6.681   0.244  -7.634  1.00  0.00     0.055 A 
ATOM     87  C   UNL     1       7.459   1.233  -5.569  1.00  0.00     0.030 A 
ATOM     88  C   UNL     1       8.002   0.109  -8.092  1.00  0.00     0.021 A 
ATOM     89  C   UNL     1       8.777   1.079  -6.003  1.00  0.00     0.002 A 
ATOM     90  C   UNL     1       9.042   0.533  -7.255  1.00  0.00     0.002 A 
ENDBRANCH  80  82
ENDBRANCH  74  75
BRANCH  74  91
ATOM     91  C   UNL     1       3.228  -0.782  -1.944  1.00  0.00     0.046 A 
ATOM     92  C   UNL     1       4.464  -1.175  -1.456  1.00  0.00     0.094 A 
ATOM     93  C   UNL     1       2.254  -1.499  -1.150  1.00  0.00     0.010 A 
ATOM     94  N   UNL     1       4.281  -1.918  -0.327  1.00  0.00    -0.361 N 
ATOM     95  C   UNL     1       2.942  -2.100  -0.093  1.00  0.00     0.046 A 
ATOM     96  C   UNL     1       0.846  -1.625  -1.181  1.00  0.00     0.026 A 
ATOM     97  H   UNL     1       5.005  -2.272   0.238  1.00  0.00     0.166 HD
ATOM     98  C   UNL     1       2.301  -2.723   0.985  1.00  0.00     0.028 A 
ATOM     99  C   UNL     1       0.194  -2.261  -0.114  1.00  0.00     0.018 A 
ATOM    100  C   UNL     1       0.906  -2.776   0.967  1.00  0.00     0.018 A 
ATOM    101  Br  UNL     1      -1.698  -2.318  -0.084  1.00  0.00    -0.051 Br
ENDBRANCH  74  91
ENDBRANCH  72  74
ENDBRANCH  71  72
ENDBRANCH  70  71
ENDBRANCH   1  70
TORSDOF 17
