REMARK SMILES O=C(OCCOC(=O)[C@H]1Sc2[nH]c(=O)sc2[C@H]2c3cc(Br)cc(Br)c3OC(=O)[C@H]21)c1ccc(-c2c3nc(c(-c4cccc(S(=O)(=O)[O-])c4F)c4ccc([nH]4)c(-c4cccc(S(=O)(=O)[O-])c4F)c4nc(c(-c5cccc(S(=O)(=O)[O-])c5F)c5ccc2[nH]5)C=C4)C=C3)cc1
REMARK SMILES IDX 3 1 2 2 1 3 30 4 31 5 92 6 32 7 91 8 33 9 34 10 35 11 85 12
REMARK SMILES IDX 36 13 90 14 84 15 86 16 37 17 89 18 83 19 82 20 38 22 70 23
REMARK SMILES IDX 50 24 69 25 51 26 54 27 68 28 87 29 52 30 53 31 67 33 88 34
REMARK SMILES IDX 55 35 39 36 40 37 48 38 41 39 43 40 49 41 42 42 44 43 45 44
REMARK SMILES IDX 46 45 47 46 71 47 72 48 80 49 73 50 75 51 81 52 74 53 76 54
REMARK SMILES IDX 77 55 78 56 79 57 56 58 57 59 65 60 58 61 60 62 66 63 59 64
REMARK SMILES IDX 61 65 62 66 63 67 64 68 4 69 5 70 6 71 7 72 8 73 9 74 10 75
REMARK SMILES IDX 29 76 11 77 17 78 27 79 12 80 16 81 18 82 26 83 28 84 13 85
REMARK SMILES IDX 15 87 19 88 25 89 14 90 20 91 23 92 21 93 22 94 24 95
REMARK H PARENT 86 21 54 32 12 86
REMARK Flexibility Score: inf
ROOT
ATOM      1  O   UNL     1       3.415   1.750   0.521  1.00  0.00    -0.458 OA
ENDROOT
BRANCH   1   2
ATOM      2  C   UNL     1       2.306   1.401  -0.165  1.00  0.00     0.338 C 
ATOM      3  O   UNL     1       1.204   1.746   0.260  1.00  0.00    -0.246 OA
BRANCH   2   4
ATOM      4  C   UNL     1       2.353   0.717  -1.488  1.00  0.00     0.060 A 
ATOM      5  C   UNL     1       3.436   0.785  -2.367  1.00  0.00     0.016 A 
ATOM      6  C   UNL     1       1.135   0.164  -1.937  1.00  0.00     0.016 A 
ATOM      7  C   UNL     1       3.263   0.440  -3.701  1.00  0.00     0.010 A 
ATOM      8  C   UNL     1       0.952  -0.158  -3.272  1.00  0.00     0.010 A 
ATOM      9  C   UNL     1       1.997   0.066  -4.159  1.00  0.00    -0.014 A 
BRANCH   9  10
ATOM     10  C   UNL     1       1.789  -0.037  -5.594  1.00  0.00     0.031 A 
ATOM     11  C   UNL     1       2.439  -1.206  -6.231  1.00  0.00     0.074 A 
ATOM     12  C   UNL     1       1.033   0.850  -6.275  1.00  0.00     0.049 A 
ATOM     13  N   UNL     1       3.492  -1.208  -6.979  1.00  0.00    -0.248 NA
ATOM     14  C   UNL     1       1.964  -2.545  -5.863  1.00  0.00     0.031 C 
ATOM     15  C   UNL     1       0.143   1.886  -5.737  1.00  0.00     0.029 A 
ATOM     16  N   UNL     1       0.818   0.938  -7.616  1.00  0.00    -0.354 N 
ATOM     17  C   UNL     1       3.669  -2.532  -7.380  1.00  0.00     0.074 A 
ATOM     18  C   UNL     1       2.839  -3.319  -6.508  1.00  0.00     0.031 C 
ATOM     19  C   UNL     1      -0.688   2.315  -6.716  1.00  0.00     0.029 A 
ATOM     20  C   UNL     1      -0.287   1.708  -7.972  1.00  0.00     0.049 A 
ATOM     21  H   UNL     1       1.395   0.495  -8.279  1.00  0.00     0.167 HD
ATOM     22  C   UNL     1       4.295  -2.832  -8.553  1.00  0.00     0.034 A 
ATOM     23  C   UNL     1      -0.854   1.783  -9.203  1.00  0.00     0.034 A 
ATOM     24  C   UNL     1       5.006  -1.683  -9.063  1.00  0.00     0.049 A 
ATOM     25  C   UNL     1       0.181   1.369 -10.178  1.00  0.00     0.074 A 
ATOM     26  C   UNL     1       6.049  -0.893  -8.625  1.00  0.00     0.029 A 
ATOM     27  N   UNL     1       4.388  -0.974 -10.064  1.00  0.00    -0.354 N 
ATOM     28  N   UNL     1       1.267   2.054 -10.403  1.00  0.00    -0.248 NA
ATOM     29  C   UNL     1       0.222  -0.028 -10.576  1.00  0.00     0.031 C 
ATOM     30  C   UNL     1       5.715   0.425  -9.055  1.00  0.00     0.029 A 
ATOM     31  C   UNL     1       4.526   0.356  -9.785  1.00  0.00     0.049 A 
ATOM     32  H   UNL     1       3.926  -1.357 -10.845  1.00  0.00     0.167 HD
ATOM     33  C   UNL     1       2.258   1.090 -10.518  1.00  0.00     0.074 A 
ATOM     34  C   UNL     1       1.542  -0.168 -10.727  1.00  0.00     0.031 C 
ATOM     35  C   UNL     1       3.543   1.357 -10.140  1.00  0.00     0.034 A 
BRANCH  22  36
ATOM     36  C   UNL     1       3.969  -4.000  -9.467  1.00  0.00     0.023 A 
ATOM     37  C   UNL     1       4.737  -4.110 -10.653  1.00  0.00     0.012 A 
ATOM     38  C   UNL     1       2.805  -4.797  -9.396  1.00  0.00     0.148 A 
ATOM     39  C   UNL     1       4.314  -4.876 -11.744  1.00  0.00     0.002 A 
ATOM     40  C   UNL     1       2.420  -5.608 -10.459  1.00  0.00     0.091 A 
ATOM     41  F   UNL     1       1.988  -4.704  -8.347  1.00  0.00    -0.205 F 
ATOM     42  C   UNL     1       3.149  -5.621 -11.650  1.00  0.00     0.022 A 
BRANCH  40  43
ATOM     43  S   UNL     1       0.943  -6.633 -10.383  1.00  0.00     0.127 S 
ATOM     44  O   UNL     1       0.058  -5.935 -11.312  1.00  0.00    -0.237 OA
ATOM     45  O   UNL     1       1.451  -7.920 -10.857  1.00  0.00    -0.237 OA
ATOM     46  O   UNL     1       0.531  -6.630  -8.985  1.00  0.00    -0.744 OA
ENDBRANCH  40  43
ENDBRANCH  22  36
BRANCH  23  47
ATOM     47  C   UNL     1      -2.286   1.857  -9.587  1.00  0.00     0.023 A 
ATOM     48  C   UNL     1      -2.638   2.242 -10.898  1.00  0.00     0.012 A 
ATOM     49  C   UNL     1      -3.275   1.240  -8.788  1.00  0.00     0.148 A 
ATOM     50  C   UNL     1      -3.915   1.979 -11.412  1.00  0.00     0.002 A 
ATOM     51  C   UNL     1      -4.540   0.974  -9.306  1.00  0.00     0.091 A 
ATOM     52  F   UNL     1      -2.942   0.829  -7.558  1.00  0.00    -0.205 F 
ATOM     53  C   UNL     1      -4.860   1.332 -10.622  1.00  0.00     0.022 A 
BRANCH  51  54
ATOM     54  S   UNL     1      -5.793   0.084  -8.371  1.00  0.00     0.127 S 
ATOM     55  O   UNL     1      -6.952   0.967  -8.505  1.00  0.00    -0.237 OA
ATOM     56  O   UNL     1      -5.888  -1.169  -9.115  1.00  0.00    -0.237 OA
ATOM     57  O   UNL     1      -5.274  -0.029  -7.014  1.00  0.00    -0.744 OA
ENDBRANCH  51  54
ENDBRANCH  23  47
BRANCH  35  58
ATOM     58  C   UNL     1       3.912   2.784  -9.818  1.00  0.00     0.023 A 
ATOM     59  C   UNL     1       3.357   3.480  -8.723  1.00  0.00     0.012 A 
ATOM     60  C   UNL     1       4.994   3.356 -10.508  1.00  0.00     0.148 A 
ATOM     61  C   UNL     1       3.865   4.723  -8.332  1.00  0.00     0.002 A 
ATOM     62  C   UNL     1       5.531   4.564 -10.082  1.00  0.00     0.091 A 
ATOM     63  F   UNL     1       5.510   2.680 -11.545  1.00  0.00    -0.205 F 
ATOM     64  C   UNL     1       4.965   5.256  -9.000  1.00  0.00     0.022 A 
BRANCH  62  65
ATOM     65  S   UNL     1       7.036   5.224 -10.802  1.00  0.00     0.127 S 
ATOM     66  O   UNL     1       6.533   6.356 -11.577  1.00  0.00    -0.237 OA
ATOM     67  O   UNL     1       7.814   5.590  -9.617  1.00  0.00    -0.237 OA
ATOM     68  O   UNL     1       7.618   4.139 -11.582  1.00  0.00    -0.744 OA
ENDBRANCH  62  65
ENDBRANCH  35  58
ENDBRANCH   9  10
ENDBRANCH   2   4
ENDBRANCH   1   2
BRANCH   1  69
ATOM     69  C   UNL     1       4.708   1.117   0.591  1.00  0.00     0.275 C 
BRANCH  69  70
ATOM     70  C   UNL     1       4.734  -0.194   1.371  1.00  0.00     0.274 C 
BRANCH  70  71
ATOM     71  O   UNL     1       4.301  -1.326   0.602  1.00  0.00    -0.461 OA
BRANCH  71  72
ATOM     72  C   UNL     1       2.977  -1.622   0.635  1.00  0.00     0.320 C 
ATOM     73  O   UNL     1       2.130  -0.932   1.188  1.00  0.00    -0.251 OA
BRANCH  72  74
ATOM     74  C   UNL     1       2.606  -2.907  -0.100  1.00  0.00     0.178 C 
ATOM     75  S   UNL     1       3.873  -3.292  -1.376  1.00  0.00    -0.091 SA
ATOM     76  C   UNL     1       2.010  -4.024   0.795  1.00  0.00     0.137 C 
ATOM     77  C   UNL     1       3.901  -4.975  -1.433  1.00  0.00     0.091 A 
ATOM     78  C   UNL     1       2.599  -5.468   0.680  1.00  0.00     0.082 C 
ATOM     79  C   UNL     1       1.912  -3.714   2.308  1.00  0.00     0.317 C 
ATOM     80  N   UNL     1       4.671  -5.582  -2.378  1.00  0.00    -0.307 N 
ATOM     81  C   UNL     1       3.342  -5.815  -0.563  1.00  0.00     0.049 A 
ATOM     82  C   UNL     1       3.359  -5.766   1.975  1.00  0.00     0.007 A 
ATOM     83  O   UNL     1       1.432  -4.820   2.982  1.00  0.00    -0.425 OA
ATOM     84  O   UNL     1       2.369  -2.755   2.912  1.00  0.00    -0.251 OA
ATOM     85  C   UNL     1       4.772  -6.948  -2.302  1.00  0.00     0.305 A 
ATOM     86  H   UNL     1       5.132  -5.067  -3.079  1.00  0.00     0.171 HD
ATOM     87  S   UNL     1       3.687  -7.481  -1.009  1.00  0.00    -0.078 S 
ATOM     88  C   UNL     1       4.702  -6.124   2.090  1.00  0.00     0.024 A 
ATOM     89  C   UNL     1       2.648  -5.465   3.155  1.00  0.00     0.148 A 
ATOM     90  O   UNL     1       5.507  -7.677  -2.935  1.00  0.00    -0.257 OA
ATOM     91  C   UNL     1       5.292  -6.195   3.356  1.00  0.00     0.019 A 
ATOM     92  C   UNL     1       3.217  -5.589   4.421  1.00  0.00     0.062 A 
ATOM     93  Br  UNL     1       7.145  -6.552   3.489  1.00  0.00    -0.051 Br
ATOM     94  C   UNL     1       4.557  -5.949   4.519  1.00  0.00     0.035 A 
ATOM     95  Br  UNL     1       2.256  -5.146   5.989  1.00  0.00    -0.047 Br
ENDBRANCH  72  74
ENDBRANCH  71  72
ENDBRANCH  70  71
ENDBRANCH  69  70
ENDBRANCH   1  69
TORSDOF 14
