REMARK SMILES C[C@H](CCC(=O)OCCOC(=O)c1ccc(-c2c3nc(c(-c4cccc(S(=O)(=O)[O-])c4F)c4ccc([nH]4)c(-c4cccc(S(=O)(=O)[O-])c4F)c4nc(c(-c5cccc(S(=O)(=O)[O-])c5F)c5ccc2[nH]5)C=C4)C=C3)cc1)NC(=O)N(C)CCc1cccs1
REMARK SMILES IDX 5 1 6 2 4 3 3 4 2 5 1 6 76 7 77 8 78 10 79 11 80 12 81 13
REMARK SMILES IDX 82 14 83 15 84 16 87 17 85 18 86 19 7 20 8 21 9 22 10 23
REMARK SMILES IDX 11 24 12 25 13 26 14 27 75 28 15 29 74 30 16 31 17 32 18 33
REMARK SMILES IDX 68 34 19 35 73 36 67 37 69 38 20 39 72 40 66 41 65 42 21 44
REMARK SMILES IDX 53 45 33 46 52 47 34 48 37 49 51 50 70 51 35 52 36 53 50 55
REMARK SMILES IDX 71 56 38 57 22 58 23 59 31 60 24 61 26 62 32 63 25 64 27 65
REMARK SMILES IDX 28 66 29 67 30 68 54 69 55 70 63 71 56 72 58 73 64 74 57 75
REMARK SMILES IDX 59 76 60 77 61 78 62 79 39 80 40 81 48 82 41 83 43 84 49 85
REMARK SMILES IDX 42 86 44 87 45 88 46 89 47 90
REMARK H PARENT 76 9 69 43 37 54
REMARK Flexibility Score: inf
ROOT
ATOM      1  C   UNL     1       0.737   2.895   0.978  1.00  0.00     0.305 C 
ATOM      2  O   UNL     1       1.008   3.915   0.361  1.00  0.00    -0.252 OA
ENDROOT
BRANCH   1   3
ATOM      3  C   UNL     1      -0.072   1.758   0.395  1.00  0.00     0.125 C 
BRANCH   3   4
ATOM      4  C   UNL     1       0.739   0.475   0.196  1.00  0.00     0.036 C 
BRANCH   4   5
ATOM      5  C   UNL     1       0.479  -0.671   1.190  1.00  0.00     0.081 C 
ATOM      6  C   UNL     1       0.677  -0.256   2.646  1.00  0.00     0.031 C 
BRANCH   5   7
ATOM      7  N   UNL     1      -0.849  -1.216   0.952  1.00  0.00    -0.336 N 
ATOM      8  C   UNL     1      -1.518  -2.344   1.210  1.00  0.00     0.317 C 
ATOM      9  H   UNL     1      -1.413  -0.573   0.464  1.00  0.00     0.165 HD
ATOM     10  O   UNL     1      -2.669  -2.355   0.757  1.00  0.00    -0.249 OA
BRANCH   8  11
ATOM     11  N   UNL     1      -1.017  -3.393   1.926  1.00  0.00    -0.328 N 
ATOM     12  C   UNL     1       0.357  -3.685   2.300  1.00  0.00     0.148 C 
BRANCH  11  13
ATOM     13  C   UNL     1      -1.982  -4.431   2.316  1.00  0.00     0.126 C 
BRANCH  13  14
ATOM     14  C   UNL     1      -2.650  -4.156   3.678  1.00  0.00     0.068 C 
BRANCH  14  15
ATOM     15  C   UNL     1      -3.641  -3.025   3.636  1.00  0.00     0.006 A 
ATOM     16  C   UNL     1      -4.888  -3.009   3.041  1.00  0.00     0.015 A 
ATOM     17  S   UNL     1      -3.267  -1.510   4.347  1.00  0.00    -0.149 S 
ATOM     18  C   UNL     1      -5.501  -1.724   3.101  1.00  0.00     0.012 A 
ATOM     19  C   UNL     1      -4.717  -0.811   3.769  1.00  0.00     0.065 A 
ENDBRANCH  14  15
ENDBRANCH  13  14
ENDBRANCH  11  13
ENDBRANCH   8  11
ENDBRANCH   5   7
ENDBRANCH   4   5
ENDBRANCH   3   4
ENDBRANCH   1   3
BRANCH   1  20
ATOM     20  O   UNL     1       1.097   2.637   2.260  1.00  0.00    -0.462 OA
BRANCH  20  21
ATOM     21  C   UNL     1       1.890   3.634   2.930  1.00  0.00     0.274 C 
BRANCH  21  22
ATOM     22  C   UNL     1       3.375   3.274   2.888  1.00  0.00     0.275 C 
BRANCH  22  23
ATOM     23  O   UNL     1       3.907   3.485   1.568  1.00  0.00    -0.458 OA
BRANCH  23  24
ATOM     24  C   UNL     1       4.076   2.374   0.822  1.00  0.00     0.338 C 
ATOM     25  O   UNL     1       3.917   1.212   1.180  1.00  0.00    -0.246 OA
BRANCH  24  26
ATOM     26  C   UNL     1       4.386   2.751  -0.564  1.00  0.00     0.060 A 
ATOM     27  C   UNL     1       3.477   2.416  -1.572  1.00  0.00     0.016 A 
ATOM     28  C   UNL     1       5.606   3.350  -0.882  1.00  0.00     0.016 A 
ATOM     29  C   UNL     1       3.800   2.633  -2.907  1.00  0.00     0.010 A 
ATOM     30  C   UNL     1       5.922   3.586  -2.223  1.00  0.00     0.010 A 
ATOM     31  C   UNL     1       5.035   3.198  -3.243  1.00  0.00    -0.014 A 
BRANCH  31  32
ATOM     32  C   UNL     1       5.420   3.303  -4.669  1.00  0.00     0.031 A 
ATOM     33  C   UNL     1       6.444   2.357  -5.230  1.00  0.00     0.074 A 
ATOM     34  C   UNL     1       4.840   4.227  -5.456  1.00  0.00     0.049 A 
ATOM     35  N   UNL     1       6.920   2.282  -6.445  1.00  0.00    -0.248 NA
ATOM     36  C   UNL     1       7.011   1.365  -4.300  1.00  0.00     0.031 C 
ATOM     37  C   UNL     1       3.833   5.195  -5.020  1.00  0.00     0.029 A 
ATOM     38  N   UNL     1       5.023   4.508  -6.786  1.00  0.00    -0.354 N 
ATOM     39  C   UNL     1       7.869   1.268  -6.418  1.00  0.00     0.074 A 
ATOM     40  C   UNL     1       7.907   0.758  -5.065  1.00  0.00     0.031 C 
ATOM     41  C   UNL     1       3.492   5.970  -6.063  1.00  0.00     0.029 A 
ATOM     42  C   UNL     1       4.271   5.569  -7.231  1.00  0.00     0.049 A 
ATOM     43  H   UNL     1       5.634   3.999  -7.366  1.00  0.00     0.167 HD
ATOM     44  C   UNL     1       8.629   0.792  -7.433  1.00  0.00     0.034 A 
ATOM     45  C   UNL     1       4.222   6.153  -8.444  1.00  0.00     0.034 A 
ATOM     46  C   UNL     1       8.555   1.272  -8.787  1.00  0.00     0.049 A 
ATOM     47  C   UNL     1       5.062   5.588  -9.559  1.00  0.00     0.074 A 
ATOM     48  C   UNL     1       9.250   0.827  -9.897  1.00  0.00     0.029 A 
ATOM     49  N   UNL     1       7.737   2.307  -9.214  1.00  0.00    -0.354 N 
ATOM     50  N   UNL     1       5.870   4.556  -9.544  1.00  0.00    -0.248 NA
ATOM     51  C   UNL     1       4.954   6.246 -10.870  1.00  0.00     0.031 C 
ATOM     52  C   UNL     1       8.857   1.600 -10.996  1.00  0.00     0.029 A 
ATOM     53  C   UNL     1       7.908   2.516 -10.572  1.00  0.00     0.049 A 
ATOM     54  H   UNL     1       7.124   2.817  -8.637  1.00  0.00     0.167 HD
ATOM     55  C   UNL     1       6.337   4.416 -10.846  1.00  0.00     0.074 A 
ATOM     56  C   UNL     1       5.705   5.458 -11.629  1.00  0.00     0.031 C 
ATOM     57  C   UNL     1       7.220   3.517 -11.347  1.00  0.00     0.034 A 
BRANCH  44  58
ATOM     58  C   UNL     1       9.583  -0.329  -7.122  1.00  0.00     0.023 A 
ATOM     59  C   UNL     1       9.085  -1.632  -6.923  1.00  0.00     0.012 A 
ATOM     60  C   UNL     1      10.972  -0.103  -7.070  1.00  0.00     0.148 A 
ATOM     61  C   UNL     1       9.953  -2.688  -6.647  1.00  0.00     0.002 A 
ATOM     62  C   UNL     1      11.834  -1.168  -6.832  1.00  0.00     0.091 A 
ATOM     63  F   UNL     1      11.425   1.148  -7.235  1.00  0.00    -0.205 F 
ATOM     64  C   UNL     1      11.326  -2.459  -6.611  1.00  0.00     0.022 A 
BRANCH  62  65
ATOM     65  S   UNL     1      13.620  -0.981  -6.837  1.00  0.00     0.127 S 
ATOM     66  O   UNL     1      13.927  -1.038  -5.409  1.00  0.00    -0.237 OA
ATOM     67  O   UNL     1      14.054  -2.152  -7.600  1.00  0.00    -0.237 OA
ATOM     68  O   UNL     1      13.885   0.295  -7.487  1.00  0.00    -0.744 OA
ENDBRANCH  62  65
ENDBRANCH  44  58
BRANCH  45  69
ATOM     69  C   UNL     1       3.296   7.295  -8.684  1.00  0.00     0.023 A 
ATOM     70  C   UNL     1       2.167   7.106  -9.504  1.00  0.00     0.012 A 
ATOM     71  C   UNL     1       3.509   8.553  -8.088  1.00  0.00     0.148 A 
ATOM     72  C   UNL     1       1.281   8.156  -9.748  1.00  0.00     0.002 A 
ATOM     73  C   UNL     1       2.595   9.580  -8.293  1.00  0.00     0.091 A 
ATOM     74  F   UNL     1       4.600   8.719  -7.327  1.00  0.00    -0.205 F 
ATOM     75  C   UNL     1       1.489   9.389  -9.135  1.00  0.00     0.022 A 
BRANCH  73  76
ATOM     76  S   UNL     1       2.720  11.158  -7.443  1.00  0.00     0.127 S 
ATOM     77  O   UNL     1       3.199  12.035  -8.509  1.00  0.00    -0.237 OA
ATOM     78  O   UNL     1       1.337  11.393  -7.027  1.00  0.00    -0.237 OA
ATOM     79  O   UNL     1       3.645  10.933  -6.340  1.00  0.00    -0.744 OA
ENDBRANCH  73  76
ENDBRANCH  45  69
BRANCH  57  80
ATOM     80  C   UNL     1       7.530   3.591 -12.818  1.00  0.00     0.023 A 
ATOM     81  C   UNL     1       8.344   4.630 -13.309  1.00  0.00     0.012 A 
ATOM     82  C   UNL     1       7.074   2.593 -13.701  1.00  0.00     0.148 A 
ATOM     83  C   UNL     1       8.673   4.693 -14.663  1.00  0.00     0.002 A 
ATOM     84  C   UNL     1       7.444   2.637 -15.041  1.00  0.00     0.091 A 
ATOM     85  F   UNL     1       6.281   1.623 -13.222  1.00  0.00    -0.205 F 
ATOM     86  C   UNL     1       8.234   3.691 -15.526  1.00  0.00     0.022 A 
BRANCH  84  87
ATOM     87  S   UNL     1       6.995   1.331 -16.191  1.00  0.00     0.127 S 
ATOM     88  O   UNL     1       5.834   1.910 -16.863  1.00  0.00    -0.237 OA
ATOM     89  O   UNL     1       8.191   1.221 -17.028  1.00  0.00    -0.237 OA
ATOM     90  O   UNL     1       6.732   0.158 -15.368  1.00  0.00    -0.744 OA
ENDBRANCH  84  87
ENDBRANCH  57  80
ENDBRANCH  31  32
ENDBRANCH  24  26
ENDBRANCH  23  24
ENDBRANCH  22  23
ENDBRANCH  21  22
ENDBRANCH  20  21
ENDBRANCH   1  20
TORSDOF 21
