REMARK SMILES Cc1[nH]cnc1C[NH+]1CCC(Oc2cccc(F)c2)(C(=O)OCCOC(=O)c2ccc(-c3c4nc(c(-c5cccc(S(=O)(=O)[O-])c5F)c5ccc([nH]5)c(-c5cccc(S(=O)(=O)[O-])c5F)c5nc(c(-c6cccc(S(=O)(=O)[O-])c6F)c6ccc3[nH]6)C=C5)C=C4)cc2)CC1
REMARK SMILES IDX 24 1 23 2 22 3 20 4 21 5 11 6 8 7 9 8 92 9 10 11 91 12 7 13
REMARK SMILES IDX 6 14 1 15 2 16 3 17 4 18 5 20 12 21 13 22 14 23 19 24 15 25
REMARK SMILES IDX 17 26 16 27 18 28 25 29 26 30 27 31 28 32 29 33 90 34 30 35
REMARK SMILES IDX 89 36 31 37 32 38 33 39 83 40 34 41 88 42 82 43 84 44 35 45
REMARK SMILES IDX 87 46 81 47 80 48 36 50 68 51 48 52 67 53 49 54 52 55 66 56
REMARK SMILES IDX 85 57 50 58 51 59 65 61 86 62 53 63 37 64 38 65 46 66 39 67
REMARK SMILES IDX 41 68 47 69 40 70 42 71 43 72 44 73 45 74 69 75 70 76 78 77
REMARK SMILES IDX 71 78 73 79 79 80 72 81 74 82 75 83 76 84 77 85 54 86 55 87
REMARK SMILES IDX 63 88 56 89 58 90 64 91 57 92 59 93 60 94 61 95 62 96
REMARK H PARENT 8 10 3 19 84 49 52 60
REMARK Flexibility Score: inf
ROOT
ATOM      1  C   UNL     1      -2.677   0.685   4.526  1.00  0.00     0.275 C 
ENDROOT
BRANCH   1   2
ATOM      2  C   UNL     1      -2.391  -0.485   5.458  1.00  0.00     0.274 C 
BRANCH   2   3
ATOM      3  O   UNL     1      -1.526  -1.457   4.836  1.00  0.00    -0.459 OA
BRANCH   3   4
ATOM      4  C   UNL     1      -2.156  -2.546   4.307  1.00  0.00     0.351 C 
ATOM      5  O   UNL     1      -3.378  -2.661   4.250  1.00  0.00    -0.247 OA
BRANCH   4   6
ATOM      6  C   UNL     1      -1.194  -3.683   3.919  1.00  0.00     0.216 C 
ATOM      7  N   UNL     1       0.370  -3.337   1.491  1.00  0.00    -0.330 N 
ATOM      8  C   UNL     1       0.739  -2.553   2.668  1.00  0.00     0.267 C 
ATOM      9  C   UNL     1      -1.084  -3.428   1.380  1.00  0.00     0.267 C 
ATOM     10  H   UNL     1       0.751  -4.273   1.635  1.00  0.00     0.348 HD
ATOM     11  C   UNL     1       0.297  -3.303   3.924  1.00  0.00     0.122 C 
ATOM     12  C   UNL     1      -1.622  -4.255   2.546  1.00  0.00     0.122 C 
BRANCH   7  13
ATOM     13  C   UNL     1       0.995  -2.875   0.235  1.00  0.00     0.321 C 
BRANCH  13  14
ATOM     14  C   UNL     1       0.799  -1.422  -0.078  1.00  0.00     0.115 A 
ATOM     15  C   UNL     1       3.103  -0.296   0.481  1.00  0.00     0.066 C 
ATOM     16  C   UNL     1       1.699  -0.373   0.030  1.00  0.00     0.040 A 
ATOM     17  N   UNL     1       1.015   0.728  -0.419  1.00  0.00    -0.348 N 
ATOM     18  C   UNL     1      -0.214   0.312  -0.831  1.00  0.00     0.197 A 
ATOM     19  H   UNL     1       1.353   1.653  -0.440  1.00  0.00     0.167 HD
ATOM     20  N   UNL     1      -0.385  -0.971  -0.620  1.00  0.00    -0.236 NA
ENDBRANCH  13  14
ENDBRANCH   7  13
BRANCH   6  21
ATOM     21  O   UNL     1      -1.438  -4.530   5.090  1.00  0.00    -0.475 OA
BRANCH  21  22
ATOM     22  C   UNL     1      -1.518  -5.871   4.875  1.00  0.00     0.123 A 
ATOM     23  C   UNL     1      -0.369  -6.652   4.993  1.00  0.00     0.047 A 
ATOM     24  C   UNL     1      -2.758  -6.460   4.642  1.00  0.00     0.085 A 
ATOM     25  C   UNL     1      -0.447  -8.033   4.815  1.00  0.00     0.007 A 
ATOM     26  C   UNL     1      -2.824  -7.837   4.467  1.00  0.00     0.126 A 
ATOM     27  C   UNL     1      -1.680  -8.627   4.545  1.00  0.00     0.039 A 
ATOM     28  F   UNL     1      -4.006  -8.418   4.228  1.00  0.00    -0.207 F 
ENDBRANCH  21  22
ENDBRANCH   6  21
ENDBRANCH   4   6
ENDBRANCH   3   4
ENDBRANCH   2   3
ENDBRANCH   1   2
BRANCH   1  29
ATOM     29  O   UNL     1      -3.315   0.205   3.334  1.00  0.00    -0.458 OA
BRANCH  29  30
ATOM     30  C   UNL     1      -2.762   0.615   2.171  1.00  0.00     0.338 C 
ATOM     31  O   UNL     1      -1.839   1.413   2.049  1.00  0.00    -0.246 OA
BRANCH  30  32
ATOM     32  C   UNL     1      -3.428  -0.027   1.020  1.00  0.00     0.060 A 
ATOM     33  C   UNL     1      -3.822  -1.367   1.054  1.00  0.00     0.016 A 
ATOM     34  C   UNL     1      -3.533   0.699  -0.168  1.00  0.00     0.016 A 
ATOM     35  C   UNL     1      -4.179  -2.017  -0.128  1.00  0.00     0.010 A 
ATOM     36  C   UNL     1      -3.964   0.068  -1.334  1.00  0.00     0.010 A 
ATOM     37  C   UNL     1      -4.252  -1.305  -1.333  1.00  0.00    -0.014 A 
BRANCH  37  38
ATOM     38  C   UNL     1      -4.714  -1.950  -2.586  1.00  0.00     0.031 A 
ATOM     39  C   UNL     1      -3.815  -2.054  -3.786  1.00  0.00     0.074 A 
ATOM     40  C   UNL     1      -5.994  -2.359  -2.660  1.00  0.00     0.049 A 
ATOM     41  N   UNL     1      -4.123  -2.359  -5.020  1.00  0.00    -0.248 NA
ATOM     42  C   UNL     1      -2.385  -1.777  -3.577  1.00  0.00     0.031 C 
ATOM     43  C   UNL     1      -6.952  -2.315  -1.554  1.00  0.00     0.029 A 
ATOM     44  N   UNL     1      -6.720  -2.847  -3.716  1.00  0.00    -0.354 N 
ATOM     45  C   UNL     1      -2.939  -2.276  -5.743  1.00  0.00     0.074 A 
ATOM     46  C   UNL     1      -1.901  -1.894  -4.808  1.00  0.00     0.031 C 
ATOM     47  C   UNL     1      -8.145  -2.735  -1.992  1.00  0.00     0.029 A 
ATOM     48  C   UNL     1      -8.053  -3.004  -3.422  1.00  0.00     0.049 A 
ATOM     49  H   UNL     1      -6.327  -3.063  -4.592  1.00  0.00     0.167 HD
ATOM     50  C   UNL     1      -2.741  -2.514  -7.062  1.00  0.00     0.034 A 
ATOM     51  C   UNL     1      -9.104  -3.275  -4.220  1.00  0.00     0.034 A 
ATOM     52  C   UNL     1      -3.776  -2.944  -7.968  1.00  0.00     0.049 A 
ATOM     53  C   UNL     1      -8.869  -3.493  -5.683  1.00  0.00     0.074 A 
ATOM     54  C   UNL     1      -3.666  -3.258  -9.312  1.00  0.00     0.029 A 
ATOM     55  N   UNL     1      -5.107  -3.126  -7.625  1.00  0.00    -0.354 N 
ATOM     56  N   UNL     1      -7.739  -3.458  -6.345  1.00  0.00    -0.248 NA
ATOM     57  C   UNL     1     -10.044  -3.800  -6.507  1.00  0.00     0.031 C 
ATOM     58  C   UNL     1      -4.932  -3.623  -9.783  1.00  0.00     0.029 A 
ATOM     59  C   UNL     1      -5.830  -3.541  -8.731  1.00  0.00     0.049 A 
ATOM     60  H   UNL     1      -5.483  -2.982  -6.726  1.00  0.00     0.167 HD
ATOM     61  C   UNL     1      -8.060  -3.748  -7.663  1.00  0.00     0.074 A 
ATOM     62  C   UNL     1      -9.491  -3.981  -7.701  1.00  0.00     0.031 C 
ATOM     63  C   UNL     1      -7.247  -3.797  -8.746  1.00  0.00     0.034 A 
BRANCH  50  64
ATOM     64  C   UNL     1      -1.347  -2.379  -7.617  1.00  0.00     0.023 A 
ATOM     65  C   UNL     1      -0.424  -3.424  -7.415  1.00  0.00     0.012 A 
ATOM     66  C   UNL     1      -0.994  -1.295  -8.445  1.00  0.00     0.148 A 
ATOM     67  C   UNL     1       0.829  -3.392  -8.027  1.00  0.00     0.002 A 
ATOM     68  C   UNL     1       0.247  -1.284  -9.075  1.00  0.00     0.091 A 
ATOM     69  F   UNL     1      -1.878  -0.300  -8.608  1.00  0.00    -0.205 F 
ATOM     70  C   UNL     1       1.159  -2.331  -8.866  1.00  0.00     0.022 A 
BRANCH  68  71
ATOM     71  S   UNL     1       0.734   0.006 -10.229  1.00  0.00     0.127 S 
ATOM     72  O   UNL     1       1.690   0.772  -9.431  1.00  0.00    -0.237 OA
ATOM     73  O   UNL     1       1.333  -0.761 -11.322  1.00  0.00    -0.237 OA
ATOM     74  O   UNL     1      -0.491   0.708 -10.585  1.00  0.00    -0.744 OA
ENDBRANCH  68  71
ENDBRANCH  50  64
BRANCH  51  75
ATOM     75  C   UNL     1     -10.455  -3.365  -3.604  1.00  0.00     0.023 A 
ATOM     76  C   UNL     1     -11.043  -4.628  -3.421  1.00  0.00     0.012 A 
ATOM     77  C   UNL     1     -11.080  -2.225  -3.057  1.00  0.00     0.148 A 
ATOM     78  C   UNL     1     -12.225  -4.758  -2.690  1.00  0.00     0.002 A 
ATOM     79  C   UNL     1     -12.220  -2.370  -2.275  1.00  0.00     0.091 A 
ATOM     80  F   UNL     1     -10.516  -1.026  -3.265  1.00  0.00    -0.205 F 
ATOM     81  C   UNL     1     -12.799  -3.635  -2.099  1.00  0.00     0.022 A 
BRANCH  79  82
ATOM     82  S   UNL     1     -12.897  -0.998  -1.331  1.00  0.00     0.127 S 
ATOM     83  O   UNL     1     -14.019  -0.582  -2.167  1.00  0.00    -0.237 OA
ATOM     84  O   UNL     1     -13.273  -1.641  -0.071  1.00  0.00    -0.237 OA
ATOM     85  O   UNL     1     -11.803  -0.043  -1.204  1.00  0.00    -0.744 OA
ENDBRANCH  79  82
ENDBRANCH  51  75
BRANCH  63  86
ATOM     86  C   UNL     1      -7.885  -4.103 -10.072  1.00  0.00     0.023 A 
ATOM     87  C   UNL     1      -8.586  -3.084 -10.746  1.00  0.00     0.012 A 
ATOM     88  C   UNL     1      -7.735  -5.363 -10.682  1.00  0.00     0.148 A 
ATOM     89  C   UNL     1      -9.146  -3.320 -12.000  1.00  0.00     0.002 A 
ATOM     90  C   UNL     1      -8.266  -5.581 -11.948  1.00  0.00     0.091 A 
ATOM     91  F   UNL     1      -7.084  -6.327 -10.013  1.00  0.00    -0.205 F 
ATOM     92  C   UNL     1      -8.977  -4.564 -12.605  1.00  0.00     0.022 A 
BRANCH  90  93
ATOM     93  S   UNL     1      -8.026  -7.131 -12.824  1.00  0.00     0.127 S 
ATOM     94  O   UNL     1      -9.291  -7.818 -12.570  1.00  0.00    -0.237 OA
ATOM     95  O   UNL     1      -7.841  -6.689 -14.207  1.00  0.00    -0.237 OA
ATOM     96  O   UNL     1      -6.844  -7.739 -12.228  1.00  0.00    -0.744 OA
ENDBRANCH  90  93
ENDBRANCH  63  86
ENDBRANCH  37  38
ENDBRANCH  30  32
ENDBRANCH  29  30
ENDBRANCH   1  29
TORSDOF 18
