REMARK SMILES CC1(C)O[C@](C)(C(C)(C)O)CC[C@H]1C(=O)OCCOC(=O)c1ccc(-c2c3nc(c(-c4cccc(S(=O)(=O)[O-])c4F)c4ccc([nH]4)c(-c4cccc(S(=O)(=O)[O-])c4F)c4nc(c(-c5cccc(S(=O)(=O)[O-])c5F)c5ccc2[nH]5)C=C4)C=C3)cc1
REMARK SMILES IDX 18 1 17 2 16 3 14 4 15 5 13 6 1 7 2 8 3 9 4 10 5 11 12 12
REMARK SMILES IDX 6 13 11 14 7 15 8 16 9 17 10 18 19 20 20 21 21 22 22 23
REMARK SMILES IDX 23 24 84 25 24 26 83 27 25 28 26 29 27 30 77 31 28 32 82 33
REMARK SMILES IDX 76 34 78 35 29 36 81 37 75 38 74 39 30 41 62 42 42 43 61 44
REMARK SMILES IDX 43 45 46 46 60 47 79 48 44 49 45 50 59 52 80 53 47 54 31 55
REMARK SMILES IDX 32 56 40 57 33 58 35 59 41 60 34 61 36 62 37 63 38 64 39 65
REMARK SMILES IDX 63 66 64 67 72 68 65 69 67 70 73 71 66 72 68 73 69 74 70 75
REMARK SMILES IDX 71 76 48 77 49 78 57 79 50 80 52 81 58 82 51 83 53 84 54 85
REMARK SMILES IDX 55 86 56 87
REMARK H PARENT 10 19 78 40 46 51
REMARK Flexibility Score: inf
ROOT
ATOM      1  C   UNL     1       5.075  -2.634   0.788  1.00  0.00     0.275 C 
ENDROOT
BRANCH   1   2
ATOM      2  C   UNL     1       4.139  -2.667  -0.418  1.00  0.00     0.274 C 
BRANCH   2   3
ATOM      3  O   UNL     1       2.876  -2.033  -0.132  1.00  0.00    -0.462 OA
BRANCH   3   4
ATOM      4  C   UNL     1       1.875  -2.865   0.239  1.00  0.00     0.311 C 
ATOM      5  O   UNL     1       2.002  -4.080   0.358  1.00  0.00    -0.252 OA
BRANCH   4   6
ATOM      6  C   UNL     1       0.523  -2.194   0.410  1.00  0.00     0.131 C 
ATOM      7  C   UNL     1       1.216   0.246  -0.238  1.00  0.00     0.043 C 
ATOM      8  C   UNL     1       0.443  -0.679   0.711  1.00  0.00     0.077 C 
ATOM      9  C   UNL     1       0.957  -0.401   2.137  1.00  0.00     0.043 C 
ATOM     10  O   UNL     1      -0.937  -0.249   0.774  1.00  0.00    -0.366 OA
ATOM     11  C   UNL     1      -1.879  -0.630  -0.246  1.00  0.00     0.094 C 
ATOM     12  C   UNL     1      -0.351  -2.598  -0.778  1.00  0.00     0.021 C 
ATOM     13  C   UNL     1      -1.626   0.155  -1.552  1.00  0.00     0.045 C 
ATOM     14  C   UNL     1      -1.783  -2.142  -0.538  1.00  0.00     0.039 C 
BRANCH  11  15
ATOM     15  C   UNL     1      -3.319  -0.256   0.312  1.00  0.00     0.088 C 
ATOM     16  C   UNL     1      -3.659  -0.983   1.627  1.00  0.00     0.045 C 
ATOM     17  C   UNL     1      -3.461   1.257   0.565  1.00  0.00     0.045 C 
BRANCH  15  18
ATOM     18  O   UNL     1      -4.320  -0.624  -0.654  1.00  0.00    -0.387 OA
ATOM     19  H   UNL     1      -4.259  -1.574  -0.837  1.00  0.00     0.211 HD
ENDBRANCH  15  18
ENDBRANCH  11  15
ENDBRANCH   4   6
ENDBRANCH   3   4
ENDBRANCH   2   3
ENDBRANCH   1   2
BRANCH   1  20
ATOM     20  O   UNL     1       4.482  -3.317   1.904  1.00  0.00    -0.458 OA
BRANCH  20  21
ATOM     21  C   UNL     1       4.218  -2.546   2.982  1.00  0.00     0.338 C 
ATOM     22  O   UNL     1       4.481  -1.365   3.132  1.00  0.00    -0.246 OA
BRANCH  21  23
ATOM     23  C   UNL     1       3.498  -3.334   3.990  1.00  0.00     0.060 A 
ATOM     24  C   UNL     1       2.119  -3.510   3.862  1.00  0.00     0.016 A 
ATOM     25  C   UNL     1       4.167  -3.766   5.134  1.00  0.00     0.016 A 
ATOM     26  C   UNL     1       1.387  -4.065   4.909  1.00  0.00     0.010 A 
ATOM     27  C   UNL     1       3.438  -4.362   6.166  1.00  0.00     0.010 A 
ATOM     28  C   UNL     1       2.040  -4.477   6.078  1.00  0.00    -0.014 A 
BRANCH  28  29
ATOM     29  C   UNL     1       1.253  -4.955   7.241  1.00  0.00     0.031 A 
ATOM     30  C   UNL     1       1.172  -4.112   8.483  1.00  0.00     0.074 A 
ATOM     31  C   UNL     1       0.628  -6.145   7.190  1.00  0.00     0.049 A 
ATOM     32  N   UNL     1       0.611  -4.386   9.632  1.00  0.00    -0.248 NA
ATOM     33  C   UNL     1       1.819  -2.790   8.431  1.00  0.00     0.031 C 
ATOM     34  C   UNL     1       0.644  -7.056   6.046  1.00  0.00     0.029 A 
ATOM     35  N   UNL     1      -0.119  -6.802   8.135  1.00  0.00    -0.354 N 
ATOM     36  C   UNL     1       0.879  -3.299  10.454  1.00  0.00     0.074 A 
ATOM     37  C   UNL     1       1.654  -2.359   9.673  1.00  0.00     0.031 C 
ATOM     38  C   UNL     1      -0.043  -8.165   6.363  1.00  0.00     0.029 A 
ATOM     39  C   UNL     1      -0.522  -8.054   7.739  1.00  0.00     0.049 A 
ATOM     40  H   UNL     1      -0.344  -6.413   9.011  1.00  0.00     0.167 HD
ATOM     41  C   UNL     1       0.500  -3.093  11.737  1.00  0.00     0.034 A 
ATOM     42  C   UNL     1      -1.183  -9.014   8.415  1.00  0.00     0.034 A 
ATOM     43  C   UNL     1      -0.320  -3.999  12.494  1.00  0.00     0.049 A 
ATOM     44  C   UNL     1      -1.635  -8.742   9.823  1.00  0.00     0.074 A 
ATOM     45  C   UNL     1      -0.802  -3.854  13.783  1.00  0.00     0.029 A 
ATOM     46  N   UNL     1      -0.787  -5.218  12.028  1.00  0.00    -0.354 N 
ATOM     47  N   UNL     1      -1.464  -7.664  10.550  1.00  0.00    -0.248 NA
ATOM     48  C   UNL     1      -2.399  -9.804  10.495  1.00  0.00     0.031 C 
ATOM     49  C   UNL     1      -1.564  -4.986  14.095  1.00  0.00     0.029 A 
ATOM     50  C   UNL     1      -1.554  -5.836  13.000  1.00  0.00     0.049 A 
ATOM     51  H   UNL     1      -0.600  -5.590  11.136  1.00  0.00     0.167 HD
ATOM     52  C   UNL     1      -2.109  -7.909  11.756  1.00  0.00     0.074 A 
ATOM     53  C   UNL     1      -2.701  -9.228  11.651  1.00  0.00     0.031 C 
ATOM     54  C   UNL     1      -2.182  -7.125  12.860  1.00  0.00     0.034 A 
BRANCH  41  55
ATOM     55  C   UNL     1       0.936  -1.808  12.386  1.00  0.00     0.023 A 
ATOM     56  C   UNL     1       0.271  -0.609  12.061  1.00  0.00     0.012 A 
ATOM     57  C   UNL     1       1.978  -1.786  13.332  1.00  0.00     0.148 A 
ATOM     58  C   UNL     1       0.656   0.597  12.646  1.00  0.00     0.002 A 
ATOM     59  C   UNL     1       2.334  -0.584  13.936  1.00  0.00     0.091 A 
ATOM     60  F   UNL     1       2.623  -2.929  13.607  1.00  0.00    -0.205 F 
ATOM     61  C   UNL     1       1.680   0.609  13.589  1.00  0.00     0.022 A 
BRANCH  59  62
ATOM     62  S   UNL     1       3.603  -0.510  15.206  1.00  0.00     0.127 S 
ATOM     63  O   UNL     1       4.795  -0.199  14.420  1.00  0.00    -0.237 OA
ATOM     64  O   UNL     1       3.138   0.583  16.062  1.00  0.00    -0.237 OA
ATOM     65  O   UNL     1       3.581  -1.818  15.846  1.00  0.00    -0.744 OA
ENDBRANCH  59  62
ENDBRANCH  41  55
BRANCH  42  66
ATOM     66  C   UNL     1      -1.492 -10.301   7.732  1.00  0.00     0.023 A 
ATOM     67  C   UNL     1      -2.814 -10.573   7.335  1.00  0.00     0.012 A 
ATOM     68  C   UNL     1      -0.472 -11.216   7.405  1.00  0.00     0.148 A 
ATOM     69  C   UNL     1      -3.118 -11.738   6.631  1.00  0.00     0.002 A 
ATOM     70  C   UNL     1      -0.772 -12.348   6.656  1.00  0.00     0.091 A 
ATOM     71  F   UNL     1       0.777 -10.950   7.813  1.00  0.00    -0.205 F 
ATOM     72  C   UNL     1      -2.096 -12.617   6.278  1.00  0.00     0.022 A 
BRANCH  70  73
ATOM     73  S   UNL     1       0.506 -13.450   6.040  1.00  0.00     0.127 S 
ATOM     74  O   UNL     1       0.381 -14.590   6.945  1.00  0.00    -0.237 OA
ATOM     75  O   UNL     1       0.061 -13.701   4.669  1.00  0.00    -0.237 OA
ATOM     76  O   UNL     1       1.748 -12.694   6.134  1.00  0.00    -0.744 OA
ENDBRANCH  70  73
ENDBRANCH  42  66
BRANCH  54  77
ATOM     77  C   UNL     1      -2.931  -7.667  14.047  1.00  0.00     0.023 A 
ATOM     78  C   UNL     1      -2.319  -8.642  14.860  1.00  0.00     0.012 A 
ATOM     79  C   UNL     1      -4.198  -7.166  14.402  1.00  0.00     0.148 A 
ATOM     80  C   UNL     1      -2.967  -9.127  15.995  1.00  0.00     0.002 A 
ATOM     81  C   UNL     1      -4.823  -7.629  15.556  1.00  0.00     0.091 A 
ATOM     82  F   UNL     1      -4.778  -6.257  13.605  1.00  0.00    -0.205 F 
ATOM     83  C   UNL     1      -4.213  -8.613  16.349  1.00  0.00     0.022 A 
BRANCH  81  84
ATOM     84  S   UNL     1      -6.391  -6.949  16.110  1.00  0.00     0.127 S 
ATOM     85  O   UNL     1      -7.349  -7.881  15.521  1.00  0.00    -0.237 OA
ATOM     86  O   UNL     1      -6.281  -7.032  17.568  1.00  0.00    -0.237 OA
ATOM     87  O   UNL     1      -6.424  -5.587  15.593  1.00  0.00    -0.744 OA
ENDBRANCH  81  84
ENDBRANCH  54  77
ENDBRANCH  28  29
ENDBRANCH  21  23
ENDBRANCH  20  21
ENDBRANCH   1  20
TORSDOF 16
