REMARK SMILES Cc1c(CC(=O)N[C@H](CO)C(=O)OCCOC(=O)c2ccc(-c3c4nc(c(-c5cccc(S(=O)(=O)[O-])c5F)c5ccc([nH]5)c(-c5cccc(S(=O)(=O)[O-])c5F)c5nc(c(-c6cccc(S(=O)(=O)[O-])c6F)c6ccc3[nH]6)C=C5)C=C4)cc2)cc(-c2ccc(S(C)(=O)=O)cc2)n1-c1ccc(F)cc1
REMARK SMILES IDX 14 1 13 2 11 3 12 4 8 5 7 6 5 7 6 8 4 10 3 11 1 12 2 13
REMARK SMILES IDX 94 14 82 15 83 16 95 17 96 18 101 19 97 20 100 21 98 22
REMARK SMILES IDX 99 23 84 24 85 25 93 26 86 27 92 28 87 29 88 30 89 31 90 32
REMARK SMILES IDX 91 33 9 34 10 35 15 37 16 38 17 39 18 40 19 41 20 42 81 43
REMARK SMILES IDX 21 44 80 45 22 46 23 47 24 48 74 49 25 50 79 51 73 52 75 53
REMARK SMILES IDX 26 54 78 55 72 56 71 57 27 59 59 60 39 61 58 62 40 63 43 64
REMARK SMILES IDX 57 65 76 66 41 67 42 68 56 70 77 71 44 72 28 73 29 74 37 75
REMARK SMILES IDX 30 76 32 77 38 78 31 79 33 80 34 81 35 82 36 83 60 84 61 85
REMARK SMILES IDX 69 86 62 87 64 88 70 89 63 90 65 91 66 92 67 93 68 94 45 95
REMARK SMILES IDX 46 96 54 97 47 98 49 99 55 100 48 101 50 102 51 103 52 104
REMARK SMILES IDX 53 105
REMARK H PARENT 7 9 10 36 75 58 43 69
REMARK Flexibility Score: inf
ROOT
ATOM      1  C   UNL     1      -3.104  -5.045   1.844  1.00  0.00     0.274 C 
ENDROOT
BRANCH   1   2
ATOM      2  O   UNL     1      -2.838  -3.713   1.363  1.00  0.00    -0.460 OA
BRANCH   2   3
ATOM      3  C   UNL     1      -2.064  -2.954   2.184  1.00  0.00     0.331 C 
ATOM      4  O   UNL     1      -1.464  -3.369   3.171  1.00  0.00    -0.250 OA
BRANCH   3   5
ATOM      5  C   UNL     1      -2.079  -1.482   1.799  1.00  0.00     0.218 C 
BRANCH   5   6
ATOM      6  N   UNL     1      -3.381  -0.840   2.032  1.00  0.00    -0.341 N 
ATOM      7  C   UNL     1      -4.016  -0.546   3.202  1.00  0.00     0.225 C 
ATOM      8  O   UNL     1      -4.934   0.281   3.143  1.00  0.00    -0.275 OA
ATOM      9  H   UNL     1      -3.869  -0.584   1.217  1.00  0.00     0.164 HD
BRANCH   7  10
ATOM     10  C   UNL     1      -3.599  -1.174   4.532  1.00  0.00     0.137 C 
BRANCH  10  11
ATOM     11  C   UNL     1      -4.136  -2.563   4.822  1.00  0.00    -0.017 A 
ATOM     12  C   UNL     1      -6.681  -2.363   4.288  1.00  0.00     0.065 C 
ATOM     13  C   UNL     1      -5.419  -3.078   4.650  1.00  0.00     0.024 A 
ATOM     14  N   UNL     1      -5.396  -4.440   4.964  1.00  0.00    -0.314 N 
ATOM     15  C   UNL     1      -3.375  -3.616   5.434  1.00  0.00     0.033 A 
ATOM     16  C   UNL     1      -4.130  -4.781   5.466  1.00  0.00     0.053 A 
BRANCH  14  17
ATOM     17  C   UNL     1      -6.393  -5.415   4.639  1.00  0.00     0.046 A 
ATOM     18  C   UNL     1      -6.622  -6.482   5.526  1.00  0.00     0.029 A 
ATOM     19  C   UNL     1      -6.837  -5.499   3.311  1.00  0.00     0.029 A 
ATOM     20  C   UNL     1      -7.161  -7.677   5.050  1.00  0.00     0.041 A 
ATOM     21  C   UNL     1      -7.412  -6.686   2.854  1.00  0.00     0.041 A 
ATOM     22  C   UNL     1      -7.532  -7.774   3.716  1.00  0.00     0.123 A 
ATOM     23  F   UNL     1      -7.964  -8.947   3.236  1.00  0.00    -0.207 F 
ENDBRANCH  14  17
BRANCH  16  24
ATOM     24  C   UNL     1      -3.676  -6.184   5.685  1.00  0.00    -0.001 A 
ATOM     25  C   UNL     1      -3.792  -7.123   4.639  1.00  0.00     0.011 A 
ATOM     26  C   UNL     1      -3.191  -6.650   6.909  1.00  0.00     0.011 A 
ATOM     27  C   UNL     1      -3.445  -8.466   4.779  1.00  0.00     0.021 A 
ATOM     28  C   UNL     1      -2.871  -8.018   7.076  1.00  0.00     0.021 A 
ATOM     29  C   UNL     1      -2.995  -8.921   6.007  1.00  0.00     0.067 A 
BRANCH  29  30
ATOM     30  S   UNL     1      -2.397 -10.598   6.103  1.00  0.00     0.175 S 
ATOM     31  C   UNL     1      -3.805 -11.635   6.061  1.00  0.00     0.163 C 
ATOM     32  O   UNL     1      -1.704 -10.885   4.864  1.00  0.00    -0.224 OA
ATOM     33  O   UNL     1      -1.808 -10.780   7.414  1.00  0.00    -0.224 OA
ENDBRANCH  29  30
ENDBRANCH  16  24
ENDBRANCH  10  11
ENDBRANCH   7  10
ENDBRANCH   5   6
BRANCH   5  34
ATOM     34  C   UNL     1      -1.622  -1.334   0.330  1.00  0.00     0.193 C 
BRANCH  34  35
ATOM     35  O   UNL     1      -2.519  -0.510  -0.430  1.00  0.00    -0.394 OA
ATOM     36  H   UNL     1      -3.400  -0.916  -0.442  1.00  0.00     0.210 HD
ENDBRANCH  34  35
ENDBRANCH   5  34
ENDBRANCH   3   5
ENDBRANCH   2   3
ENDBRANCH   1   2
BRANCH   1  37
ATOM     37  C   UNL     1      -1.903  -6.016   1.788  1.00  0.00     0.275 C 
BRANCH  37  38
ATOM     38  O   UNL     1      -1.529  -6.588   3.077  1.00  0.00    -0.458 OA
BRANCH  38  39
ATOM     39  C   UNL     1      -0.233  -6.493   3.506  1.00  0.00     0.338 C 
ATOM     40  O   UNL     1       0.607  -5.769   2.994  1.00  0.00    -0.246 OA
BRANCH  39  41
ATOM     41  C   UNL     1       0.035  -7.411   4.685  1.00  0.00     0.060 A 
ATOM     42  C   UNL     1       0.004  -6.950   5.996  1.00  0.00     0.016 A 
ATOM     43  C   UNL     1       0.431  -8.743   4.518  1.00  0.00     0.016 A 
ATOM     44  C   UNL     1       0.280  -7.837   7.095  1.00  0.00     0.010 A 
ATOM     45  C   UNL     1       0.769  -9.614   5.630  1.00  0.00     0.010 A 
ATOM     46  C   UNL     1       0.686  -9.214   6.968  1.00  0.00    -0.014 A 
BRANCH  46  47
ATOM     47  C   UNL     1       1.475  -9.888   8.185  1.00  0.00     0.031 A 
ATOM     48  C   UNL     1       2.457  -8.826   8.534  1.00  0.00     0.074 A 
ATOM     49  C   UNL     1       1.621 -11.094   8.880  1.00  0.00     0.049 A 
ATOM     50  N   UNL     1       3.032  -8.132   7.583  1.00  0.00    -0.248 NA
ATOM     51  C   UNL     1       2.649  -8.253   9.865  1.00  0.00     0.031 C 
ATOM     52  C   UNL     1       0.903 -12.362   8.661  1.00  0.00     0.029 A 
ATOM     53  N   UNL     1       2.477 -11.498   9.965  1.00  0.00    -0.354 N 
ATOM     54  C   UNL     1       4.046  -7.487   8.206  1.00  0.00     0.074 A 
ATOM     55  C   UNL     1       3.545  -7.305   9.560  1.00  0.00     0.031 C 
ATOM     56  C   UNL     1       1.225 -13.306   9.597  1.00  0.00     0.029 A 
ATOM     57  C   UNL     1       2.260 -12.820  10.512  1.00  0.00     0.049 A 
ATOM     58  H   UNL     1       3.177 -10.902  10.319  1.00  0.00     0.167 HD
ATOM     59  C   UNL     1       5.285  -7.863   7.772  1.00  0.00     0.034 A 
ATOM     60  C   UNL     1       2.913 -13.521  11.530  1.00  0.00     0.034 A 
ATOM     61  C   UNL     1       6.111  -8.414   8.806  1.00  0.00     0.049 A 
ATOM     62  C   UNL     1       4.277 -12.965  11.573  1.00  0.00     0.074 A 
ATOM     63  C   UNL     1       6.288  -8.133  10.147  1.00  0.00     0.029 A 
ATOM     64  N   UNL     1       6.598  -9.685   8.604  1.00  0.00    -0.354 N 
ATOM     65  N   UNL     1       5.167 -13.339  10.702  1.00  0.00    -0.248 NA
ATOM     66  C   UNL     1       4.790 -12.167  12.681  1.00  0.00     0.031 C 
ATOM     67  C   UNL     1       6.436  -9.387  10.783  1.00  0.00     0.029 A 
ATOM     68  C   UNL     1       6.617 -10.359   9.810  1.00  0.00     0.049 A 
ATOM     69  H   UNL     1       6.888 -10.055   7.739  1.00  0.00     0.167 HD
ATOM     70  C   UNL     1       6.178 -12.448  10.871  1.00  0.00     0.074 A 
ATOM     71  C   UNL     1       6.031 -11.963  12.229  1.00  0.00     0.031 C 
ATOM     72  C   UNL     1       6.599 -11.802   9.758  1.00  0.00     0.034 A 
BRANCH  59  73
ATOM     73  C   UNL     1       5.315  -8.275   6.300  1.00  0.00     0.023 A 
ATOM     74  C   UNL     1       5.690  -7.299   5.364  1.00  0.00     0.012 A 
ATOM     75  C   UNL     1       4.767  -9.504   5.819  1.00  0.00     0.148 A 
ATOM     76  C   UNL     1       5.493  -7.512   3.996  1.00  0.00     0.002 A 
ATOM     77  C   UNL     1       4.533  -9.690   4.456  1.00  0.00     0.091 A 
ATOM     78  F   UNL     1       4.440 -10.449   6.714  1.00  0.00    -0.205 F 
ATOM     79  C   UNL     1       4.895  -8.689   3.546  1.00  0.00     0.022 A 
BRANCH  77  80
ATOM     80  S   UNL     1       3.640 -11.106   3.775  1.00  0.00     0.127 S 
ATOM     81  O   UNL     1       2.621 -10.462   2.939  1.00  0.00    -0.237 OA
ATOM     82  O   UNL     1       4.665 -11.805   3.009  1.00  0.00    -0.237 OA
ATOM     83  O   UNL     1       3.103 -11.840   4.914  1.00  0.00    -0.744 OA
ENDBRANCH  77  80
ENDBRANCH  59  73
BRANCH  60  84
ATOM     84  C   UNL     1       2.935 -14.820  12.425  1.00  0.00     0.023 A 
ATOM     85  C   UNL     1       4.193 -15.514  12.550  1.00  0.00     0.012 A 
ATOM     86  C   UNL     1       2.005 -15.127  13.448  1.00  0.00     0.148 A 
ATOM     87  C   UNL     1       4.566 -16.303  13.653  1.00  0.00     0.002 A 
ATOM     88  C   UNL     1       2.364 -15.982  14.533  1.00  0.00     0.091 A 
ATOM     89  F   UNL     1       0.814 -14.515  13.433  1.00  0.00    -0.205 F 
ATOM     90  C   UNL     1       3.651 -16.529  14.655  1.00  0.00     0.022 A 
BRANCH  88  91
ATOM     91  S   UNL     1       1.251 -16.422  15.892  1.00  0.00     0.127 S 
ATOM     92  O   UNL     1       1.570 -17.832  16.128  1.00  0.00    -0.237 OA
ATOM     93  O   UNL     1       1.694 -15.521  16.954  1.00  0.00    -0.237 OA
ATOM     94  O   UNL     1      -0.091 -16.190  15.377  1.00  0.00    -0.744 OA
ENDBRANCH  88  91
ENDBRANCH  60  84
BRANCH  72  95
ATOM     95  C   UNL     1       6.680 -12.593   8.460  1.00  0.00     0.023 A 
ATOM     96  C   UNL     1       5.664 -13.435   7.953  1.00  0.00     0.012 A 
ATOM     97  C   UNL     1       7.841 -12.448   7.684  1.00  0.00     0.148 A 
ATOM     98  C   UNL     1       5.814 -14.126   6.745  1.00  0.00     0.002 A 
ATOM     99  C   UNL     1       7.967 -13.086   6.452  1.00  0.00     0.091 A 
ATOM    100  F   UNL     1       8.825 -11.671   8.167  1.00  0.00    -0.205 F 
ATOM    101  C   UNL     1       6.960 -13.936   5.981  1.00  0.00     0.022 A 
BRANCH  99 102
ATOM    102  S   UNL     1       9.407 -12.777   5.430  1.00  0.00     0.127 S 
ATOM    103  O   UNL     1      10.305 -13.858   5.834  1.00  0.00    -0.237 OA
ATOM    104  O   UNL     1       8.900 -12.888   4.065  1.00  0.00    -0.237 OA
ATOM    105  O   UNL     1       9.845 -11.432   5.795  1.00  0.00    -0.744 OA
ENDBRANCH  99 102
ENDBRANCH  72  95
ENDBRANCH  46  47
ENDBRANCH  39  41
ENDBRANCH  38  39
ENDBRANCH  37  38
ENDBRANCH   1  37
TORSDOF 22
