REMARK SMILES CCc1c([N+](=O)[O-])cc(C(=O)OCCOC(=O)c2ccc(-c3c4nc(c(-c5cccc(S(=O)(=O)[O-])c5F)c5ccc([nH]5)c(-c5cccc(S(=O)(=O)[O-])c5F)c5nc(c(-c6cccc(S(=O)(=O)[O-])c6F)c6ccc3[nH]6)C=C5)C=C4)cc2)n1C
REMARK SMILES IDX 14 1 13 2 12 3 10 4 11 5 9 6 3 7 4 8 81 9 8 10 82 11 2 12
REMARK SMILES IDX 1 13 5 14 6 15 7 16 15 17 16 18 17 19 18 20 19 21 80 22
REMARK SMILES IDX 20 23 79 24 21 25 22 26 23 27 73 28 24 29 78 30 72 31 74 32
REMARK SMILES IDX 25 33 77 34 71 35 70 36 26 38 58 39 38 40 57 41 39 42 42 43
REMARK SMILES IDX 56 44 75 45 40 46 41 47 55 49 76 50 43 51 27 52 28 53 36 54
REMARK SMILES IDX 29 55 31 56 37 57 30 58 32 59 33 60 34 61 35 62 59 63 60 64
REMARK SMILES IDX 68 65 61 66 63 67 69 68 62 69 64 70 65 71 66 72 67 73 44 74
REMARK SMILES IDX 45 75 53 76 46 77 48 78 54 79 47 80 49 81 50 82 51 83 52 84
REMARK H PARENT 74 37 42 48
REMARK Flexibility Score: inf
ROOT
ATOM      1  C   UNL     1       2.519  -3.886   6.237  1.00  0.00     0.275 C 
ENDROOT
BRANCH   1   2
ATOM      2  C   UNL     1       3.511  -3.302   5.229  1.00  0.00     0.275 C 
BRANCH   2   3
ATOM      3  O   UNL     1       2.847  -2.898   4.013  1.00  0.00    -0.457 OA
BRANCH   3   4
ATOM      4  C   UNL     1       3.100  -3.648   2.904  1.00  0.00     0.355 C 
ATOM      5  O   UNL     1       3.847  -4.613   2.878  1.00  0.00    -0.244 OA
BRANCH   4   6
ATOM      6  C   UNL     1       2.288  -3.222   1.772  1.00  0.00     0.134 A 
ATOM      7  C   UNL     1       1.069  -2.017   0.254  1.00  0.00     0.096 A 
ATOM      8  C   UNL     1       0.950  -3.373  -0.065  1.00  0.00     0.291 A 
ATOM      9  N   UNL     1       1.859  -1.950   1.408  1.00  0.00    -0.336 N 
ATOM     10  C   UNL     1       1.807  -4.085   0.800  1.00  0.00     0.121 A 
ATOM     11  C   UNL     1       2.250  -0.735   2.090  1.00  0.00     0.150 C 
BRANCH   7  12
ATOM     12  C   UNL     1       0.428  -0.879  -0.511  1.00  0.00     0.058 C 
ATOM     13  C   UNL     1       0.860   0.547  -0.255  1.00  0.00     0.011 C 
ENDBRANCH   7  12
BRANCH   8  14
ATOM     14  N   UNL     1       0.133  -3.986  -1.099  1.00  0.00     0.064 N 
ATOM     15  O   UNL     1      -0.461  -3.243  -1.890  1.00  0.00    -0.258 OA
ATOM     16  O   UNL     1       0.085  -5.222  -1.103  1.00  0.00    -0.258 OA
ENDBRANCH   8  14
ENDBRANCH   4   6
ENDBRANCH   3   4
ENDBRANCH   2   3
ENDBRANCH   1   2
BRANCH   1  17
ATOM     17  O   UNL     1       2.032  -5.164   5.799  1.00  0.00    -0.458 OA
BRANCH  17  18
ATOM     18  C   UNL     1       0.867  -5.123   5.113  1.00  0.00     0.338 C 
ATOM     19  O   UNL     1       0.186  -4.142   4.869  1.00  0.00    -0.246 OA
BRANCH  18  20
ATOM     20  C   UNL     1       0.584  -6.454   4.564  1.00  0.00     0.060 A 
ATOM     21  C   UNL     1       0.900  -6.681   3.227  1.00  0.00     0.016 A 
ATOM     22  C   UNL     1      -0.082  -7.423   5.308  1.00  0.00     0.016 A 
ATOM     23  C   UNL     1       0.493  -7.848   2.592  1.00  0.00     0.010 A 
ATOM     24  C   UNL     1      -0.440  -8.624   4.687  1.00  0.00     0.010 A 
ATOM     25  C   UNL     1      -0.184  -8.834   3.316  1.00  0.00    -0.014 A 
BRANCH  25  26
ATOM     26  C   UNL     1      -0.678 -10.063   2.643  1.00  0.00     0.031 A 
ATOM     27  C   UNL     1      -2.155 -10.345   2.614  1.00  0.00     0.074 A 
ATOM     28  C   UNL     1       0.188 -10.939   2.097  1.00  0.00     0.049 A 
ATOM     29  N   UNL     1      -2.783 -11.445   2.296  1.00  0.00    -0.248 NA
ATOM     30  C   UNL     1      -3.044  -9.242   3.018  1.00  0.00     0.031 C 
ATOM     31  C   UNL     1       1.639 -10.764   2.024  1.00  0.00     0.029 A 
ATOM     32  N   UNL     1      -0.027 -12.169   1.527  1.00  0.00    -0.354 N 
ATOM     33  C   UNL     1      -4.129 -11.196   2.535  1.00  0.00     0.074 A 
ATOM     34  C   UNL     1      -4.229  -9.835   3.014  1.00  0.00     0.031 C 
ATOM     35  C   UNL     1       2.186 -11.851   1.459  1.00  0.00     0.029 A 
ATOM     36  C   UNL     1       1.135 -12.828   1.196  1.00  0.00     0.049 A 
ATOM     37  H   UNL     1      -0.924 -12.543   1.370  1.00  0.00     0.167 HD
ATOM     38  C   UNL     1      -5.185 -12.027   2.365  1.00  0.00     0.034 A 
ATOM     39  C   UNL     1       1.336 -14.093   0.778  1.00  0.00     0.034 A 
ATOM     40  C   UNL     1      -5.078 -13.356   1.824  1.00  0.00     0.049 A 
ATOM     41  C   UNL     1       0.148 -14.998   0.600  1.00  0.00     0.074 A 
ATOM     42  C   UNL     1      -6.088 -14.267   1.573  1.00  0.00     0.029 A 
ATOM     43  N   UNL     1      -3.889 -13.960   1.441  1.00  0.00    -0.354 N 
ATOM     44  N   UNL     1      -1.123 -14.739   0.792  1.00  0.00    -0.248 NA
ATOM     45  C   UNL     1       0.417 -16.364   0.128  1.00  0.00     0.031 C 
ATOM     46  C   UNL     1      -5.508 -15.430   1.056  1.00  0.00     0.029 A 
ATOM     47  C   UNL     1      -4.140 -15.231   0.956  1.00  0.00     0.049 A 
ATOM     48  H   UNL     1      -2.999 -13.544   1.504  1.00  0.00     0.167 HD
ATOM     49  C   UNL     1      -1.807 -15.892   0.428  1.00  0.00     0.074 A 
ATOM     50  C   UNL     1      -0.810 -16.848  -0.009  1.00  0.00     0.031 C 
ATOM     51  C   UNL     1      -3.139 -16.143   0.463  1.00  0.00     0.034 A 
BRANCH  38  52
ATOM     52  C   UNL     1      -6.549 -11.523   2.757  1.00  0.00     0.023 A 
ATOM     53  C   UNL     1      -7.193 -10.546   1.972  1.00  0.00     0.012 A 
ATOM     54  C   UNL     1      -7.216 -12.056   3.879  1.00  0.00     0.148 A 
ATOM     55  C   UNL     1      -8.462 -10.081   2.317  1.00  0.00     0.002 A 
ATOM     56  C   UNL     1      -8.499 -11.621   4.190  1.00  0.00     0.091 A 
ATOM     57  F   UNL     1      -6.580 -12.969   4.627  1.00  0.00    -0.205 F 
ATOM     58  C   UNL     1      -9.118 -10.626   3.418  1.00  0.00     0.022 A 
BRANCH  56  59
ATOM     59  S   UNL     1      -9.457 -12.319   5.540  1.00  0.00     0.127 S 
ATOM     60  O   UNL     1      -9.455 -11.219   6.504  1.00  0.00    -0.237 OA
ATOM     61  O   UNL     1     -10.751 -12.569   4.904  1.00  0.00    -0.237 OA
ATOM     62  O   UNL     1      -8.746 -13.519   5.960  1.00  0.00    -0.744 OA
ENDBRANCH  56  59
ENDBRANCH  38  52
BRANCH  39  63
ATOM     63  C   UNL     1       2.719 -14.571   0.492  1.00  0.00     0.023 A 
ATOM     64  C   UNL     1       3.093 -14.848  -0.837  1.00  0.00     0.012 A 
ATOM     65  C   UNL     1       3.673 -14.722   1.519  1.00  0.00     0.148 A 
ATOM     66  C   UNL     1       4.382 -15.293  -1.135  1.00  0.00     0.002 A 
ATOM     67  C   UNL     1       4.971 -15.108   1.208  1.00  0.00     0.091 A 
ATOM     68  F   UNL     1       3.294 -14.470   2.780  1.00  0.00    -0.205 F 
ATOM     69  C   UNL     1       5.323 -15.411  -0.116  1.00  0.00     0.022 A 
BRANCH  67  70
ATOM     70  S   UNL     1       6.282 -15.159   2.435  1.00  0.00     0.127 S 
ATOM     71  O   UNL     1       6.503 -16.595   2.578  1.00  0.00    -0.237 OA
ATOM     72  O   UNL     1       7.358 -14.434   1.759  1.00  0.00    -0.237 OA
ATOM     73  O   UNL     1       5.748 -14.481   3.609  1.00  0.00    -0.744 OA
ENDBRANCH  67  70
ENDBRANCH  39  63
BRANCH  51  74
ATOM     74  C   UNL     1      -3.613 -17.480  -0.041  1.00  0.00     0.023 A 
ATOM     75  C   UNL     1      -3.412 -18.637   0.735  1.00  0.00     0.012 A 
ATOM     76  C   UNL     1      -4.339 -17.568  -1.246  1.00  0.00     0.148 A 
ATOM     77  C   UNL     1      -3.904 -19.870   0.306  1.00  0.00     0.002 A 
ATOM     78  C   UNL     1      -4.869 -18.790  -1.642  1.00  0.00     0.091 A 
ATOM     79  F   UNL     1      -4.502 -16.456  -1.978  1.00  0.00    -0.205 F 
ATOM     80  C   UNL     1      -4.643 -19.943  -0.874  1.00  0.00     0.022 A 
BRANCH  78  81
ATOM     81  S   UNL     1      -5.917 -18.960  -3.091  1.00  0.00     0.127 S 
ATOM     82  O   UNL     1      -5.038 -19.681  -4.011  1.00  0.00    -0.237 OA
ATOM     83  O   UNL     1      -7.036 -19.748  -2.573  1.00  0.00    -0.237 OA
ATOM     84  O   UNL     1      -6.268 -17.605  -3.496  1.00  0.00    -0.744 OA
ENDBRANCH  78  81
ENDBRANCH  51  74
ENDBRANCH  25  26
ENDBRANCH  18  20
ENDBRANCH  17  18
ENDBRANCH   1  17
TORSDOF 16
