REMARK SMILES Cc1ccc2c(=O)c3cccc(CC(=O)OCCOC(=O)c4ccc(-c5c6nc(c(-c7cccc(S(=O)(=O)[O-])c7F)c7ccc([nH]7)c(-c7cccc(S(=O)(=O)[O-])c7F)c7nc(c(-c8cccc(S(=O)(=O)[O-])c8F)c8ccc5[nH]8)C=C7)C=C6)cc4)c3oc2c1C
REMARK SMILES IDX 18 1 17 2 16 3 14 4 15 5 13 6 12 7 1 8 2 9 3 10 88 11 4 12
REMARK SMILES IDX 87 13 89 14 5 15 86 16 6 17 85 18 7 19 8 20 9 21 11 22 10 23
REMARK SMILES IDX 19 24 20 25 21 26 22 27 23 28 84 29 24 30 83 31 25 32 26 33
REMARK SMILES IDX 27 34 77 35 28 36 82 37 76 38 78 39 29 40 81 41 75 42 74 43
REMARK SMILES IDX 30 45 62 46 42 47 61 48 43 49 46 50 60 51 79 52 44 53 45 54
REMARK SMILES IDX 59 56 80 57 47 58 31 59 32 60 40 61 33 62 35 63 41 64 34 65
REMARK SMILES IDX 36 66 37 67 38 68 39 69 63 70 64 71 72 72 65 73 67 74 73 75
REMARK SMILES IDX 66 76 68 77 69 78 70 79 71 80 48 81 49 82 57 83 50 84 52 85
REMARK SMILES IDX 58 86 51 87 53 88 54 89 55 90 56 91
REMARK H PARENT 78 44 46 55
REMARK Flexibility Score: inf
ROOT
ATOM      1  C   UNL     1      -4.857   1.587  -3.848  1.00  0.00     0.275 C 
ENDROOT
BRANCH   1   2
ATOM      2  C   UNL     1      -4.981   1.071  -5.285  1.00  0.00     0.274 C 
BRANCH   2   3
ATOM      3  O   UNL     1      -3.786   0.386  -5.718  1.00  0.00    -0.462 OA
BRANCH   3   4
ATOM      4  C   UNL     1      -2.944   1.105  -6.505  1.00  0.00     0.310 C 
ATOM      5  O   UNL     1      -3.175   2.246  -6.896  1.00  0.00    -0.252 OA
BRANCH   4   6
ATOM      6  C   UNL     1      -1.623   0.428  -6.791  1.00  0.00     0.162 C 
BRANCH   6   7
ATOM      7  C   UNL     1      -1.586  -1.080  -6.781  1.00  0.00     0.007 A 
ATOM      8  C   UNL     1       1.356  -0.943  -0.084  1.00  0.00     0.045 C 
ATOM      9  C   UNL     1       0.937  -1.708  -1.313  1.00  0.00    -0.044 A 
ATOM     10  C   UNL     1       0.976  -3.107  -1.290  1.00  0.00     0.005 A 
ATOM     11  C   UNL     1       0.540  -1.044  -2.499  1.00  0.00    -0.005 A 
ATOM     12  C   UNL     1       0.585  -3.842  -2.406  1.00  0.00     0.016 A 
ATOM     13  C   UNL     1       0.070  -1.791  -3.599  1.00  0.00     0.141 A 
ATOM     14  C   UNL     1       0.623   0.454  -2.558  1.00  0.00     0.049 C 
ATOM     15  C   UNL     1       0.118  -3.181  -3.545  1.00  0.00     0.066 A 
ATOM     16  O   UNL     1      -0.427  -1.104  -4.688  1.00  0.00    -0.455 OA
ATOM     17  C   UNL     1      -0.334  -3.953  -4.708  1.00  0.00     0.200 A 
ATOM     18  C   UNL     1      -0.981  -1.807  -5.736  1.00  0.00     0.142 A 
ATOM     19  O   UNL     1      -0.246  -5.175  -4.746  1.00  0.00    -0.288 OA
ATOM     20  C   UNL     1      -0.928  -3.197  -5.817  1.00  0.00     0.066 A 
ATOM     21  C   UNL     1      -1.442  -3.876  -6.928  1.00  0.00     0.016 A 
ATOM     22  C   UNL     1      -2.120  -1.771  -7.885  1.00  0.00     0.008 A 
ATOM     23  C   UNL     1      -2.038  -3.160  -7.962  1.00  0.00     0.001 A 
ENDBRANCH   6   7
ENDBRANCH   4   6
ENDBRANCH   3   4
ENDBRANCH   2   3
ENDBRANCH   1   2
BRANCH   1  24
ATOM     24  O   UNL     1      -3.810   2.568  -3.715  1.00  0.00    -0.458 OA
BRANCH  24  25
ATOM     25  C   UNL     1      -2.618   2.037  -3.368  1.00  0.00     0.338 C 
ATOM     26  O   UNL     1      -2.383   0.856  -3.160  1.00  0.00    -0.246 OA
BRANCH  25  27
ATOM     27  C   UNL     1      -1.565   3.058  -3.297  1.00  0.00     0.060 A 
ATOM     28  C   UNL     1      -1.250   3.639  -2.067  1.00  0.00     0.016 A 
ATOM     29  C   UNL     1      -0.726   3.235  -4.399  1.00  0.00     0.016 A 
ATOM     30  C   UNL     1      -0.077   4.392  -1.943  1.00  0.00     0.010 A 
ATOM     31  C   UNL     1       0.469   3.934  -4.259  1.00  0.00     0.010 A 
ATOM     32  C   UNL     1       0.796   4.530  -3.035  1.00  0.00    -0.014 A 
BRANCH  32  33
ATOM     33  C   UNL     1       2.018   5.358  -2.927  1.00  0.00     0.031 A 
ATOM     34  C   UNL     1       2.020   6.731  -3.529  1.00  0.00     0.074 A 
ATOM     35  C   UNL     1       3.133   4.878  -2.344  1.00  0.00     0.049 A 
ATOM     36  N   UNL     1       2.905   7.681  -3.396  1.00  0.00    -0.248 NA
ATOM     37  C   UNL     1       0.885   7.079  -4.401  1.00  0.00     0.031 C 
ATOM     38  C   UNL     1       3.303   3.521  -1.831  1.00  0.00     0.029 A 
ATOM     39  N   UNL     1       4.345   5.477  -2.105  1.00  0.00    -0.354 N 
ATOM     40  C   UNL     1       2.428   8.742  -4.150  1.00  0.00     0.074 A 
ATOM     41  C   UNL     1       1.206   8.305  -4.786  1.00  0.00     0.031 C 
ATOM     42  C   UNL     1       4.549   3.385  -1.345  1.00  0.00     0.029 A 
ATOM     43  C   UNL     1       5.254   4.657  -1.479  1.00  0.00     0.049 A 
ATOM     44  H   UNL     1       4.545   6.407  -2.358  1.00  0.00     0.167 HD
ATOM     45  C   UNL     1       2.932   9.991  -4.255  1.00  0.00     0.034 A 
ATOM     46  C   UNL     1       6.497   4.917  -1.028  1.00  0.00     0.034 A 
ATOM     47  C   UNL     1       4.127  10.428  -3.597  1.00  0.00     0.049 A 
ATOM     48  C   UNL     1       7.031   6.321  -1.126  1.00  0.00     0.074 A 
ATOM     49  C   UNL     1       4.654  11.703  -3.521  1.00  0.00     0.029 A 
ATOM     50  N   UNL     1       4.994   9.588  -2.917  1.00  0.00    -0.354 N 
ATOM     51  N   UNL     1       6.446   7.389  -1.613  1.00  0.00    -0.248 NA
ATOM     52  C   UNL     1       8.367   6.572  -0.566  1.00  0.00     0.031 C 
ATOM     53  C   UNL     1       5.850  11.633  -2.798  1.00  0.00     0.029 A 
ATOM     54  C   UNL     1       6.067  10.312  -2.433  1.00  0.00     0.049 A 
ATOM     55  H   UNL     1       4.865   8.620  -2.796  1.00  0.00     0.167 HD
ATOM     56  C   UNL     1       7.325   8.442  -1.392  1.00  0.00     0.074 A 
ATOM     57  C   UNL     1       8.483   7.886  -0.721  1.00  0.00     0.031 C 
ATOM     58  C   UNL     1       7.187   9.749  -1.723  1.00  0.00     0.034 A 
BRANCH  45  59
ATOM     59  C   UNL     1       2.119  10.986  -5.027  1.00  0.00     0.023 A 
ATOM     60  C   UNL     1       1.004  11.576  -4.396  1.00  0.00     0.012 A 
ATOM     61  C   UNL     1       2.437  11.332  -6.351  1.00  0.00     0.148 A 
ATOM     62  C   UNL     1       0.201  12.483  -5.081  1.00  0.00     0.002 A 
ATOM     63  C   UNL     1       1.641  12.253  -7.023  1.00  0.00     0.091 A 
ATOM     64  F   UNL     1       3.484  10.733  -6.936  1.00  0.00    -0.205 F 
ATOM     65  C   UNL     1       0.523  12.825  -6.392  1.00  0.00     0.022 A 
BRANCH  63  66
ATOM     66  S   UNL     1       1.973  12.778  -8.707  1.00  0.00     0.127 S 
ATOM     67  O   UNL     1       0.850  12.179  -9.428  1.00  0.00    -0.237 OA
ATOM     68  O   UNL     1       1.916  14.235  -8.592  1.00  0.00    -0.237 OA
ATOM     69  O   UNL     1       3.285  12.243  -9.044  1.00  0.00    -0.744 OA
ENDBRANCH  63  66
ENDBRANCH  45  59
BRANCH  46  70
ATOM     70  C   UNL     1       7.260   3.854  -0.317  1.00  0.00     0.023 A 
ATOM     71  C   UNL     1       7.296   3.871   1.091  1.00  0.00     0.012 A 
ATOM     72  C   UNL     1       7.899   2.810  -1.013  1.00  0.00     0.148 A 
ATOM     73  C   UNL     1       7.967   2.872   1.796  1.00  0.00     0.002 A 
ATOM     74  C   UNL     1       8.545   1.804  -0.302  1.00  0.00     0.091 A 
ATOM     75  F   UNL     1       7.844   2.815  -2.352  1.00  0.00    -0.205 F 
ATOM     76  C   UNL     1       8.586   1.837   1.101  1.00  0.00     0.022 A 
BRANCH  74  77
ATOM     77  S   UNL     1       9.320   0.389  -1.094  1.00  0.00     0.127 S 
ATOM     78  O   UNL     1      10.703   0.509  -0.635  1.00  0.00    -0.237 OA
ATOM     79  O   UNL     1       8.572  -0.723  -0.508  1.00  0.00    -0.237 OA
ATOM     80  O   UNL     1       9.123   0.576  -2.524  1.00  0.00    -0.744 OA
ENDBRANCH  74  77
ENDBRANCH  46  70
BRANCH  58  81
ATOM     81  C   UNL     1       8.306  10.691  -1.381  1.00  0.00     0.023 A 
ATOM     82  C   UNL     1       9.423  10.760  -2.234  1.00  0.00     0.012 A 
ATOM     83  C   UNL     1       8.176  11.612  -0.323  1.00  0.00     0.148 A 
ATOM     84  C   UNL     1      10.398  11.737  -2.042  1.00  0.00     0.002 A 
ATOM     85  C   UNL     1       9.135  12.604  -0.159  1.00  0.00     0.091 A 
ATOM     86  F   UNL     1       7.108  11.514   0.481  1.00  0.00    -0.205 F 
ATOM     87  C   UNL     1      10.246  12.667  -1.016  1.00  0.00     0.022 A 
BRANCH  85  88
ATOM     88  S   UNL     1       8.977  13.901   1.076  1.00  0.00     0.127 S 
ATOM     89  O   UNL     1      10.022  13.532   2.030  1.00  0.00    -0.237 OA
ATOM     90  O   UNL     1       9.259  15.107   0.297  1.00  0.00    -0.237 OA
ATOM     91  O   UNL     1       7.613  13.812   1.580  1.00  0.00    -0.744 OA
ENDBRANCH  85  88
ENDBRANCH  58  81
ENDBRANCH  32  33
ENDBRANCH  25  27
ENDBRANCH  24  25
ENDBRANCH   1  24
TORSDOF 15
