REMARK SMILES CC(C)(O)C#Cc1ccc(C(=O)N[C@@H](CC2=c3ccccc3=NC2)C(=O)OCCOC(=O)c2ccc(-c3c4nc(c(-c5cccc(S(=O)(=O)[O-])c5F)c5ccc([nH]5)c(-c5cccc(S(=O)(=O)[O-])c5F)c5nc(c(-c6cccc(S(=O)(=O)[O-])c6F)c6ccc3[nH]6)C=C5)C=C4)cc2)s1
REMARK SMILES IDX 28 1 27 2 25 3 26 4 14 5 13 6 11 7 12 8 10 10 7 11 8 12
REMARK SMILES IDX 96 13 9 14 6 15 5 16 2 17 1 18 3 19 4 20 15 22 16 23 17 24
REMARK SMILES IDX 24 25 18 26 22 27 23 28 19 29 21 30 20 31 29 32 30 33 31 34
REMARK SMILES IDX 32 35 33 36 34 37 95 38 35 39 94 40 36 41 37 42 38 43 88 44
REMARK SMILES IDX 39 45 93 46 87 47 89 48 40 49 92 50 86 51 85 52 41 54 73 55
REMARK SMILES IDX 53 56 72 57 54 58 57 59 71 60 90 61 55 62 56 63 70 65 91 66
REMARK SMILES IDX 58 67 42 68 43 69 51 70 44 71 46 72 52 73 45 74 47 75 48 76
REMARK SMILES IDX 49 77 50 78 74 79 75 80 83 81 76 82 78 83 84 84 77 85 79 86
REMARK SMILES IDX 80 87 81 88 82 89 59 90 60 91 68 92 61 93 63 94 69 95 62 96
REMARK SMILES IDX 64 97 65 98 66 99 67 100
REMARK H PARENT 13 9 4 21 89 53 57 64
REMARK Flexibility Score: inf
ROOT
ATOM      1  C   UNL     1      -3.634  -8.871   2.784  1.00  0.00     0.274 C 
ENDROOT
BRANCH   1   2
ATOM      2  O   UNL     1      -2.361  -8.720   2.103  1.00  0.00    -0.461 OA
BRANCH   2   3
ATOM      3  C   UNL     1      -2.338  -7.841   1.054  1.00  0.00     0.329 C 
ATOM      4  O   UNL     1      -3.310  -7.190   0.686  1.00  0.00    -0.250 OA
BRANCH   3   5
ATOM      5  C   UNL     1      -0.953  -7.753   0.353  1.00  0.00     0.196 C 
BRANCH   5   6
ATOM      6  N   UNL     1       0.116  -8.552   0.989  1.00  0.00    -0.338 N 
ATOM      7  C   UNL     1       1.432  -8.320   1.339  1.00  0.00     0.262 C 
ATOM      8  O   UNL     1       2.014  -9.296   1.826  1.00  0.00    -0.268 OA
ATOM      9  H   UNL     1      -0.179  -9.463   1.216  1.00  0.00     0.164 HD
BRANCH   7  10
ATOM     10  C   UNL     1       2.060  -7.008   1.312  1.00  0.00     0.093 A 
ATOM     11  C   UNL     1       2.139  -4.591   1.426  1.00  0.00     0.078 A 
ATOM     12  C   UNL     1       3.140  -5.130   2.201  1.00  0.00     0.030 A 
ATOM     13  S   UNL     1       1.733  -5.749   0.197  1.00  0.00    -0.121 S 
ATOM     14  C   UNL     1       3.104  -6.564   2.121  1.00  0.00     0.027 A 
BRANCH  11  15
ATOM     15  C   UNL     1       1.487  -3.316   1.579  1.00  0.00    -0.053 C 
ATOM     16  C   UNL     1       1.052  -2.094   1.451  1.00  0.00    -0.063 C 
BRANCH  16  17
ATOM     17  C   UNL     1       0.546  -0.668   1.302  1.00  0.00     0.120 C 
ATOM     18  C   UNL     1       2.044  -0.241   0.656  1.00  0.00     0.056 C 
ATOM     19  C   UNL     1      -0.928   0.263   2.731  1.00  0.00     0.056 C 
BRANCH  17  20
ATOM     20  O   UNL     1       0.147  -0.811  -0.269  1.00  0.00    -0.378 OA
ATOM     21  H   UNL     1      -0.217   0.029  -0.588  1.00  0.00     0.212 HD
ENDBRANCH  17  20
ENDBRANCH  16  17
ENDBRANCH  11  15
ENDBRANCH   7  10
ENDBRANCH   5   6
BRANCH   5  22
ATOM     22  C   UNL     1      -1.112  -8.064  -1.152  1.00  0.00     0.070 C 
BRANCH  22  23
ATOM     23  C   UNL     1      -1.729  -9.400  -1.385  1.00  0.00    -0.037 C 
ATOM     24  C   UNL     1      -1.129 -10.572  -1.228  1.00  0.00     0.001 A 
ATOM     25  C   UNL     1      -3.196  -9.574  -1.645  1.00  0.00     0.174 C 
ATOM     26  C   UNL     1       0.199 -10.970  -0.902  1.00  0.00     0.010 A 
ATOM     27  C   UNL     1      -2.261 -11.503  -1.222  1.00  0.00     0.065 A 
ATOM     28  N   UNL     1      -3.446 -11.029  -1.464  1.00  0.00    -0.280 NA
ATOM     29  C   UNL     1       0.407 -12.235  -0.513  1.00  0.00     0.001 A 
ATOM     30  C   UNL     1      -1.940 -12.896  -0.851  1.00  0.00     0.028 A 
ATOM     31  C   UNL     1      -0.678 -13.202  -0.497  1.00  0.00     0.002 A 
ENDBRANCH  22  23
ENDBRANCH   5  22
ENDBRANCH   3   5
ENDBRANCH   2   3
ENDBRANCH   1   2
BRANCH   1  32
ATOM     32  C   UNL     1      -3.467  -8.758   4.307  1.00  0.00     0.275 C 
BRANCH  32  33
ATOM     33  O   UNL     1      -3.322  -7.375   4.674  1.00  0.00    -0.458 OA
BRANCH  33  34
ATOM     34  C   UNL     1      -2.045  -6.968   4.852  1.00  0.00     0.338 C 
ATOM     35  O   UNL     1      -1.095  -7.644   5.209  1.00  0.00    -0.246 OA
BRANCH  34  36
ATOM     36  C   UNL     1      -1.943  -5.747   4.040  1.00  0.00     0.060 A 
ATOM     37  C   UNL     1      -2.694  -4.573   4.128  1.00  0.00     0.016 A 
ATOM     38  C   UNL     1      -1.043  -5.865   3.026  1.00  0.00     0.016 A 
ATOM     39  C   UNL     1      -2.673  -3.617   3.067  1.00  0.00     0.010 A 
ATOM     40  C   UNL     1      -1.012  -4.868   2.075  1.00  0.00     0.010 A 
ATOM     41  C   UNL     1      -1.879  -3.809   1.935  1.00  0.00    -0.014 A 
BRANCH  41  42
ATOM     42  C   UNL     1      -1.569  -2.789   0.844  1.00  0.00     0.031 A 
ATOM     43  C   UNL     1      -1.150  -1.367   1.742  1.00  0.00     0.074 A 
ATOM     44  C   UNL     1      -1.438  -3.127  -0.583  1.00  0.00     0.049 A 
ATOM     45  N   UNL     1      -1.281   0.013   0.927  1.00  0.00    -0.248 NA
ATOM     46  C   UNL     1       0.276  -1.083   3.187  1.00  0.00     0.031 C 
ATOM     47  C   UNL     1      -1.668  -4.485  -1.188  1.00  0.00     0.029 A 
ATOM     48  N   UNL     1      -1.040  -2.494  -1.842  1.00  0.00    -0.354 N 
ATOM     49  C   UNL     1       0.033   1.226   1.364  1.00  0.00     0.074 A 
ATOM     50  C   UNL     1       1.002   0.415   2.832  1.00  0.00     0.031 C 
ATOM     51  C   UNL     1      -1.256  -4.615  -2.490  1.00  0.00     0.029 A 
ATOM     52  C   UNL     1      -0.813  -3.346  -3.043  1.00  0.00     0.049 A 
ATOM     53  H   UNL     1      -0.924  -1.518  -1.895  1.00  0.00     0.167 HD
ATOM     54  C   UNL     1       0.141   2.253   0.444  1.00  0.00     0.034 A 
ATOM     55  C   UNL     1      -0.387  -3.072  -4.371  1.00  0.00     0.034 A 
ATOM     56  C   UNL     1      -1.118   2.260  -0.339  1.00  0.00     0.049 A 
ATOM     57  C   UNL     1      -0.704  -1.653  -4.550  1.00  0.00     0.074 A 
ATOM     58  C   UNL     1      -2.451   2.394   0.027  1.00  0.00     0.029 A 
ATOM     59  N   UNL     1      -1.125   1.663  -1.591  1.00  0.00    -0.354 N 
ATOM     60  N   UNL     1      -1.910  -1.188  -4.621  1.00  0.00    -0.248 NA
ATOM     61  C   UNL     1       0.363  -0.673  -4.516  1.00  0.00     0.031 C 
ATOM     62  C   UNL     1      -3.229   1.676  -0.919  1.00  0.00     0.029 A 
ATOM     63  C   UNL     1      -2.405   1.256  -1.952  1.00  0.00     0.049 A 
ATOM     64  H   UNL     1      -0.326   1.543  -2.153  1.00  0.00     0.167 HD
ATOM     65  C   UNL     1      -1.764   0.014  -3.979  1.00  0.00     0.074 A 
ATOM     66  C   UNL     1      -0.359   0.373  -4.121  1.00  0.00     0.031 C 
ATOM     67  C   UNL     1      -2.703   0.387  -3.075  1.00  0.00     0.034 A 
BRANCH  54  68
ATOM     68  C   UNL     1       1.301   3.147  -0.010  1.00  0.00     0.023 A 
ATOM     69  C   UNL     1       0.937   4.366  -0.616  1.00  0.00     0.012 A 
ATOM     70  C   UNL     1       2.648   2.753  -0.222  1.00  0.00     0.148 A 
ATOM     71  C   UNL     1       1.819   5.092  -1.433  1.00  0.00     0.002 A 
ATOM     72  C   UNL     1       3.459   3.372  -1.179  1.00  0.00     0.091 A 
ATOM     73  F   UNL     1       3.226   1.875   0.602  1.00  0.00    -0.205 F 
ATOM     74  C   UNL     1       3.057   4.562  -1.770  1.00  0.00     0.022 A 
BRANCH  72  75
ATOM     75  S   UNL     1       4.943   2.568  -1.837  1.00  0.00     0.127 S 
ATOM     76  O   UNL     1       4.846   2.862  -3.268  1.00  0.00    -0.237 OA
ATOM     77  O   UNL     1       6.009   3.278  -1.136  1.00  0.00    -0.237 OA
ATOM     78  O   UNL     1       4.783   1.160  -1.500  1.00  0.00    -0.744 OA
ENDBRANCH  72  75
ENDBRANCH  54  68
BRANCH  55  79
ATOM     79  C   UNL     1       0.185  -3.632  -5.763  1.00  0.00     0.023 A 
ATOM     80  C   UNL     1       0.028  -2.861  -6.985  1.00  0.00     0.012 A 
ATOM     81  C   UNL     1       1.188  -4.622  -5.851  1.00  0.00     0.148 A 
ATOM     82  C   UNL     1       0.870  -2.977  -8.125  1.00  0.00     0.002 A 
ATOM     83  C   UNL     1       2.027  -4.741  -7.003  1.00  0.00     0.091 A 
ATOM     84  F   UNL     1       1.377  -5.410  -4.787  1.00  0.00    -0.205 F 
ATOM     85  C   UNL     1       1.893  -3.903  -8.121  1.00  0.00     0.022 A 
BRANCH  83  86
ATOM     86  S   UNL     1       3.394  -5.924  -7.113  1.00  0.00     0.127 S 
ATOM     87  O   UNL     1       3.272  -6.432  -8.482  1.00  0.00    -0.237 OA
ATOM     88  O   UNL     1       4.559  -5.070  -6.892  1.00  0.00    -0.237 OA
ATOM     89  O   UNL     1       3.121  -6.915  -6.082  1.00  0.00    -0.744 OA
ENDBRANCH  83  86
ENDBRANCH  55  79
BRANCH  67  90
ATOM     90  C   UNL     1      -4.084  -0.266  -3.202  1.00  0.00     0.023 A 
ATOM     91  C   UNL     1      -4.333  -1.655  -3.070  1.00  0.00     0.012 A 
ATOM     92  C   UNL     1      -5.190   0.572  -3.421  1.00  0.00     0.148 A 
ATOM     93  C   UNL     1      -5.635  -2.179  -3.116  1.00  0.00     0.002 A 
ATOM     94  C   UNL     1      -6.485   0.058  -3.422  1.00  0.00     0.091 A 
ATOM     95  F   UNL     1      -4.955   1.878  -3.613  1.00  0.00    -0.205 F 
ATOM     96  C   UNL     1      -6.715  -1.318  -3.267  1.00  0.00     0.022 A 
BRANCH  94  97
ATOM     97  S   UNL     1      -7.927   1.119  -3.548  1.00  0.00     0.127 S 
ATOM     98  O   UNL     1      -8.551   0.650  -4.784  1.00  0.00    -0.237 OA
ATOM     99  O   UNL     1      -8.660   0.783  -2.327  1.00  0.00    -0.237 OA
ATOM    100  O   UNL     1      -7.423   2.486  -3.592  1.00  0.00    -0.744 OA
ENDBRANCH  94  97
ENDBRANCH  67  90
ENDBRANCH  41  42
ENDBRANCH  34  36
ENDBRANCH  33  34
ENDBRANCH  32  33
ENDBRANCH   1  32
TORSDOF 21
