REMARK SMILES Cc1cc(CNC(=O)C[C@H](C)CC(=O)OCCOC(=O)c2ccc(-c3c4nc(c(-c5cccc(S(=O)(=O)[O-])c5F)c5ccc([nH]5)c(-c5cccc(S(=O)(=O)[O-])c5F)c5nc(c(-c6cccc(S(=O)(=O)[O-])c6F)c6ccc3[nH]6)C=C5)C=C4)cc2)cc(C)c1F
REMARK SMILES IDX 16 1 15 2 13 3 14 4 12 5 10 6 11 7 9 8 7 9 6 10 8 12 5 13
REMARK SMILES IDX 4 14 1 15 2 16 3 17 87 18 85 19 88 20 84 21 86 22 17 23
REMARK SMILES IDX 18 24 19 25 20 26 21 27 22 28 83 29 23 30 82 31 24 32 25 33
REMARK SMILES IDX 26 34 76 35 27 36 81 37 75 38 77 39 28 40 80 41 74 42 73 43
REMARK SMILES IDX 29 45 61 46 41 47 60 48 42 49 45 50 59 51 78 52 43 53 44 54
REMARK SMILES IDX 58 56 79 57 46 58 30 59 31 60 39 61 32 62 34 63 40 64 33 65
REMARK SMILES IDX 35 66 36 67 37 68 38 69 62 70 63 71 71 72 64 73 66 74 72 75
REMARK SMILES IDX 65 76 67 77 68 78 69 79 70 80 47 81 48 82 56 83 49 84 51 85
REMARK SMILES IDX 57 86 50 87 52 88 53 89 54 90 55 91
REMARK H PARENT 6 11 77 44 45 55
REMARK Flexibility Score: inf
ROOT
ATOM      1  C   UNL     1       3.755  -5.366   6.146  1.00  0.00     0.274 C 
ENDROOT
BRANCH   1   2
ATOM      2  O   UNL     1       2.941  -5.325   4.957  1.00  0.00    -0.462 OA
BRANCH   2   3
ATOM      3  C   UNL     1       1.611  -5.122   5.121  1.00  0.00     0.306 C 
ATOM      4  O   UNL     1       1.041  -5.067   6.204  1.00  0.00    -0.252 OA
BRANCH   3   5
ATOM      5  C   UNL     1       0.866  -4.918   3.812  1.00  0.00     0.126 C 
BRANCH   5   6
ATOM      6  C   UNL     1       1.700  -5.015   2.523  1.00  0.00     0.006 C 
ATOM      7  C   UNL     1       2.017  -6.487   2.229  1.00  0.00     0.009 C 
BRANCH   6   8
ATOM      8  C   UNL     1       0.970  -4.314   1.360  1.00  0.00     0.104 C 
BRANCH   8   9
ATOM      9  C   UNL     1       1.546  -4.610  -0.013  1.00  0.00     0.220 C 
ATOM     10  N   UNL     1       2.721  -4.059  -0.417  1.00  0.00    -0.352 N 
ATOM     11  H   UNL     1       3.061  -4.396  -1.278  1.00  0.00     0.163 HD
ATOM     12  O   UNL     1       0.970  -5.387  -0.778  1.00  0.00    -0.275 OA
BRANCH  10  13
ATOM     13  C   UNL     1       3.554  -3.056   0.217  1.00  0.00     0.151 C 
BRANCH  13  14
ATOM     14  C   UNL     1       4.958  -3.562   0.465  1.00  0.00    -0.028 A 
ATOM     15  C   UNL     1       6.609  -6.243   2.602  1.00  0.00     0.047 C 
ATOM     16  C   UNL     1       6.455  -5.105   1.640  1.00  0.00    -0.015 A 
ATOM     17  C   UNL     1       5.172  -4.666   1.302  1.00  0.00     0.012 A 
ATOM     18  C   UNL     1       7.549  -4.431   1.106  1.00  0.00     0.129 A 
ATOM     19  C   UNL     1       7.380  -3.339   0.248  1.00  0.00    -0.015 A 
ATOM     20  F   UNL     1       8.788  -4.834   1.428  1.00  0.00    -0.206 F 
ATOM     21  C   UNL     1       6.078  -2.909  -0.067  1.00  0.00     0.012 A 
ATOM     22  C   UNL     1       8.567  -2.624  -0.324  1.00  0.00     0.047 C 
ENDBRANCH  13  14
ENDBRANCH  10  13
ENDBRANCH   8   9
ENDBRANCH   6   8
ENDBRANCH   5   6
ENDBRANCH   3   5
ENDBRANCH   2   3
ENDBRANCH   1   2
BRANCH   1  23
ATOM     23  C   UNL     1       4.653  -4.129   6.212  1.00  0.00     0.275 C 
BRANCH  23  24
ATOM     24  O   UNL     1       3.882  -2.953   6.508  1.00  0.00    -0.458 OA
BRANCH  24  25
ATOM     25  C   UNL     1       3.411  -2.283   5.432  1.00  0.00     0.338 C 
ATOM     26  O   UNL     1       3.610  -2.522   4.254  1.00  0.00    -0.246 OA
BRANCH  25  27
ATOM     27  C   UNL     1       2.467  -1.260   5.894  1.00  0.00     0.060 A 
ATOM     28  C   UNL     1       1.103  -1.510   5.741  1.00  0.00     0.016 A 
ATOM     29  C   UNL     1       2.922  -0.042   6.397  1.00  0.00     0.016 A 
ATOM     30  C   UNL     1       0.177  -0.524   6.053  1.00  0.00     0.010 A 
ATOM     31  C   UNL     1       1.990   0.940   6.736  1.00  0.00     0.010 A 
ATOM     32  C   UNL     1       0.616   0.710   6.543  1.00  0.00    -0.014 A 
BRANCH  32  33
ATOM     33  C   UNL     1      -0.372   1.773   6.817  1.00  0.00     0.031 A 
ATOM     34  C   UNL     1      -0.498   2.933   5.876  1.00  0.00     0.074 A 
ATOM     35  C   UNL     1      -1.168   1.674   7.896  1.00  0.00     0.049 A 
ATOM     36  N   UNL     1      -1.276   3.979   5.962  1.00  0.00    -0.248 NA
ATOM     37  C   UNL     1       0.358   2.912   4.678  1.00  0.00     0.031 C 
ATOM     38  C   UNL     1      -1.148   0.570   8.857  1.00  0.00     0.029 A 
ATOM     39  N   UNL     1      -2.140   2.515   8.369  1.00  0.00    -0.354 N 
ATOM     40  C   UNL     1      -0.990   4.753   4.846  1.00  0.00     0.074 A 
ATOM     41  C   UNL     1       0.040   4.062   4.101  1.00  0.00     0.031 C 
ATOM     42  C   UNL     1      -2.063   0.804   9.809  1.00  0.00     0.029 A 
ATOM     43  C   UNL     1      -2.708   2.088   9.544  1.00  0.00     0.049 A 
ATOM     44  H   UNL     1      -2.405   3.345   7.911  1.00  0.00     0.167 HD
ATOM     45  C   UNL     1      -1.551   5.924   4.469  1.00  0.00     0.034 A 
ATOM     46  C   UNL     1      -3.633   2.673  10.328  1.00  0.00     0.034 A 
ATOM     47  C   UNL     1      -2.588   6.593   5.205  1.00  0.00     0.049 A 
ATOM     48  C   UNL     1      -4.210   3.996   9.915  1.00  0.00     0.074 A 
ATOM     49  C   UNL     1      -3.227   7.780   4.901  1.00  0.00     0.029 A 
ATOM     50  N   UNL     1      -3.136   6.131   6.392  1.00  0.00    -0.354 N 
ATOM     51  N   UNL     1      -3.962   4.696   8.834  1.00  0.00    -0.248 NA
ATOM     52  C   UNL     1      -5.202   4.603  10.813  1.00  0.00     0.031 C 
ATOM     53  C   UNL     1      -4.160   8.042   5.910  1.00  0.00     0.029 A 
ATOM     54  C   UNL     1      -4.107   7.011   6.837  1.00  0.00     0.049 A 
ATOM     55  H   UNL     1      -2.874   5.301   6.851  1.00  0.00     0.167 HD
ATOM     56  C   UNL     1      -4.777   5.818   8.910  1.00  0.00     0.074 A 
ATOM     57  C   UNL     1      -5.536   5.699  10.140  1.00  0.00     0.031 C 
ATOM     58  C   UNL     1      -4.878   6.856   8.045  1.00  0.00     0.034 A 
BRANCH  45  59
ATOM     59  C   UNL     1      -1.080   6.534   3.180  1.00  0.00     0.023 A 
ATOM     60  C   UNL     1      -1.550   6.009   1.960  1.00  0.00     0.012 A 
ATOM     61  C   UNL     1      -0.216   7.645   3.172  1.00  0.00     0.148 A 
ATOM     62  C   UNL     1      -1.151   6.569   0.747  1.00  0.00     0.002 A 
ATOM     63  C   UNL     1       0.155   8.216   1.961  1.00  0.00     0.091 A 
ATOM     64  F   UNL     1       0.235   8.111   4.345  1.00  0.00    -0.205 F 
ATOM     65  C   UNL     1      -0.306   7.676   0.748  1.00  0.00     0.022 A 
BRANCH  63  66
ATOM     66  S   UNL     1       1.204   9.670   1.854  1.00  0.00     0.127 S 
ATOM     67  O   UNL     1       2.435   9.104   1.302  1.00  0.00    -0.237 OA
ATOM     68  O   UNL     1       0.457  10.522   0.929  1.00  0.00    -0.237 OA
ATOM     69  O   UNL     1       1.311  10.189   3.210  1.00  0.00    -0.744 OA
ENDBRANCH  63  66
ENDBRANCH  45  59
BRANCH  46  70
ATOM     70  C   UNL     1      -4.088   1.961  11.550  1.00  0.00     0.023 A 
ATOM     71  C   UNL     1      -5.320   1.282  11.529  1.00  0.00     0.012 A 
ATOM     72  C   UNL     1      -3.253   1.849  12.680  1.00  0.00     0.148 A 
ATOM     73  C   UNL     1      -5.713   0.496  12.612  1.00  0.00     0.002 A 
ATOM     74  C   UNL     1      -3.634   1.034  13.739  1.00  0.00     0.091 A 
ATOM     75  F   UNL     1      -2.082   2.500  12.667  1.00  0.00    -0.205 F 
ATOM     76  C   UNL     1      -4.867   0.363  13.711  1.00  0.00     0.022 A 
BRANCH  74  77
ATOM     77  S   UNL     1      -2.570   0.714  15.151  1.00  0.00     0.127 S 
ATOM     78  O   UNL     1      -3.405   1.163  16.264  1.00  0.00    -0.237 OA
ATOM     79  O   UNL     1      -2.390  -0.735  15.062  1.00  0.00    -0.237 OA
ATOM     80  O   UNL     1      -1.363   1.496  14.927  1.00  0.00    -0.744 OA
ENDBRANCH  74  77
ENDBRANCH  46  70
BRANCH  58  81
ATOM     81  C   UNL     1      -5.843   7.960   8.376  1.00  0.00     0.023 A 
ATOM     82  C   UNL     1      -5.462   8.952   9.299  1.00  0.00     0.012 A 
ATOM     83  C   UNL     1      -7.056   8.089   7.672  1.00  0.00     0.148 A 
ATOM     84  C   UNL     1      -6.278  10.060   9.520  1.00  0.00     0.002 A 
ATOM     85  C   UNL     1      -7.848   9.213   7.873  1.00  0.00     0.091 A 
ATOM     86  F   UNL     1      -7.395   7.125   6.804  1.00  0.00    -0.205 F 
ATOM     87  C   UNL     1      -7.463  10.197   8.799  1.00  0.00     0.022 A 
BRANCH  85  88
ATOM     88  S   UNL     1      -9.351   9.519   6.938  1.00  0.00     0.127 S 
ATOM     89  O   UNL     1     -10.373   9.434   7.981  1.00  0.00    -0.237 OA
ATOM     90  O   UNL     1      -9.121  10.866   6.417  1.00  0.00    -0.237 OA
ATOM     91  O   UNL     1      -9.417   8.476   5.923  1.00  0.00    -0.744 OA
ENDBRANCH  85  88
ENDBRANCH  58  81
ENDBRANCH  32  33
ENDBRANCH  25  27
ENDBRANCH  24  25
ENDBRANCH  23  24
ENDBRANCH   1  23
TORSDOF 19
