REMARK SMILES O=C(OCCOC(=O)c1cccc(NC(=O)c2cc3ccccc3[nH]2)c1)c1ccc(-c2c3nc(c(-c4cccc(S(=O)(=O)[O-])c4F)c4ccc([nH]4)c(-c4cccc(S(=O)(=O)[O-])c4F)c4nc(c(-c5cccc(S(=O)(=O)[O-])c5F)c5ccc2[nH]5)C=C4)C=C3)cc1
REMARK SMILES IDX 4 1 3 2 2 3 1 4 27 5 28 6 89 7 29 8 88 9 30 10 31 11 32 12
REMARK SMILES IDX 82 13 33 14 87 15 81 16 83 17 34 18 86 19 80 20 79 21 35 23
REMARK SMILES IDX 67 24 47 25 66 26 48 27 51 28 65 29 84 30 49 31 50 32 64 34
REMARK SMILES IDX 85 35 52 36 36 37 37 38 45 39 38 40 40 41 46 42 39 43 41 44
REMARK SMILES IDX 42 45 43 46 44 47 68 48 69 49 77 50 70 51 72 52 78 53 71 54
REMARK SMILES IDX 73 55 74 56 75 57 76 58 53 59 54 60 62 61 55 62 57 63 63 64
REMARK SMILES IDX 56 65 58 66 59 67 60 68 61 69 5 70 6 71 7 72 8 73 9 74 10 75
REMARK SMILES IDX 26 76 11 77 13 78 12 79 14 80 15 81 16 83 17 84 18 85 25 86
REMARK SMILES IDX 19 87 24 88 20 90 23 91 21 92 22 93
REMARK H PARENT 83 22 51 33 14 82 25 89
REMARK Flexibility Score: inf
ROOT
ATOM      1  C   UNL     1       4.105  -0.837   1.405  1.00  0.00     0.275 C 
ENDROOT
BRANCH   1   2
ATOM      2  O   UNL     1       3.138   0.206   1.198  1.00  0.00    -0.458 OA
BRANCH   2   3
ATOM      3  C   UNL     1       3.006   1.083   0.173  1.00  0.00     0.338 C 
ATOM      4  O   UNL     1       2.185   1.994   0.282  1.00  0.00    -0.246 OA
BRANCH   3   5
ATOM      5  C   UNL     1       3.712   0.939  -1.139  1.00  0.00     0.060 A 
ATOM      6  C   UNL     1       4.996   0.422  -1.327  1.00  0.00     0.016 A 
ATOM      7  C   UNL     1       3.015   1.397  -2.271  1.00  0.00     0.016 A 
ATOM      8  C   UNL     1       5.547   0.304  -2.609  1.00  0.00     0.010 A 
ATOM      9  C   UNL     1       3.553   1.271  -3.555  1.00  0.00     0.010 A 
ATOM     10  C   UNL     1       4.834   0.733  -3.729  1.00  0.00    -0.014 A 
BRANCH  10  11
ATOM     11  C   UNL     1       5.490   0.797  -5.055  1.00  0.00     0.031 A 
ATOM     12  C   UNL     1       5.966   2.138  -5.535  1.00  0.00     0.074 A 
ATOM     13  C   UNL     1       5.679  -0.310  -5.798  1.00  0.00     0.049 A 
ATOM     14  N   UNL     1       6.604   2.438  -6.632  1.00  0.00    -0.248 NA
ATOM     15  C   UNL     1       5.734   3.288  -4.640  1.00  0.00     0.031 C 
ATOM     16  C   UNL     1       5.373  -1.673  -5.370  1.00  0.00     0.029 A 
ATOM     17  N   UNL     1       6.152  -0.468  -7.077  1.00  0.00    -0.354 N 
ATOM     18  C   UNL     1       6.878   3.796  -6.547  1.00  0.00     0.074 A 
ATOM     19  C   UNL     1       6.280   4.281  -5.324  1.00  0.00     0.031 C 
ATOM     20  C   UNL     1       5.599  -2.518  -6.392  1.00  0.00     0.029 A 
ATOM     21  C   UNL     1       6.039  -1.758  -7.553  1.00  0.00     0.049 A 
ATOM     22  H   UNL     1       6.535   0.269  -7.605  1.00  0.00     0.167 HD
ATOM     23  C   UNL     1       7.611   4.556  -7.390  1.00  0.00     0.034 A 
ATOM     24  C   UNL     1       6.266  -2.264  -8.783  1.00  0.00     0.034 A 
ATOM     25  C   UNL     1       8.187   4.049  -8.603  1.00  0.00     0.049 A 
ATOM     26  C   UNL     1       6.920  -1.348  -9.784  1.00  0.00     0.074 A 
ATOM     27  C   UNL     1       8.983   4.703  -9.522  1.00  0.00     0.029 A 
ATOM     28  N   UNL     1       7.999   2.756  -9.077  1.00  0.00    -0.354 N 
ATOM     29  N   UNL     1       7.287  -0.095  -9.634  1.00  0.00    -0.248 NA
ATOM     30  C   UNL     1       7.281  -1.929 -11.082  1.00  0.00     0.031 C 
ATOM     31  C   UNL     1       9.245   3.815 -10.572  1.00  0.00     0.029 A 
ATOM     32  C   UNL     1       8.638   2.599 -10.292  1.00  0.00     0.049 A 
ATOM     33  H   UNL     1       7.486   2.055  -8.615  1.00  0.00     0.167 HD
ATOM     34  C   UNL     1       8.001   0.235 -10.778  1.00  0.00     0.074 A 
ATOM     35  C   UNL     1       7.981  -0.942 -11.627  1.00  0.00     0.031 C 
ATOM     36  C   UNL     1       8.635   1.395 -11.089  1.00  0.00     0.034 A 
BRANCH  23  37
ATOM     37  C   UNL     1       7.843   5.990  -6.995  1.00  0.00     0.023 A 
ATOM     38  C   UNL     1       8.709   6.284  -5.920  1.00  0.00     0.012 A 
ATOM     39  C   UNL     1       7.196   7.043  -7.667  1.00  0.00     0.148 A 
ATOM     40  C   UNL     1       8.895   7.598  -5.494  1.00  0.00     0.002 A 
ATOM     41  C   UNL     1       7.415   8.354  -7.261  1.00  0.00     0.091 A 
ATOM     42  F   UNL     1       6.355   6.742  -8.667  1.00  0.00    -0.205 F 
ATOM     43  C   UNL     1       8.253   8.633  -6.167  1.00  0.00     0.022 A 
BRANCH  41  44
ATOM     44  S   UNL     1       6.675   9.762  -8.094  1.00  0.00     0.127 S 
ATOM     45  O   UNL     1       5.695  10.209  -7.105  1.00  0.00    -0.237 OA
ATOM     46  O   UNL     1       7.821  10.655  -8.265  1.00  0.00    -0.237 OA
ATOM     47  O   UNL     1       6.118   9.244  -9.336  1.00  0.00    -0.744 OA
ENDBRANCH  41  44
ENDBRANCH  23  37
BRANCH  24  48
ATOM     48  C   UNL     1       6.039  -3.718  -9.074  1.00  0.00     0.023 A 
ATOM     49  C   UNL     1       7.144  -4.587  -9.070  1.00  0.00     0.012 A 
ATOM     50  C   UNL     1       4.754  -4.263  -9.311  1.00  0.00     0.148 A 
ATOM     51  C   UNL     1       6.976  -5.957  -9.282  1.00  0.00     0.002 A 
ATOM     52  C   UNL     1       4.576  -5.641  -9.449  1.00  0.00     0.091 A 
ATOM     53  F   UNL     1       3.734  -3.416  -9.453  1.00  0.00    -0.205 F 
ATOM     54  C   UNL     1       5.697  -6.484  -9.447  1.00  0.00     0.022 A 
BRANCH  52  55
ATOM     55  S   UNL     1       2.961  -6.451  -9.574  1.00  0.00     0.127 S 
ATOM     56  O   UNL     1       2.783  -6.569 -11.019  1.00  0.00    -0.237 OA
ATOM     57  O   UNL     1       3.191  -7.726  -8.888  1.00  0.00    -0.237 OA
ATOM     58  O   UNL     1       1.986  -5.606  -8.897  1.00  0.00    -0.744 OA
ENDBRANCH  52  55
ENDBRANCH  24  48
BRANCH  36  59
ATOM     59  C   UNL     1       9.408   1.437 -12.378  1.00  0.00     0.023 A 
ATOM     60  C   UNL     1       8.724   1.526 -13.605  1.00  0.00     0.012 A 
ATOM     61  C   UNL     1      10.816   1.494 -12.360  1.00  0.00     0.148 A 
ATOM     62  C   UNL     1       9.432   1.647 -14.799  1.00  0.00     0.002 A 
ATOM     63  C   UNL     1      11.512   1.669 -13.549  1.00  0.00     0.091 A 
ATOM     64  F   UNL     1      11.447   1.389 -11.181  1.00  0.00    -0.205 F 
ATOM     65  C   UNL     1      10.822   1.733 -14.770  1.00  0.00     0.022 A 
BRANCH  63  66
ATOM     66  S   UNL     1      13.292   1.905 -13.591  1.00  0.00     0.127 S 
ATOM     67  O   UNL     1      13.751   0.619 -14.115  1.00  0.00    -0.237 OA
ATOM     68  O   UNL     1      13.435   3.028 -14.519  1.00  0.00    -0.237 OA
ATOM     69  O   UNL     1      13.690   2.201 -12.222  1.00  0.00    -0.744 OA
ENDBRANCH  63  66
ENDBRANCH  36  59
ENDBRANCH  10  11
ENDBRANCH   3   5
ENDBRANCH   2   3
ENDBRANCH   1   2
BRANCH   1  70
ATOM     70  C   UNL     1       3.798  -2.169   0.716  1.00  0.00     0.275 C 
BRANCH  70  71
ATOM     71  O   UNL     1       3.227  -2.016  -0.588  1.00  0.00    -0.458 OA
BRANCH  71  72
ATOM     72  C   UNL     1       1.862  -1.980  -0.623  1.00  0.00     0.338 C 
ATOM     73  O   UNL     1       1.110  -2.122   0.314  1.00  0.00    -0.246 OA
BRANCH  72  74
ATOM     74  C   UNL     1       1.428  -1.626  -1.996  1.00  0.00     0.062 A 
ATOM     75  C   UNL     1       0.405  -0.702  -2.195  1.00  0.00     0.016 A 
ATOM     76  C   UNL     1       2.044  -2.206  -3.098  1.00  0.00     0.041 A 
ATOM     77  C   UNL     1       0.036  -0.347  -3.502  1.00  0.00     0.003 A 
ATOM     78  C   UNL     1       1.639  -1.889  -4.408  1.00  0.00     0.042 A 
ATOM     79  C   UNL     1       0.646  -0.947  -4.616  1.00  0.00     0.026 A 
BRANCH  78  80
ATOM     80  N   UNL     1       2.288  -2.634  -5.370  1.00  0.00    -0.321 N 
ATOM     81  C   UNL     1       2.268  -2.929  -6.689  1.00  0.00     0.272 C 
ATOM     82  H   UNL     1       3.028  -3.126  -4.946  1.00  0.00     0.170 HD
ATOM     83  O   UNL     1       3.021  -3.888  -6.904  1.00  0.00    -0.267 OA
BRANCH  81  84
ATOM     84  C   UNL     1       1.492  -2.342  -7.747  1.00  0.00     0.105 A 
ATOM     85  C   UNL     1       1.563  -1.107  -8.385  1.00  0.00     0.042 A 
ATOM     86  N   UNL     1       0.899  -3.208  -8.654  1.00  0.00    -0.351 N 
ATOM     87  C   UNL     1       1.387  -1.362  -9.797  1.00  0.00     0.000 A 
ATOM     88  C   UNL     1       0.978  -2.683  -9.926  1.00  0.00     0.046 A 
ATOM     89  H   UNL     1       0.483  -4.070  -8.424  1.00  0.00     0.167 HD
ATOM     90  C   UNL     1       1.705  -0.662 -10.984  1.00  0.00     0.010 A 
ATOM     91  C   UNL     1       0.899  -3.365 -11.146  1.00  0.00     0.026 A 
ATOM     92  C   UNL     1       1.685  -1.346 -12.216  1.00  0.00     0.001 A 
ATOM     93  C   UNL     1       1.298  -2.682 -12.291  1.00  0.00     0.002 A 
ENDBRANCH  81  84
ENDBRANCH  78  80
ENDBRANCH  72  74
ENDBRANCH  71  72
ENDBRANCH  70  71
ENDBRANCH   1  70
TORSDOF 16
