REMARK SMILES CCCC1CN(c2ccc(C(=O)NCC(=O)OCCOC(=O)c3ccc(-c4c5nc(c(-c6cccc(S(=O)(=O)[O-])c6F)c6ccc([nH]6)c(-c6cccc(S(=O)(=O)[O-])c6F)c6nc(c(-c7cccc(S(=O)(=O)[O-])c7F)c7ccc4[nH]7)C=C6)C=C5)cc3)cc2)C1
REMARK SMILES IDX 18 1 17 2 15 3 16 4 14 5 13 6 11 7 12 8 10 10 7 11 8 12
REMARK SMILES IDX 87 13 9 14 86 15 6 16 4 17 5 18 88 19 3 20 2 21 1 22 19 23
REMARK SMILES IDX 20 24 21 25 22 26 23 27 24 28 85 29 25 30 84 31 26 32 27 33
REMARK SMILES IDX 28 34 78 35 29 36 83 37 77 38 79 39 30 40 82 41 76 42 75 43
REMARK SMILES IDX 31 45 63 46 43 47 62 48 44 49 47 50 61 51 80 52 45 53 46 54
REMARK SMILES IDX 60 56 81 57 48 58 32 59 33 60 41 61 34 62 36 63 42 64 35 65
REMARK SMILES IDX 37 66 38 67 39 68 40 69 64 70 65 71 73 72 66 73 68 74 74 75
REMARK SMILES IDX 67 76 69 77 70 78 71 79 72 80 49 81 50 82 58 83 51 84 53 85
REMARK SMILES IDX 59 86 52 87 54 88 55 89 56 90 57 91
REMARK H PARENT 13 9 79 44 47 55
REMARK Flexibility Score: inf
ROOT
ATOM      1  C   UNL     1      -2.514   5.318  -9.034  1.00  0.00     0.274 C 
ENDROOT
BRANCH   1   2
ATOM      2  O   UNL     1      -2.823   6.000  -7.804  1.00  0.00    -0.461 OA
BRANCH   2   3
ATOM      3  C   UNL     1      -1.789   6.622  -7.174  1.00  0.00     0.325 C 
ATOM      4  O   UNL     1      -0.611   6.514  -7.492  1.00  0.00    -0.250 OA
BRANCH   3   5
ATOM      5  C   UNL     1      -2.273   7.599  -6.099  1.00  0.00     0.239 C 
BRANCH   5   6
ATOM      6  N   UNL     1      -3.637   7.363  -5.667  1.00  0.00    -0.341 N 
ATOM      7  C   UNL     1      -4.126   6.732  -4.559  1.00  0.00     0.251 C 
ATOM      8  O   UNL     1      -5.343   6.694  -4.387  1.00  0.00    -0.269 OA
ATOM      9  H   UNL     1      -4.326   7.716  -6.274  1.00  0.00     0.164 HD
BRANCH   7  10
ATOM     10  C   UNL     1      -3.233   6.127  -3.534  1.00  0.00     0.039 A 
ATOM     11  C   UNL     1      -1.694   4.958  -1.482  1.00  0.00     0.037 A 
ATOM     12  C   UNL     1      -2.916   5.573  -1.193  1.00  0.00     0.027 A 
ATOM     13  C   UNL     1      -1.256   4.919  -2.807  1.00  0.00     0.027 A 
ATOM     14  C   UNL     1      -3.674   6.163  -2.206  1.00  0.00     0.016 A 
ATOM     15  C   UNL     1      -2.036   5.468  -3.831  1.00  0.00     0.016 A 
BRANCH  11  16
ATOM     16  N   UNL     1      -0.982   4.339  -0.438  1.00  0.00    -0.371 N 
ATOM     17  C   UNL     1       0.332   2.756  -0.120  1.00  0.00     0.028 C 
ATOM     18  C   UNL     1      -1.185   2.961  -0.085  1.00  0.00     0.122 C 
ATOM     19  C   UNL     1       0.441   4.277  -0.263  1.00  0.00     0.122 C 
BRANCH  17  20
ATOM     20  C   UNL     1       0.968   2.136   1.117  1.00  0.00     0.007 C 
BRANCH  20  21
ATOM     21  C   UNL     1       0.547   0.676   1.302  1.00  0.00    -0.003 C 
ATOM     22  C   UNL     1       1.055  -0.245   0.203  1.00  0.00     0.004 C 
ENDBRANCH  20  21
ENDBRANCH  17  20
ENDBRANCH  11  16
ENDBRANCH   7  10
ENDBRANCH   5   6
ENDBRANCH   3   5
ENDBRANCH   2   3
ENDBRANCH   1   2
BRANCH   1  23
ATOM     23  C   UNL     1      -2.892   6.183 -10.241  1.00  0.00     0.275 C 
BRANCH  23  24
ATOM     24  O   UNL     1      -2.004   7.307 -10.392  1.00  0.00    -0.458 OA
BRANCH  24  25
ATOM     25  C   UNL     1      -2.378   8.431  -9.741  1.00  0.00     0.338 C 
ATOM     26  O   UNL     1      -3.380   8.592  -9.059  1.00  0.00    -0.246 OA
BRANCH  25  27
ATOM     27  C   UNL     1      -1.318   9.442  -9.834  1.00  0.00     0.060 A 
ATOM     28  C   UNL     1      -0.525   9.674  -8.708  1.00  0.00     0.016 A 
ATOM     29  C   UNL     1      -1.184  10.237 -10.971  1.00  0.00     0.016 A 
ATOM     30  C   UNL     1       0.367  10.736  -8.689  1.00  0.00     0.010 A 
ATOM     31  C   UNL     1      -0.251  11.279 -10.967  1.00  0.00     0.010 A 
ATOM     32  C   UNL     1       0.513  11.550  -9.817  1.00  0.00    -0.014 A 
BRANCH  32  33
ATOM     33  C   UNL     1       1.452  12.695  -9.768  1.00  0.00     0.031 A 
ATOM     34  C   UNL     1       0.929  14.101  -9.811  1.00  0.00     0.074 A 
ATOM     35  C   UNL     1       2.775  12.461  -9.664  1.00  0.00     0.049 A 
ATOM     36  N   UNL     1       1.594  15.225  -9.857  1.00  0.00    -0.248 NA
ATOM     37  C   UNL     1      -0.534  14.268  -9.806  1.00  0.00     0.031 C 
ATOM     38  C   UNL     1       3.394  11.136  -9.597  1.00  0.00     0.029 A 
ATOM     39  N   UNL     1       3.836  13.328  -9.604  1.00  0.00    -0.354 N 
ATOM     40  C   UNL     1       0.638  16.228  -9.946  1.00  0.00     0.074 A 
ATOM     41  C   UNL     1      -0.657  15.582  -9.937  1.00  0.00     0.031 C 
ATOM     42  C   UNL     1       4.724  11.278  -9.501  1.00  0.00     0.029 A 
ATOM     43  C   UNL     1       5.056  12.697  -9.552  1.00  0.00     0.049 A 
ATOM     44  H   UNL     1       3.733  14.307  -9.600  1.00  0.00     0.167 HD
ATOM     45  C   UNL     1       0.824  17.567 -10.016  1.00  0.00     0.034 A 
ATOM     46  C   UNL     1       6.304  13.205  -9.569  1.00  0.00     0.034 A 
ATOM     47  C   UNL     1       2.111  18.206  -9.961  1.00  0.00     0.049 A 
ATOM     48  C   UNL     1       6.479  14.696  -9.632  1.00  0.00     0.074 A 
ATOM     49  C   UNL     1       2.403  19.558  -9.985  1.00  0.00     0.029 A 
ATOM     50  N   UNL     1       3.321  17.537  -9.863  1.00  0.00    -0.354 N 
ATOM     51  N   UNL     1       5.562  15.633  -9.645  1.00  0.00    -0.248 NA
ATOM     52  C   UNL     1       7.858  15.203  -9.667  1.00  0.00     0.031 C 
ATOM     53  C   UNL     1       3.792  19.706  -9.904  1.00  0.00     0.029 A 
ATOM     54  C   UNL     1       4.364  18.446  -9.825  1.00  0.00     0.049 A 
ATOM     55  H   UNL     1       3.424  16.558  -9.825  1.00  0.00     0.167 HD
ATOM     56  C   UNL     1       6.250  16.840  -9.674  1.00  0.00     0.074 A 
ATOM     57  C   UNL     1       7.662  16.515  -9.646  1.00  0.00     0.031 C 
ATOM     58  C   UNL     1       5.760  18.101  -9.744  1.00  0.00     0.034 A 
BRANCH  45  59
ATOM     59  C   UNL     1      -0.399  18.436 -10.127  1.00  0.00     0.023 A 
ATOM     60  C   UNL     1      -1.183  18.683  -8.982  1.00  0.00     0.012 A 
ATOM     61  C   UNL     1      -0.744  19.048 -11.348  1.00  0.00     0.148 A 
ATOM     62  C   UNL     1      -2.305  19.507  -9.056  1.00  0.00     0.002 A 
ATOM     63  C   UNL     1      -1.844  19.896 -11.406  1.00  0.00     0.091 A 
ATOM     64  F   UNL     1      -0.003  18.777 -12.432  1.00  0.00    -0.205 F 
ATOM     65  C   UNL     1      -2.630  20.121 -10.264  1.00  0.00     0.022 A 
BRANCH  63  66
ATOM     66  S   UNL     1      -2.298  20.777 -12.904  1.00  0.00     0.127 S 
ATOM     67  O   UNL     1      -3.426  19.982 -13.386  1.00  0.00    -0.237 OA
ATOM     68  O   UNL     1      -2.659  22.100 -12.393  1.00  0.00    -0.237 OA
ATOM     69  O   UNL     1      -1.109  20.762 -13.746  1.00  0.00    -0.744 OA
ENDBRANCH  63  66
ENDBRANCH  45  59
BRANCH  46  70
ATOM     70  C   UNL     1       7.474  12.287  -9.492  1.00  0.00     0.023 A 
ATOM     71  C   UNL     1       8.256  12.261  -8.321  1.00  0.00     0.012 A 
ATOM     72  C   UNL     1       7.781  11.399 -10.541  1.00  0.00     0.148 A 
ATOM     73  C   UNL     1       9.330  11.377  -8.204  1.00  0.00     0.002 A 
ATOM     74  C   UNL     1       8.815  10.482 -10.395  1.00  0.00     0.091 A 
ATOM     75  F   UNL     1       7.044  11.455 -11.661  1.00  0.00    -0.205 F 
ATOM     76  C   UNL     1       9.600  10.478  -9.232  1.00  0.00     0.022 A 
BRANCH  74  77
ATOM     77  S   UNL     1       9.119   9.198 -11.615  1.00  0.00     0.127 S 
ATOM     78  O   UNL     1      10.238   9.758 -12.368  1.00  0.00    -0.237 OA
ATOM     79  O   UNL     1       9.456   8.046 -10.777  1.00  0.00    -0.237 OA
ATOM     80  O   UNL     1       7.863   9.056 -12.340  1.00  0.00    -0.744 OA
ENDBRANCH  74  77
ENDBRANCH  46  70
BRANCH  58  81
ATOM     81  C   UNL     1       6.756  19.227  -9.789  1.00  0.00     0.023 A 
ATOM     82  C   UNL     1       7.443  19.492 -10.990  1.00  0.00     0.012 A 
ATOM     83  C   UNL     1       6.956  20.064  -8.675  1.00  0.00     0.148 A 
ATOM     84  C   UNL     1       8.332  20.561 -11.075  1.00  0.00     0.002 A 
ATOM     85  C   UNL     1       7.816  21.152  -8.779  1.00  0.00     0.091 A 
ATOM     86  F   UNL     1       6.311  19.780  -7.534  1.00  0.00    -0.205 F 
ATOM     87  C   UNL     1       8.510  21.398  -9.975  1.00  0.00     0.022 A 
BRANCH  85  88
ATOM     88  S   UNL     1       8.034  22.322  -7.434  1.00  0.00     0.127 S 
ATOM     89  O   UNL     1       9.292  21.870  -6.844  1.00  0.00    -0.237 OA
ATOM     90  O   UNL     1       8.116  23.603  -8.138  1.00  0.00    -0.237 OA
ATOM     91  O   UNL     1       6.853  22.178  -6.592  1.00  0.00    -0.744 OA
ENDBRANCH  85  88
ENDBRANCH  58  81
ENDBRANCH  32  33
ENDBRANCH  25  27
ENDBRANCH  24  25
ENDBRANCH  23  24
ENDBRANCH   1  23
TORSDOF 19
