REMARK SMILES CCCC(=O)/C(=C/NC(N)=O)C(=O)OCCOC(=O)c1ccc(-c2c3nc(c(-c4cccc(S(=O)(=O)[O-])c4F)c4ccc([nH]4)c(-c4cccc(S(=O)(=O)[O-])c4F)c4nc(c(-c5cccc(S(=O)(=O)[O-])c5F)c5ccc2[nH]5)C=C4)C=C3)cc1
REMARK SMILES IDX 15 1 14 2 12 3 13 4 6 5 7 6 4 7 5 8 3 9 2 10 1 11 8 12 9 13
REMARK SMILES IDX 10 15 11 16 16 19 17 20 18 21 19 22 20 23 21 24 82 25 22 26
REMARK SMILES IDX 81 27 23 28 24 29 25 30 75 31 26 32 80 33 74 34 76 35 27 36
REMARK SMILES IDX 79 37 73 38 72 39 28 41 60 42 40 43 59 44 41 45 44 46 58 47
REMARK SMILES IDX 77 48 42 49 43 50 57 52 78 53 45 54 29 55 30 56 38 57 31 58
REMARK SMILES IDX 33 59 39 60 32 61 34 62 35 63 36 64 37 65 61 66 62 67 70 68
REMARK SMILES IDX 63 69 65 70 71 71 64 72 66 73 67 74 68 75 69 76 46 77 47 78
REMARK SMILES IDX 55 79 48 80 50 81 56 82 49 83 51 84 52 85 53 86 54 87
REMARK H PARENT 8 14 10 17 10 18 76 40 44 51
REMARK Flexibility Score: inf
ROOT
ATOM      1  C   UNL     1       0.187  -3.940  -4.295  1.00  0.00     0.275 C 
ENDROOT
BRANCH   1   2
ATOM      2  O   UNL     1       0.660  -3.043  -3.262  1.00  0.00    -0.458 OA
BRANCH   2   3
ATOM      3  C   UNL     1       1.188  -1.857  -3.689  1.00  0.00     0.343 C 
ATOM      4  O   UNL     1       1.278  -1.533  -4.863  1.00  0.00    -0.246 OA
BRANCH   3   5
ATOM      5  C   UNL     1       1.661  -1.015  -2.551  1.00  0.00     0.119 C 
ATOM      6  C   UNL     1       2.333  -1.543  -1.514  1.00  0.00     0.106 C 
BRANCH   5   7
ATOM      7  C   UNL     1       1.548   0.482  -2.618  1.00  0.00     0.171 C 
ATOM      8  O   UNL     1       1.441   1.042  -3.710  1.00  0.00    -0.294 OA
BRANCH   7   9
ATOM      9  C   UNL     1       1.597   1.349  -1.359  1.00  0.00     0.081 C 
BRANCH   9  10
ATOM     10  C   UNL     1       0.436   1.217  -0.372  1.00  0.00     0.005 C 
ATOM     11  C   UNL     1       0.563   0.077   0.627  1.00  0.00     0.004 C 
ENDBRANCH   9  10
ENDBRANCH   7   9
ENDBRANCH   5   7
BRANCH   6  12
ATOM     12  N   UNL     1       2.517  -2.881  -1.262  1.00  0.00    -0.314 N 
ATOM     13  C   UNL     1       3.175  -3.344  -0.155  1.00  0.00     0.316 C 
ATOM     14  H   UNL     1       2.160  -3.535  -1.906  1.00  0.00     0.171 HD
ATOM     15  N   UNL     1       3.200  -4.695  -0.074  1.00  0.00    -0.351 N 
ATOM     16  O   UNL     1       3.700  -2.650   0.706  1.00  0.00    -0.249 OA
ATOM     17  H   UNL     1       2.772  -5.238  -0.775  1.00  0.00     0.161 HD
ATOM     18  H   UNL     1       3.644  -5.134   0.687  1.00  0.00     0.161 HD
ENDBRANCH   6  12
ENDBRANCH   3   5
ENDBRANCH   2   3
ENDBRANCH   1   2
BRANCH   1  19
ATOM     19  C   UNL     1      -1.341  -4.039  -4.320  1.00  0.00     0.275 C 
BRANCH  19  20
ATOM     20  O   UNL     1      -1.935  -2.814  -4.779  1.00  0.00    -0.458 OA
BRANCH  20  21
ATOM     21  C   UNL     1      -2.324  -1.968  -3.798  1.00  0.00     0.338 C 
ATOM     22  O   UNL     1      -2.270  -2.161  -2.595  1.00  0.00    -0.246 OA
BRANCH  21  23
ATOM     23  C   UNL     1      -2.664  -0.664  -4.379  1.00  0.00     0.060 A 
ATOM     24  C   UNL     1      -1.658   0.294  -4.386  1.00  0.00     0.016 A 
ATOM     25  C   UNL     1      -3.951  -0.333  -4.794  1.00  0.00     0.016 A 
ATOM     26  C   UNL     1      -1.929   1.606  -4.744  1.00  0.00     0.010 A 
ATOM     27  C   UNL     1      -4.210   0.977  -5.229  1.00  0.00     0.010 A 
ATOM     28  C   UNL     1      -3.205   1.964  -5.190  1.00  0.00    -0.014 A 
BRANCH  28  29
ATOM     29  C   UNL     1      -3.462   3.369  -5.612  1.00  0.00     0.031 A 
ATOM     30  C   UNL     1      -4.499   4.200  -4.907  1.00  0.00     0.074 A 
ATOM     31  C   UNL     1      -2.750   3.905  -6.624  1.00  0.00     0.049 A 
ATOM     32  N   UNL     1      -4.948   5.391  -5.210  1.00  0.00    -0.248 NA
ATOM     33  C   UNL     1      -5.117   3.616  -3.706  1.00  0.00     0.031 C 
ATOM     34  C   UNL     1      -1.691   3.220  -7.369  1.00  0.00     0.029 A 
ATOM     35  N   UNL     1      -2.813   5.147  -7.209  1.00  0.00    -0.354 N 
ATOM     36  C   UNL     1      -5.944   5.671  -4.283  1.00  0.00     0.074 A 
ATOM     37  C   UNL     1      -6.028   4.529  -3.398  1.00  0.00     0.031 C 
ATOM     38  C   UNL     1      -1.197   4.049  -8.299  1.00  0.00     0.029 A 
ATOM     39  C   UNL     1      -1.960   5.290  -8.280  1.00  0.00     0.049 A 
ATOM     40  H   UNL     1      -3.409   5.864  -6.893  1.00  0.00     0.167 HD
ATOM     41  C   UNL     1      -6.716   6.780  -4.179  1.00  0.00     0.034 A 
ATOM     42  C   UNL     1      -1.839   6.282  -9.182  1.00  0.00     0.034 A 
ATOM     43  C   UNL     1      -6.591   7.933  -5.032  1.00  0.00     0.049 A 
ATOM     44  C   UNL     1      -2.732   7.485  -9.065  1.00  0.00     0.074 A 
ATOM     45  C   UNL     1      -7.294   9.124  -4.976  1.00  0.00     0.029 A 
ATOM     46  N   UNL     1      -5.713   8.040  -6.100  1.00  0.00    -0.354 N 
ATOM     47  N   UNL     1      -3.628   7.760  -8.149  1.00  0.00    -0.248 NA
ATOM     48  C   UNL     1      -2.593   8.517 -10.101  1.00  0.00     0.031 C 
ATOM     49  C   UNL     1      -6.869   9.935  -6.033  1.00  0.00     0.029 A 
ATOM     50  C   UNL     1      -5.874   9.265  -6.727  1.00  0.00     0.049 A 
ATOM     51  H   UNL     1      -5.070   7.347  -6.374  1.00  0.00     0.167 HD
ATOM     52  C   UNL     1      -4.150   9.002  -8.489  1.00  0.00     0.074 A 
ATOM     53  C   UNL     1      -3.443   9.441  -9.675  1.00  0.00     0.031 C 
ATOM     54  C   UNL     1      -5.141   9.705  -7.887  1.00  0.00     0.034 A 
BRANCH  41  55
ATOM     55  C   UNL     1      -7.772   6.805  -3.104  1.00  0.00     0.023 A 
ATOM     56  C   UNL     1      -7.404   6.943  -1.750  1.00  0.00     0.012 A 
ATOM     57  C   UNL     1      -9.139   6.751  -3.445  1.00  0.00     0.148 A 
ATOM     58  C   UNL     1      -8.377   6.991  -0.751  1.00  0.00     0.002 A 
ATOM     59  C   UNL     1     -10.104   6.846  -2.449  1.00  0.00     0.091 A 
ATOM     60  F   UNL     1      -9.470   6.601  -4.736  1.00  0.00    -0.205 F 
ATOM     61  C   UNL     1      -9.725   6.953  -1.101  1.00  0.00     0.022 A 
BRANCH  59  62
ATOM     62  S   UNL     1     -11.865   6.886  -2.804  1.00  0.00     0.127 S 
ATOM     63  O   UNL     1     -12.302   5.595  -2.273  1.00  0.00    -0.237 OA
ATOM     64  O   UNL     1     -12.308   8.045  -2.028  1.00  0.00    -0.237 OA
ATOM     65  O   UNL     1     -11.982   7.038  -4.247  1.00  0.00    -0.744 OA
ENDBRANCH  59  62
ENDBRANCH  41  55
BRANCH  42  66
ATOM     66  C   UNL     1      -0.847   6.163 -10.290  1.00  0.00     0.023 A 
ATOM     67  C   UNL     1       0.260   7.031 -10.332  1.00  0.00     0.012 A 
ATOM     68  C   UNL     1      -0.981   5.172 -11.284  1.00  0.00     0.148 A 
ATOM     69  C   UNL     1       1.204   6.929 -11.356  1.00  0.00     0.002 A 
ATOM     70  C   UNL     1      -0.005   5.035 -12.263  1.00  0.00     0.091 A 
ATOM     71  F   UNL     1      -2.054   4.370 -11.241  1.00  0.00    -0.205 F 
ATOM     72  C   UNL     1       1.079   5.924 -12.312  1.00  0.00     0.022 A 
BRANCH  70  73
ATOM     73  S   UNL     1      -0.015   3.687 -13.450  1.00  0.00     0.127 S 
ATOM     74  O   UNL     1      -0.315   4.387 -14.696  1.00  0.00    -0.237 OA
ATOM     75  O   UNL     1       1.353   3.180 -13.343  1.00  0.00    -0.237 OA
ATOM     76  O   UNL     1      -1.037   2.758 -12.986  1.00  0.00    -0.744 OA
ENDBRANCH  70  73
ENDBRANCH  42  66
BRANCH  54  77
ATOM     77  C   UNL     1      -5.513  11.033  -8.493  1.00  0.00     0.023 A 
ATOM     78  C   UNL     1      -6.207  11.071  -9.719  1.00  0.00     0.012 A 
ATOM     79  C   UNL     1      -5.229  12.238  -7.820  1.00  0.00     0.148 A 
ATOM     80  C   UNL     1      -6.582  12.290 -10.284  1.00  0.00     0.002 A 
ATOM     81  C   UNL     1      -5.651  13.445  -8.364  1.00  0.00     0.091 A 
ATOM     82  F   UNL     1      -4.555  12.181  -6.663  1.00  0.00    -0.205 F 
ATOM     83  C   UNL     1      -6.314  13.474  -9.602  1.00  0.00     0.022 A 
BRANCH  81  84
ATOM     84  S   UNL     1      -5.436  15.015  -7.517  1.00  0.00     0.127 S 
ATOM     85  O   UNL     1      -4.456  15.683  -8.372  1.00  0.00    -0.237 OA
ATOM     86  O   UNL     1      -6.784  15.583  -7.575  1.00  0.00    -0.237 OA
ATOM     87  O   UNL     1      -4.971  14.691  -6.176  1.00  0.00    -0.744 OA
ENDBRANCH  81  84
ENDBRANCH  54  77
ENDBRANCH  28  29
ENDBRANCH  21  23
ENDBRANCH  20  21
ENDBRANCH  19  20
ENDBRANCH   1  19
TORSDOF 18
