REMARK SMILES CC(C)(C)OC(=O)[C@@H](C(=O)OCCOC(=O)c1ccc(-c2c3nc(c(-c4cccc(S(=O)(=O)[O-])c4F)c4ccc([nH]4)c(-c4cccc(S(=O)(=O)[O-])c4F)c4nc(c(-c5cccc(S(=O)(=O)[O-])c5F)c5ccc2[nH]5)C=C4)C=C3)cc1)[C@@H]([NH3+])Cc1cccc(F)c1
REMARK SMILES IDX 12 1 11 2 9 3 10 4 8 5 6 6 7 7 5 8 2 9 1 10 3 11 4 12 80 13
REMARK SMILES IDX 81 14 82 18 83 19 84 20 89 21 85 22 87 23 86 24 88 25 13 26
REMARK SMILES IDX 14 27 15 28 16 29 17 30 18 31 79 32 19 33 78 34 20 35 21 36
REMARK SMILES IDX 22 37 72 38 23 39 77 40 71 41 73 42 24 43 76 44 70 45 69 46
REMARK SMILES IDX 25 48 57 49 37 50 56 51 38 52 41 53 55 54 74 55 39 56 40 57
REMARK SMILES IDX 54 59 75 60 42 61 26 62 27 63 35 64 28 65 30 66 36 67 29 68
REMARK SMILES IDX 31 69 32 70 33 71 34 72 58 73 59 74 67 75 60 76 62 77 68 78
REMARK SMILES IDX 61 79 63 80 64 81 65 82 66 83 43 84 44 85 52 86 45 87 47 88
REMARK SMILES IDX 53 89 46 90 48 91 49 92 50 93 51 94
REMARK H PARENT 81 15 81 16 81 17 73 47 41 58
REMARK Flexibility Score: inf
ROOT
ATOM      1  C   UNL     1      -0.807  -5.133  -1.310  1.00  0.00     0.274 C 
ENDROOT
BRANCH   1   2
ATOM      2  O   UNL     1      -0.138  -4.622  -0.141  1.00  0.00    -0.461 OA
BRANCH   2   3
ATOM      3  C   UNL     1      -0.152  -5.451   0.941  1.00  0.00     0.326 C 
ATOM      4  O   UNL     1      -0.739  -6.526   0.976  1.00  0.00    -0.251 OA
BRANCH   3   5
ATOM      5  C   UNL     1       0.653  -4.908   2.096  1.00  0.00     0.266 C 
BRANCH   5   6
ATOM      6  C   UNL     1       0.249  -3.469   2.369  1.00  0.00     0.327 C 
ATOM      7  O   UNL     1      -0.581  -3.181   3.226  1.00  0.00    -0.251 OA
BRANCH   6   8
ATOM      8  O   UNL     1       0.847  -2.562   1.540  1.00  0.00    -0.459 OA
BRANCH   8   9
ATOM      9  C   UNL     1       0.476  -1.149   1.617  1.00  0.00     0.104 C 
ATOM     10  C   UNL     1       1.233  -0.412   0.498  1.00  0.00     0.056 C 
ATOM     11  C   UNL     1       0.931  -0.543   2.949  1.00  0.00     0.056 C 
ATOM     12  C   UNL     1      -1.026  -0.943   1.367  1.00  0.00     0.056 C 
ENDBRANCH   8   9
ENDBRANCH   6   8
ENDBRANCH   5   6
BRANCH   5  13
ATOM     13  C   UNL     1       2.180  -5.137   1.989  1.00  0.00     0.211 C 
BRANCH  13  14
ATOM     14  N   UNL     1       2.826  -4.667   3.245  1.00  0.00    -0.354 N 
ATOM     15  H   UNL     1       2.495  -5.229   4.029  1.00  0.00     0.344 HD
ATOM     16  H   UNL     1       2.587  -3.688   3.404  1.00  0.00     0.344 HD
ATOM     17  H   UNL     1       3.838  -4.761   3.162  1.00  0.00     0.344 HD
ENDBRANCH  13  14
BRANCH  13  18
ATOM     18  C   UNL     1       2.630  -6.623   1.791  1.00  0.00     0.102 C 
BRANCH  18  19
ATOM     19  C   UNL     1       2.574  -7.301   0.436  1.00  0.00    -0.039 A 
ATOM     20  C   UNL     1       2.288  -6.641  -0.758  1.00  0.00     0.004 A 
ATOM     21  C   UNL     1       2.889  -8.667   0.351  1.00  0.00     0.043 A 
ATOM     22  C   UNL     1       2.237  -7.316  -1.986  1.00  0.00     0.003 A 
ATOM     23  C   UNL     1       2.853  -9.336  -0.874  1.00  0.00     0.123 A 
ATOM     24  C   UNL     1       2.515  -8.674  -2.043  1.00  0.00     0.039 A 
ATOM     25  F   UNL     1       3.140 -10.642  -0.919  1.00  0.00    -0.207 F 
ENDBRANCH  18  19
ENDBRANCH  13  18
ENDBRANCH   5  13
ENDBRANCH   3   5
ENDBRANCH   2   3
ENDBRANCH   1   2
BRANCH   1  26
ATOM     26  C   UNL     1      -0.426  -4.300  -2.539  1.00  0.00     0.275 C 
BRANCH  26  27
ATOM     27  O   UNL     1       1.003  -4.335  -2.744  1.00  0.00    -0.458 OA
BRANCH  27  28
ATOM     28  C   UNL     1       1.671  -3.198  -2.432  1.00  0.00     0.338 C 
ATOM     29  O   UNL     1       1.179  -2.116  -2.164  1.00  0.00    -0.246 OA
BRANCH  28  30
ATOM     30  C   UNL     1       3.107  -3.494  -2.261  1.00  0.00     0.060 A 
ATOM     31  C   UNL     1       3.656  -3.338  -0.983  1.00  0.00     0.016 A 
ATOM     32  C   UNL     1       3.908  -3.920  -3.320  1.00  0.00     0.016 A 
ATOM     33  C   UNL     1       4.989  -3.667  -0.740  1.00  0.00     0.010 A 
ATOM     34  C   UNL     1       5.266  -4.186  -3.090  1.00  0.00     0.010 A 
ATOM     35  C   UNL     1       5.813  -4.065  -1.799  1.00  0.00    -0.014 A 
BRANCH  35  36
ATOM     36  C   UNL     1       7.277  -4.174  -1.580  1.00  0.00     0.031 A 
ATOM     37  C   UNL     1       8.111  -2.927  -1.688  1.00  0.00     0.074 A 
ATOM     38  C   UNL     1       7.860  -5.346  -1.268  1.00  0.00     0.049 A 
ATOM     39  N   UNL     1       9.405  -2.782  -1.577  1.00  0.00    -0.248 NA
ATOM     40  C   UNL     1       7.383  -1.673  -1.941  1.00  0.00     0.031 C 
ATOM     41  C   UNL     1       7.161  -6.614  -1.067  1.00  0.00     0.029 A 
ATOM     42  N   UNL     1       9.185  -5.657  -1.079  1.00  0.00    -0.354 N 
ATOM     43  C   UNL     1       9.651  -1.428  -1.769  1.00  0.00     0.074 A 
ATOM     44  C   UNL     1       8.370  -0.791  -1.987  1.00  0.00     0.031 C 
ATOM     45  C   UNL     1       8.069  -7.575  -0.816  1.00  0.00     0.029 A 
ATOM     46  C   UNL     1       9.413  -6.998  -0.871  1.00  0.00     0.049 A 
ATOM     47  H   UNL     1       9.904  -4.985  -1.092  1.00  0.00     0.167 HD
ATOM     48  C   UNL     1      10.833  -0.771  -1.769  1.00  0.00     0.034 A 
ATOM     49  C   UNL     1      10.572  -7.681  -0.769  1.00  0.00     0.034 A 
ATOM     50  C   UNL     1      12.110  -1.399  -1.575  1.00  0.00     0.049 A 
ATOM     51  C   UNL     1      11.883  -6.935  -0.856  1.00  0.00     0.074 A 
ATOM     52  C   UNL     1      13.364  -0.814  -1.575  1.00  0.00     0.029 A 
ATOM     53  N   UNL     1      12.300  -2.756  -1.369  1.00  0.00    -0.354 N 
ATOM     54  N   UNL     1      12.097  -5.645  -0.959  1.00  0.00    -0.248 NA
ATOM     55  C   UNL     1      13.115  -7.739  -0.795  1.00  0.00     0.031 C 
ATOM     56  C   UNL     1      14.316  -1.824  -1.396  1.00  0.00     0.029 A 
ATOM     57  C   UNL     1      13.651  -3.032  -1.253  1.00  0.00     0.049 A 
ATOM     58  H   UNL     1      11.580  -3.425  -1.312  1.00  0.00     0.167 HD
ATOM     59  C   UNL     1      13.480  -5.482  -0.939  1.00  0.00     0.074 A 
ATOM     60  C   UNL     1      14.054  -6.803  -0.794  1.00  0.00     0.031 C 
ATOM     61  C   UNL     1      14.209  -4.344  -1.048  1.00  0.00     0.034 A 
BRANCH  48  62
ATOM     62  C   UNL     1      10.794   0.713  -2.007  1.00  0.00     0.023 A 
ATOM     63  C   UNL     1      10.362   1.575  -0.980  1.00  0.00     0.012 A 
ATOM     64  C   UNL     1      11.203   1.253  -3.241  1.00  0.00     0.148 A 
ATOM     65  C   UNL     1      10.310   2.953  -1.188  1.00  0.00     0.002 A 
ATOM     66  C   UNL     1      11.185   2.630  -3.428  1.00  0.00     0.091 A 
ATOM     67  F   UNL     1      11.582   0.411  -4.213  1.00  0.00    -0.205 F 
ATOM     68  C   UNL     1      10.729   3.480  -2.407  1.00  0.00     0.022 A 
BRANCH  66  69
ATOM     69  S   UNL     1      11.761   3.406  -4.941  1.00  0.00     0.127 S 
ATOM     70  O   UNL     1      10.506   3.866  -5.532  1.00  0.00    -0.237 OA
ATOM     71  O   UNL     1      12.623   4.472  -4.431  1.00  0.00    -0.237 OA
ATOM     72  O   UNL     1      12.458   2.366  -5.685  1.00  0.00    -0.744 OA
ENDBRANCH  66  69
ENDBRANCH  48  62
BRANCH  49  73
ATOM     73  C   UNL     1      10.564  -9.162  -0.576  1.00  0.00     0.023 A 
ATOM     74  C   UNL     1      11.048  -9.711   0.628  1.00  0.00     0.012 A 
ATOM     75  C   UNL     1      10.105 -10.028  -1.588  1.00  0.00     0.148 A 
ATOM     76  C   UNL     1      11.104 -11.095   0.807  1.00  0.00     0.002 A 
ATOM     77  C   UNL     1      10.114 -11.403  -1.381  1.00  0.00     0.091 A 
ATOM     78  F   UNL     1       9.676  -9.489  -2.738  1.00  0.00    -0.205 F 
ATOM     79  C   UNL     1      10.629 -11.940  -0.192  1.00  0.00     0.022 A 
BRANCH  77  80
ATOM     80  S   UNL     1       9.422 -12.559  -2.570  1.00  0.00     0.127 S 
ATOM     81  O   UNL     1      10.624 -13.209  -3.088  1.00  0.00    -0.237 OA
ATOM     82  O   UNL     1       8.585 -13.403  -1.717  1.00  0.00    -0.237 OA
ATOM     83  O   UNL     1       8.682 -11.745  -3.524  1.00  0.00    -0.744 OA
ENDBRANCH  77  80
ENDBRANCH  49  73
BRANCH  61  84
ATOM     84  C   UNL     1      15.712  -4.453  -0.974  1.00  0.00     0.023 A 
ATOM     85  C   UNL     1      16.431  -4.990  -2.059  1.00  0.00     0.012 A 
ATOM     86  C   UNL     1      16.415  -3.933   0.131  1.00  0.00     0.148 A 
ATOM     87  C   UNL     1      17.826  -5.033  -2.035  1.00  0.00     0.002 A 
ATOM     88  C   UNL     1      17.806  -3.934   0.128  1.00  0.00     0.091 A 
ATOM     89  F   UNL     1      15.713  -3.442   1.163  1.00  0.00    -0.205 F 
ATOM     90  C   UNL     1      18.512  -4.493  -0.949  1.00  0.00     0.022 A 
BRANCH  88  91
ATOM     91  S   UNL     1      18.771  -3.170   1.436  1.00  0.00     0.127 S 
ATOM     92  O   UNL     1      19.296  -4.338   2.141  1.00  0.00    -0.237 OA
ATOM     93  O   UNL     1      19.771  -2.412   0.683  1.00  0.00    -0.237 OA
ATOM     94  O   UNL     1      17.838  -2.347   2.194  1.00  0.00    -0.744 OA
ENDBRANCH  88  91
ENDBRANCH  61  84
ENDBRANCH  35  36
ENDBRANCH  28  30
ENDBRANCH  27  28
ENDBRANCH  26  27
ENDBRANCH   1  26
TORSDOF 21
