REMARK SMILES O=C(OCCOC(=O)c1cc2c(c(S(=O)(=O)Nc3cc(C(F)(F)F)ccc3-n3cccn3)c1)CCC2)c1ccc(-c2c3nc(c(-c4cccc(S(=O)(=O)[O-])c4F)c4ccc([nH]4)c(-c4cccc(S(=O)(=O)[O-])c4F)c4nc(c(-c5cccc(S(=O)(=O)[O-])c5F)c5ccc2[nH]5)C=C4)C=C3)cc1
REMARK SMILES IDX 5 1 4 2 3 3 2 4 1 5 37 6 38 7 99 8 39 9 98 10 40 11 41 12
REMARK SMILES IDX 42 13 92 14 43 15 97 16 91 17 93 18 44 19 96 20 90 21 89 22
REMARK SMILES IDX 45 24 77 25 57 26 76 27 58 28 61 29 75 30 94 31 59 32 60 33
REMARK SMILES IDX 74 35 95 36 62 37 46 38 47 39 55 40 48 41 50 42 56 43 49 44
REMARK SMILES IDX 51 45 52 46 53 47 54 48 78 49 79 50 87 51 80 52 82 53 88 54
REMARK SMILES IDX 81 55 83 56 84 57 85 58 86 59 63 60 64 61 72 62 65 63 67 64
REMARK SMILES IDX 73 65 66 66 68 67 69 68 70 69 71 70 6 71 7 72 8 73 9 74
REMARK SMILES IDX 10 75 33 76 11 77 13 78 12 79 36 80 34 81 35 82 14 83 15 84
REMARK SMILES IDX 16 85 17 86 18 88 19 89 27 90 20 91 26 92 25 93 28 94 29 95
REMARK SMILES IDX 32 96 30 97 31 98 21 99 22 100 23 101 24 102
REMARK H PARENT 93 23 61 34 17 87
REMARK Flexibility Score: inf
ROOT
ATOM      1  C   UNL     1       4.302   1.721  -0.695  1.00  0.00     0.275 C 
ENDROOT
BRANCH   1   2
ATOM      2  C   UNL     1       4.694   0.480  -1.506  1.00  0.00     0.275 C 
BRANCH   2   3
ATOM      3  O   UNL     1       3.647  -0.435  -1.879  1.00  0.00    -0.458 OA
BRANCH   3   4
ATOM      4  C   UNL     1       2.485  -0.405  -1.190  1.00  0.00     0.338 C 
ATOM      5  O   UNL     1       1.502   0.215  -1.564  1.00  0.00    -0.246 OA
BRANCH   4   6
ATOM      6  C   UNL     1       2.490  -1.339  -0.035  1.00  0.00     0.060 A 
ATOM      7  C   UNL     1       3.678  -1.857   0.506  1.00  0.00     0.016 A 
ATOM      8  C   UNL     1       1.260  -1.693   0.522  1.00  0.00     0.016 A 
ATOM      9  C   UNL     1       3.645  -2.780   1.538  1.00  0.00     0.010 A 
ATOM     10  C   UNL     1       1.226  -2.593   1.578  1.00  0.00     0.010 A 
ATOM     11  C   UNL     1       2.414  -3.188   2.035  1.00  0.00    -0.014 A 
BRANCH  11  12
ATOM     12  C   UNL     1       2.376  -4.314   2.973  1.00  0.00     0.031 A 
ATOM     13  C   UNL     1       2.917  -4.134   4.368  1.00  0.00     0.074 A 
ATOM     14  C   UNL     1       1.664  -5.400   2.595  1.00  0.00     0.049 A 
ATOM     15  N   UNL     1       3.352  -5.033   5.199  1.00  0.00    -0.248 NA
ATOM     16  C   UNL     1       2.975  -2.774   4.926  1.00  0.00     0.031 C 
ATOM     17  C   UNL     1       0.933  -5.593   1.332  1.00  0.00     0.029 A 
ATOM     18  N   UNL     1       1.277  -6.474   3.338  1.00  0.00    -0.354 N 
ATOM     19  C   UNL     1       3.488  -4.387   6.433  1.00  0.00     0.074 A 
ATOM     20  C   UNL     1       3.217  -2.997   6.216  1.00  0.00     0.031 C 
ATOM     21  C   UNL     1      -0.023  -6.525   1.512  1.00  0.00     0.029 A 
ATOM     22  C   UNL     1       0.133  -7.088   2.837  1.00  0.00     0.049 A 
ATOM     23  H   UNL     1       1.755  -6.782   4.142  1.00  0.00     0.167 HD
ATOM     24  C   UNL     1       3.729  -5.036   7.602  1.00  0.00     0.034 A 
ATOM     25  C   UNL     1      -0.696  -7.928   3.495  1.00  0.00     0.034 A 
ATOM     26  C   UNL     1       4.467  -6.244   7.399  1.00  0.00     0.049 A 
ATOM     27  C   UNL     1       0.043  -8.459   4.659  1.00  0.00     0.074 A 
ATOM     28  C   UNL     1       5.704  -6.524   6.854  1.00  0.00     0.029 A 
ATOM     29  N   UNL     1       3.811  -7.445   7.465  1.00  0.00    -0.354 N 
ATOM     30  N   UNL     1       1.097  -9.223   4.563  1.00  0.00    -0.248 NA
ATOM     31  C   UNL     1      -0.153  -7.815   5.945  1.00  0.00     0.031 C 
ATOM     32  C   UNL     1       5.513  -7.743   6.143  1.00  0.00     0.029 A 
ATOM     33  C   UNL     1       4.186  -8.134   6.341  1.00  0.00     0.049 A 
ATOM     34  H   UNL     1       3.197  -7.749   8.172  1.00  0.00     0.167 HD
ATOM     35  C   UNL     1       1.914  -8.824   5.612  1.00  0.00     0.074 A 
ATOM     36  C   UNL     1       1.043  -8.047   6.493  1.00  0.00     0.031 C 
ATOM     37  C   UNL     1       3.276  -8.916   5.533  1.00  0.00     0.034 A 
BRANCH  24  38
ATOM     38  C   UNL     1       3.077  -4.698   8.918  1.00  0.00     0.023 A 
ATOM     39  C   UNL     1       3.580  -5.313  10.086  1.00  0.00     0.012 A 
ATOM     40  C   UNL     1       1.817  -4.061   9.007  1.00  0.00     0.148 A 
ATOM     41  C   UNL     1       2.835  -5.357  11.269  1.00  0.00     0.002 A 
ATOM     42  C   UNL     1       1.089  -4.087  10.194  1.00  0.00     0.091 A 
ATOM     43  F   UNL     1       1.282  -3.502   7.916  1.00  0.00    -0.205 F 
ATOM     44  C   UNL     1       1.584  -4.755  11.320  1.00  0.00     0.022 A 
BRANCH  42  45
ATOM     45  S   UNL     1      -0.543  -3.346  10.331  1.00  0.00     0.127 S 
ATOM     46  O   UNL     1      -1.382  -4.517  10.566  1.00  0.00    -0.237 OA
ATOM     47  O   UNL     1      -0.371  -2.462  11.484  1.00  0.00    -0.237 OA
ATOM     48  O   UNL     1      -0.772  -2.644   9.073  1.00  0.00    -0.744 OA
ENDBRANCH  42  45
ENDBRANCH  24  38
BRANCH  25  49
ATOM     49  C   UNL     1      -2.152  -8.104   3.310  1.00  0.00     0.023 A 
ATOM     50  C   UNL     1      -2.757  -9.329   3.641  1.00  0.00     0.012 A 
ATOM     51  C   UNL     1      -2.989  -7.002   3.007  1.00  0.00     0.148 A 
ATOM     52  C   UNL     1      -4.151  -9.455   3.675  1.00  0.00     0.002 A 
ATOM     53  C   UNL     1      -4.374  -7.137   3.027  1.00  0.00     0.091 A 
ATOM     54  F   UNL     1      -2.428  -5.806   2.782  1.00  0.00    -0.205 F 
ATOM     55  C   UNL     1      -4.958  -8.362   3.369  1.00  0.00     0.022 A 
BRANCH  53  56
ATOM     56  S   UNL     1      -5.477  -5.772   2.634  1.00  0.00     0.127 S 
ATOM     57  O   UNL     1      -6.476  -6.421   1.783  1.00  0.00    -0.237 OA
ATOM     58  O   UNL     1      -5.962  -5.383   3.955  1.00  0.00    -0.237 OA
ATOM     59  O   UNL     1      -4.654  -4.790   1.938  1.00  0.00    -0.744 OA
ENDBRANCH  53  56
ENDBRANCH  25  49
BRANCH  37  60
ATOM     60  C   UNL     1       3.889  -9.583   4.319  1.00  0.00     0.023 A 
ATOM     61  C   UNL     1       3.694  -9.056   3.024  1.00  0.00     0.012 A 
ATOM     62  C   UNL     1       4.856 -10.588   4.490  1.00  0.00     0.148 A 
ATOM     63  C   UNL     1       4.418  -9.526   1.927  1.00  0.00     0.002 A 
ATOM     64  C   UNL     1       5.611 -11.024   3.404  1.00  0.00     0.091 A 
ATOM     65  F   UNL     1       5.059 -11.070   5.726  1.00  0.00    -0.205 F 
ATOM     66  C   UNL     1       5.388 -10.502   2.119  1.00  0.00     0.022 A 
BRANCH  64  67
ATOM     67  S   UNL     1       6.981 -12.168   3.602  1.00  0.00     0.127 S 
ATOM     68  O   UNL     1       6.415 -13.415   3.092  1.00  0.00    -0.237 OA
ATOM     69  O   UNL     1       8.016 -11.575   2.752  1.00  0.00    -0.237 OA
ATOM     70  O   UNL     1       7.306 -12.158   5.023  1.00  0.00    -0.744 OA
ENDBRANCH  64  67
ENDBRANCH  37  60
ENDBRANCH  11  12
ENDBRANCH   4   6
ENDBRANCH   3   4
ENDBRANCH   2   3
ENDBRANCH   1   2
BRANCH   1  71
ATOM     71  O   UNL     1       3.838   1.388   0.629  1.00  0.00    -0.458 OA
BRANCH  71  72
ATOM     72  C   UNL     1       2.699   2.008   1.042  1.00  0.00     0.338 C 
ATOM     73  O   UNL     1       2.008   2.791   0.405  1.00  0.00    -0.246 OA
BRANCH  72  74
ATOM     74  C   UNL     1       2.472   1.702   2.465  1.00  0.00     0.061 A 
ATOM     75  C   UNL     1       3.332   2.290   3.383  1.00  0.00     0.019 A 
ATOM     76  C   UNL     1       1.390   0.912   2.899  1.00  0.00     0.038 A 
ATOM     77  C   UNL     1       3.129   2.007   4.719  1.00  0.00    -0.043 A 
ATOM     78  C   UNL     1       1.202   0.591   4.272  1.00  0.00     0.092 A 
ATOM     79  C   UNL     1       2.132   1.104   5.169  1.00  0.00    -0.024 A 
ATOM     80  C   UNL     1       3.921   2.581   5.857  1.00  0.00     0.036 C 
ATOM     81  C   UNL     1       2.408   0.850   6.618  1.00  0.00     0.037 C 
ATOM     82  C   UNL     1       3.025   2.192   7.030  1.00  0.00     0.010 C 
BRANCH  78  83
ATOM     83  S   UNL     1      -0.182  -0.503   4.635  1.00  0.00     0.262 S 
ATOM     84  O   UNL     1      -1.117  -0.326   3.535  1.00  0.00    -0.201 OA
ATOM     85  O   UNL     1       0.389  -1.806   4.839  1.00  0.00    -0.201 OA
BRANCH  83  86
ATOM     86  N   UNL     1      -1.034  -0.171   6.051  1.00  0.00    -0.277 N 
ATOM     87  H   UNL     1      -1.698  -0.844   6.327  1.00  0.00     0.180 HD
BRANCH  86  88
ATOM     88  C   UNL     1      -0.906   0.973   6.897  1.00  0.00     0.075 A 
ATOM     89  C   UNL     1      -0.650   0.674   8.253  1.00  0.00     0.042 A 
ATOM     90  C   UNL     1      -0.932   2.316   6.508  1.00  0.00     0.089 A 
ATOM     91  C   UNL     1      -0.268   1.660   9.176  1.00  0.00     0.058 A 
ATOM     92  C   UNL     1      -0.583   3.318   7.435  1.00  0.00     0.031 A 
ATOM     93  C   UNL     1      -0.251   2.991   8.753  1.00  0.00     0.015 A 
BRANCH  90  94
ATOM     94  N   UNL     1      -1.272   2.731   5.203  1.00  0.00    -0.239 N 
ATOM     95  C   UNL     1      -2.205   2.189   4.356  1.00  0.00     0.115 A 
ATOM     96  N   UNL     1      -0.617   3.773   4.617  1.00  0.00    -0.177 NA
ATOM     97  C   UNL     1      -1.973   2.730   3.114  1.00  0.00     0.042 A 
ATOM     98  C   UNL     1      -0.959   3.674   3.329  1.00  0.00     0.135 A 
ENDBRANCH  90  94
BRANCH  91  99
ATOM     99  C   UNL     1       0.199   1.265  10.560  1.00  0.00     0.416 C 
ATOM    100  F   UNL     1      -0.805   0.862  11.377  1.00  0.00    -0.166 F 
ATOM    101  F   UNL     1       1.145   0.289  10.540  1.00  0.00    -0.166 F 
ATOM    102  F   UNL     1       0.796   2.313  11.212  1.00  0.00    -0.166 F 
ENDBRANCH  91  99
ENDBRANCH  86  88
ENDBRANCH  83  86
ENDBRANCH  78  83
ENDBRANCH  72  74
ENDBRANCH  71  72
ENDBRANCH   1  71
TORSDOF 19
