REMARK SMILES COc1ccc(-n2ccnc2C[N@@H+]2CCn3nc(C(=O)OCCOC(=O)c4ccc(-c5c6nc(c(-c7cccc(S(=O)(=O)[O-])c7F)c7ccc([nH]7)c(-c7cccc(S(=O)(=O)[O-])c7F)c7nc(c(-c8cccc(S(=O)(=O)[O-])c8F)c8ccc5[nH]8)C=C7)C=C6)cc4)cc3C2)cc1
REMARK SMILES IDX 22 1 21 2 19 3 20 4 18 5 13 6 14 7 92 8 15 10 91 11 16 12
REMARK SMILES IDX 90 13 17 14 12 15 11 16 7 17 8 18 9 19 10 20 6 21 3 22 4 23
REMARK SMILES IDX 94 24 5 25 93 26 2 27 1 28 23 29 24 30 25 31 26 32 27 33
REMARK SMILES IDX 28 34 89 35 29 36 88 37 30 38 31 39 32 40 82 41 33 42 87 43
REMARK SMILES IDX 81 44 83 45 34 46 86 47 80 48 79 49 35 51 67 52 47 53 66 54
REMARK SMILES IDX 48 55 51 56 65 57 84 58 49 59 50 60 64 62 85 63 52 64 36 65
REMARK SMILES IDX 37 66 45 67 38 68 40 69 46 70 39 71 41 72 42 73 43 74 44 75
REMARK SMILES IDX 68 76 69 77 77 78 70 79 72 80 78 81 71 82 73 83 74 84 75 85
REMARK SMILES IDX 76 86 53 87 54 88 62 89 55 90 57 91 63 92 56 93 58 94 59 95
REMARK SMILES IDX 60 96 61 97
REMARK H PARENT 13 9 83 50 51 61
REMARK Flexibility Score: inf
ROOT
ATOM      1  C   UNL     1       0.606   1.372  -4.596  1.00  0.00     0.275 C 
ENDROOT
BRANCH   1   2
ATOM      2  O   UNL     1       0.803   2.637  -3.853  1.00  0.00    -0.457 OA
BRANCH   2   3
ATOM      3  C   UNL     1       0.818   2.479  -2.329  1.00  0.00     0.358 C 
ATOM      4  O   UNL     1       1.114   1.241  -2.240  1.00  0.00    -0.244 OA
BRANCH   3   5
ATOM      5  C   UNL     1       0.311   3.833  -0.838  1.00  0.00     0.170 A 
ATOM      6  N   UNL     1       0.977   7.752  -0.081  1.00  0.00    -0.322 N 
ATOM      7  C   UNL     1       2.183   7.090   0.501  1.00  0.00     0.286 C 
ATOM      8  C   UNL     1      -0.263   7.292   0.576  1.00  0.00     0.319 C 
ATOM      9  H   UNL     1       1.171   8.735   0.108  1.00  0.00     0.348 HD
ATOM     10  C   UNL     1       1.958   5.804   1.337  1.00  0.00     0.206 C 
ATOM     11  C   UNL     1      -0.283   5.837   0.360  1.00  0.00     0.094 A 
ATOM     12  N   UNL     1       0.753   5.151   0.867  1.00  0.00    -0.257 N 
ATOM     13  C   UNL     1      -0.761   5.024  -0.643  1.00  0.00     0.067 A 
ATOM     14  N   UNL     1       0.746   3.887   0.531  1.00  0.00    -0.165 NA
BRANCH   6  15
ATOM     15  C   UNL     1       0.787   7.673  -1.563  1.00  0.00     0.339 C 
BRANCH  15  16
ATOM     16  C   UNL     1       1.832   7.090  -2.473  1.00  0.00     0.168 A 
ATOM     17  N   UNL     1       1.964   5.772  -2.962  1.00  0.00    -0.299 N 
ATOM     18  C   UNL     1       3.111   5.792  -3.731  1.00  0.00     0.113 A 
ATOM     19  C   UNL     1       3.555   7.089  -3.763  1.00  0.00     0.132 A 
ATOM     20  N   UNL     1       2.759   7.879  -2.998  1.00  0.00    -0.236 NA
BRANCH  17  21
ATOM     21  C   UNL     1       1.360   4.544  -2.531  1.00  0.00     0.047 A 
ATOM     22  C   UNL     1      -0.168   1.793  -0.633  1.00  0.00     0.119 A 
ATOM     23  C   UNL     1      -1.154   2.718  -1.872  1.00  0.00     0.048 A 
ATOM     24  C   UNL     1       1.627   2.179  -0.436  1.00  0.00     0.048 A 
ATOM     25  C   UNL     1      -0.393   4.112  -2.816  1.00  0.00     0.030 A 
ATOM     26  C   UNL     1       2.362   3.547  -1.407  1.00  0.00     0.030 A 
BRANCH  22  27
ATOM     27  O   UNL     1      -0.724   0.676  -0.067  1.00  0.00    -0.497 OA
ATOM     28  C   UNL     1       0.282  -0.197   0.455  1.00  0.00     0.278 C 
ENDBRANCH  22  27
ENDBRANCH  17  21
ENDBRANCH  15  16
ENDBRANCH   6  15
ENDBRANCH   3   5
ENDBRANCH   2   3
ENDBRANCH   1   2
BRANCH   1  29
ATOM     29  C   UNL     1       1.850   0.540  -4.979  1.00  0.00     0.275 C 
BRANCH  29  30
ATOM     30  O   UNL     1       2.489  -0.084  -3.868  1.00  0.00    -0.458 OA
BRANCH  30  31
ATOM     31  C   UNL     1       3.366   0.726  -3.234  1.00  0.00     0.338 C 
ATOM     32  O   UNL     1       3.719   1.842  -3.589  1.00  0.00    -0.246 OA
BRANCH  31  33
ATOM     33  C   UNL     1       3.887   0.047  -2.027  1.00  0.00     0.060 A 
ATOM     34  C   UNL     1       4.528   0.898  -1.118  1.00  0.00     0.016 A 
ATOM     35  C   UNL     1       4.361  -1.237  -2.273  1.00  0.00     0.016 A 
ATOM     36  C   UNL     1       5.863   0.737  -0.923  1.00  0.00     0.010 A 
ATOM     37  C   UNL     1       5.676  -1.459  -1.990  1.00  0.00     0.010 A 
ATOM     38  C   UNL     1       6.425  -0.394  -1.485  1.00  0.00    -0.014 A 
BRANCH  38  39
ATOM     39  C   UNL     1       7.844  -0.552  -1.384  1.00  0.00     0.031 A 
ATOM     40  C   UNL     1       8.181  -0.916   0.020  1.00  0.00     0.074 A 
ATOM     41  C   UNL     1       8.552  -0.481  -2.531  1.00  0.00     0.049 A 
ATOM     42  N   UNL     1       8.828  -0.200   0.882  1.00  0.00    -0.248 NA
ATOM     43  C   UNL     1       7.420  -2.021   0.652  1.00  0.00     0.031 C 
ATOM     44  C   UNL     1       8.087  -0.254  -3.910  1.00  0.00     0.029 A 
ATOM     45  N   UNL     1       9.850  -0.778  -2.732  1.00  0.00    -0.354 N 
ATOM     46  C   UNL     1       8.818  -0.966   2.049  1.00  0.00     0.074 A 
ATOM     47  C   UNL     1       7.693  -1.839   1.943  1.00  0.00     0.031 C 
ATOM     48  C   UNL     1       9.014  -0.724  -4.781  1.00  0.00     0.029 A 
ATOM     49  C   UNL     1      10.164  -1.179  -4.027  1.00  0.00     0.049 A 
ATOM     50  H   UNL     1      10.525  -0.716  -2.018  1.00  0.00     0.167 HD
ATOM     51  C   UNL     1       9.949  -1.102   2.793  1.00  0.00     0.034 A 
ATOM     52  C   UNL     1      11.210  -1.996  -4.332  1.00  0.00     0.034 A 
ATOM     53  C   UNL     1      10.890  -0.068   2.443  1.00  0.00     0.049 A 
ATOM     54  C   UNL     1      12.129  -1.938  -3.153  1.00  0.00     0.074 A 
ATOM     55  C   UNL     1      10.869   1.310   2.510  1.00  0.00     0.029 A 
ATOM     56  N   UNL     1      11.826  -0.405   1.492  1.00  0.00    -0.354 N 
ATOM     57  N   UNL     1      12.718  -0.827  -2.790  1.00  0.00    -0.248 NA
ATOM     58  C   UNL     1      11.895  -2.906  -2.083  1.00  0.00     0.031 C 
ATOM     59  C   UNL     1      11.431   1.737   1.273  1.00  0.00     0.029 A 
ATOM     60  C   UNL     1      11.897   0.616   0.581  1.00  0.00     0.049 A 
ATOM     61  H   UNL     1      12.354  -1.236   1.470  1.00  0.00     0.167 HD
ATOM     62  C   UNL     1      12.514  -0.759  -1.415  1.00  0.00     0.074 A 
ATOM     63  C   UNL     1      12.035  -2.091  -1.028  1.00  0.00     0.031 C 
ATOM     64  C   UNL     1      12.377   0.441  -0.772  1.00  0.00     0.034 A 
BRANCH  51  65
ATOM     65  C   UNL     1      10.401  -2.379   3.474  1.00  0.00     0.023 A 
ATOM     66  C   UNL     1      11.591  -2.283   4.229  1.00  0.00     0.012 A 
ATOM     67  C   UNL     1       9.922  -3.686   3.205  1.00  0.00     0.148 A 
ATOM     68  C   UNL     1      12.311  -3.416   4.617  1.00  0.00     0.002 A 
ATOM     69  C   UNL     1      10.615  -4.812   3.636  1.00  0.00     0.091 A 
ATOM     70  F   UNL     1       8.846  -3.877   2.444  1.00  0.00    -0.205 F 
ATOM     71  C   UNL     1      11.827  -4.682   4.315  1.00  0.00     0.022 A 
BRANCH  69  72
ATOM     72  S   UNL     1      10.035  -6.483   3.298  1.00  0.00     0.127 S 
ATOM     73  O   UNL     1      11.060  -6.969   2.377  1.00  0.00    -0.237 OA
ATOM     74  O   UNL     1      10.068  -7.082   4.632  1.00  0.00    -0.237 OA
ATOM     75  O   UNL     1       8.698  -6.341   2.737  1.00  0.00    -0.744 OA
ENDBRANCH  69  72
ENDBRANCH  51  65
BRANCH  52  76
ATOM     76  C   UNL     1      11.188  -3.145  -5.284  1.00  0.00     0.023 A 
ATOM     77  C   UNL     1      12.380  -3.715  -5.779  1.00  0.00     0.012 A 
ATOM     78  C   UNL     1       9.983  -3.847  -5.524  1.00  0.00     0.148 A 
ATOM     79  C   UNL     1      12.363  -4.929  -6.490  1.00  0.00     0.002 A 
ATOM     80  C   UNL     1       9.967  -5.036  -6.245  1.00  0.00     0.091 A 
ATOM     81  F   UNL     1       8.855  -3.404  -4.957  1.00  0.00    -0.205 F 
ATOM     82  C   UNL     1      11.158  -5.588  -6.726  1.00  0.00     0.022 A 
BRANCH  80  83
ATOM     83  S   UNL     1       8.434  -5.923  -6.563  1.00  0.00     0.127 S 
ATOM     84  O   UNL     1       8.533  -6.192  -7.998  1.00  0.00    -0.237 OA
ATOM     85  O   UNL     1       8.580  -7.096  -5.707  1.00  0.00    -0.237 OA
ATOM     86  O   UNL     1       7.361  -5.006  -6.202  1.00  0.00    -0.744 OA
ENDBRANCH  80  83
ENDBRANCH  52  76
BRANCH  64  87
ATOM     87  C   UNL     1      12.588   1.720  -1.551  1.00  0.00     0.023 A 
ATOM     88  C   UNL     1      11.689   2.226  -2.521  1.00  0.00     0.012 A 
ATOM     89  C   UNL     1      13.612   2.554  -1.085  1.00  0.00     0.148 A 
ATOM     90  C   UNL     1      11.829   3.528  -3.019  1.00  0.00     0.002 A 
ATOM     91  C   UNL     1      13.710   3.860  -1.537  1.00  0.00     0.091 A 
ATOM     92  F   UNL     1      14.437   2.065  -0.147  1.00  0.00    -0.205 F 
ATOM     93  C   UNL     1      12.832   4.351  -2.515  1.00  0.00     0.022 A 
BRANCH  91  94
ATOM     94  S   UNL     1      14.874   5.002  -0.796  1.00  0.00     0.127 S 
ATOM     95  O   UNL     1      15.866   5.149  -1.859  1.00  0.00    -0.237 OA
ATOM     96  O   UNL     1      14.043   6.184  -0.562  1.00  0.00    -0.237 OA
ATOM     97  O   UNL     1      15.351   4.359   0.422  1.00  0.00    -0.744 OA
ENDBRANCH  91  94
ENDBRANCH  64  87
ENDBRANCH  38  39
ENDBRANCH  31  33
ENDBRANCH  30  31
ENDBRANCH  29  30
ENDBRANCH   1  29
TORSDOF 18
