REMARK SMILES CC(=O)/C=C(/C)NCC(=O)OCCOC(=O)c1ccc(-c2c3nc(c(-c4cccc(S(=O)(=O)[O-])c4F)c4ccc([nH]4)c(-c4cccc(S(=O)(=O)[O-])c4F)c4nc(c(-c5cccc(S(=O)(=O)[O-])c5F)c5ccc2[nH]5)C=C4)C=C3)cc1
REMARK SMILES IDX 12 1 11 2 9 3 10 4 8 5 7 6 5 8 4 9 6 10 2 11 1 12 3 13 13 14
REMARK SMILES IDX 14 15 15 16 16 17 17 18 18 19 79 20 19 21 78 22 20 23 21 24
REMARK SMILES IDX 22 25 72 26 23 27 77 28 71 29 73 30 24 31 76 32 70 33 69 34
REMARK SMILES IDX 25 36 57 37 37 38 56 39 38 40 41 41 55 42 74 43 39 44 40 45
REMARK SMILES IDX 54 47 75 48 42 49 26 50 27 51 35 52 28 53 30 54 36 55 29 56
REMARK SMILES IDX 31 57 32 58 33 59 34 60 58 61 59 62 67 63 60 64 62 65 68 66
REMARK SMILES IDX 61 67 63 68 64 69 65 70 66 71 43 72 44 73 52 74 45 75 47 76
REMARK SMILES IDX 53 77 46 78 48 79 49 80 50 81 51 82
REMARK H PARENT 7 7 73 35 41 46
REMARK Flexibility Score: inf
ROOT
ATOM      1  C   UNL     1       5.214  -0.896  -0.063  1.00  0.00     0.274 C 
ENDROOT
BRANCH   1   2
ATOM      2  O   UNL     1       4.288   0.163   0.233  1.00  0.00    -0.461 OA
BRANCH   2   3
ATOM      3  C   UNL     1       3.020  -0.222   0.559  1.00  0.00     0.325 C 
ATOM      4  O   UNL     1       2.605  -1.375   0.522  1.00  0.00    -0.250 OA
BRANCH   3   5
ATOM      5  C   UNL     1       2.200   0.950   1.092  1.00  0.00     0.236 C 
BRANCH   5   6
ATOM      6  N   UNL     1       2.399   2.155   0.296  1.00  0.00    -0.378 N 
ATOM      7  H   UNL     1       3.327   2.350   0.029  1.00  0.00     0.160 HD
BRANCH   6   8
ATOM      8  C   UNL     1       1.445   3.055  -0.128  1.00  0.00     0.012 C 
ATOM      9  C   UNL     1       0.379   2.865  -0.928  1.00  0.00     0.067 C 
ATOM     10  C   UNL     1       1.738   4.487   0.297  1.00  0.00     0.064 C 
BRANCH   9  11
ATOM     11  C   UNL     1      -0.193   1.702  -1.665  1.00  0.00     0.154 C 
ATOM     12  C   UNL     1       0.131   0.286  -1.304  1.00  0.00     0.093 C 
ATOM     13  O   UNL     1      -0.986   1.946  -2.580  1.00  0.00    -0.295 OA
ENDBRANCH   9  11
ENDBRANCH   6   8
ENDBRANCH   5   6
ENDBRANCH   3   5
ENDBRANCH   2   3
ENDBRANCH   1   2
BRANCH   1  14
ATOM     14  C   UNL     1       6.111  -1.186   1.144  1.00  0.00     0.275 C 
BRANCH  14  15
ATOM     15  O   UNL     1       5.366  -1.746   2.243  1.00  0.00    -0.458 OA
BRANCH  15  16
ATOM     16  C   UNL     1       4.874  -0.839   3.118  1.00  0.00     0.338 C 
ATOM     17  O   UNL     1       5.001   0.373   3.075  1.00  0.00    -0.246 OA
BRANCH  16  18
ATOM     18  C   UNL     1       4.018  -1.500   4.110  1.00  0.00     0.060 A 
ATOM     19  C   UNL     1       2.633  -1.394   3.964  1.00  0.00     0.016 A 
ATOM     20  C   UNL     1       4.570  -2.072   5.255  1.00  0.00     0.016 A 
ATOM     21  C   UNL     1       1.791  -1.795   4.993  1.00  0.00     0.010 A 
ATOM     22  C   UNL     1       3.719  -2.517   6.271  1.00  0.00     0.010 A 
ATOM     23  C   UNL     1       2.327  -2.346   6.163  1.00  0.00    -0.014 A 
BRANCH  23  24
ATOM     24  C   UNL     1       1.424  -2.683   7.290  1.00  0.00     0.031 A 
ATOM     25  C   UNL     1       1.509  -1.910   8.576  1.00  0.00     0.074 A 
ATOM     26  C   UNL     1       0.526  -3.676   7.155  1.00  0.00     0.049 A 
ATOM     27  N   UNL     1       0.873  -2.109   9.701  1.00  0.00    -0.248 NA
ATOM     28  C   UNL     1       2.442  -0.771   8.607  1.00  0.00     0.031 C 
ATOM     29  C   UNL     1       0.351  -4.495   5.955  1.00  0.00     0.029 A 
ATOM     30  N   UNL     1      -0.395  -4.176   8.040  1.00  0.00    -0.354 N 
ATOM     31  C   UNL     1       1.375  -1.169  10.592  1.00  0.00     0.074 A 
ATOM     32  C   UNL     1       2.361  -0.390   9.874  1.00  0.00     0.031 C 
ATOM     33  C   UNL     1      -0.610  -5.402   6.182  1.00  0.00     0.029 A 
ATOM     34  C   UNL     1      -1.087  -5.259   7.554  1.00  0.00     0.049 A 
ATOM     35  H   UNL     1      -0.545  -3.796   8.936  1.00  0.00     0.167 HD
ATOM     36  C   UNL     1       1.038  -0.966  11.887  1.00  0.00     0.034 A 
ATOM     37  C   UNL     1      -1.983  -6.066   8.155  1.00  0.00     0.034 A 
ATOM     38  C   UNL     1       0.003  -1.691  12.573  1.00  0.00     0.049 A 
ATOM     39  C   UNL     1      -2.382  -5.785   9.576  1.00  0.00     0.074 A 
ATOM     40  C   UNL     1      -0.462  -1.512  13.864  1.00  0.00     0.029 A 
ATOM     41  N   UNL     1      -0.732  -2.730  12.023  1.00  0.00    -0.354 N 
ATOM     42  N   UNL     1      -1.965  -4.832  10.374  1.00  0.00    -0.248 NA
ATOM     43  C   UNL     1      -3.390  -6.672  10.172  1.00  0.00     0.031 C 
ATOM     44  C   UNL     1      -1.480  -2.446  14.094  1.00  0.00     0.029 A 
ATOM     45  C   UNL     1      -1.648  -3.204  12.946  1.00  0.00     0.049 A 
ATOM     46  H   UNL     1      -0.620  -3.079  11.109  1.00  0.00     0.167 HD
ATOM     47  C   UNL     1      -2.666  -4.995  11.562  1.00  0.00     0.074 A 
ATOM     48  C   UNL     1      -3.558  -6.121  11.368  1.00  0.00     0.031 C 
ATOM     49  C   UNL     1      -2.562  -4.294  12.718  1.00  0.00     0.034 A 
BRANCH  36  50
ATOM     50  C   UNL     1       1.778   0.108  12.635  1.00  0.00     0.023 A 
ATOM     51  C   UNL     1       1.462   1.462  12.406  1.00  0.00     0.012 A 
ATOM     52  C   UNL     1       2.765  -0.221  13.583  1.00  0.00     0.148 A 
ATOM     53  C   UNL     1       2.139   2.473  13.089  1.00  0.00     0.002 A 
ATOM     54  C   UNL     1       3.412   0.791  14.284  1.00  0.00     0.091 A 
ATOM     55  F   UNL     1       3.078  -1.513  13.764  1.00  0.00    -0.205 F 
ATOM     56  C   UNL     1       3.106   2.138  14.034  1.00  0.00     0.022 A 
BRANCH  54  57
ATOM     57  S   UNL     1       4.624   0.429  15.560  1.00  0.00     0.127 S 
ATOM     58  O   UNL     1       5.878   0.529  14.817  1.00  0.00    -0.237 OA
ATOM     59  O   UNL     1       4.402   1.508  16.525  1.00  0.00    -0.237 OA
ATOM     60  O   UNL     1       4.279  -0.896  16.056  1.00  0.00    -0.744 OA
ENDBRANCH  54  57
ENDBRANCH  36  50
BRANCH  37  61
ATOM     61  C   UNL     1      -2.576  -7.192   7.382  1.00  0.00     0.023 A 
ATOM     62  C   UNL     1      -3.917  -7.115   6.962  1.00  0.00     0.012 A 
ATOM     63  C   UNL     1      -1.793  -8.294   6.987  1.00  0.00     0.148 A 
ATOM     64  C   UNL     1      -4.469  -8.120   6.167  1.00  0.00     0.002 A 
ATOM     65  C   UNL     1      -2.331  -9.262   6.147  1.00  0.00     0.091 A 
ATOM     66  F   UNL     1      -0.524  -8.359   7.417  1.00  0.00    -0.205 F 
ATOM     67  C   UNL     1      -3.673  -9.184   5.746  1.00  0.00     0.022 A 
BRANCH  65  68
ATOM     68  S   UNL     1      -1.330 -10.575   5.439  1.00  0.00     0.127 S 
ATOM     69  O   UNL     1      -1.750 -11.730   6.227  1.00  0.00    -0.237 OA
ATOM     70  O   UNL     1      -1.777 -10.584   4.046  1.00  0.00    -0.237 OA
ATOM     71  O   UNL     1       0.052 -10.149   5.618  1.00  0.00    -0.744 OA
ENDBRANCH  65  68
ENDBRANCH  37  61
BRANCH  49  72
ATOM     72  C   UNL     1      -3.435  -4.720  13.867  1.00  0.00     0.023 A 
ATOM     73  C   UNL     1      -3.090  -5.871  14.603  1.00  0.00     0.012 A 
ATOM     74  C   UNL     1      -4.543  -3.949  14.265  1.00  0.00     0.148 A 
ATOM     75  C   UNL     1      -3.849  -6.260  15.706  1.00  0.00     0.002 A 
ATOM     76  C   UNL     1      -5.273  -4.322  15.389  1.00  0.00     0.091 A 
ATOM     77  F   UNL     1      -4.871  -2.871  13.538  1.00  0.00    -0.205 F 
ATOM     78  C   UNL     1      -4.932  -5.480  16.106  1.00  0.00     0.022 A 
BRANCH  76  79
ATOM     79  S   UNL     1      -6.627  -3.318  16.010  1.00  0.00     0.127 S 
ATOM     80  O   UNL     1      -7.788  -3.981  15.420  1.00  0.00    -0.237 OA
ATOM     81  O   UNL     1      -6.505  -3.479  17.460  1.00  0.00    -0.237 OA
ATOM     82  O   UNL     1      -6.357  -1.967  15.536  1.00  0.00    -0.744 OA
ENDBRANCH  76  79
ENDBRANCH  49  72
ENDBRANCH  23  24
ENDBRANCH  16  18
ENDBRANCH  15  16
ENDBRANCH  14  15
ENDBRANCH   1  14
TORSDOF 17
