REMARK SMILES CC(C)(C)c1cc2c(cc1Cl)C=C(C(=O)OCCOC(=O)c1ccc(-c3c4nc(c(-c5cccc(S(=O)(=O)[O-])c5F)c5ccc([nH]5)c(-c5cccc(S(=O)(=O)[O-])c5F)c5nc(c(-c6cccc(S(=O)(=O)[O-])c6F)c6ccc3[nH]6)C=C5)C=C4)cc1)[C@@H](C(F)(F)F)O2
REMARK SMILES IDX 18 1 17 2 16 3 14 4 15 5 13 6 5 7 6 8 10 9 7 10 9 11 11 12
REMARK SMILES IDX 8 13 90 14 12 15 85 16 2 17 1 18 3 19 4 20 86 21 87 22 88 23
REMARK SMILES IDX 89 24 19 25 20 26 21 27 22 28 23 29 84 30 24 31 83 32 25 33
REMARK SMILES IDX 26 34 27 35 77 36 28 37 82 38 76 39 78 40 29 41 81 42 75 43
REMARK SMILES IDX 74 44 30 46 62 47 42 48 61 49 43 50 46 51 60 52 79 53 44 54
REMARK SMILES IDX 45 55 59 57 80 58 47 59 31 60 32 61 40 62 33 63 35 64 41 65
REMARK SMILES IDX 34 66 36 67 37 68 38 69 39 70 63 71 64 72 72 73 65 74 67 75
REMARK SMILES IDX 73 76 66 77 68 78 69 79 70 80 71 81 48 82 49 83 57 84 50 85
REMARK SMILES IDX 52 86 58 87 51 88 53 89 54 90 55 91 56 92
REMARK H PARENT 78 45 46 56
REMARK Flexibility Score: inf
ROOT
ATOM      1  C   UNL     1       2.799  10.899  -0.685  1.00  0.00     0.275 C 
ENDROOT
BRANCH   1   2
ATOM      2  C   UNL     1       1.581  10.508  -1.522  1.00  0.00     0.275 C 
BRANCH   2   3
ATOM      3  O   UNL     1       1.171   9.147  -1.262  1.00  0.00    -0.459 OA
BRANCH   3   4
ATOM      4  C   UNL     1       1.513   8.249  -2.215  1.00  0.00     0.338 C 
ATOM      5  O   UNL     1       2.103   8.486  -3.257  1.00  0.00    -0.246 OA
BRANCH   4   6
ATOM      6  C   UNL     1       1.102   6.888  -1.824  1.00  0.00     0.087 C 
ATOM      7  C   UNL     1       0.858   1.846  -1.382  1.00  0.00    -0.020 A 
ATOM      8  C   UNL     1      -0.060   2.921  -1.236  1.00  0.00     0.053 A 
ATOM      9  C   UNL     1       2.207   2.202  -1.612  1.00  0.00     0.045 A 
ATOM     10  C   UNL     1       0.320   4.261  -1.371  1.00  0.00     0.128 A 
ATOM     11  C   UNL     1       2.583   3.542  -1.752  1.00  0.00     0.032 A 
ATOM     12  Cl  UNL     1       3.518   1.082  -1.733  1.00  0.00    -0.084 Cl
ATOM     13  C   UNL     1       1.640   4.562  -1.653  1.00  0.00     0.019 A 
ATOM     14  O   UNL     1      -0.653   5.209  -1.212  1.00  0.00    -0.475 OA
ATOM     15  C   UNL     1       2.031   5.931  -1.888  1.00  0.00     0.027 C 
ATOM     16  C   UNL     1      -0.338   6.604  -1.509  1.00  0.00     0.316 C 
BRANCH   7  17
ATOM     17  C   UNL     1       0.362   0.383  -1.283  1.00  0.00    -0.012 C 
ATOM     18  C   UNL     1       0.907  -0.273   0.003  1.00  0.00     0.016 C 
ATOM     19  C   UNL     1       0.766  -0.449  -2.524  1.00  0.00     0.016 C 
ATOM     20  C   UNL     1      -1.185   0.266  -1.209  1.00  0.00     0.016 C 
ENDBRANCH   7  17
BRANCH  16  21
ATOM     21  C   UNL     1      -1.268   7.079  -2.637  1.00  0.00     0.430 C 
ATOM     22  F   UNL     1      -2.567   6.827  -2.341  1.00  0.00    -0.167 F 
ATOM     23  F   UNL     1      -1.176   8.418  -2.832  1.00  0.00    -0.167 F 
ATOM     24  F   UNL     1      -0.997   6.478  -3.817  1.00  0.00    -0.167 F 
ENDBRANCH  16  21
ENDBRANCH   4   6
ENDBRANCH   3   4
ENDBRANCH   2   3
ENDBRANCH   1   2
BRANCH   1  25
ATOM     25  O   UNL     1       3.968  10.188  -1.129  1.00  0.00    -0.458 OA
BRANCH  25  26
ATOM     26  C   UNL     1       4.365   9.176  -0.324  1.00  0.00     0.338 C 
ATOM     27  O   UNL     1       3.865   8.832   0.733  1.00  0.00    -0.246 OA
BRANCH  26  28
ATOM     28  C   UNL     1       5.478   8.451  -0.954  1.00  0.00     0.060 A 
ATOM     29  C   UNL     1       6.757   8.478  -0.412  1.00  0.00     0.016 A 
ATOM     30  C   UNL     1       5.189   7.592  -2.006  1.00  0.00     0.016 A 
ATOM     31  C   UNL     1       7.739   7.633  -0.944  1.00  0.00     0.010 A 
ATOM     32  C   UNL     1       6.112   6.633  -2.408  1.00  0.00     0.010 A 
ATOM     33  C   UNL     1       7.419   6.661  -1.917  1.00  0.00    -0.014 A 
BRANCH  33  34
ATOM     34  C   UNL     1       8.436   5.685  -2.413  1.00  0.00     0.031 A 
ATOM     35  C   UNL     1       8.695   5.499  -3.894  1.00  0.00     0.074 A 
ATOM     36  C   UNL     1       9.106   4.913  -1.531  1.00  0.00     0.049 A 
ATOM     37  N   UNL     1       9.562   4.713  -4.483  1.00  0.00    -0.248 NA
ATOM     38  C   UNL     1       7.850   6.248  -4.841  1.00  0.00     0.031 C 
ATOM     39  C   UNL     1       8.864   4.872  -0.086  1.00  0.00     0.029 A 
ATOM     40  N   UNL     1      10.135   4.021  -1.714  1.00  0.00    -0.354 N 
ATOM     41  C   UNL     1       9.325   4.832  -5.849  1.00  0.00     0.074 A 
ATOM     42  C   UNL     1       8.203   5.726  -6.006  1.00  0.00     0.031 C 
ATOM     43  C   UNL     1       9.768   4.067   0.492  1.00  0.00     0.029 A 
ATOM     44  C   UNL     1      10.634   3.505  -0.540  1.00  0.00     0.049 A 
ATOM     45  H   UNL     1      10.483   3.774  -2.601  1.00  0.00     0.167 HD
ATOM     46  C   UNL     1      10.008   4.296  -6.887  1.00  0.00     0.034 A 
ATOM     47  C   UNL     1      11.687   2.696  -0.308  1.00  0.00     0.034 A 
ATOM     48  C   UNL     1      11.197   3.505  -6.740  1.00  0.00     0.049 A 
ATOM     49  C   UNL     1      12.522   2.227  -1.463  1.00  0.00     0.074 A 
ATOM     50  C   UNL     1      12.040   3.032  -7.730  1.00  0.00     0.029 A 
ATOM     51  N   UNL     1      11.722   3.088  -5.529  1.00  0.00    -0.354 N 
ATOM     52  N   UNL     1      12.370   2.480  -2.740  1.00  0.00    -0.248 NA
ATOM     53  C   UNL     1      13.688   1.387  -1.151  1.00  0.00     0.031 C 
ATOM     54  C   UNL     1      13.080   2.329  -7.115  1.00  0.00     0.029 A 
ATOM     55  C   UNL     1      12.884   2.370  -5.744  1.00  0.00     0.049 A 
ATOM     56  H   UNL     1      11.327   3.274  -4.647  1.00  0.00     0.167 HD
ATOM     57  C   UNL     1      13.425   1.846  -3.383  1.00  0.00     0.074 A 
ATOM     58  C   UNL     1      14.222   1.210  -2.354  1.00  0.00     0.031 C 
ATOM     59  C   UNL     1      13.695   1.785  -4.708  1.00  0.00     0.034 A 
BRANCH  46  60
ATOM     60  C   UNL     1       9.558   4.636  -8.284  1.00  0.00     0.023 A 
ATOM     61  C   UNL     1       9.818   5.924  -8.794  1.00  0.00     0.012 A 
ATOM     62  C   UNL     1       8.958   3.670  -9.115  1.00  0.00     0.148 A 
ATOM     63  C   UNL     1       9.464   6.256 -10.101  1.00  0.00     0.002 A 
ATOM     64  C   UNL     1       8.641   3.997 -10.429  1.00  0.00     0.091 A 
ATOM     65  F   UNL     1       8.710   2.454  -8.607  1.00  0.00    -0.205 F 
ATOM     66  C   UNL     1       8.886   5.291 -10.920  1.00  0.00     0.022 A 
BRANCH  64  67
ATOM     67  S   UNL     1       7.954   2.813 -11.593  1.00  0.00     0.127 S 
ATOM     68  O   UNL     1       6.618   3.364 -11.819  1.00  0.00    -0.237 OA
ATOM     69  O   UNL     1       8.865   2.938 -12.731  1.00  0.00    -0.237 OA
ATOM     70  O   UNL     1       7.987   1.521 -10.922  1.00  0.00    -0.744 OA
ENDBRANCH  64  67
ENDBRANCH  46  60
BRANCH  47  71
ATOM     71  C   UNL     1      12.068   2.397   1.100  1.00  0.00     0.023 A 
ATOM     72  C   UNL     1      13.146   3.098   1.676  1.00  0.00     0.012 A 
ATOM     73  C   UNL     1      11.311   1.517   1.897  1.00  0.00     0.148 A 
ATOM     74  C   UNL     1      13.464   2.928   3.024  1.00  0.00     0.002 A 
ATOM     75  C   UNL     1      11.609   1.383   3.248  1.00  0.00     0.091 A 
ATOM     76  F   UNL     1      10.289   0.866   1.324  1.00  0.00    -0.205 F 
ATOM     77  C   UNL     1      12.690   2.081   3.811  1.00  0.00     0.022 A 
BRANCH  75  78
ATOM     78  S   UNL     1      10.606   0.405   4.373  1.00  0.00     0.127 S 
ATOM     79  O   UNL     1      11.564  -0.598   4.832  1.00  0.00    -0.237 OA
ATOM     80  O   UNL     1      10.229   1.402   5.376  1.00  0.00    -0.237 OA
ATOM     81  O   UNL     1       9.499  -0.107   3.578  1.00  0.00    -0.744 OA
ENDBRANCH  75  78
ENDBRANCH  47  71
BRANCH  59  82
ATOM     82  C   UNL     1      14.906   1.016  -5.152  1.00  0.00     0.023 A 
ATOM     83  C   UNL     1      14.834  -0.387  -5.242  1.00  0.00     0.012 A 
ATOM     84  C   UNL     1      16.052   1.688  -5.618  1.00  0.00     0.148 A 
ATOM     85  C   UNL     1      15.891  -1.113  -5.787  1.00  0.00     0.002 A 
ATOM     86  C   UNL     1      17.088   0.961  -6.191  1.00  0.00     0.091 A 
ATOM     87  F   UNL     1      16.094   3.024  -5.514  1.00  0.00    -0.205 F 
ATOM     88  C   UNL     1      17.010  -0.440  -6.272  1.00  0.00     0.022 A 
BRANCH  86  89
ATOM     89  S   UNL     1      18.534   1.742  -6.916  1.00  0.00     0.127 S 
ATOM     90  O   UNL     1      19.593   1.312  -6.004  1.00  0.00    -0.237 OA
ATOM     91  O   UNL     1      18.584   1.128  -8.243  1.00  0.00    -0.237 OA
ATOM     92  O   UNL     1      18.262   3.173  -6.919  1.00  0.00    -0.744 OA
ENDBRANCH  86  89
ENDBRANCH  59  82
ENDBRANCH  33  34
ENDBRANCH  26  28
ENDBRANCH  25  26
ENDBRANCH   1  25
TORSDOF 16
