REMARK SMILES CCC[N@@H+]1CCO[C@H](c2nc(CC(=O)OCCOC(=O)c3ccc(-c4c5nc(c(-c6cccc(S(=O)(=O)[O-])c6F)c6ccc([nH]6)c(-c6cccc(S(=O)(=O)[O-])c6F)c6nc(c(-c7cccc(S(=O)(=O)[O-])c7F)c7ccc4[nH]7)C=C6)C=C5)cc3)cs2)C1
REMARK SMILES IDX 16 1 15 2 13 3 14 4 12 5 11 6 9 7 10 8 85 9 84 10 8 11 4 12
REMARK SMILES IDX 5 13 86 14 6 16 7 17 3 18 2 19 1 20 17 21 18 22 19 23 20 24
REMARK SMILES IDX 21 25 22 26 83 27 23 28 82 29 24 30 25 31 26 32 76 33 27 34
REMARK SMILES IDX 81 35 75 36 77 37 28 38 80 39 74 40 73 41 29 43 61 44 41 45
REMARK SMILES IDX 60 46 42 47 45 48 59 49 78 50 43 51 44 52 58 54 79 55 46 56
REMARK SMILES IDX 30 57 31 58 39 59 32 60 34 61 40 62 33 63 35 64 36 65 37 66
REMARK SMILES IDX 38 67 62 68 63 69 71 70 64 71 66 72 72 73 65 74 67 75 68 76
REMARK SMILES IDX 69 77 70 78 47 79 48 80 56 81 49 82 51 83 57 84 50 85 52 86
REMARK SMILES IDX 53 87 54 88 55 89
REMARK H PARENT 4 15 77 42 45 53
REMARK Flexibility Score: inf
ROOT
ATOM      1  C   UNL     1       1.068   5.723   8.188  1.00  0.00     0.274 C 
ENDROOT
BRANCH   1   2
ATOM      2  O   UNL     1       1.559   5.813   6.837  1.00  0.00    -0.462 OA
BRANCH   2   3
ATOM      3  C   UNL     1       2.905   5.696   6.661  1.00  0.00     0.312 C 
ATOM      4  O   UNL     1       3.730   5.766   7.564  1.00  0.00    -0.252 OA
BRANCH   3   5
ATOM      5  C   UNL     1       3.295   5.470   5.212  1.00  0.00     0.179 C 
BRANCH   5   6
ATOM      6  C   UNL     1       2.211   4.859   4.381  1.00  0.00     0.063 A 
ATOM      7  C   UNL     1       0.954   4.737   2.545  1.00  0.00     0.128 A 
ATOM      8  N   UNL     1       2.011   5.320   3.087  1.00  0.00    -0.243 NA
ATOM      9  S   UNL     1       0.041   3.787   3.663  1.00  0.00    -0.124 S 
ATOM     10  C   UNL     1       1.358   3.836   4.745  1.00  0.00     0.091 A 
BRANCH   7  11
ATOM     11  C   UNL     1       0.474   4.942   1.121  1.00  0.00     0.232 C 
ATOM     12  N   UNL     1       0.598   2.646  -0.110  1.00  0.00    -0.331 N 
ATOM     13  C   UNL     1       1.722   3.249  -0.851  1.00  0.00     0.291 C 
ATOM     14  C   UNL     1      -0.243   3.739   0.442  1.00  0.00     0.302 C 
ATOM     15  H   UNL     1       0.025   2.089  -0.744  1.00  0.00     0.348 HD
ATOM     16  C   UNL     1       2.459   4.349  -0.071  1.00  0.00     0.222 C 
ATOM     17  O   UNL     1       1.569   5.410   0.298  1.00  0.00    -0.359 OA
BRANCH  12  18
ATOM     18  C   UNL     1       1.052   1.685   0.905  1.00  0.00     0.262 C 
BRANCH  18  19
ATOM     19  C   UNL     1       0.522   0.276   0.629  1.00  0.00     0.058 C 
ATOM     20  C   UNL     1       1.143  -0.374  -0.594  1.00  0.00     0.010 C 
ENDBRANCH  18  19
ENDBRANCH  12  18
ENDBRANCH   7  11
ENDBRANCH   5   6
ENDBRANCH   3   5
ENDBRANCH   2   3
ENDBRANCH   1   2
BRANCH   1  21
ATOM     21  C   UNL     1       0.685   4.276   8.500  1.00  0.00     0.275 C 
BRANCH  21  22
ATOM     22  O   UNL     1       1.868   3.461   8.456  1.00  0.00    -0.458 OA
BRANCH  22  23
ATOM     23  C   UNL     1       1.683   2.170   8.104  1.00  0.00     0.338 C 
ATOM     24  O   UNL     1       0.619   1.627   7.836  1.00  0.00    -0.246 OA
BRANCH  23  25
ATOM     25  C   UNL     1       2.985   1.482   8.078  1.00  0.00     0.060 A 
ATOM     26  C   UNL     1       4.068   2.014   7.368  1.00  0.00     0.016 A 
ATOM     27  C   UNL     1       3.109   0.265   8.746  1.00  0.00     0.016 A 
ATOM     28  C   UNL     1       5.278   1.320   7.320  1.00  0.00     0.010 A 
ATOM     29  C   UNL     1       4.336  -0.400   8.741  1.00  0.00     0.010 A 
ATOM     30  C   UNL     1       5.428   0.114   8.019  1.00  0.00    -0.014 A 
BRANCH  30  31
ATOM     31  C   UNL     1       6.718  -0.623   8.028  1.00  0.00     0.031 A 
ATOM     32  C   UNL     1       6.806  -1.994   7.415  1.00  0.00     0.074 A 
ATOM     33  C   UNL     1       7.780  -0.102   8.672  1.00  0.00     0.049 A 
ATOM     34  N   UNL     1       7.780  -2.864   7.474  1.00  0.00    -0.248 NA
ATOM     35  C   UNL     1       5.637  -2.453   6.646  1.00  0.00     0.031 C 
ATOM     36  C   UNL     1       7.813   1.207   9.327  1.00  0.00     0.029 A 
ATOM     37  N   UNL     1       9.023  -0.630   8.921  1.00  0.00    -0.354 N 
ATOM     38  C   UNL     1       7.326  -3.991   6.800  1.00  0.00     0.074 A 
ATOM     39  C   UNL     1       5.988  -3.694   6.335  1.00  0.00     0.031 C 
ATOM     40  C   UNL     1       9.004   1.369   9.926  1.00  0.00     0.029 A 
ATOM     41  C   UNL     1       9.800   0.160   9.737  1.00  0.00     0.049 A 
ATOM     42  H   UNL     1       9.329  -1.490   8.552  1.00  0.00     0.167 HD
ATOM     43  C   UNL     1       7.969  -5.162   6.579  1.00  0.00     0.034 A 
ATOM     44  C   UNL     1      11.000  -0.075  10.303  1.00  0.00     0.034 A 
ATOM     45  C   UNL     1       9.317  -5.436   7.001  1.00  0.00     0.049 A 
ATOM     46  C   UNL     1      11.696  -1.381  10.031  1.00  0.00     0.074 A 
ATOM     47  C   UNL     1      10.080  -6.565   6.759  1.00  0.00     0.029 A 
ATOM     48  N   UNL     1      10.101  -4.577   7.754  1.00  0.00    -0.354 N 
ATOM     49  N   UNL     1      11.300  -2.387   9.290  1.00  0.00    -0.248 NA
ATOM     50  C   UNL     1      13.013  -1.576  10.655  1.00  0.00     0.031 C 
ATOM     51  C   UNL     1      11.322  -6.394   7.379  1.00  0.00     0.029 A 
ATOM     52  C   UNL     1      11.337  -5.153   7.994  1.00  0.00     0.049 A 
ATOM     53  H   UNL     1       9.822  -3.688   8.071  1.00  0.00     0.167 HD
ATOM     54  C   UNL     1      12.329  -3.321   9.335  1.00  0.00     0.074 A 
ATOM     55  C   UNL     1      13.377  -2.750  10.156  1.00  0.00     0.031 C 
ATOM     56  C   UNL     1      12.393  -4.550   8.765  1.00  0.00     0.034 A 
BRANCH  43  57
ATOM     57  C   UNL     1       7.242  -6.232   5.809  1.00  0.00     0.023 A 
ATOM     58  C   UNL     1       7.098  -6.105   4.413  1.00  0.00     0.012 A 
ATOM     59  C   UNL     1       6.776  -7.396   6.451  1.00  0.00     0.148 A 
ATOM     60  C   UNL     1       6.483  -7.111   3.669  1.00  0.00     0.002 A 
ATOM     61  C   UNL     1       6.197  -8.411   5.698  1.00  0.00     0.091 A 
ATOM     62  F   UNL     1       6.903  -7.487   7.782  1.00  0.00    -0.205 F 
ATOM     63  C   UNL     1       6.043  -8.267   4.309  1.00  0.00     0.022 A 
BRANCH  61  64
ATOM     64  S   UNL     1       5.662  -9.968   6.418  1.00  0.00     0.127 S 
ATOM     65  O   UNL     1       4.207  -9.840   6.350  1.00  0.00    -0.237 OA
ATOM     66  O   UNL     1       6.232 -10.948   5.492  1.00  0.00    -0.237 OA
ATOM     67  O   UNL     1       6.225 -10.003   7.760  1.00  0.00    -0.744 OA
ENDBRANCH  61  64
ENDBRANCH  43  57
BRANCH  44  68
ATOM     68  C   UNL     1      11.633   0.965  11.162  1.00  0.00     0.023 A 
ATOM     69  C   UNL     1      12.775   1.644  10.694  1.00  0.00     0.012 A 
ATOM     70  C   UNL     1      11.098   1.307  12.418  1.00  0.00     0.148 A 
ATOM     71  C   UNL     1      13.386   2.627  11.474  1.00  0.00     0.002 A 
ATOM     72  C   UNL     1      11.678   2.326  13.165  1.00  0.00     0.091 A 
ATOM     73  F   UNL     1      10.025   0.634  12.859  1.00  0.00    -0.205 F 
ATOM     74  C   UNL     1      12.832   2.976  12.702  1.00  0.00     0.022 A 
BRANCH  72  75
ATOM     75  S   UNL     1      10.943   2.925  14.691  1.00  0.00     0.127 S 
ATOM     76  O   UNL     1      11.789   2.294  15.700  1.00  0.00    -0.237 OA
ATOM     77  O   UNL     1      11.111   4.374  14.566  1.00  0.00    -0.237 OA
ATOM     78  O   UNL     1       9.556   2.482  14.650  1.00  0.00    -0.744 OA
ENDBRANCH  72  75
ENDBRANCH  44  68
BRANCH  56  79
ATOM     79  C   UNL     1      13.645  -5.357   8.985  1.00  0.00     0.023 A 
ATOM     80  C   UNL     1      13.869  -5.964  10.236  1.00  0.00     0.012 A 
ATOM     81  C   UNL     1      14.556  -5.577   7.934  1.00  0.00     0.148 A 
ATOM     82  C   UNL     1      14.997  -6.757  10.445  1.00  0.00     0.002 A 
ATOM     83  C   UNL     1      15.655  -6.403   8.137  1.00  0.00     0.091 A 
ATOM     84  F   UNL     1      14.335  -4.973   6.757  1.00  0.00    -0.205 F 
ATOM     85  C   UNL     1      15.882  -6.986   9.395  1.00  0.00     0.022 A 
BRANCH  83  86
ATOM     86  S   UNL     1      16.796  -6.825   6.815  1.00  0.00     0.127 S 
ATOM     87  O   UNL     1      17.958  -6.004   7.150  1.00  0.00    -0.237 OA
ATOM     88  O   UNL     1      16.988  -8.262   7.013  1.00  0.00    -0.237 OA
ATOM     89  O   UNL     1      16.116  -6.475   5.575  1.00  0.00    -0.744 OA
ENDBRANCH  83  86
ENDBRANCH  56  79
ENDBRANCH  30  31
ENDBRANCH  23  25
ENDBRANCH  22  23
ENDBRANCH  21  22
ENDBRANCH   1  21
TORSDOF 18
