REMARK SMILES O=C(OCCOC(=O)c1ccc(-n2cccc2)c(F)c1)c1ccc(-c2c3nc(c(-c4cccc(S(=O)(=O)[O-])c4F)c4ccc([nH]4)c(-c4cccc(S(=O)(=O)[O-])c4F)c4nc(c(-c5cccc(S(=O)(=O)[O-])c5F)c5ccc2[nH]5)C=C4)C=C3)cc1
REMARK SMILES IDX 4 1 3 2 2 3 1 4 21 5 22 6 83 7 23 8 82 9 24 10 25 11 26 12
REMARK SMILES IDX 76 13 27 14 81 15 75 16 77 17 28 18 80 19 74 20 73 21 29 23
REMARK SMILES IDX 61 24 41 25 60 26 42 27 45 28 59 29 78 30 43 31 44 32 58 34
REMARK SMILES IDX 79 35 46 36 30 37 31 38 39 39 32 40 34 41 40 42 33 43 35 44
REMARK SMILES IDX 36 45 37 46 38 47 62 48 63 49 71 50 64 51 66 52 72 53 65 54
REMARK SMILES IDX 67 55 68 56 69 57 70 58 47 59 48 60 56 61 49 62 51 63 57 64
REMARK SMILES IDX 50 65 52 66 53 67 54 68 55 69 5 70 6 71 7 72 8 73 9 74 10 75
REMARK SMILES IDX 20 76 11 77 18 78 12 79 19 80 13 81 14 82 17 83 15 84 16 85
REMARK H PARENT 77 22 45 33
REMARK Flexibility Score: inf
ROOT
ATOM      1  C   UNL     1       4.450   0.758   1.109  1.00  0.00     0.275 C 
ENDROOT
BRANCH   1   2
ATOM      2  O   UNL     1       3.136   1.288   0.852  1.00  0.00    -0.458 OA
BRANCH   2   3
ATOM      3  C   UNL     1       2.317   0.814  -0.120  1.00  0.00     0.338 C 
ATOM      4  O   UNL     1       1.173   0.462   0.141  1.00  0.00    -0.246 OA
BRANCH   3   5
ATOM      5  C   UNL     1       2.739   1.023  -1.532  1.00  0.00     0.060 A 
ATOM      6  C   UNL     1       4.030   0.775  -2.007  1.00  0.00     0.016 A 
ATOM      7  C   UNL     1       1.751   1.453  -2.434  1.00  0.00     0.016 A 
ATOM      8  C   UNL     1       4.368   1.079  -3.319  1.00  0.00     0.010 A 
ATOM      9  C   UNL     1       2.073   1.718  -3.764  1.00  0.00     0.010 A 
ATOM     10  C   UNL     1       3.391   1.556  -4.196  1.00  0.00    -0.014 A 
BRANCH  10  11
ATOM     11  C   UNL     1       3.766   1.696  -5.619  1.00  0.00     0.031 A 
ATOM     12  C   UNL     1       3.824   0.300  -6.311  1.00  0.00     0.074 A 
ATOM     13  C   UNL     1       4.062   2.971  -6.033  1.00  0.00     0.049 A 
ATOM     14  N   UNL     1       4.590  -0.138  -7.267  1.00  0.00    -0.248 NA
ATOM     15  C   UNL     1       2.989  -0.815  -5.769  1.00  0.00     0.031 C 
ATOM     16  C   UNL     1       3.915   4.194  -5.203  1.00  0.00     0.029 A 
ATOM     17  N   UNL     1       4.545   3.519  -7.206  1.00  0.00    -0.354 N 
ATOM     18  C   UNL     1       4.142  -1.446  -7.608  1.00  0.00     0.074 A 
ATOM     19  C   UNL     1       3.278  -1.858  -6.553  1.00  0.00     0.031 C 
ATOM     20  C   UNL     1       4.380   5.288  -5.849  1.00  0.00     0.029 A 
ATOM     21  C   UNL     1       4.848   4.909  -7.169  1.00  0.00     0.049 A 
ATOM     22  H   UNL     1       4.671   2.980  -8.020  1.00  0.00     0.167 HD
ATOM     23  C   UNL     1       4.387  -2.036  -8.819  1.00  0.00     0.034 A 
ATOM     24  C   UNL     1       5.472   5.682  -8.117  1.00  0.00     0.034 A 
ATOM     25  C   UNL     1       5.152  -1.135  -9.612  1.00  0.00     0.049 A 
ATOM     26  C   UNL     1       5.590   4.814  -9.294  1.00  0.00     0.074 A 
ATOM     27  C   UNL     1       6.464  -0.749  -9.579  1.00  0.00     0.029 A 
ATOM     28  N   UNL     1       4.415  -0.241 -10.349  1.00  0.00    -0.354 N 
ATOM     29  N   UNL     1       4.591   4.444 -10.040  1.00  0.00    -0.248 NA
ATOM     30  C   UNL     1       6.891   4.201  -9.586  1.00  0.00     0.031 C 
ATOM     31  C   UNL     1       6.387   0.623  -9.880  1.00  0.00     0.029 A 
ATOM     32  C   UNL     1       5.099   0.943 -10.331  1.00  0.00     0.049 A 
ATOM     33  H   UNL     1       3.560  -0.419 -10.803  1.00  0.00     0.167 HD
ATOM     34  C   UNL     1       5.081   3.298 -10.611  1.00  0.00     0.074 A 
ATOM     35  C   UNL     1       6.523   3.404 -10.583  1.00  0.00     0.031 C 
ATOM     36  C   UNL     1       4.352   2.153 -10.557  1.00  0.00     0.034 A 
BRANCH  23  37
ATOM     37  C   UNL     1       3.846  -3.238  -9.575  1.00  0.00     0.023 A 
ATOM     38  C   UNL     1       4.630  -3.631 -10.704  1.00  0.00     0.012 A 
ATOM     39  C   UNL     1       2.538  -3.748  -9.497  1.00  0.00     0.148 A 
ATOM     40  C   UNL     1       4.102  -4.340 -11.779  1.00  0.00     0.002 A 
ATOM     41  C   UNL     1       2.030  -4.514 -10.558  1.00  0.00     0.091 A 
ATOM     42  F   UNL     1       1.775  -3.434  -8.445  1.00  0.00    -0.205 F 
ATOM     43  C   UNL     1       2.791  -4.764 -11.713  1.00  0.00     0.022 A 
BRANCH  41  44
ATOM     44  S   UNL     1       0.378  -5.225 -10.593  1.00  0.00     0.127 S 
ATOM     45  O   UNL     1      -0.256  -4.478 -11.676  1.00  0.00    -0.237 OA
ATOM     46  O   UNL     1       0.667  -6.625 -10.912  1.00  0.00    -0.237 OA
ATOM     47  O   UNL     1      -0.177  -5.018  -9.266  1.00  0.00    -0.744 OA
ENDBRANCH  41  44
ENDBRANCH  23  37
BRANCH  24  48
ATOM     48  C   UNL     1       6.150   7.040  -8.200  1.00  0.00     0.023 A 
ATOM     49  C   UNL     1       6.026   8.055  -7.242  1.00  0.00     0.012 A 
ATOM     50  C   UNL     1       7.092   7.299  -9.247  1.00  0.00     0.148 A 
ATOM     51  C   UNL     1       6.871   9.189  -7.262  1.00  0.00     0.002 A 
ATOM     52  C   UNL     1       8.021   8.330  -9.181  1.00  0.00     0.091 A 
ATOM     53  F   UNL     1       7.070   6.556 -10.359  1.00  0.00    -0.205 F 
ATOM     54  C   UNL     1       7.906   9.297  -8.190  1.00  0.00     0.022 A 
BRANCH  52  55
ATOM     55  S   UNL     1       9.494   8.350 -10.229  1.00  0.00     0.127 S 
ATOM     56  O   UNL     1       9.462   9.697 -10.793  1.00  0.00    -0.237 OA
ATOM     57  O   UNL     1      10.552   8.120  -9.245  1.00  0.00    -0.237 OA
ATOM     58  O   UNL     1       9.325   7.271 -11.194  1.00  0.00    -0.744 OA
ENDBRANCH  52  55
ENDBRANCH  24  48
BRANCH  36  59
ATOM     59  C   UNL     1       2.838   2.335 -10.452  1.00  0.00     0.023 A 
ATOM     60  C   UNL     1       2.208   3.012 -11.514  1.00  0.00     0.012 A 
ATOM     61  C   UNL     1       2.022   1.957  -9.357  1.00  0.00     0.148 A 
ATOM     62  C   UNL     1       0.840   3.302 -11.496  1.00  0.00     0.002 A 
ATOM     63  C   UNL     1       0.655   2.265  -9.327  1.00  0.00     0.091 A 
ATOM     64  F   UNL     1       2.574   1.292  -8.347  1.00  0.00    -0.205 F 
ATOM     65  C   UNL     1       0.063   2.931 -10.405  1.00  0.00     0.022 A 
BRANCH  63  66
ATOM     66  S   UNL     1      -0.427   1.917  -7.920  1.00  0.00     0.127 S 
ATOM     67  O   UNL     1      -1.074   3.212  -7.693  1.00  0.00    -0.237 OA
ATOM     68  O   UNL     1      -1.315   0.893  -8.462  1.00  0.00    -0.237 OA
ATOM     69  O   UNL     1       0.440   1.488  -6.829  1.00  0.00    -0.744 OA
ENDBRANCH  63  66
ENDBRANCH  36  59
ENDBRANCH  10  11
ENDBRANCH   3   5
ENDBRANCH   2   3
ENDBRANCH   1   2
BRANCH   1  70
ATOM     70  C   UNL     1       4.477  -0.738   1.428  1.00  0.00     0.275 C 
BRANCH  70  71
ATOM     71  O   UNL     1       3.977  -1.525   0.335  1.00  0.00    -0.458 OA
BRANCH  71  72
ATOM     72  C   UNL     1       2.873  -2.262   0.595  1.00  0.00     0.338 C 
ATOM     73  O   UNL     1       2.285  -2.381   1.668  1.00  0.00    -0.246 OA
BRANCH  72  74
ATOM     74  C   UNL     1       2.497  -2.987  -0.620  1.00  0.00     0.063 A 
ATOM     75  C   UNL     1       3.116  -4.211  -0.889  1.00  0.00     0.018 A 
ATOM     76  C   UNL     1       1.504  -2.486  -1.462  1.00  0.00     0.057 A 
ATOM     77  C   UNL     1       2.723  -4.947  -2.007  1.00  0.00     0.030 A 
ATOM     78  C   UNL     1       1.156  -3.197  -2.604  1.00  0.00     0.148 A 
ATOM     79  C   UNL     1       1.742  -4.436  -2.871  1.00  0.00     0.081 A 
ATOM     80  F   UNL     1       0.178  -2.704  -3.374  1.00  0.00    -0.205 F 
BRANCH  79  81
ATOM     81  N   UNL     1       1.352  -5.193  -3.999  1.00  0.00    -0.321 N 
ATOM     82  C   UNL     1       0.989  -4.706  -5.228  1.00  0.00     0.091 A 
ATOM     83  C   UNL     1       1.294  -6.574  -4.056  1.00  0.00     0.091 A 
ATOM     84  C   UNL     1       0.796  -5.768  -6.083  1.00  0.00     0.020 A 
ATOM     85  C   UNL     1       0.943  -6.950  -5.332  1.00  0.00     0.020 A 
ENDBRANCH  79  81
ENDBRANCH  72  74
ENDBRANCH  71  72
ENDBRANCH  70  71
ENDBRANCH   1  70
TORSDOF 15
