REMARK SMILES C[C@H](NC(=O)N(CC(=O)OCCOC(=O)c1ccc(-c2c3nc(c(-c4cccc(S(=O)(=O)[O-])c4F)c4ccc([nH]4)c(-c4cccc(S(=O)(=O)[O-])c4F)c4nc(c(-c5cccc(S(=O)(=O)[O-])c5F)c5ccc2[nH]5)C=C4)C=C3)cc1)CC(F)(F)F)[C@@H]1CCCO1
REMARK SMILES IDX 11 1 10 2 8 3 9 4 7 5 6 6 4 7 3 8 5 10 2 11 1 12 84 13 85 14
REMARK SMILES IDX 88 15 86 16 87 17 79 18 80 19 81 20 82 21 83 22 12 23 13 24
REMARK SMILES IDX 14 25 15 26 16 27 17 28 78 29 18 30 77 31 19 32 20 33 21 34
REMARK SMILES IDX 71 35 22 36 76 37 70 38 72 39 23 40 75 41 69 42 68 43 24 45
REMARK SMILES IDX 56 46 36 47 55 48 37 49 40 50 54 51 73 52 38 53 39 54 53 56
REMARK SMILES IDX 74 57 41 58 25 59 26 60 34 61 27 62 29 63 35 64 28 65 30 66
REMARK SMILES IDX 31 67 32 68 33 69 57 70 58 71 66 72 59 73 61 74 67 75 60 76
REMARK SMILES IDX 62 77 63 78 64 79 65 80 42 81 43 82 51 83 44 84 46 85 52 86
REMARK SMILES IDX 45 87 47 88 48 89 49 90 50 91
REMARK H PARENT 3 9 72 44 40 55
REMARK Flexibility Score: inf
ROOT
ATOM      1  C   UNL     1       4.301  -3.292  -3.055  1.00  0.00     0.274 C 
ENDROOT
BRANCH   1   2
ATOM      2  O   UNL     1       3.425  -2.889  -1.986  1.00  0.00    -0.461 OA
BRANCH   2   3
ATOM      3  C   UNL     1       2.108  -2.876  -2.290  1.00  0.00     0.325 C 
ATOM      4  O   UNL     1       1.649  -3.106  -3.406  1.00  0.00    -0.250 OA
BRANCH   3   5
ATOM      5  C   UNL     1       1.199  -2.663  -1.087  1.00  0.00     0.244 C 
BRANCH   5   6
ATOM      6  N   UNL     1       1.715  -2.169   0.173  1.00  0.00    -0.305 N 
BRANCH   6   7
ATOM      7  C   UNL     1       1.563  -0.915   0.662  1.00  0.00     0.318 C 
ATOM      8  N   UNL     1       1.013   0.112   0.007  1.00  0.00    -0.333 N 
ATOM      9  H   UNL     1       1.017   0.887   0.614  1.00  0.00     0.165 HD
ATOM     10  O   UNL     1       1.922  -0.646   1.813  1.00  0.00    -0.249 OA
BRANCH   8  11
ATOM     11  C   UNL     1       0.400   0.548  -1.267  1.00  0.00     0.109 C 
ATOM     12  C   UNL     1       1.232   0.317  -2.525  1.00  0.00     0.034 C 
BRANCH  11  13
ATOM     13  C   UNL     1      -1.133   0.332  -1.397  1.00  0.00     0.140 C 
ATOM     14  C   UNL     1      -1.671  -0.960  -2.000  1.00  0.00     0.036 C 
ATOM     15  O   UNL     1      -1.681   1.391  -2.226  1.00  0.00    -0.376 OA
ATOM     16  C   UNL     1      -3.019  -0.533  -2.527  1.00  0.00     0.031 C 
ATOM     17  C   UNL     1      -2.709   0.843  -3.064  1.00  0.00     0.160 C 
ENDBRANCH  11  13
ENDBRANCH   8  11
ENDBRANCH   6   7
BRANCH   6  18
ATOM     18  C   UNL     1       2.275  -3.196   1.093  1.00  0.00     0.237 C 
BRANCH  18  19
ATOM     19  C   UNL     1       3.773  -3.144   1.429  1.00  0.00     0.406 C 
ATOM     20  F   UNL     1       4.121  -2.065   2.161  1.00  0.00    -0.169 F 
ATOM     21  F   UNL     1       4.113  -4.234   2.166  1.00  0.00    -0.169 F 
ATOM     22  F   UNL     1       4.559  -3.156   0.331  1.00  0.00    -0.169 F 
ENDBRANCH  18  19
ENDBRANCH   6  18
ENDBRANCH   5   6
ENDBRANCH   3   5
ENDBRANCH   2   3
ENDBRANCH   1   2
BRANCH   1  23
ATOM     23  C   UNL     1       4.609  -4.793  -3.004  1.00  0.00     0.275 C 
BRANCH  23  24
ATOM     24  O   UNL     1       3.436  -5.605  -3.213  1.00  0.00    -0.458 OA
BRANCH  24  25
ATOM     25  C   UNL     1       2.820  -6.016  -2.082  1.00  0.00     0.338 C 
ATOM     26  O   UNL     1       3.137  -5.751  -0.933  1.00  0.00    -0.246 OA
BRANCH  25  27
ATOM     27  C   UNL     1       1.593  -6.764  -2.388  1.00  0.00     0.060 A 
ATOM     28  C   UNL     1       0.384  -6.069  -2.417  1.00  0.00     0.016 A 
ATOM     29  C   UNL     1       1.606  -8.157  -2.435  1.00  0.00     0.016 A 
ATOM     30  C   UNL     1      -0.821  -6.760  -2.398  1.00  0.00     0.010 A 
ATOM     31  C   UNL     1       0.392  -8.851  -2.492  1.00  0.00     0.010 A 
ATOM     32  C   UNL     1      -0.832  -8.159  -2.431  1.00  0.00    -0.014 A 
BRANCH  32  33
ATOM     33  C   UNL     1      -2.127  -8.882  -2.358  1.00  0.00     0.031 A 
ATOM     34  C   UNL     1      -2.439  -9.758  -1.176  1.00  0.00     0.074 A 
ATOM     35  C   UNL     1      -3.035  -8.729  -3.342  1.00  0.00     0.049 A 
ATOM     36  N   UNL     1      -3.471 -10.537  -0.979  1.00  0.00    -0.248 NA
ATOM     37  C   UNL     1      -1.463  -9.766  -0.072  1.00  0.00     0.031 C 
ATOM     38  C   UNL     1      -2.859  -7.891  -4.530  1.00  0.00     0.029 A 
ATOM     39  N   UNL     1      -4.285  -9.272  -3.502  1.00  0.00    -0.354 N 
ATOM     40  C   UNL     1      -3.234 -11.183   0.228  1.00  0.00     0.074 A 
ATOM     41  C   UNL     1      -1.973 -10.687   0.735  1.00  0.00     0.031 C 
ATOM     42  C   UNL     1      -3.967  -7.957  -5.283  1.00  0.00     0.029 A 
ATOM     43  C   UNL     1      -4.908  -8.886  -4.666  1.00  0.00     0.049 A 
ATOM     44  H   UNL     1      -4.697  -9.880  -2.846  1.00  0.00     0.167 HD
ATOM     45  C   UNL     1      -4.003 -12.099   0.862  1.00  0.00     0.034 A 
ATOM     46  C   UNL     1      -6.093  -9.256  -5.189  1.00  0.00     0.034 A 
ATOM     47  C   UNL     1      -5.296 -12.526   0.402  1.00  0.00     0.049 A 
ATOM     48  C   UNL     1      -6.942 -10.246  -4.444  1.00  0.00     0.074 A 
ATOM     49  C   UNL     1      -6.168 -13.421   0.998  1.00  0.00     0.029 A 
ATOM     50  N   UNL     1      -5.911 -12.076  -0.754  1.00  0.00    -0.354 N 
ATOM     51  N   UNL     1      -6.725 -10.803  -3.277  1.00  0.00    -0.248 NA
ATOM     52  C   UNL     1      -8.202 -10.655  -5.082  1.00  0.00     0.031 C 
ATOM     53  C   UNL     1      -7.318 -13.503   0.203  1.00  0.00     0.029 A 
ATOM     54  C   UNL     1      -7.155 -12.668  -0.890  1.00  0.00     0.049 A 
ATOM     55  H   UNL     1      -5.521 -11.430  -1.387  1.00  0.00     0.167 HD
ATOM     56  C   UNL     1      -7.825 -11.616  -3.034  1.00  0.00     0.074 A 
ATOM     57  C   UNL     1      -8.721 -11.457  -4.161  1.00  0.00     0.031 C 
ATOM     58  C   UNL     1      -8.058 -12.445  -1.988  1.00  0.00     0.034 A 
BRANCH  45  59
ATOM     59  C   UNL     1      -3.481 -12.681   2.145  1.00  0.00     0.023 A 
ATOM     60  C   UNL     1      -3.628 -11.960   3.345  1.00  0.00     0.012 A 
ATOM     61  C   UNL     1      -2.900 -13.964   2.171  1.00  0.00     0.148 A 
ATOM     62  C   UNL     1      -3.192 -12.503   4.553  1.00  0.00     0.002 A 
ATOM     63  C   UNL     1      -2.493 -14.509   3.384  1.00  0.00     0.091 A 
ATOM     64  F   UNL     1      -2.738 -14.619   1.013  1.00  0.00    -0.205 F 
ATOM     65  C   UNL     1      -2.635 -13.780   4.575  1.00  0.00     0.022 A 
BRANCH  63  66
ATOM     66  S   UNL     1      -1.817 -16.170   3.499  1.00  0.00     0.127 S 
ATOM     67  O   UNL     1      -0.381 -15.904   3.534  1.00  0.00    -0.237 OA
ATOM     68  O   UNL     1      -2.378 -16.653   4.763  1.00  0.00    -0.237 OA
ATOM     69  O   UNL     1      -2.306 -16.873   2.321  1.00  0.00    -0.744 OA
ENDBRANCH  63  66
ENDBRANCH  45  59
BRANCH  46  70
ATOM     70  C   UNL     1      -6.558  -8.648  -6.467  1.00  0.00     0.023 A 
ATOM     71  C   UNL     1      -7.640  -7.748  -6.447  1.00  0.00     0.012 A 
ATOM     72  C   UNL     1      -5.906  -8.905  -7.687  1.00  0.00     0.148 A 
ATOM     73  C   UNL     1      -8.070  -7.125  -7.620  1.00  0.00     0.002 A 
ATOM     74  C   UNL     1      -6.301  -8.238  -8.841  1.00  0.00     0.091 A 
ATOM     75  F   UNL     1      -4.894  -9.786  -7.702  1.00  0.00    -0.205 F 
ATOM     76  C   UNL     1      -7.391  -7.357  -8.815  1.00  0.00     0.022 A 
BRANCH  74  77
ATOM     77  S   UNL     1      -5.349  -8.393 -10.356  1.00  0.00     0.127 S 
ATOM     78  O   UNL     1      -5.929  -9.586 -10.963  1.00  0.00    -0.237 OA
ATOM     79  O   UNL     1      -5.645  -7.141 -11.055  1.00  0.00    -0.237 OA
ATOM     80  O   UNL     1      -3.968  -8.500  -9.899  1.00  0.00    -0.744 OA
ENDBRANCH  74  77
ENDBRANCH  46  70
BRANCH  58  81
ATOM     81  C   UNL     1      -9.333 -13.239  -2.008  1.00  0.00     0.023 A 
ATOM     82  C   UNL     1      -9.405 -14.400  -2.801  1.00  0.00     0.012 A 
ATOM     83  C   UNL     1     -10.425 -12.884  -1.196  1.00  0.00     0.148 A 
ATOM     84  C   UNL     1     -10.555 -15.188  -2.799  1.00  0.00     0.002 A 
ATOM     85  C   UNL     1     -11.557 -13.693  -1.175  1.00  0.00     0.091 A 
ATOM     86  F   UNL     1     -10.351 -11.761  -0.466  1.00  0.00    -0.205 F 
ATOM     87  C   UNL     1     -11.626 -14.841  -1.978  1.00  0.00     0.022 A 
BRANCH  85  88
ATOM     88  S   UNL     1     -12.933 -13.328  -0.079  1.00  0.00     0.127 S 
ATOM     89  O   UNL     1     -13.751 -12.441  -0.903  1.00  0.00    -0.237 OA
ATOM     90  O   UNL     1     -13.519 -14.648   0.160  1.00  0.00    -0.237 OA
ATOM     91  O   UNL     1     -12.324 -12.727   1.101  1.00  0.00    -0.744 OA
ENDBRANCH  85  88
ENDBRANCH  58  81
ENDBRANCH  32  33
ENDBRANCH  25  27
ENDBRANCH  24  25
ENDBRANCH  23  24
ENDBRANCH   1  23
TORSDOF 20
