REMARK SMILES Cc1noc2c1-c1c(c(C(=O)OCCOC(=O)c3ccc(-c4c5nc(c(-c6cccc(S(=O)(=O)[O-])c6F)c6ccc([nH]6)c(-c6cccc(S(=O)(=O)[O-])c6F)c6nc(c(-c7cccc(S(=O)(=O)[O-])c7F)c7ccc4[nH]7)C=C6)C=C5)cc3)nn1C)CC2
REMARK SMILES IDX 15 1 14 2 13 3 12 4 10 5 11 6 9 7 1 8 2 9 3 10 6 11 4 12
REMARK SMILES IDX 5 13 7 14 85 15 8 16 82 17 84 18 81 19 83 20 16 21 17 22
REMARK SMILES IDX 18 23 19 24 80 25 20 26 79 27 21 28 22 29 23 30 73 31 24 32
REMARK SMILES IDX 78 33 72 34 74 35 25 36 77 37 71 38 70 39 26 41 58 42 38 43
REMARK SMILES IDX 57 44 39 45 42 46 56 47 75 48 40 49 41 50 55 52 76 53 43 54
REMARK SMILES IDX 27 55 28 56 36 57 29 58 31 59 37 60 30 61 32 62 33 63 34 64
REMARK SMILES IDX 35 65 59 66 60 67 68 68 61 69 63 70 69 71 62 72 64 73 65 74
REMARK SMILES IDX 66 75 67 76 44 77 45 78 53 79 46 80 48 81 54 82 47 83 49 84
REMARK SMILES IDX 50 85 51 86 52 87
REMARK H PARENT 74 40 42 51
REMARK Flexibility Score: inf
ROOT
ATOM      1  O   UNL     1      -6.735   1.386  -4.571  1.00  0.00    -0.458 OA
ENDROOT
BRANCH   1   2
ATOM      2  C   UNL     1      -6.922   0.040  -5.000  1.00  0.00     0.275 C 
BRANCH   2   3
ATOM      3  C   UNL     1      -5.761  -0.430  -5.861  1.00  0.00     0.275 C 
BRANCH   3   4
ATOM      4  O   UNL     1      -4.567  -0.566  -5.077  1.00  0.00    -0.457 OA
BRANCH   4   5
ATOM      5  C   UNL     1      -3.787   0.555  -4.962  1.00  0.00     0.359 C 
ATOM      6  O   UNL     1      -3.935   1.557  -5.661  1.00  0.00    -0.244 OA
BRANCH   5   7
ATOM      7  C   UNL     1      -2.776   0.432  -3.896  1.00  0.00     0.174 A 
ATOM      8  C   UNL     1       1.151  -0.359   0.147  1.00  0.00     0.071 C 
ATOM      9  C   UNL     1       0.488  -1.401  -0.664  1.00  0.00     0.090 A 
ATOM     10  N   UNL     1       0.875  -2.680  -0.484  1.00  0.00    -0.084 NA
ATOM     11  C   UNL     1      -0.529  -1.321  -1.634  1.00  0.00     0.066 A 
ATOM     12  O   UNL     1       0.113  -3.446  -1.352  1.00  0.00    -0.360 OA
ATOM     13  C   UNL     1      -0.721  -2.627  -2.022  1.00  0.00     0.146 A 
ATOM     14  C   UNL     1      -1.343  -0.312  -2.348  1.00  0.00     0.077 A 
ATOM     15  C   UNL     1      -1.607  -3.163  -3.084  1.00  0.00     0.084 C 
ATOM     16  C   UNL     1      -2.336  -0.742  -3.220  1.00  0.00     0.014 A 
ATOM     17  N   UNL     1      -1.361   1.046  -2.406  1.00  0.00    -0.267 N 
ATOM     18  C   UNL     1      -2.769  -2.179  -3.344  1.00  0.00     0.048 C 
ATOM     19  N   UNL     1      -2.120   1.512  -3.418  1.00  0.00    -0.165 NA
ATOM     20  C   UNL     1      -0.657   2.002  -1.592  1.00  0.00     0.174 C 
ENDBRANCH   5   7
ENDBRANCH   4   5
ENDBRANCH   3   4
ENDBRANCH   2   3
ENDBRANCH   1   2
BRANCH   1  21
ATOM     21  C   UNL     1      -6.246   1.516  -3.316  1.00  0.00     0.338 C 
ATOM     22  O   UNL     1      -5.575   0.701  -2.704  1.00  0.00    -0.246 OA
BRANCH  21  23
ATOM     23  C   UNL     1      -6.886   2.670  -2.679  1.00  0.00     0.060 A 
ATOM     24  C   UNL     1      -6.428   3.057  -1.417  1.00  0.00     0.016 A 
ATOM     25  C   UNL     1      -8.089   3.158  -3.211  1.00  0.00     0.016 A 
ATOM     26  C   UNL     1      -7.248   3.842  -0.631  1.00  0.00     0.010 A 
ATOM     27  C   UNL     1      -8.919   3.909  -2.415  1.00  0.00     0.010 A 
ATOM     28  C   UNL     1      -8.511   4.204  -1.117  1.00  0.00    -0.014 A 
BRANCH  28  29
ATOM     29  C   UNL     1      -9.318   5.119  -0.333  1.00  0.00     0.031 A 
ATOM     30  C   UNL     1      -8.760   6.492  -0.376  1.00  0.00     0.074 A 
ATOM     31  C   UNL     1     -10.496   4.771   0.222  1.00  0.00     0.049 A 
ATOM     32  N   UNL     1      -8.194   7.138   0.590  1.00  0.00    -0.248 NA
ATOM     33  C   UNL     1      -8.591   7.129  -1.695  1.00  0.00     0.031 C 
ATOM     34  C   UNL     1     -11.223   3.511   0.038  1.00  0.00     0.029 A 
ATOM     35  N   UNL     1     -11.367   5.522   0.953  1.00  0.00    -0.354 N 
ATOM     36  C   UNL     1      -7.867   8.378   0.046  1.00  0.00     0.074 A 
ATOM     37  C   UNL     1      -7.869   8.202  -1.376  1.00  0.00     0.031 C 
ATOM     38  C   UNL     1     -12.508   3.680   0.424  1.00  0.00     0.029 A 
ATOM     39  C   UNL     1     -12.666   5.012   0.983  1.00  0.00     0.049 A 
ATOM     40  H   UNL     1     -11.104   6.349   1.418  1.00  0.00     0.167 HD
ATOM     41  C   UNL     1      -7.986   9.505   0.800  1.00  0.00     0.034 A 
ATOM     42  C   UNL     1     -13.792   5.673   1.360  1.00  0.00     0.034 A 
ATOM     43  C   UNL     1      -8.025   9.166   2.205  1.00  0.00     0.049 A 
ATOM     44  C   UNL     1     -13.365   6.854   2.141  1.00  0.00     0.074 A 
ATOM     45  C   UNL     1      -7.199   8.489   3.079  1.00  0.00     0.029 A 
ATOM     46  N   UNL     1      -9.264   9.205   2.793  1.00  0.00    -0.354 N 
ATOM     47  N   UNL     1     -12.826   6.782   3.323  1.00  0.00    -0.248 NA
ATOM     48  C   UNL     1     -13.162   8.105   1.430  1.00  0.00     0.031 C 
ATOM     49  C   UNL     1      -8.078   7.797   3.963  1.00  0.00     0.029 A 
ATOM     50  C   UNL     1      -9.391   8.145   3.642  1.00  0.00     0.049 A 
ATOM     51  H   UNL     1      -9.953   9.889   2.628  1.00  0.00     0.167 HD
ATOM     52  C   UNL     1     -11.828   7.745   3.292  1.00  0.00     0.074 A 
ATOM     53  C   UNL     1     -12.171   8.612   2.167  1.00  0.00     0.031 C 
ATOM     54  C   UNL     1     -10.666   7.554   3.983  1.00  0.00     0.034 A 
BRANCH  41  55
ATOM     55  C   UNL     1      -8.567  10.821   0.293  1.00  0.00     0.023 A 
ATOM     56  C   UNL     1      -8.681  11.860   1.248  1.00  0.00     0.012 A 
ATOM     57  C   UNL     1      -9.269  11.008  -0.922  1.00  0.00     0.148 A 
ATOM     58  C   UNL     1      -9.534  12.951   1.057  1.00  0.00     0.002 A 
ATOM     59  C   UNL     1     -10.067  12.127  -1.136  1.00  0.00     0.091 A 
ATOM     60  F   UNL     1      -9.268  10.067  -1.863  1.00  0.00    -0.205 F 
ATOM     61  C   UNL     1     -10.235  13.082  -0.134  1.00  0.00     0.022 A 
BRANCH  59  62
ATOM     62  S   UNL     1     -10.969  12.370  -2.675  1.00  0.00     0.127 S 
ATOM     63  O   UNL     1     -12.352  12.252  -2.224  1.00  0.00    -0.237 OA
ATOM     64  O   UNL     1     -10.549  13.721  -3.049  1.00  0.00    -0.237 OA
ATOM     65  O   UNL     1     -10.510  11.327  -3.583  1.00  0.00    -0.744 OA
ENDBRANCH  59  62
ENDBRANCH  41  55
BRANCH  42  66
ATOM     66  C   UNL     1     -15.203   5.538   0.917  1.00  0.00     0.023 A 
ATOM     67  C   UNL     1     -16.230   6.130   1.688  1.00  0.00     0.012 A 
ATOM     68  C   UNL     1     -15.522   5.114  -0.390  1.00  0.00     0.148 A 
ATOM     69  C   UNL     1     -17.509   6.338   1.158  1.00  0.00     0.002 A 
ATOM     70  C   UNL     1     -16.797   5.317  -0.911  1.00  0.00     0.091 A 
ATOM     71  F   UNL     1     -14.551   4.602  -1.157  1.00  0.00    -0.205 F 
ATOM     72  C   UNL     1     -17.790   5.943  -0.146  1.00  0.00     0.022 A 
BRANCH  70  73
ATOM     73  S   UNL     1     -17.223   4.865  -2.599  1.00  0.00     0.127 S 
ATOM     74  O   UNL     1     -18.486   4.150  -2.412  1.00  0.00    -0.237 OA
ATOM     75  O   UNL     1     -17.348   6.172  -3.239  1.00  0.00    -0.237 OA
ATOM     76  O   UNL     1     -16.128   4.030  -3.075  1.00  0.00    -0.744 OA
ENDBRANCH  70  73
ENDBRANCH  42  66
BRANCH  54  77
ATOM     77  C   UNL     1     -10.648   6.504   5.061  1.00  0.00     0.023 A 
ATOM     78  C   UNL     1     -10.851   5.131   4.815  1.00  0.00     0.012 A 
ATOM     79  C   UNL     1     -10.270   6.918   6.348  1.00  0.00     0.148 A 
ATOM     80  C   UNL     1     -10.701   4.196   5.844  1.00  0.00     0.002 A 
ATOM     81  C   UNL     1     -10.068   5.984   7.351  1.00  0.00     0.091 A 
ATOM     82  F   UNL     1     -10.093   8.231   6.565  1.00  0.00    -0.205 F 
ATOM     83  C   UNL     1     -10.294   4.621   7.109  1.00  0.00     0.022 A 
BRANCH  81  84
ATOM     84  S   UNL     1      -9.420   6.475   8.948  1.00  0.00     0.127 S 
ATOM     85  O   UNL     1     -10.624   6.487   9.776  1.00  0.00    -0.237 OA
ATOM     86  O   UNL     1      -8.477   5.397   9.253  1.00  0.00    -0.237 OA
ATOM     87  O   UNL     1      -8.786   7.771   8.738  1.00  0.00    -0.744 OA
ENDBRANCH  81  84
ENDBRANCH  54  77
ENDBRANCH  28  29
ENDBRANCH  21  23
ENDBRANCH   1  21
TORSDOF 14
