REMARK SMILES CC[C@@](C)(NC(=O)c1cc(C)c(Br)s1)C(=O)OCCOC(=O)c1ccc(-c2c3nc(c(-c4cccc(S(=O)(=O)[O-])c4F)c4ccc([nH]4)c(-c4cccc(S(=O)(=O)[O-])c4F)c4nc(c(-c5cccc(S(=O)(=O)[O-])c5F)c5ccc2[nH]5)C=C4)C=C3)cc1
REMARK SMILES IDX 19 1 18 2 17 3 15 4 16 5 3 6 4 7 2 8 1 9 5 10 6 11 7 13 8 14
REMARK SMILES IDX 9 15 14 16 10 17 12 18 11 19 13 20 20 21 21 22 22 23 23 24
REMARK SMILES IDX 24 25 85 26 25 27 84 28 26 29 27 30 28 31 78 32 29 33 83 34
REMARK SMILES IDX 77 35 79 36 30 37 82 38 76 39 75 40 31 42 63 43 43 44 62 45
REMARK SMILES IDX 44 46 47 47 61 48 80 49 45 50 46 51 60 53 81 54 48 55 32 56
REMARK SMILES IDX 33 57 41 58 34 59 36 60 42 61 35 62 37 63 38 64 39 65 40 66
REMARK SMILES IDX 64 67 65 68 73 69 66 70 68 71 74 72 67 73 69 74 70 75 71 76
REMARK SMILES IDX 72 77 49 78 50 79 58 80 51 81 53 82 59 83 52 84 54 85 55 86
REMARK SMILES IDX 56 87 57 88
REMARK H PARENT 5 12 79 41 47 52
REMARK Flexibility Score: inf
ROOT
ATOM      1  C   UNL     1       5.334   0.882   1.543  1.00  0.00     0.275 C 
ENDROOT
BRANCH   1   2
ATOM      2  C   UNL     1       4.641   2.051   0.838  1.00  0.00     0.274 C 
BRANCH   2   3
ATOM      3  O   UNL     1       3.375   2.379   1.449  1.00  0.00    -0.460 OA
BRANCH   3   4
ATOM      4  C   UNL     1       2.258   2.052   0.753  1.00  0.00     0.331 C 
ATOM      5  O   UNL     1       2.287   1.748  -0.438  1.00  0.00    -0.249 OA
BRANCH   4   6
ATOM      6  C   UNL     1       0.926   2.128   1.593  1.00  0.00     0.135 C 
ATOM      7  C   UNL     1       0.102   3.182   0.807  1.00  0.00     0.047 C 
BRANCH   6   8
ATOM      8  C   UNL     1       0.112   0.781   1.550  1.00  0.00     0.037 C 
ATOM      9  C   UNL     1       0.113   0.008   0.230  1.00  0.00     0.007 C 
ENDBRANCH   6   8
BRANCH   6  10
ATOM     10  N   UNL     1       0.914   2.658   3.013  1.00  0.00    -0.336 N 
ATOM     11  C   UNL     1       1.431   2.101   4.166  1.00  0.00     0.262 C 
ATOM     12  H   UNL     1       0.472   3.530   3.131  1.00  0.00     0.165 HD
ATOM     13  O   UNL     1       0.596   1.720   4.991  1.00  0.00    -0.268 OA
BRANCH  11  14
ATOM     14  C   UNL     1       2.848   2.216   4.463  1.00  0.00     0.093 A 
ATOM     15  C   UNL     1       3.773   3.172   4.079  1.00  0.00     0.030 A 
ATOM     16  S   UNL     1       3.561   1.111   5.569  1.00  0.00    -0.123 S 
ATOM     17  C   UNL     1       5.114   2.885   4.519  1.00  0.00    -0.025 A 
ATOM     18  C   UNL     1       5.099   1.786   5.353  1.00  0.00     0.074 A 
ATOM     19  C   UNL     1       6.323   3.638   4.069  1.00  0.00     0.046 C 
ATOM     20  Br  UNL     1       6.626   1.037   6.152  1.00  0.00    -0.039 Br
ENDBRANCH  11  14
ENDBRANCH   6  10
ENDBRANCH   4   6
ENDBRANCH   3   4
ENDBRANCH   2   3
ENDBRANCH   1   2
BRANCH   1  21
ATOM     21  O   UNL     1       4.760  -0.409   1.303  1.00  0.00    -0.458 OA
BRANCH  21  22
ATOM     22  C   UNL     1       3.711  -0.666   2.091  1.00  0.00     0.338 C 
ATOM     23  O   UNL     1       2.684   0.016   2.185  1.00  0.00    -0.246 OA
BRANCH  22  24
ATOM     24  C   UNL     1       3.893  -1.766   3.006  1.00  0.00     0.060 A 
ATOM     25  C   UNL     1       2.739  -2.403   3.486  1.00  0.00     0.016 A 
ATOM     26  C   UNL     1       5.163  -2.022   3.526  1.00  0.00     0.016 A 
ATOM     27  C   UNL     1       2.863  -3.336   4.487  1.00  0.00     0.010 A 
ATOM     28  C   UNL     1       5.284  -2.945   4.539  1.00  0.00     0.010 A 
ATOM     29  C   UNL     1       4.137  -3.607   4.994  1.00  0.00    -0.014 A 
BRANCH  29  30
ATOM     30  C   UNL     1       4.289  -4.825   5.767  1.00  0.00     0.031 A 
ATOM     31  C   UNL     1       4.130  -6.062   4.948  1.00  0.00     0.074 A 
ATOM     32  C   UNL     1       4.787  -4.842   7.013  1.00  0.00     0.049 A 
ATOM     33  N   UNL     1       3.321  -7.055   5.131  1.00  0.00    -0.248 NA
ATOM     34  C   UNL     1       4.890  -6.135   3.685  1.00  0.00     0.031 C 
ATOM     35  C   UNL     1       5.348  -3.713   7.756  1.00  0.00     0.029 A 
ATOM     36  N   UNL     1       5.080  -5.921   7.788  1.00  0.00    -0.354 N 
ATOM     37  C   UNL     1       3.628  -7.969   4.122  1.00  0.00     0.074 A 
ATOM     38  C   UNL     1       4.445  -7.276   3.166  1.00  0.00     0.031 C 
ATOM     39  C   UNL     1       6.146  -4.198   8.732  1.00  0.00     0.029 A 
ATOM     40  C   UNL     1       6.052  -5.649   8.740  1.00  0.00     0.049 A 
ATOM     41  H   UNL     1       4.649  -6.800   7.685  1.00  0.00     0.167 HD
ATOM     42  C   UNL     1       3.405  -9.302   4.264  1.00  0.00     0.034 A 
ATOM     43  C   UNL     1       6.806  -6.562   9.395  1.00  0.00     0.034 A 
ATOM     44  C   UNL     1       2.462  -9.581   5.313  1.00  0.00     0.049 A 
ATOM     45  C   UNL     1       6.151  -7.885   9.250  1.00  0.00     0.074 A 
ATOM     46  C   UNL     1       1.165  -9.201   5.590  1.00  0.00     0.029 A 
ATOM     47  N   UNL     1       2.956 -10.114   6.477  1.00  0.00    -0.354 N 
ATOM     48  N   UNL     1       5.010  -8.204   9.794  1.00  0.00    -0.248 NA
ATOM     49  C   UNL     1       6.601  -8.767   8.184  1.00  0.00     0.031 C 
ATOM     50  C   UNL     1       1.107  -9.097   7.010  1.00  0.00     0.029 A 
ATOM     51  C   UNL     1       2.364  -9.442   7.511  1.00  0.00     0.049 A 
ATOM     52  H   UNL     1       3.613 -10.844   6.554  1.00  0.00     0.167 HD
ATOM     53  C   UNL     1       4.404  -9.049   8.873  1.00  0.00     0.074 A 
ATOM     54  C   UNL     1       5.481  -9.465   7.980  1.00  0.00     0.031 C 
ATOM     55  C   UNL     1       3.044  -9.097   8.742  1.00  0.00     0.034 A 
BRANCH  42  56
ATOM     56  C   UNL     1       4.312 -10.377   3.705  1.00  0.00     0.023 A 
ATOM     57  C   UNL     1       3.870 -11.715   3.811  1.00  0.00     0.012 A 
ATOM     58  C   UNL     1       5.668 -10.181   3.347  1.00  0.00     0.148 A 
ATOM     59  C   UNL     1       4.743 -12.794   3.636  1.00  0.00     0.002 A 
ATOM     60  C   UNL     1       6.506 -11.258   3.083  1.00  0.00     0.091 A 
ATOM     61  F   UNL     1       6.212  -8.962   3.392  1.00  0.00    -0.205 F 
ATOM     62  C   UNL     1       6.061 -12.567   3.263  1.00  0.00     0.022 A 
BRANCH  60  63
ATOM     63  S   UNL     1       8.194 -10.995   2.525  1.00  0.00     0.127 S 
ATOM     64  O   UNL     1       8.939 -11.117   3.774  1.00  0.00    -0.237 OA
ATOM     65  O   UNL     1       8.380 -12.098   1.582  1.00  0.00    -0.237 OA
ATOM     66  O   UNL     1       8.183  -9.678   1.899  1.00  0.00    -0.744 OA
ENDBRANCH  60  63
ENDBRANCH  42  56
BRANCH  43  67
ATOM     67  C   UNL     1       8.169  -6.413   9.948  1.00  0.00     0.023 A 
ATOM     68  C   UNL     1       8.592  -7.272  10.979  1.00  0.00     0.012 A 
ATOM     69  C   UNL     1       9.133  -5.584   9.331  1.00  0.00     0.148 A 
ATOM     70  C   UNL     1       9.933  -7.313  11.376  1.00  0.00     0.002 A 
ATOM     71  C   UNL     1      10.461  -5.610   9.746  1.00  0.00     0.091 A 
ATOM     72  F   UNL     1       8.772  -4.837   8.278  1.00  0.00    -0.205 F 
ATOM     73  C   UNL     1      10.867  -6.483  10.761  1.00  0.00     0.022 A 
BRANCH  71  74
ATOM     74  S   UNL     1      11.710  -4.548   9.005  1.00  0.00     0.127 S 
ATOM     75  O   UNL     1      12.459  -4.090  10.177  1.00  0.00    -0.237 OA
ATOM     76  O   UNL     1      12.432  -5.481   8.145  1.00  0.00    -0.237 OA
ATOM     77  O   UNL     1      10.973  -3.491   8.323  1.00  0.00    -0.744 OA
ENDBRANCH  71  74
ENDBRANCH  43  67
BRANCH  55  78
ATOM     78  C   UNL     1       2.193  -8.445   9.803  1.00  0.00     0.023 A 
ATOM     79  C   UNL     1       2.280  -7.066  10.079  1.00  0.00     0.012 A 
ATOM     80  C   UNL     1       1.156  -9.190  10.395  1.00  0.00     0.148 A 
ATOM     81  C   UNL     1       1.376  -6.448  10.947  1.00  0.00     0.002 A 
ATOM     82  C   UNL     1       0.229  -8.562  11.219  1.00  0.00     0.091 A 
ATOM     83  F   UNL     1       1.075 -10.501  10.120  1.00  0.00    -0.205 F 
ATOM     84  C   UNL     1       0.342  -7.193  11.506  1.00  0.00     0.022 A 
BRANCH  82  85
ATOM     85  S   UNL     1      -1.204  -9.441  11.849  1.00  0.00     0.127 S 
ATOM     86  O   UNL     1      -0.779  -9.795  13.201  1.00  0.00    -0.237 OA
ATOM     87  O   UNL     1      -2.258  -8.426  11.787  1.00  0.00    -0.237 OA
ATOM     88  O   UNL     1      -1.410 -10.560  10.937  1.00  0.00    -0.744 OA
ENDBRANCH  82  85
ENDBRANCH  55  78
ENDBRANCH  29  30
ENDBRANCH  22  24
ENDBRANCH  21  22
ENDBRANCH   1  21
TORSDOF 17
