REMARK SMILES O=C(OCCOC(=O)c1cccc(Nc2ccnc3ccc(F)cc23)c1)c1ccc(-c2c3nc(c(-c4cccc(S(=O)(=O)[O-])c4F)c4ccc([nH]4)c(-c4cccc(S(=O)(=O)[O-])c4F)c4nc(c(-c5cccc(S(=O)(=O)[O-])c5F)c5ccc2[nH]5)C=C4)C=C3)cc1
REMARK SMILES IDX 4 1 3 2 2 3 1 4 27 5 28 6 89 7 29 8 88 9 30 10 31 11 32 12
REMARK SMILES IDX 82 13 33 14 87 15 81 16 83 17 34 18 86 19 80 20 79 21 35 23
REMARK SMILES IDX 67 24 47 25 66 26 48 27 51 28 65 29 84 30 49 31 50 32 64 34
REMARK SMILES IDX 85 35 52 36 36 37 37 38 45 39 38 40 40 41 46 42 39 43 41 44
REMARK SMILES IDX 42 45 43 46 44 47 68 48 69 49 77 50 70 51 72 52 78 53 71 54
REMARK SMILES IDX 73 55 74 56 75 57 76 58 53 59 54 60 62 61 55 62 57 63 63 64
REMARK SMILES IDX 56 65 58 66 59 67 60 68 61 69 5 70 6 71 7 72 8 73 9 74 10 75
REMARK SMILES IDX 26 76 11 77 13 78 12 79 14 80 15 82 16 83 25 84 17 85 19 86
REMARK SMILES IDX 24 87 18 88 20 89 22 90 21 91 23 92
REMARK H PARENT 83 22 51 33 14 81
REMARK Flexibility Score: inf
ROOT
ATOM      1  C   UNL     1       3.949   1.112  -1.097  1.00  0.00     0.275 C 
ENDROOT
BRANCH   1   2
ATOM      2  O   UNL     1       2.876   0.155  -1.084  1.00  0.00    -0.458 OA
BRANCH   2   3
ATOM      3  C   UNL     1       2.820  -1.038  -0.441  1.00  0.00     0.338 C 
ATOM      4  O   UNL     1       1.983  -1.861  -0.814  1.00  0.00    -0.246 OA
BRANCH   3   5
ATOM      5  C   UNL     1       3.584  -1.337   0.814  1.00  0.00     0.060 A 
ATOM      6  C   UNL     1       4.823  -0.803   1.167  1.00  0.00     0.016 A 
ATOM      7  C   UNL     1       2.970  -2.220   1.723  1.00  0.00     0.016 A 
ATOM      8  C   UNL     1       5.399  -1.079   2.404  1.00  0.00     0.010 A 
ATOM      9  C   UNL     1       3.521  -2.470   2.984  1.00  0.00     0.010 A 
ATOM     10  C   UNL     1       4.750  -1.901   3.325  1.00  0.00    -0.014 A 
BRANCH  10  11
ATOM     11  C   UNL     1       5.463  -2.246   4.571  1.00  0.00     0.031 A 
ATOM     12  C   UNL     1       6.047  -3.621   4.704  1.00  0.00     0.074 A 
ATOM     13  C   UNL     1       5.681  -1.301   5.505  1.00  0.00     0.049 A 
ATOM     14  N   UNL     1       6.811  -4.100   5.648  1.00  0.00    -0.248 NA
ATOM     15  C   UNL     1       5.757  -4.574   3.619  1.00  0.00     0.031 C 
ATOM     16  C   UNL     1       5.190   0.079   5.444  1.00  0.00     0.029 A 
ATOM     17  N   UNL     1       6.366  -1.355   6.690  1.00  0.00    -0.354 N 
ATOM     18  C   UNL     1       7.104  -5.402   5.264  1.00  0.00     0.074 A 
ATOM     19  C   UNL     1       6.393  -5.659   4.033  1.00  0.00     0.031 C 
ATOM     20  C   UNL     1       5.559   0.728   6.561  1.00  0.00     0.029 A 
ATOM     21  C   UNL     1       6.316  -0.185   7.412  1.00  0.00     0.049 A 
ATOM     22  H   UNL     1       6.849  -2.157   6.997  1.00  0.00     0.167 HD
ATOM     23  C   UNL     1       7.928  -6.292   5.861  1.00  0.00     0.034 A 
ATOM     24  C   UNL     1       6.819   0.105   8.627  1.00  0.00     0.034 A 
ATOM     25  C   UNL     1       8.624  -6.029   7.088  1.00  0.00     0.049 A 
ATOM     26  C   UNL     1       7.665  -0.935   9.313  1.00  0.00     0.074 A 
ATOM     27  C   UNL     1       9.464  -6.863   7.800  1.00  0.00     0.029 A 
ATOM     28  N   UNL     1       8.545  -4.837   7.793  1.00  0.00    -0.354 N 
ATOM     29  N   UNL     1       8.006  -2.129   8.890  1.00  0.00    -0.248 NA
ATOM     30  C   UNL     1       8.240  -0.572  10.615  1.00  0.00     0.031 C 
ATOM     31  C   UNL     1       9.873  -6.182   8.951  1.00  0.00     0.029 A 
ATOM     32  C   UNL     1       9.318  -4.912   8.936  1.00  0.00     0.049 A 
ATOM     33  H   UNL     1       8.017  -4.053   7.519  1.00  0.00     0.167 HD
ATOM     34  C   UNL     1       8.869  -2.643   9.850  1.00  0.00     0.074 A 
ATOM     35  C   UNL     1       9.014  -1.619  10.866  1.00  0.00     0.031 C 
ATOM     36  C   UNL     1       9.480  -3.853   9.899  1.00  0.00     0.034 A 
BRANCH  23  37
ATOM     37  C   UNL     1       8.121  -7.614   5.169  1.00  0.00     0.023 A 
ATOM     38  C   UNL     1       8.868  -7.671   3.973  1.00  0.00     0.012 A 
ATOM     39  C   UNL     1       7.555  -8.792   5.689  1.00  0.00     0.148 A 
ATOM     40  C   UNL     1       9.011  -8.873   3.283  1.00  0.00     0.002 A 
ATOM     41  C   UNL     1       7.739  -9.994   5.018  1.00  0.00     0.091 A 
ATOM     42  F   UNL     1       6.830  -8.709   6.813  1.00  0.00    -0.205 F 
ATOM     43  C   UNL     1       8.453 -10.035   3.808  1.00  0.00     0.022 A 
BRANCH  41  44
ATOM     44  S   UNL     1       7.111 -11.558   5.637  1.00  0.00     0.127 S 
ATOM     45  O   UNL     1       6.128 -11.908   4.612  1.00  0.00    -0.237 OA
ATOM     46  O   UNL     1       8.314 -12.389   5.638  1.00  0.00    -0.237 OA
ATOM     47  O   UNL     1       6.559 -11.278   6.955  1.00  0.00    -0.744 OA
ENDBRANCH  41  44
ENDBRANCH  23  37
BRANCH  24  48
ATOM     48  C   UNL     1       6.560   1.431   9.259  1.00  0.00     0.023 A 
ATOM     49  C   UNL     1       7.619   2.333   9.485  1.00  0.00     0.012 A 
ATOM     50  C   UNL     1       5.258   1.797   9.653  1.00  0.00     0.148 A 
ATOM     51  C   UNL     1       7.393   3.548  10.135  1.00  0.00     0.002 A 
ATOM     52  C   UNL     1       5.030   3.033  10.246  1.00  0.00     0.091 A 
ATOM     53  F   UNL     1       4.261   0.925   9.442  1.00  0.00    -0.205 F 
ATOM     54  C   UNL     1       6.099   3.901  10.510  1.00  0.00     0.022 A 
BRANCH  52  55
ATOM     55  S   UNL     1       3.373   3.617  10.620  1.00  0.00     0.127 S 
ATOM     56  O   UNL     1       3.314   3.446  12.068  1.00  0.00    -0.237 OA
ATOM     57  O   UNL     1       3.430   5.006  10.163  1.00  0.00    -0.237 OA
ATOM     58  O   UNL     1       2.479   2.775   9.833  1.00  0.00    -0.744 OA
ENDBRANCH  52  55
ENDBRANCH  24  48
BRANCH  36  59
ATOM     59  C   UNL     1      10.398  -4.117  11.062  1.00  0.00     0.023 A 
ATOM     60  C   UNL     1       9.864  -4.327  12.348  1.00  0.00     0.012 A 
ATOM     61  C   UNL     1      11.786  -4.233  10.858  1.00  0.00     0.148 A 
ATOM     62  C   UNL     1      10.704  -4.613  13.423  1.00  0.00     0.002 A 
ATOM     63  C   UNL     1      12.611  -4.574  11.922  1.00  0.00     0.091 A 
ATOM     64  F   UNL     1      12.274  -4.009   9.629  1.00  0.00    -0.205 F 
ATOM     65  C   UNL     1      12.073  -4.750  13.207  1.00  0.00     0.022 A 
BRANCH  63  66
ATOM     66  S   UNL     1      14.368  -4.877  11.713  1.00  0.00     0.127 S 
ATOM     67  O   UNL     1      14.950  -3.692  12.339  1.00  0.00    -0.237 OA
ATOM     68  O   UNL     1      14.559  -6.120  12.462  1.00  0.00    -0.237 OA
ATOM     69  O   UNL     1      14.586  -4.998  10.278  1.00  0.00    -0.744 OA
ENDBRANCH  63  66
ENDBRANCH  36  59
ENDBRANCH  10  11
ENDBRANCH   3   5
ENDBRANCH   2   3
ENDBRANCH   1   2
BRANCH   1  70
ATOM     70  C   UNL     1       3.804   2.225  -0.049  1.00  0.00     0.275 C 
BRANCH  70  71
ATOM     71  O   UNL     1       3.221   1.742   1.176  1.00  0.00    -0.458 OA
BRANCH  71  72
ATOM     72  C   UNL     1       2.086   2.348   1.612  1.00  0.00     0.338 C 
ATOM     73  O   UNL     1       1.573   3.366   1.158  1.00  0.00    -0.246 OA
BRANCH  72  74
ATOM     74  C   UNL     1       1.440   1.469   2.610  1.00  0.00     0.062 A 
ATOM     75  C   UNL     1       0.843   0.315   2.093  1.00  0.00     0.016 A 
ATOM     76  C   UNL     1       1.401   1.739   3.994  1.00  0.00     0.041 A 
ATOM     77  C   UNL     1       0.327  -0.642   2.952  1.00  0.00     0.003 A 
ATOM     78  C   UNL     1       0.832   0.793   4.869  1.00  0.00     0.039 A 
ATOM     79  C   UNL     1       0.350  -0.412   4.322  1.00  0.00     0.026 A 
BRANCH  78  80
ATOM     80  N   UNL     1       0.758   0.964   6.276  1.00  0.00    -0.355 N 
ATOM     81  H   UNL     1       0.564   1.862   6.630  1.00  0.00     0.167 HD
BRANCH  80  82
ATOM     82  C   UNL     1       0.950  -0.104   7.203  1.00  0.00     0.050 A 
ATOM     83  C   UNL     1       2.133  -0.835   7.081  1.00  0.00     0.047 A 
ATOM     84  C   UNL     1       0.052  -0.443   8.250  1.00  0.00     0.027 A 
ATOM     85  C   UNL     1       2.333  -1.946   7.862  1.00  0.00     0.114 A 
ATOM     86  C   UNL     1       0.436  -1.529   9.081  1.00  0.00     0.072 A 
ATOM     87  C   UNL     1      -1.195   0.178   8.509  1.00  0.00     0.051 A 
ATOM     88  N   UNL     1       1.500  -2.305   8.851  1.00  0.00    -0.256 NA
ATOM     89  C   UNL     1      -0.316  -1.844  10.200  1.00  0.00     0.032 A 
ATOM     90  C   UNL     1      -1.959  -0.212   9.611  1.00  0.00     0.124 A 
ATOM     91  C   UNL     1      -1.506  -1.184  10.488  1.00  0.00     0.041 A 
ATOM     92  F   UNL     1      -3.156   0.350   9.829  1.00  0.00    -0.207 F 
ENDBRANCH  80  82
ENDBRANCH  78  80
ENDBRANCH  72  74
ENDBRANCH  71  72
ENDBRANCH  70  71
ENDBRANCH   1  70
TORSDOF 16
