REMARK SMILES O=C(OCCOC(=O)c1ccc([C@H]2Nc3ccc(Cl)cc3[C@@H]3C=CC[C@@H]23)cc1)c1ccc(-c2c3nc(c(-c4cccc(S(=O)(=O)[O-])c4F)c4ccc([nH]4)c(-c4cccc(S(=O)(=O)[O-])c4F)c4nc(c(-c5cccc(S(=O)(=O)[O-])c5F)c5ccc2[nH]5)C=C4)C=C3)cc1
REMARK SMILES IDX 4 1 3 2 2 3 1 4 29 5 30 6 91 7 31 8 90 9 32 10 33 11 34 12
REMARK SMILES IDX 84 13 35 14 89 15 83 16 85 17 36 18 88 19 82 20 81 21 37 23
REMARK SMILES IDX 69 24 49 25 68 26 50 27 53 28 67 29 86 30 51 31 52 32 66 34
REMARK SMILES IDX 87 35 54 36 38 37 39 38 47 39 40 40 42 41 48 42 41 43 43 44
REMARK SMILES IDX 44 45 45 46 46 47 70 48 71 49 79 50 72 51 74 52 80 53 73 54
REMARK SMILES IDX 75 55 76 56 77 57 78 58 55 59 56 60 64 61 57 62 59 63 65 64
REMARK SMILES IDX 58 65 60 66 61 67 62 68 63 69 5 70 6 71 7 72 8 73 9 74 10 75
REMARK SMILES IDX 28 76 11 77 27 78 12 79 13 80 14 81 26 82 15 83 22 85 25 86
REMARK SMILES IDX 16 87 21 88 23 89 24 90 17 91 20 92 18 93 19 94
REMARK H PARENT 85 22 53 33 14 84
REMARK Flexibility Score: inf
ROOT
ATOM      1  C   UNL     1       4.029   1.512  -1.034  1.00  0.00     0.275 C 
ENDROOT
BRANCH   1   2
ATOM      2  O   UNL     1       2.976   0.542  -1.115  1.00  0.00    -0.458 OA
BRANCH   2   3
ATOM      3  C   UNL     1       2.835  -0.631  -0.455  1.00  0.00     0.338 C 
ATOM      4  O   UNL     1       1.904  -1.369  -0.777  1.00  0.00    -0.246 OA
BRANCH   3   5
ATOM      5  C   UNL     1       3.686  -1.044   0.709  1.00  0.00     0.060 A 
ATOM      6  C   UNL     1       4.979  -0.599   1.001  1.00  0.00     0.016 A 
ATOM      7  C   UNL     1       3.110  -1.974   1.587  1.00  0.00     0.016 A 
ATOM      8  C   UNL     1       5.643  -0.991   2.166  1.00  0.00     0.010 A 
ATOM      9  C   UNL     1       3.778  -2.376   2.744  1.00  0.00     0.010 A 
ATOM     10  C   UNL     1       5.042  -1.873   3.058  1.00  0.00    -0.014 A 
BRANCH  10  11
ATOM     11  C   UNL     1       5.778  -2.303   4.268  1.00  0.00     0.031 A 
ATOM     12  C   UNL     1       6.313  -3.700   4.345  1.00  0.00     0.074 A 
ATOM     13  C   UNL     1       5.984  -1.434   5.278  1.00  0.00     0.049 A 
ATOM     14  N   UNL     1       7.051  -4.243   5.275  1.00  0.00    -0.248 NA
ATOM     15  C   UNL     1       5.987  -4.601   3.227  1.00  0.00     0.031 C 
ATOM     16  C   UNL     1       5.497  -0.056   5.309  1.00  0.00     0.029 A 
ATOM     17  N   UNL     1       6.632  -1.577   6.478  1.00  0.00    -0.354 N 
ATOM     18  C   UNL     1       7.296  -5.540   4.846  1.00  0.00     0.074 A 
ATOM     19  C   UNL     1       6.570  -5.726   3.610  1.00  0.00     0.031 C 
ATOM     20  C   UNL     1       5.819   0.507   6.485  1.00  0.00     0.029 A 
ATOM     21  C   UNL     1       6.560  -0.462   7.283  1.00  0.00     0.049 A 
ATOM     22  H   UNL     1       7.104  -2.400   6.740  1.00  0.00     0.167 HD
ATOM     23  C   UNL     1       8.099  -6.474   5.405  1.00  0.00     0.034 A 
ATOM     24  C   UNL     1       7.049  -0.246   8.519  1.00  0.00     0.034 A 
ATOM     25  C   UNL     1       8.813  -6.279   6.635  1.00  0.00     0.049 A 
ATOM     26  C   UNL     1       7.904  -1.317   9.141  1.00  0.00     0.074 A 
ATOM     27  C   UNL     1       9.660  -7.153   7.291  1.00  0.00     0.029 A 
ATOM     28  N   UNL     1       8.753  -5.125   7.404  1.00  0.00    -0.354 N 
ATOM     29  N   UNL     1       8.233  -2.490   8.655  1.00  0.00    -0.248 NA
ATOM     30  C   UNL     1       8.509  -1.015  10.445  1.00  0.00     0.031 C 
ATOM     31  C   UNL     1      10.096  -6.534   8.467  1.00  0.00     0.029 A 
ATOM     32  C   UNL     1       9.546  -5.262   8.528  1.00  0.00     0.049 A 
ATOM     33  H   UNL     1       8.224  -4.325   7.181  1.00  0.00     0.167 HD
ATOM     34  C   UNL     1       9.120  -3.046   9.568  1.00  0.00     0.074 A 
ATOM     35  C   UNL     1       9.290  -2.071  10.627  1.00  0.00     0.031 C 
ATOM     36  C   UNL     1       9.733  -4.255   9.541  1.00  0.00     0.034 A 
BRANCH  23  37
ATOM     37  C   UNL     1       8.267  -7.765   4.651  1.00  0.00     0.023 A 
ATOM     38  C   UNL     1       8.999  -7.770   3.444  1.00  0.00     0.012 A 
ATOM     39  C   UNL     1       7.705  -8.964   5.123  1.00  0.00     0.148 A 
ATOM     40  C   UNL     1       9.127  -8.937   2.694  1.00  0.00     0.002 A 
ATOM     41  C   UNL     1       7.875 -10.135   4.393  1.00  0.00     0.091 A 
ATOM     42  F   UNL     1       6.998  -8.934   6.262  1.00  0.00    -0.205 F 
ATOM     43  C   UNL     1       8.571 -10.120   3.172  1.00  0.00     0.022 A 
BRANCH  41  44
ATOM     44  S   UNL     1       7.254 -11.725   4.948  1.00  0.00     0.127 S 
ATOM     45  O   UNL     1       6.252 -12.023   3.926  1.00  0.00    -0.237 OA
ATOM     46  O   UNL     1       8.455 -12.558   4.886  1.00  0.00    -0.237 OA
ATOM     47  O   UNL     1       6.729 -11.508   6.288  1.00  0.00    -0.744 OA
ENDBRANCH  41  44
ENDBRANCH  23  37
BRANCH  24  48
ATOM     48  C   UNL     1       6.800   1.046   9.222  1.00  0.00     0.023 A 
ATOM     49  C   UNL     1       7.863   1.938   9.463  1.00  0.00     0.012 A 
ATOM     50  C   UNL     1       5.507   1.388   9.666  1.00  0.00     0.148 A 
ATOM     51  C   UNL     1       7.654   3.120  10.177  1.00  0.00     0.002 A 
ATOM     52  C   UNL     1       5.296   2.590  10.332  1.00  0.00     0.091 A 
ATOM     53  F   UNL     1       4.506   0.528   9.430  1.00  0.00    -0.205 F 
ATOM     54  C   UNL     1       6.371   3.449  10.607  1.00  0.00     0.022 A 
BRANCH  52  55
ATOM     55  S   UNL     1       3.656   3.142  10.814  1.00  0.00     0.127 S 
ATOM     56  O   UNL     1       3.686   2.942  12.260  1.00  0.00    -0.237 OA
ATOM     57  O   UNL     1       3.667   4.540  10.382  1.00  0.00    -0.237 OA
ATOM     58  O   UNL     1       2.731   2.295  10.071  1.00  0.00    -0.744 OA
ENDBRANCH  52  55
ENDBRANCH  24  48
BRANCH  36  59
ATOM     59  C   UNL     1      10.677  -4.574  10.668  1.00  0.00     0.023 A 
ATOM     60  C   UNL     1      10.172  -4.843  11.955  1.00  0.00     0.012 A 
ATOM     61  C   UNL     1      12.062  -4.676  10.430  1.00  0.00     0.148 A 
ATOM     62  C   UNL     1      11.036  -5.173  12.998  1.00  0.00     0.002 A 
ATOM     63  C   UNL     1      12.910  -5.060  11.459  1.00  0.00     0.091 A 
ATOM     64  F   UNL     1      12.522  -4.393   9.202  1.00  0.00    -0.205 F 
ATOM     65  C   UNL     1      12.401  -5.295  12.747  1.00  0.00     0.022 A 
BRANCH  63  66
ATOM     66  S   UNL     1      14.663  -5.345  11.200  1.00  0.00     0.127 S 
ATOM     67  O   UNL     1      15.254  -4.183  11.861  1.00  0.00    -0.237 OA
ATOM     68  O   UNL     1      14.876  -6.616  11.894  1.00  0.00    -0.237 OA
ATOM     69  O   UNL     1      14.850  -5.407   9.757  1.00  0.00    -0.744 OA
ENDBRANCH  63  66
ENDBRANCH  36  59
ENDBRANCH  10  11
ENDBRANCH   3   5
ENDBRANCH   2   3
ENDBRANCH   1   2
BRANCH   1  70
ATOM     70  C   UNL     1       3.918   2.501   0.134  1.00  0.00     0.275 C 
BRANCH  70  71
ATOM     71  O   UNL     1       3.432   1.931   1.364  1.00  0.00    -0.458 OA
BRANCH  71  72
ATOM     72  C   UNL     1       2.091   2.053   1.567  1.00  0.00     0.338 C 
ATOM     73  O   UNL     1       1.307   2.613   0.814  1.00  0.00    -0.246 OA
BRANCH  72  74
ATOM     74  C   UNL     1       1.656   1.299   2.770  1.00  0.00     0.060 A 
ATOM     75  C   UNL     1       0.479   0.552   2.678  1.00  0.00     0.016 A 
ATOM     76  C   UNL     1       2.351   1.324   3.980  1.00  0.00     0.016 A 
ATOM     77  C   UNL     1       0.032  -0.205   3.769  1.00  0.00     0.007 A 
ATOM     78  C   UNL     1       1.898   0.559   5.073  1.00  0.00     0.007 A 
ATOM     79  C   UNL     1       0.746  -0.245   4.980  1.00  0.00    -0.025 A 
BRANCH  79  80
ATOM     80  C   UNL     1       0.335  -1.154   6.148  1.00  0.00     0.114 C 
ATOM     81  N   UNL     1      -1.119  -1.447   6.124  1.00  0.00    -0.378 N 
ATOM     82  C   UNL     1       1.044  -2.510   6.224  1.00  0.00     0.031 C 
ATOM     83  C   UNL     1      -1.616  -2.695   5.743  1.00  0.00     0.038 A 
ATOM     84  H   UNL     1      -1.752  -0.740   6.385  1.00  0.00     0.161 HD
ATOM     85  C   UNL     1       0.676  -3.329   4.979  1.00  0.00     0.049 C 
ATOM     86  C   UNL     1       2.543  -2.657   6.407  1.00  0.00     0.034 C 
ATOM     87  C   UNL     1      -2.952  -3.025   5.988  1.00  0.00     0.027 A 
ATOM     88  C   UNL     1      -0.785  -3.665   5.125  1.00  0.00    -0.016 A 
ATOM     89  C   UNL     1       1.715  -4.405   5.046  1.00  0.00    -0.023 C 
ATOM     90  C   UNL     1       2.753  -4.021   5.805  1.00  0.00    -0.030 C 
ATOM     91  C   UNL     1      -3.461  -4.273   5.608  1.00  0.00     0.022 A 
ATOM     92  C   UNL     1      -1.316  -4.883   4.681  1.00  0.00     0.027 A 
ATOM     93  C   UNL     1      -2.648  -5.184   4.938  1.00  0.00     0.041 A 
ATOM     94  Cl  UNL     1      -3.291  -6.703   4.443  1.00  0.00    -0.084 Cl
ENDBRANCH  79  80
ENDBRANCH  72  74
ENDBRANCH  71  72
ENDBRANCH  70  71
ENDBRANCH   1  70
TORSDOF 15
