REMARK SMILES COc1ccc(Cl)c2c1N[C@@H](c1ccc(C(=O)OCCOC(=O)c3ccc(-c4c5nc(c(-c6cccc(S(=O)(=O)[O-])c6F)c6ccc([nH]6)c(-c6cccc(S(=O)(=O)[O-])c6F)c6nc(c(-c7cccc(S(=O)(=O)[O-])c7F)c7ccc4[nH]7)C=C6)C=C5)cc3)cc1)[C@@H]1CC=C[C@H]21
REMARK SMILES IDX 20 1 19 2 18 3 16 4 17 5 15 6 12 7 13 8 88 9 14 10 87 11
REMARK SMILES IDX 11 12 3 13 4 14 9 15 5 16 8 17 10 18 6 19 93 20 7 22 89 23
REMARK SMILES IDX 92 24 90 25 91 26 2 27 1 28 21 29 22 30 23 31 24 32 25 33
REMARK SMILES IDX 86 34 26 35 85 36 27 37 28 38 29 39 79 40 30 41 84 42 78 43
REMARK SMILES IDX 80 44 31 45 83 46 77 47 76 48 32 50 64 51 44 52 63 53 45 54
REMARK SMILES IDX 48 55 62 56 81 57 46 58 47 59 61 61 82 62 49 63 33 64 34 65
REMARK SMILES IDX 42 66 35 67 37 68 43 69 36 70 38 71 39 72 40 73 41 74 65 75
REMARK SMILES IDX 66 76 74 77 67 78 69 79 75 80 68 81 70 82 71 83 72 84 73 85
REMARK SMILES IDX 50 86 51 87 59 88 52 89 54 90 60 91 53 92 55 93 56 94 57 95
REMARK SMILES IDX 58 96
REMARK H PARENT 10 21 80 49 48 60
REMARK Flexibility Score: inf
ROOT
ATOM      1  C   UNL     1       9.512  -4.734   0.514  1.00  0.00     0.275 C 
ENDROOT
BRANCH   1   2
ATOM      2  C   UNL     1      10.239  -3.410   0.291  1.00  0.00     0.275 C 
BRANCH   2   3
ATOM      3  O   UNL     1       9.342  -2.308   0.528  1.00  0.00    -0.458 OA
BRANCH   3   4
ATOM      4  C   UNL     1       8.902  -1.659  -0.580  1.00  0.00     0.338 C 
ATOM      5  O   UNL     1       9.273  -1.849  -1.720  1.00  0.00    -0.246 OA
BRANCH   4   6
ATOM      6  C   UNL     1       7.810  -0.708  -0.236  1.00  0.00     0.060 A 
ATOM      7  C   UNL     1       5.700   1.085   0.284  1.00  0.00    -0.025 A 
ATOM      8  C   UNL     1       5.962   0.652  -1.024  1.00  0.00     0.007 A 
ATOM      9  C   UNL     1       6.499   0.592   1.330  1.00  0.00     0.007 A 
ATOM     10  C   UNL     1       7.013  -0.227  -1.282  1.00  0.00     0.016 A 
ATOM     11  C   UNL     1       7.548  -0.297   1.074  1.00  0.00     0.016 A 
BRANCH   7  12
ATOM     12  C   UNL     1       4.627   2.131   0.560  1.00  0.00     0.114 C 
ATOM     13  C   UNL     1       1.099   2.241  -0.684  1.00  0.00     0.142 A 
ATOM     14  C   UNL     1       0.045   3.131  -0.881  1.00  0.00     0.050 A 
ATOM     15  C   UNL     1       2.376   2.686  -0.283  1.00  0.00     0.083 A 
ATOM     16  C   UNL     1       0.243   4.488  -0.649  1.00  0.00     0.025 A 
ATOM     17  C   UNL     1       2.580   4.063  -0.061  1.00  0.00     0.005 A 
ATOM     18  N   UNL     1       3.419   1.782  -0.159  1.00  0.00    -0.375 N 
ATOM     19  C   UNL     1       1.498   4.951  -0.246  1.00  0.00     0.047 A 
ATOM     20  C   UNL     1       3.966   4.569   0.260  1.00  0.00     0.051 C 
ATOM     21  H   UNL     1       3.338   0.890  -0.566  1.00  0.00     0.161 HD
ATOM     22  Cl  UNL     1       1.668   6.663  -0.040  1.00  0.00    -0.084 Cl
ATOM     23  C   UNL     1       5.103   3.533   0.123  1.00  0.00     0.031 C 
ATOM     24  C   UNL     1       4.177   5.058   1.670  1.00  0.00    -0.023 C 
ATOM     25  C   UNL     1       6.208   4.087   1.042  1.00  0.00     0.034 C 
ATOM     26  C   UNL     1       5.424   4.809   2.090  1.00  0.00    -0.030 C 
BRANCH  13  27
ATOM     27  O   UNL     1       0.867   0.924  -0.996  1.00  0.00    -0.495 OA
ATOM     28  C   UNL     1       0.691   0.126   0.174  1.00  0.00     0.278 C 
ENDBRANCH  13  27
ENDBRANCH   7  12
ENDBRANCH   4   6
ENDBRANCH   3   4
ENDBRANCH   2   3
ENDBRANCH   1   2
BRANCH   1  29
ATOM     29  O   UNL     1       8.504  -4.923  -0.495  1.00  0.00    -0.458 OA
BRANCH  29  30
ATOM     30  C   UNL     1       7.226  -4.761  -0.083  1.00  0.00     0.338 C 
ATOM     31  O   UNL     1       6.832  -4.523   1.046  1.00  0.00    -0.246 OA
BRANCH  30  32
ATOM     32  C   UNL     1       6.328  -4.871  -1.241  1.00  0.00     0.060 A 
ATOM     33  C   UNL     1       6.161  -3.762  -2.070  1.00  0.00     0.016 A 
ATOM     34  C   UNL     1       5.566  -6.022  -1.435  1.00  0.00     0.016 A 
ATOM     35  C   UNL     1       5.183  -3.772  -3.061  1.00  0.00     0.010 A 
ATOM     36  C   UNL     1       4.623  -6.051  -2.468  1.00  0.00     0.010 A 
ATOM     37  C   UNL     1       4.399  -4.915  -3.266  1.00  0.00    -0.014 A 
BRANCH  37  38
ATOM     38  C   UNL     1       3.312  -4.902  -4.278  1.00  0.00     0.031 A 
ATOM     39  C   UNL     1       1.875  -4.975  -3.837  1.00  0.00     0.074 A 
ATOM     40  C   UNL     1       3.608  -4.815  -5.589  1.00  0.00     0.049 A 
ATOM     41  N   UNL     1       0.794  -5.074  -4.566  1.00  0.00    -0.248 NA
ATOM     42  C   UNL     1       1.618  -4.931  -2.387  1.00  0.00     0.031 C 
ATOM     43  C   UNL     1       4.957  -4.707  -6.146  1.00  0.00     0.029 A 
ATOM     44  N   UNL     1       2.790  -4.811  -6.692  1.00  0.00    -0.354 N 
ATOM     45  C   UNL     1      -0.264  -5.147  -3.670  1.00  0.00     0.074 A 
ATOM     46  C   UNL     1       0.300  -5.078  -2.340  1.00  0.00     0.031 C 
ATOM     47  C   UNL     1       4.874  -4.644  -7.484  1.00  0.00     0.029 A 
ATOM     48  C   UNL     1       3.474  -4.756  -7.883  1.00  0.00     0.049 A 
ATOM     49  H   UNL     1       1.808  -4.845  -6.635  1.00  0.00     0.167 HD
ATOM     50  C   UNL     1      -1.588  -5.247  -3.931  1.00  0.00     0.034 A 
ATOM     51  C   UNL     1       3.030  -4.815  -9.154  1.00  0.00     0.034 A 
ATOM     52  C   UNL     1      -2.156  -5.261  -5.251  1.00  0.00     0.049 A 
ATOM     53  C   UNL     1       1.557  -4.954  -9.417  1.00  0.00     0.074 A 
ATOM     54  C   UNL     1      -3.492  -5.332  -5.607  1.00  0.00     0.029 A 
ATOM     55  N   UNL     1      -1.429  -5.193  -6.427  1.00  0.00    -0.354 N 
ATOM     56  N   UNL     1       0.568  -4.984  -8.558  1.00  0.00    -0.248 NA
ATOM     57  C   UNL     1       1.135  -5.060 -10.822  1.00  0.00     0.031 C 
ATOM     58  C   UNL     1      -3.572  -5.313  -7.002  1.00  0.00     0.029 A 
ATOM     59  C   UNL     1      -2.287  -5.223  -7.512  1.00  0.00     0.049 A 
ATOM     60  H   UNL     1      -0.448  -5.132  -6.483  1.00  0.00     0.167 HD
ATOM     61  C   UNL     1      -0.592  -5.094  -9.315  1.00  0.00     0.074 A 
ATOM     62  C   UNL     1      -0.186  -5.111 -10.705  1.00  0.00     0.031 C 
ATOM     63  C   UNL     1      -1.875  -5.190  -8.891  1.00  0.00     0.034 A 
BRANCH  50  64
ATOM     64  C   UNL     1      -2.534  -5.310  -2.766  1.00  0.00     0.023 A 
ATOM     65  C   UNL     1      -2.902  -4.118  -2.112  1.00  0.00     0.012 A 
ATOM     66  C   UNL     1      -3.131  -6.527  -2.386  1.00  0.00     0.148 A 
ATOM     67  C   UNL     1      -3.848  -4.138  -1.088  1.00  0.00     0.002 A 
ATOM     68  C   UNL     1      -4.093  -6.535  -1.383  1.00  0.00     0.091 A 
ATOM     69  F   UNL     1      -2.752  -7.648  -3.017  1.00  0.00    -0.205 F 
ATOM     70  C   UNL     1      -4.449  -5.342  -0.732  1.00  0.00     0.022 A 
BRANCH  68  71
ATOM     71  S   UNL     1      -4.965  -8.023  -0.882  1.00  0.00     0.127 S 
ATOM     72  O   UNL     1      -4.498  -8.188   0.494  1.00  0.00    -0.237 OA
ATOM     73  O   UNL     1      -6.364  -7.614  -1.006  1.00  0.00    -0.237 OA
ATOM     74  O   UNL     1      -4.548  -9.068  -1.806  1.00  0.00    -0.744 OA
ENDBRANCH  68  71
ENDBRANCH  50  64
BRANCH  51  75
ATOM     75  C   UNL     1       4.005  -4.713 -10.273  1.00  0.00     0.023 A 
ATOM     76  C   UNL     1       4.080  -3.517 -11.011  1.00  0.00     0.012 A 
ATOM     77  C   UNL     1       4.898  -5.763 -10.562  1.00  0.00     0.148 A 
ATOM     78  C   UNL     1       5.028  -3.370 -12.024  1.00  0.00     0.002 A 
ATOM     79  C   UNL     1       5.866  -5.594 -11.545  1.00  0.00     0.091 A 
ATOM     80  F   UNL     1       4.797  -6.894  -9.850  1.00  0.00    -0.205 F 
ATOM     81  C   UNL     1       5.927  -4.402 -12.283  1.00  0.00     0.022 A 
BRANCH  79  82
ATOM     82  S   UNL     1       7.132  -6.823 -11.880  1.00  0.00     0.127 S 
ATOM     83  O   UNL     1       6.815  -7.211 -13.253  1.00  0.00    -0.237 OA
ATOM     84  O   UNL     1       8.357  -6.038 -11.729  1.00  0.00    -0.237 OA
ATOM     85  O   UNL     1       6.951  -7.865 -10.879  1.00  0.00    -0.744 OA
ENDBRANCH  79  82
ENDBRANCH  51  75
BRANCH  63  86
ATOM     86  C   UNL     1      -2.957  -5.314  -9.927  1.00  0.00     0.023 A 
ATOM     87  C   UNL     1      -3.205  -6.570 -10.513  1.00  0.00     0.012 A 
ATOM     88  C   UNL     1      -3.808  -4.229 -10.214  1.00  0.00     0.148 A 
ATOM     89  C   UNL     1      -4.286  -6.744 -11.376  1.00  0.00     0.002 A 
ATOM     90  C   UNL     1      -4.903  -4.419 -11.049  1.00  0.00     0.091 A 
ATOM     91  F   UNL     1      -3.543  -3.043  -9.647  1.00  0.00    -0.205 F 
ATOM     92  C   UNL     1      -5.141  -5.674 -11.633  1.00  0.00     0.022 A 
BRANCH  90  93
ATOM     93  S   UNL     1      -6.105  -3.125 -11.381  1.00  0.00     0.127 S 
ATOM     94  O   UNL     1      -5.883  -2.872 -12.804  1.00  0.00    -0.237 OA
ATOM     95  O   UNL     1      -7.369  -3.791 -11.069  1.00  0.00    -0.237 OA
ATOM     96  O   UNL     1      -5.765  -2.020 -10.495  1.00  0.00    -0.744 OA
ENDBRANCH  90  93
ENDBRANCH  63  86
ENDBRANCH  37  38
ENDBRANCH  30  32
ENDBRANCH  29  30
ENDBRANCH   1  29
TORSDOF 16
