REMARK SMILES CCOc1cc(OCC)cc(-c2ccc([C@@H](C)C(=O)OCCOC(=O)c3ccc(-c4c5nc(c(-c6cccc(S(=O)(=O)[O-])c6F)c6ccc([nH]6)c(-c6cccc(S(=O)(=O)[O-])c6F)c6nc(c(-c7cccc(S(=O)(=O)[O-])c7F)c7ccc4[nH]7)C=C6)C=C5)cc3)cc2F)c1
REMARK SMILES IDX 21 1 20 2 18 3 19 4 16 5 17 6 15 7 12 8 13 9 90 10 14 11
REMARK SMILES IDX 89 12 91 13 11 14 4 15 5 16 92 17 6 18 10 19 3 20 2 21 1 22
REMARK SMILES IDX 7 23 8 24 9 25 22 26 23 27 24 28 25 29 26 30 27 31 88 32
REMARK SMILES IDX 28 33 87 34 29 35 30 36 31 37 81 38 32 39 86 40 80 41 82 42
REMARK SMILES IDX 33 43 85 44 79 45 78 46 34 48 66 49 46 50 65 51 47 52 50 53
REMARK SMILES IDX 64 54 83 55 48 56 49 57 63 59 84 60 51 61 35 62 36 63 44 64
REMARK SMILES IDX 37 65 39 66 45 67 38 68 40 69 41 70 42 71 43 72 67 73 68 74
REMARK SMILES IDX 76 75 69 76 71 77 77 78 70 79 72 80 73 81 74 82 75 83 52 84
REMARK SMILES IDX 53 85 61 86 54 87 56 88 62 89 55 90 57 91 58 92 59 93 60 94
REMARK H PARENT 82 47 50 58
REMARK Flexibility Score: inf
ROOT
ATOM      1  C   UNL     1       8.670   4.269  -0.048  1.00  0.00     0.274 C 
ENDROOT
BRANCH   1   2
ATOM      2  O   UNL     1       8.528   3.104   0.788  1.00  0.00    -0.462 OA
BRANCH   2   3
ATOM      3  C   UNL     1       8.780   3.265   2.114  1.00  0.00     0.313 C 
ATOM      4  O   UNL     1       9.201   4.303   2.614  1.00  0.00    -0.252 OA
BRANCH   3   5
ATOM      5  C   UNL     1       8.557   2.001   2.940  1.00  0.00     0.126 C 
ATOM      6  C   UNL     1       9.896   1.317   3.209  1.00  0.00     0.025 C 
BRANCH   5   7
ATOM      7  C   UNL     1       7.518   1.027   2.405  1.00  0.00    -0.031 A 
ATOM      8  C   UNL     1       5.572  -0.827   1.473  1.00  0.00     0.018 A 
ATOM      9  C   UNL     1       6.766  -0.605   0.766  1.00  0.00     0.012 A 
ATOM     10  C   UNL     1       5.364  -0.081   2.637  1.00  0.00     0.131 A 
ATOM     11  C   UNL     1       7.726   0.300   1.226  1.00  0.00     0.005 A 
ATOM     12  C   UNL     1       6.319   0.820   3.105  1.00  0.00     0.044 A 
ATOM     13  F   UNL     1       4.248  -0.254   3.363  1.00  0.00    -0.206 F 
BRANCH   8  14
ATOM     14  C   UNL     1       4.628  -1.861   1.027  1.00  0.00    -0.008 A 
ATOM     15  C   UNL     1       2.410  -2.607   0.392  1.00  0.00     0.123 A 
ATOM     16  C   UNL     1       2.895  -3.897   0.166  1.00  0.00     0.092 A 
ATOM     17  C   UNL     1       3.265  -1.601   0.842  1.00  0.00     0.055 A 
ATOM     18  C   UNL     1       4.243  -4.186   0.373  1.00  0.00     0.123 A 
ATOM     19  C   UNL     1       5.096  -3.166   0.793  1.00  0.00     0.055 A 
BRANCH  15  20
ATOM     20  O   UNL     1       1.062  -2.405   0.280  1.00  0.00    -0.494 OA
BRANCH  20  21
ATOM     21  C   UNL     1       0.700  -1.495  -0.764  1.00  0.00     0.226 C 
ATOM     22  C   UNL     1       0.482  -0.086  -0.237  1.00  0.00     0.049 C 
ENDBRANCH  20  21
ENDBRANCH  15  20
BRANCH  18  23
ATOM     23  O   UNL     1       4.629  -5.475   0.120  1.00  0.00    -0.494 OA
BRANCH  23  24
ATOM     24  C   UNL     1       5.857  -5.920   0.703  1.00  0.00     0.226 C 
ATOM     25  C   UNL     1       7.024  -5.727  -0.253  1.00  0.00     0.049 C 
ENDBRANCH  23  24
ENDBRANCH  18  23
ENDBRANCH   8  14
ENDBRANCH   5   7
ENDBRANCH   3   5
ENDBRANCH   2   3
ENDBRANCH   1   2
BRANCH   1  26
ATOM     26  C   UNL     1       7.303   4.821  -0.456  1.00  0.00     0.275 C 
BRANCH  26  27
ATOM     27  O   UNL     1       6.599   5.349   0.682  1.00  0.00    -0.458 OA
BRANCH  27  28
ATOM     28  C   UNL     1       5.686   4.512   1.228  1.00  0.00     0.338 C 
ATOM     29  O   UNL     1       5.366   3.406   0.829  1.00  0.00    -0.246 OA
BRANCH  28  30
ATOM     30  C   UNL     1       5.198   5.076   2.494  1.00  0.00     0.060 A 
ATOM     31  C   UNL     1       5.563   4.429   3.675  1.00  0.00     0.016 A 
ATOM     32  C   UNL     1       4.321   6.159   2.523  1.00  0.00     0.016 A 
ATOM     33  C   UNL     1       5.023   4.829   4.892  1.00  0.00     0.010 A 
ATOM     34  C   UNL     1       3.796   6.579   3.752  1.00  0.00     0.010 A 
ATOM     35  C   UNL     1       4.124   5.901   4.939  1.00  0.00    -0.014 A 
BRANCH  35  36
ATOM     36  C   UNL     1       3.506   6.271   6.236  1.00  0.00     0.031 A 
ATOM     37  C   UNL     1       2.058   5.963   6.496  1.00  0.00     0.074 A 
ATOM     38  C   UNL     1       4.254   6.863   7.186  1.00  0.00     0.049 A 
ATOM     39  N   UNL     1       1.341   6.216   7.560  1.00  0.00    -0.248 NA
ATOM     40  C   UNL     1       1.319   5.283   5.420  1.00  0.00     0.031 C 
ATOM     41  C   UNL     1       5.668   7.213   7.048  1.00  0.00     0.029 A 
ATOM     42  N   UNL     1       3.926   7.284   8.450  1.00  0.00    -0.354 N 
ATOM     43  C   UNL     1       0.059   5.765   7.270  1.00  0.00     0.074 A 
ATOM     44  C   UNL     1       0.096   5.224   5.928  1.00  0.00     0.031 C 
ATOM     45  C   UNL     1       6.085   7.802   8.181  1.00  0.00     0.029 A 
ATOM     46  C   UNL     1       4.963   7.897   9.112  1.00  0.00     0.049 A 
ATOM     47  H   UNL     1       3.033   7.159   8.845  1.00  0.00     0.167 HD
ATOM     48  C   UNL     1      -1.043   5.783   8.056  1.00  0.00     0.034 A 
ATOM     49  C   UNL     1       5.003   8.480  10.326  1.00  0.00     0.034 A 
ATOM     50  C   UNL     1      -1.066   6.276   9.408  1.00  0.00     0.049 A 
ATOM     51  C   UNL     1       3.767   8.469  11.184  1.00  0.00     0.074 A 
ATOM     52  C   UNL     1      -2.124   6.291  10.300  1.00  0.00     0.029 A 
ATOM     53  N   UNL     1       0.017   6.840  10.063  1.00  0.00    -0.354 N 
ATOM     54  N   UNL     1       2.594   7.939  10.935  1.00  0.00    -0.248 NA
ATOM     55  C   UNL     1       3.868   9.111  12.503  1.00  0.00     0.031 C 
ATOM     56  C   UNL     1      -1.682   6.872  11.493  1.00  0.00     0.029 A 
ATOM     57  C   UNL     1      -0.346   7.212  11.347  1.00  0.00     0.049 A 
ATOM     58  H   UNL     1       0.913   6.960   9.673  1.00  0.00     0.167 HD
ATOM     59  C   UNL     1       1.826   8.161  12.072  1.00  0.00     0.074 A 
ATOM     60  C   UNL     1       2.676   8.849  13.022  1.00  0.00     0.031 C 
ATOM     61  C   UNL     1       0.527   7.846  12.300  1.00  0.00     0.034 A 
BRANCH  48  62
ATOM     62  C   UNL     1      -2.314   5.213   7.488  1.00  0.00     0.023 A 
ATOM     63  C   UNL     1      -2.469   3.816   7.397  1.00  0.00     0.012 A 
ATOM     64  C   UNL     1      -3.375   6.054   7.097  1.00  0.00     0.148 A 
ATOM     65  C   UNL     1      -3.651   3.263   6.905  1.00  0.00     0.002 A 
ATOM     66  C   UNL     1      -4.563   5.495   6.640  1.00  0.00     0.091 A 
ATOM     67  F   UNL     1      -3.198   7.382   7.165  1.00  0.00    -0.205 F 
ATOM     68  C   UNL     1      -4.700   4.101   6.536  1.00  0.00     0.022 A 
BRANCH  66  69
ATOM     69  S   UNL     1      -5.992   6.494   6.205  1.00  0.00     0.127 S 
ATOM     70  O   UNL     1      -5.957   6.441   4.744  1.00  0.00    -0.237 OA
ATOM     71  O   UNL     1      -7.092   5.748   6.816  1.00  0.00    -0.237 OA
ATOM     72  O   UNL     1      -5.754   7.806   6.792  1.00  0.00    -0.744 OA
ENDBRANCH  66  69
ENDBRANCH  48  62
BRANCH  49  73
ATOM     73  C   UNL     1       6.275   9.079  10.817  1.00  0.00     0.023 A 
ATOM     74  C   UNL     1       6.972   8.456  11.870  1.00  0.00     0.012 A 
ATOM     75  C   UNL     1       6.817  10.236  10.225  1.00  0.00     0.148 A 
ATOM     76  C   UNL     1       8.175   8.987  12.338  1.00  0.00     0.002 A 
ATOM     77  C   UNL     1       8.043  10.728  10.659  1.00  0.00     0.091 A 
ATOM     78  F   UNL     1       6.127  10.831   9.241  1.00  0.00    -0.205 F 
ATOM     79  C   UNL     1       8.716  10.114  11.725  1.00  0.00     0.022 A 
BRANCH  77  80
ATOM     80  S   UNL     1       8.867  12.091   9.829  1.00  0.00     0.127 S 
ATOM     81  O   UNL     1       8.586  13.206  10.729  1.00  0.00    -0.237 OA
ATOM     82  O   UNL     1      10.262  11.646   9.816  1.00  0.00    -0.237 OA
ATOM     83  O   UNL     1       8.255  12.164   8.508  1.00  0.00    -0.744 OA
ENDBRANCH  77  80
ENDBRANCH  49  73
BRANCH  61  84
ATOM     84  C   UNL     1      -0.056   8.230  13.635  1.00  0.00     0.023 A 
ATOM     85  C   UNL     1      -0.370   9.579  13.890  1.00  0.00     0.012 A 
ATOM     86  C   UNL     1      -0.356   7.254  14.605  1.00  0.00     0.148 A 
ATOM     87  C   UNL     1      -0.946   9.956  15.103  1.00  0.00     0.002 A 
ATOM     88  C   UNL     1      -0.968   7.632  15.795  1.00  0.00     0.091 A 
ATOM     89  F   UNL     1      -0.030   5.977  14.355  1.00  0.00    -0.205 F 
ATOM     90  C   UNL     1      -1.255   8.983  16.050  1.00  0.00     0.022 A 
BRANCH  88  91
ATOM     91  S   UNL     1      -1.476   6.426  17.027  1.00  0.00     0.127 S 
ATOM     92  O   UNL     1      -0.379   6.501  17.990  1.00  0.00    -0.237 OA
ATOM     93  O   UNL     1      -2.746   6.975  17.505  1.00  0.00    -0.237 OA
ATOM     94  O   UNL     1      -1.603   5.164  16.310  1.00  0.00    -0.744 OA
ENDBRANCH  88  91
ENDBRANCH  61  84
ENDBRANCH  35  36
ENDBRANCH  28  30
ENDBRANCH  27  28
ENDBRANCH  26  27
ENDBRANCH   1  26
TORSDOF 20
