REMARK SMILES C[NH+]1CCC(NC(=O)N[C@@H]2C=C[C@H](C(=O)OCCOC(=O)c3ccc(-c4c5nc(c(-c6cccc(S(=O)(=O)[O-])c6F)c6ccc([nH]6)c(-c6cccc(S(=O)(=O)[O-])c6F)c6nc(c(-c7cccc(S(=O)(=O)[O-])c7F)c7ccc4[nH]7)C=C6)C=C5)cc3)C2)CC1
REMARK SMILES IDX 18 1 17 2 16 3 14 4 15 5 13 6 10 7 11 8 85 9 12 10 9 11 6 12
REMARK SMILES IDX 7 13 8 15 5 17 1 18 2 19 3 20 87 21 4 23 86 24 19 25 20 26
REMARK SMILES IDX 21 27 22 28 23 29 84 30 24 31 83 32 25 33 26 34 27 35 77 36
REMARK SMILES IDX 28 37 82 38 76 39 78 40 29 41 81 42 75 43 74 44 30 46 62 47
REMARK SMILES IDX 42 48 61 49 43 50 46 51 60 52 79 53 44 54 45 55 59 57 80 58
REMARK SMILES IDX 47 59 31 60 32 61 40 62 33 63 35 64 41 65 34 66 36 67 37 68
REMARK SMILES IDX 38 69 39 70 63 71 64 72 72 73 65 74 67 75 73 76 66 77 68 78
REMARK SMILES IDX 69 79 70 80 71 81 48 82 49 83 57 84 50 85 52 86 58 87 51 88
REMARK SMILES IDX 53 89 54 90 55 91 56 92
REMARK H PARENT 6 14 9 16 2 22 78 45 46 56
REMARK Flexibility Score: inf
ROOT
ATOM      1  C   UNL     1      -2.636   2.809  -3.867  1.00  0.00     0.275 C 
ENDROOT
BRANCH   1   2
ATOM      2  C   UNL     1      -2.822   1.494  -3.114  1.00  0.00     0.274 C 
BRANCH   2   3
ATOM      3  O   UNL     1      -1.773   1.315  -2.141  1.00  0.00    -0.462 OA
BRANCH   3   4
ATOM      4  C   UNL     1      -0.908   0.277  -2.337  1.00  0.00     0.312 C 
ATOM      5  O   UNL     1      -0.903  -0.469  -3.303  1.00  0.00    -0.252 OA
BRANCH   4   6
ATOM      6  C   UNL     1       0.077   0.214  -1.176  1.00  0.00     0.124 C 
ATOM      7  C   UNL     1       2.421  -0.295  -1.755  1.00  0.00     0.107 C 
ATOM      8  C   UNL     1       1.755  -1.434  -1.052  1.00  0.00    -0.006 C 
ATOM      9  C   UNL     1       1.418   0.851  -1.548  1.00  0.00     0.048 C 
ATOM     10  C   UNL     1       0.468  -1.180  -0.786  1.00  0.00    -0.014 C 
BRANCH   7  11
ATOM     11  N   UNL     1       2.609  -0.750  -3.117  1.00  0.00    -0.332 N 
ATOM     12  N   UNL     1       4.930  -1.171  -3.418  1.00  0.00    -0.335 N 
ATOM     13  C   UNL     1       3.657  -1.181  -3.843  1.00  0.00     0.315 C 
ATOM     14  H   UNL     1       5.605  -1.214  -4.134  1.00  0.00     0.165 HD
ATOM     15  O   UNL     1       3.431  -1.590  -4.982  1.00  0.00    -0.249 OA
ATOM     16  H   UNL     1       1.772  -0.740  -3.635  1.00  0.00     0.165 HD
BRANCH  12  17
ATOM     17  C   UNL     1       5.469  -1.107  -2.085  1.00  0.00     0.095 C 
ATOM     18  C   UNL     1       6.911  -0.907   1.771  1.00  0.00     0.332 C 
ATOM     19  N   UNL     1       7.047  -0.936   0.311  1.00  0.00    -0.337 N 
ATOM     20  C   UNL     1       6.404   0.262  -0.262  1.00  0.00     0.264 C 
ATOM     21  C   UNL     1       6.552  -2.224  -0.206  1.00  0.00     0.264 C 
ATOM     22  H   UNL     1       8.024  -0.888   0.021  1.00  0.00     0.347 HD
ATOM     23  C   UNL     1       6.187   0.198  -1.774  1.00  0.00     0.086 C 
ATOM     24  C   UNL     1       6.399  -2.256  -1.730  1.00  0.00     0.086 C 
ENDBRANCH  12  17
ENDBRANCH   7  11
ENDBRANCH   4   6
ENDBRANCH   3   4
ENDBRANCH   2   3
ENDBRANCH   1   2
BRANCH   1  25
ATOM     25  O   UNL     1      -1.540   2.686  -4.789  1.00  0.00    -0.458 OA
BRANCH  25  26
ATOM     26  C   UNL     1      -0.450   3.433  -4.521  1.00  0.00     0.338 C 
ATOM     27  O   UNL     1      -0.307   4.245  -3.613  1.00  0.00    -0.246 OA
BRANCH  26  28
ATOM     28  C   UNL     1       0.641   3.040  -5.420  1.00  0.00     0.060 A 
ATOM     29  C   UNL     1       1.322   1.870  -5.117  1.00  0.00     0.016 A 
ATOM     30  C   UNL     1       1.085   3.861  -6.457  1.00  0.00     0.016 A 
ATOM     31  C   UNL     1       2.509   1.577  -5.770  1.00  0.00     0.010 A 
ATOM     32  C   UNL     1       2.231   3.497  -7.186  1.00  0.00     0.010 A 
ATOM     33  C   UNL     1       2.974   2.362  -6.827  1.00  0.00    -0.014 A 
BRANCH  33  34
ATOM     34  C   UNL     1       4.249   1.967  -7.489  1.00  0.00     0.031 A 
ATOM     35  C   UNL     1       5.455   2.861  -7.413  1.00  0.00     0.074 A 
ATOM     36  C   UNL     1       4.364   0.757  -8.078  1.00  0.00     0.049 A 
ATOM     37  N   UNL     1       6.624   2.718  -7.982  1.00  0.00    -0.248 NA
ATOM     38  C   UNL     1       5.340   4.067  -6.578  1.00  0.00     0.031 C 
ATOM     39  C   UNL     1       3.310  -0.257  -8.136  1.00  0.00     0.029 A 
ATOM     40  N   UNL     1       5.426   0.161  -8.717  1.00  0.00    -0.354 N 
ATOM     41  C   UNL     1       7.351   3.852  -7.648  1.00  0.00     0.074 A 
ATOM     42  C   UNL     1       6.511   4.653  -6.784  1.00  0.00     0.031 C 
ATOM     43  C   UNL     1       3.786  -1.358  -8.734  1.00  0.00     0.029 A 
ATOM     44  C   UNL     1       5.147  -1.102  -9.189  1.00  0.00     0.049 A 
ATOM     45  H   UNL     1       6.302   0.596  -8.827  1.00  0.00     0.167 HD
ATOM     46  C   UNL     1       8.599   4.199  -8.040  1.00  0.00     0.034 A 
ATOM     47  C   UNL     1       5.883  -1.949  -9.935  1.00  0.00     0.034 A 
ATOM     48  C   UNL     1       9.458   3.377  -8.849  1.00  0.00     0.049 A 
ATOM     49  C   UNL     1       7.260  -1.528 -10.369  1.00  0.00     0.074 A 
ATOM     50  C   UNL     1      10.736   3.658  -9.302  1.00  0.00     0.029 A 
ATOM     51  N   UNL     1       9.135   2.115  -9.322  1.00  0.00    -0.354 N 
ATOM     52  N   UNL     1       7.938  -0.457 -10.037  1.00  0.00    -0.248 NA
ATOM     53  C   UNL     1       7.973  -2.429 -11.286  1.00  0.00     0.031 C 
ATOM     54  C   UNL     1      11.176   2.575 -10.070  1.00  0.00     0.029 A 
ATOM     55  C   UNL     1      10.181   1.611 -10.076  1.00  0.00     0.049 A 
ATOM     56  H   UNL     1       8.287   1.647  -9.147  1.00  0.00     0.167 HD
ATOM     57  C   UNL     1       9.155  -0.556 -10.700  1.00  0.00     0.074 A 
ATOM     58  C   UNL     1       9.141  -1.815 -11.416  1.00  0.00     0.031 C 
ATOM     59  C   UNL     1      10.177   0.334 -10.743  1.00  0.00     0.034 A 
BRANCH  46  60
ATOM     60  C   UNL     1       9.104   5.554  -7.633  1.00  0.00     0.023 A 
ATOM     61  C   UNL     1       9.608   5.767  -6.336  1.00  0.00     0.012 A 
ATOM     62  C   UNL     1       9.133   6.604  -8.572  1.00  0.00     0.148 A 
ATOM     63  C   UNL     1      10.118   7.014  -5.974  1.00  0.00     0.002 A 
ATOM     64  C   UNL     1       9.674   7.832  -8.216  1.00  0.00     0.091 A 
ATOM     65  F   UNL     1       8.622   6.383  -9.792  1.00  0.00    -0.205 F 
ATOM     66  C   UNL     1      10.161   8.041  -6.916  1.00  0.00     0.022 A 
BRANCH  64  67
ATOM     67  S   UNL     1       9.829   9.190  -9.381  1.00  0.00     0.127 S 
ATOM     68  O   UNL     1       8.799  10.110  -8.900  1.00  0.00    -0.237 OA
ATOM     69  O   UNL     1      11.203   9.639  -9.152  1.00  0.00    -0.237 OA
ATOM     70  O   UNL     1       9.591   8.618 -10.699  1.00  0.00    -0.744 OA
ENDBRANCH  64  67
ENDBRANCH  46  60
BRANCH  47  71
ATOM     71  C   UNL     1       5.326  -3.274 -10.341  1.00  0.00     0.023 A 
ATOM     72  C   UNL     1       5.925  -4.457  -9.868  1.00  0.00     0.012 A 
ATOM     73  C   UNL     1       4.200  -3.370 -11.184  1.00  0.00     0.148 A 
ATOM     74  C   UNL     1       5.429  -5.707 -10.245  1.00  0.00     0.002 A 
ATOM     75  C   UNL     1       3.671  -4.616 -11.501  1.00  0.00     0.091 A 
ATOM     76  F   UNL     1       3.662  -2.240 -11.665  1.00  0.00    -0.205 F 
ATOM     77  C   UNL     1       4.294  -5.787 -11.048  1.00  0.00     0.022 A 
BRANCH  75  78
ATOM     78  S   UNL     1       2.130  -4.781 -12.411  1.00  0.00     0.127 S 
ATOM     79  O   UNL     1       2.606  -5.036 -13.767  1.00  0.00    -0.237 OA
ATOM     80  O   UNL     1       1.501  -5.929 -11.755  1.00  0.00    -0.237 OA
ATOM     81  O   UNL     1       1.427  -3.522 -12.203  1.00  0.00    -0.744 OA
ENDBRANCH  75  78
ENDBRANCH  47  71
BRANCH  59  82
ATOM     82  C   UNL     1      11.370  -0.013 -11.593  1.00  0.00     0.023 A 
ATOM     83  C   UNL     1      11.264   0.061 -12.996  1.00  0.00     0.012 A 
ATOM     84  C   UNL     1      12.612  -0.328 -11.009  1.00  0.00     0.148 A 
ATOM     85  C   UNL     1      12.368  -0.197 -13.806  1.00  0.00     0.002 A 
ATOM     86  C   UNL     1      13.721  -0.540 -11.821  1.00  0.00     0.091 A 
ATOM     87  F   UNL     1      12.689  -0.414  -9.672  1.00  0.00    -0.205 F 
ATOM     88  C   UNL     1      13.598  -0.484 -13.219  1.00  0.00     0.022 A 
BRANCH  86  89
ATOM     89  S   UNL     1      15.363  -0.823 -11.150  1.00  0.00     0.127 S 
ATOM     90  O   UNL     1      15.541  -2.254 -11.389  1.00  0.00    -0.237 OA
ATOM     91  O   UNL     1      16.196   0.042 -11.987  1.00  0.00    -0.237 OA
ATOM     92  O   UNL     1      15.297  -0.424  -9.751  1.00  0.00    -0.744 OA
ENDBRANCH  86  89
ENDBRANCH  59  82
ENDBRANCH  33  34
ENDBRANCH  26  28
ENDBRANCH  25  26
ENDBRANCH   1  25
TORSDOF 16
