REMARK SMILES Cc1c(CCC(=O)N2CCC(C(=O)OCCOC(=O)c3ccc(-c4c5nc(c(-c6cccc(S(=O)(=O)[O-])c6F)c6ccc([nH]6)c(-c6cccc(S(=O)(=O)[O-])c6F)c6nc(c(-c7cccc(S(=O)(=O)[O-])c7F)c7ccc4[nH]7)C=C6)C=C5)cc3)CC2)c(=O)oc2cc3oc4c(c3cc12)CCCC4
REMARK SMILES IDX 15 1 14 2 12 3 13 4 11 5 6 6 7 7 8 8 9 9 84 10 10 11 83 12
REMARK SMILES IDX 5 13 4 14 3 15 1 16 2 17 96 18 85 19 88 20 95 21 86 22 87 23
REMARK SMILES IDX 89 24 94 25 90 26 93 27 91 28 92 29 97 30 100 31 98 32 99 33
REMARK SMILES IDX 16 34 17 35 18 36 19 37 20 38 21 39 82 40 22 41 81 42 23 43
REMARK SMILES IDX 24 44 25 45 75 46 26 47 80 48 74 49 76 50 27 51 79 52 73 53
REMARK SMILES IDX 72 54 28 56 60 57 40 58 59 59 41 60 44 61 58 62 77 63 42 64
REMARK SMILES IDX 43 65 57 67 78 68 45 69 29 70 30 71 38 72 31 73 33 74 39 75
REMARK SMILES IDX 32 76 34 77 35 78 36 79 37 80 61 81 62 82 70 83 63 84 65 85
REMARK SMILES IDX 71 86 64 87 66 88 67 89 68 90 69 91 46 92 47 93 55 94 48 95
REMARK SMILES IDX 50 96 56 97 49 98 51 99 52 100 53 101 54 102
REMARK H PARENT 76 55 44 66
REMARK Flexibility Score: inf
ROOT
ATOM      1  C   UNL     1       0.698  -4.992  -2.406  1.00  0.00     0.274 C 
ENDROOT
BRANCH   1   2
ATOM      2  O   UNL     1       1.290  -3.985  -1.565  1.00  0.00    -0.462 OA
BRANCH   2   3
ATOM      3  C   UNL     1       2.411  -3.354  -2.023  1.00  0.00     0.309 C 
ATOM      4  O   UNL     1       2.944  -3.583  -3.099  1.00  0.00    -0.252 OA
BRANCH   3   5
ATOM      5  C   UNL     1       2.918  -2.369  -0.974  1.00  0.00     0.103 C 
ATOM      6  C   UNL     1       3.040   1.642   0.008  1.00  0.00     0.222 C 
ATOM      7  O   UNL     1       3.416   2.248  -0.999  1.00  0.00    -0.275 OA
ATOM      8  N   UNL     1       3.343   0.290   0.186  1.00  0.00    -0.343 N 
ATOM      9  C   UNL     1       4.493  -0.385  -0.431  1.00  0.00     0.120 C 
ATOM     10  C   UNL     1       2.336  -0.622   0.643  1.00  0.00     0.120 C 
ATOM     11  C   UNL     1       4.133  -1.535  -1.410  1.00  0.00     0.037 C 
ATOM     12  C   UNL     1       1.831  -1.378  -0.587  1.00  0.00     0.037 C 
BRANCH   6  13
ATOM     13  C   UNL     1       2.372   2.421   1.189  1.00  0.00     0.105 C 
BRANCH  13  14
ATOM     14  C   UNL     1       0.844   2.695   1.269  1.00  0.00     0.053 C 
BRANCH  14  15
ATOM     15  C   UNL     1       0.068   1.720   2.135  1.00  0.00     0.042 A 
ATOM     16  C   UNL     1      -0.947   0.476   0.165  1.00  0.00     0.046 C 
ATOM     17  C   UNL     1      -0.589   0.678   1.608  1.00  0.00    -0.030 A 
ATOM     18  C   UNL     1      -0.700  -0.449   2.514  1.00  0.00     0.022 A 
ATOM     19  C   UNL     1      -0.096   1.946   3.617  1.00  0.00     0.339 A 
ATOM     20  C   UNL     1      -1.069  -0.261   3.821  1.00  0.00     0.142 A 
ATOM     21  C   UNL     1      -0.356  -1.714   2.092  1.00  0.00     0.024 A 
ATOM     22  O   UNL     1       0.357   2.959   4.142  1.00  0.00    -0.246 OA
ATOM     23  O   UNL     1      -0.921   1.042   4.331  1.00  0.00    -0.422 OA
ATOM     24  C   UNL     1      -1.556  -1.335   4.584  1.00  0.00     0.095 A 
ATOM     25  C   UNL     1      -0.698  -2.815   2.843  1.00  0.00     0.025 A 
ATOM     26  C   UNL     1      -1.435  -2.608   3.995  1.00  0.00     0.138 A 
ATOM     27  C   UNL     1      -0.773  -4.161   2.475  1.00  0.00     0.001 A 
ATOM     28  O   UNL     1      -2.096  -3.781   4.276  1.00  0.00    -0.461 OA
ATOM     29  C   UNL     1      -1.804  -4.635   3.246  1.00  0.00     0.108 A 
ATOM     30  C   UNL     1      -0.522  -4.757   1.143  1.00  0.00     0.040 C 
ATOM     31  C   UNL     1      -2.828  -5.502   2.586  1.00  0.00     0.076 C 
ATOM     32  C   UNL     1      -1.811  -4.715   0.317  1.00  0.00     0.005 C 
ATOM     33  C   UNL     1      -3.090  -4.868   1.183  1.00  0.00     0.008 C 
ENDBRANCH  14  15
ENDBRANCH  13  14
ENDBRANCH   6  13
ENDBRANCH   3   5
ENDBRANCH   2   3
ENDBRANCH   1   2
BRANCH   1  34
ATOM     34  C   UNL     1       1.363  -6.357  -2.213  1.00  0.00     0.275 C 
BRANCH  34  35
ATOM     35  O   UNL     1       1.149  -6.888  -0.886  1.00  0.00    -0.458 OA
BRANCH  35  36
ATOM     36  C   UNL     1       2.205  -6.808  -0.020  1.00  0.00     0.338 C 
ATOM     37  O   UNL     1       3.277  -6.314  -0.234  1.00  0.00    -0.246 OA
BRANCH  36  38
ATOM     38  C   UNL     1       1.759  -7.310   1.312  1.00  0.00     0.060 A 
ATOM     39  C   UNL     1       1.053  -8.506   1.468  1.00  0.00     0.016 A 
ATOM     40  C   UNL     1       1.942  -6.471   2.411  1.00  0.00     0.016 A 
ATOM     41  C   UNL     1       0.478  -8.824   2.712  1.00  0.00     0.010 A 
ATOM     42  C   UNL     1       1.315  -6.767   3.629  1.00  0.00     0.010 A 
ATOM     43  C   UNL     1       0.555  -7.937   3.806  1.00  0.00    -0.014 A 
BRANCH  43  44
ATOM     44  C   UNL     1      -0.026  -8.296   5.146  1.00  0.00     0.031 A 
ATOM     45  C   UNL     1       0.343  -7.395   6.308  1.00  0.00     0.074 A 
ATOM     46  C   UNL     1      -1.170  -9.012   5.276  1.00  0.00     0.049 A 
ATOM     47  N   UNL     1      -0.303  -6.325   6.687  1.00  0.00    -0.248 NA
ATOM     48  C   UNL     1       1.654  -7.541   6.947  1.00  0.00     0.031 C 
ATOM     49  C   UNL     1      -2.397  -8.673   4.552  1.00  0.00     0.029 A 
ATOM     50  N   UNL     1      -1.594  -9.910   6.238  1.00  0.00    -0.354 N 
ATOM     51  C   UNL     1       0.515  -5.638   7.582  1.00  0.00     0.074 A 
ATOM     52  C   UNL     1       1.726  -6.427   7.689  1.00  0.00     0.031 C 
ATOM     53  C   UNL     1      -3.455  -9.230   5.172  1.00  0.00     0.029 A 
ATOM     54  C   UNL     1      -2.984 -10.069   6.269  1.00  0.00     0.049 A 
ATOM     55  H   UNL     1      -0.980 -10.389   6.841  1.00  0.00     0.167 HD
ATOM     56  C   UNL     1       0.193  -4.479   8.230  1.00  0.00     0.034 A 
ATOM     57  C   UNL     1      -3.725 -10.410   7.366  1.00  0.00     0.034 A 
ATOM     58  C   UNL     1      -1.138  -3.970   8.057  1.00  0.00     0.049 A 
ATOM     59  C   UNL     1      -3.841  -9.062   8.041  1.00  0.00     0.074 A 
ATOM     60  C   UNL     1      -1.778  -2.830   7.624  1.00  0.00     0.029 A 
ATOM     61  N   UNL     1      -2.176  -4.642   8.647  1.00  0.00    -0.354 N 
ATOM     62  N   UNL     1      -4.624  -8.068   7.701  1.00  0.00    -0.248 NA
ATOM     63  C   UNL     1      -2.688  -8.698   8.860  1.00  0.00     0.031 C 
ATOM     64  C   UNL     1      -3.147  -3.217   7.402  1.00  0.00     0.029 A 
ATOM     65  C   UNL     1      -3.276  -4.534   7.835  1.00  0.00     0.049 A 
ATOM     66  H   UNL     1      -2.139  -5.119   9.507  1.00  0.00     0.167 HD
ATOM     67  C   UNL     1      -3.900  -6.912   8.019  1.00  0.00     0.074 A 
ATOM     68  C   UNL     1      -2.692  -7.394   8.661  1.00  0.00     0.031 C 
ATOM     69  C   UNL     1      -4.207  -5.632   7.641  1.00  0.00     0.034 A 
BRANCH  56  70
ATOM     70  C   UNL     1       1.050  -3.860   9.279  1.00  0.00     0.023 A 
ATOM     71  C   UNL     1       0.668  -4.124  10.610  1.00  0.00     0.012 A 
ATOM     72  C   UNL     1       2.073  -2.926   9.028  1.00  0.00     0.148 A 
ATOM     73  C   UNL     1       1.252  -3.448  11.675  1.00  0.00     0.002 A 
ATOM     74  C   UNL     1       2.664  -2.259  10.103  1.00  0.00     0.091 A 
ATOM     75  F   UNL     1       2.426  -2.681   7.758  1.00  0.00    -0.205 F 
ATOM     76  C   UNL     1       2.244  -2.511  11.422  1.00  0.00     0.022 A 
BRANCH  74  77
ATOM     77  S   UNL     1       3.965  -1.029   9.925  1.00  0.00     0.127 S 
ATOM     78  O   UNL     1       3.332   0.168  10.477  1.00  0.00    -0.237 OA
ATOM     79  O   UNL     1       5.027  -1.594  10.758  1.00  0.00    -0.237 OA
ATOM     80  O   UNL     1       4.272  -0.972   8.502  1.00  0.00    -0.744 OA
ENDBRANCH  74  77
ENDBRANCH  56  70
BRANCH  57  81
ATOM     81  C   UNL     1      -3.291 -11.661   8.084  1.00  0.00     0.023 A 
ATOM     82  C   UNL     1      -3.167 -12.828   7.293  1.00  0.00     0.012 A 
ATOM     83  C   UNL     1      -2.960 -11.771   9.449  1.00  0.00     0.148 A 
ATOM     84  C   UNL     1      -2.615 -14.007   7.799  1.00  0.00     0.002 A 
ATOM     85  C   UNL     1      -2.324 -12.915   9.928  1.00  0.00     0.091 A 
ATOM     86  F   UNL     1      -3.263 -10.769  10.281  1.00  0.00    -0.205 F 
ATOM     87  C   UNL     1      -2.150 -14.036   9.106  1.00  0.00     0.022 A 
BRANCH  85  88
ATOM     88  S   UNL     1      -1.563 -12.986  11.557  1.00  0.00     0.127 S 
ATOM     89  O   UNL     1      -2.158 -14.197  12.119  1.00  0.00    -0.237 OA
ATOM     90  O   UNL     1      -0.148 -13.098  11.206  1.00  0.00    -0.237 OA
ATOM     91  O   UNL     1      -1.936 -11.746  12.222  1.00  0.00    -0.744 OA
ENDBRANCH  85  88
ENDBRANCH  57  81
BRANCH  69  92
ATOM     92  C   UNL     1      -5.498  -5.415   6.892  1.00  0.00     0.023 A 
ATOM     93  C   UNL     1      -6.717  -5.660   7.546  1.00  0.00     0.012 A 
ATOM     94  C   UNL     1      -5.542  -4.915   5.571  1.00  0.00     0.148 A 
ATOM     95  C   UNL     1      -7.938  -5.421   6.909  1.00  0.00     0.002 A 
ATOM     96  C   UNL     1      -6.760  -4.686   4.931  1.00  0.00     0.091 A 
ATOM     97  F   UNL     1      -4.390  -4.640   4.963  1.00  0.00    -0.205 F 
ATOM     98  C   UNL     1      -7.960  -4.938   5.604  1.00  0.00     0.022 A 
BRANCH  96  99
ATOM     99  S   UNL     1      -6.917  -4.062   3.249  1.00  0.00     0.127 S 
ATOM    100  O   UNL     1      -7.753  -5.083   2.615  1.00  0.00    -0.237 OA
ATOM    101  O   UNL     1      -7.582  -2.776   3.455  1.00  0.00    -0.237 OA
ATOM    102  O   UNL     1      -5.573  -3.971   2.705  1.00  0.00    -0.744 OA
ENDBRANCH  96  99
ENDBRANCH  69  92
ENDBRANCH  43  44
ENDBRANCH  36  38
ENDBRANCH  35  36
ENDBRANCH  34  35
ENDBRANCH   1  34
TORSDOF 17
