REMARK SMILES Cc1[nH]c2ccccc2c1[C@@H](C(=O)OCCOC(=O)c1ccc(-c2c3nc(c(-c4cccc(S(=O)(=O)[O-])c4F)c4ccc([nH]4)c(-c4cccc(S(=O)(=O)[O-])c4F)c4nc(c(-c5cccc(S(=O)(=O)[O-])c5F)c5ccc2[nH]5)C=C4)C=C3)cc1)[NH+]1CCCC1
REMARK SMILES IDX 16 1 15 2 14 3 12 4 13 5 11 6 10 7 1 8 2 9 3 10 4 11 9 13
REMARK SMILES IDX 5 14 8 15 6 16 7 17 83 18 84 19 87 20 85 22 86 23 17 24
REMARK SMILES IDX 18 25 19 26 20 27 21 28 82 29 22 30 81 31 23 32 24 33 25 34
REMARK SMILES IDX 75 35 26 36 80 37 74 38 76 39 27 40 79 41 73 42 72 43 28 45
REMARK SMILES IDX 60 46 40 47 59 48 41 49 44 50 58 51 77 52 42 53 43 54 57 56
REMARK SMILES IDX 78 57 45 58 29 59 30 60 38 61 31 62 33 63 39 64 32 65 34 66
REMARK SMILES IDX 35 67 36 68 37 69 61 70 62 71 70 72 63 73 65 74 71 75 64 76
REMARK SMILES IDX 66 77 67 78 68 79 69 80 46 81 47 82 55 83 48 84 50 85 56 86
REMARK SMILES IDX 49 87 51 88 52 89 53 90 54 91
REMARK H PARENT 3 12 83 21 76 44 44 55
REMARK Flexibility Score: inf
ROOT
ATOM      1  C   UNL     1       0.365  -4.154  -3.414  1.00  0.00     0.275 C 
ENDROOT
BRANCH   1   2
ATOM      2  C   UNL     1      -1.004  -3.511  -3.207  1.00  0.00     0.274 C 
BRANCH   2   3
ATOM      3  O   UNL     1      -1.001  -2.585  -2.101  1.00  0.00    -0.457 OA
BRANCH   3   4
ATOM      4  C   UNL     1      -1.460  -3.088  -0.917  1.00  0.00     0.370 C 
ATOM      5  O   UNL     1      -1.798  -4.264  -0.781  1.00  0.00    -0.245 OA
BRANCH   4   6
ATOM      6  C   UNL     1      -1.714  -2.022   0.162  1.00  0.00     0.328 C 
BRANCH   6   7
ATOM      7  C   UNL     1      -1.227  -0.610  -0.099  1.00  0.00     0.049 A 
ATOM      8  C   UNL     1      -3.544   0.637  -0.107  1.00  0.00     0.065 C 
ATOM      9  C   UNL     1      -2.064   0.506  -0.166  1.00  0.00     0.022 A 
ATOM     10  N   UNL     1      -1.276   1.622  -0.251  1.00  0.00    -0.358 N 
ATOM     11  C   UNL     1       0.050   1.279  -0.289  1.00  0.00     0.046 A 
ATOM     12  H   UNL     1      -1.615   2.545  -0.281  1.00  0.00     0.166 HD
ATOM     13  C   UNL     1       0.117  -0.115  -0.293  1.00  0.00     0.009 A 
ATOM     14  C   UNL     1       1.180   2.106  -0.315  1.00  0.00     0.027 A 
ATOM     15  C   UNL     1       1.398  -0.700  -0.416  1.00  0.00     0.011 A 
ATOM     16  C   UNL     1       2.433   1.494  -0.364  1.00  0.00     0.002 A 
ATOM     17  C   UNL     1       2.542   0.110  -0.432  1.00  0.00     0.001 A 
ENDBRANCH   6   7
BRANCH   6  18
ATOM     18  N   UNL     1      -1.468  -2.534   1.536  1.00  0.00    -0.319 N 
ATOM     19  C   UNL     1      -2.245  -1.889   2.591  1.00  0.00     0.263 C 
ATOM     20  C   UNL     1      -0.101  -2.576   2.038  1.00  0.00     0.263 C 
ATOM     21  H   UNL     1      -1.772  -3.490   1.354  1.00  0.00     0.349 HD
ATOM     22  C   UNL     1      -1.320  -0.869   3.234  1.00  0.00     0.067 C 
ATOM     23  C   UNL     1       0.084  -1.382   2.963  1.00  0.00     0.067 C 
ENDBRANCH   6  18
ENDBRANCH   4   6
ENDBRANCH   3   4
ENDBRANCH   2   3
ENDBRANCH   1   2
BRANCH   1  24
ATOM     24  O   UNL     1       0.759  -4.847  -2.221  1.00  0.00    -0.458 OA
BRANCH  24  25
ATOM     25  C   UNL     1       2.016  -4.608  -1.779  1.00  0.00     0.338 C 
ATOM     26  O   UNL     1       2.880  -3.979  -2.367  1.00  0.00    -0.246 OA
BRANCH  25  27
ATOM     27  C   UNL     1       2.207  -5.163  -0.414  1.00  0.00     0.060 A 
ATOM     28  C   UNL     1       1.132  -5.373   0.445  1.00  0.00     0.016 A 
ATOM     29  C   UNL     1       3.505  -5.365   0.061  1.00  0.00     0.016 A 
ATOM     30  C   UNL     1       1.356  -5.664   1.792  1.00  0.00     0.010 A 
ATOM     31  C   UNL     1       3.718  -5.754   1.392  1.00  0.00     0.010 A 
ATOM     32  C   UNL     1       2.650  -5.856   2.297  1.00  0.00    -0.014 A 
BRANCH  32  33
ATOM     33  C   UNL     1       2.881  -6.116   3.755  1.00  0.00     0.031 A 
ATOM     34  C   UNL     1       3.889  -5.302   4.537  1.00  0.00     0.074 A 
ATOM     35  C   UNL     1       2.194  -7.080   4.406  1.00  0.00     0.049 A 
ATOM     36  N   UNL     1       4.382  -5.523   5.731  1.00  0.00    -0.248 NA
ATOM     37  C   UNL     1       4.431  -4.097   3.889  1.00  0.00     0.031 C 
ATOM     38  C   UNL     1       1.180  -7.949   3.810  1.00  0.00     0.029 A 
ATOM     39  N   UNL     1       2.244  -7.489   5.719  1.00  0.00    -0.354 N 
ATOM     40  C   UNL     1       5.364  -4.557   5.928  1.00  0.00     0.074 A 
ATOM     41  C   UNL     1       5.377  -3.727   4.743  1.00  0.00     0.031 C 
ATOM     42  C   UNL     1       0.662  -8.742   4.758  1.00  0.00     0.029 A 
ATOM     43  C   UNL     1       1.381  -8.522   6.007  1.00  0.00     0.049 A 
ATOM     44  H   UNL     1       2.841  -7.083   6.388  1.00  0.00     0.167 HD
ATOM     45  C   UNL     1       6.176  -4.374   6.998  1.00  0.00     0.034 A 
ATOM     46  C   UNL     1       1.207  -9.250   7.128  1.00  0.00     0.034 A 
ATOM     47  C   UNL     1       6.082  -5.114   8.230  1.00  0.00     0.049 A 
ATOM     48  C   UNL     1       2.069  -8.980   8.326  1.00  0.00     0.074 A 
ATOM     49  C   UNL     1       6.838  -4.966   9.382  1.00  0.00     0.029 A 
ATOM     50  N   UNL     1       5.157  -6.112   8.490  1.00  0.00    -0.354 N 
ATOM     51  N   UNL     1       3.001  -8.073   8.483  1.00  0.00    -0.248 NA
ATOM     52  C   UNL     1       1.859  -9.838   9.501  1.00  0.00     0.031 C 
ATOM     53  C   UNL     1       6.364  -5.869  10.340  1.00  0.00     0.029 A 
ATOM     54  C   UNL     1       5.311  -6.577   9.787  1.00  0.00     0.049 A 
ATOM     55  H   UNL     1       4.488  -6.443   7.848  1.00  0.00     0.167 HD
ATOM     56  C   UNL     1       3.490  -8.251   9.771  1.00  0.00     0.074 A 
ATOM     57  C   UNL     1       2.720  -9.322  10.368  1.00  0.00     0.031 C 
ATOM     58  C   UNL     1       4.512  -7.611  10.389  1.00  0.00     0.034 A 
BRANCH  45  59
ATOM     59  C   UNL     1       7.231  -3.300   6.914  1.00  0.00     0.023 A 
ATOM     60  C   UNL     1       6.869  -1.948   7.064  1.00  0.00     0.012 A 
ATOM     61  C   UNL     1       8.594  -3.642   6.790  1.00  0.00     0.148 A 
ATOM     62  C   UNL     1       7.845  -0.950   7.072  1.00  0.00     0.002 A 
ATOM     63  C   UNL     1       9.563  -2.646   6.841  1.00  0.00     0.091 A 
ATOM     64  F   UNL     1       8.918  -4.932   6.624  1.00  0.00    -0.205 F 
ATOM     65  C   UNL     1       9.190  -1.299   6.975  1.00  0.00     0.022 A 
BRANCH  63  66
ATOM     66  S   UNL     1      11.322  -3.016   6.815  1.00  0.00     0.127 S 
ATOM     67  O   UNL     1      11.673  -2.689   5.434  1.00  0.00    -0.237 OA
ATOM     68  O   UNL     1      11.853  -2.088   7.814  1.00  0.00    -0.237 OA
ATOM     69  O   UNL     1      11.435  -4.421   7.180  1.00  0.00    -0.744 OA
ENDBRANCH  63  66
ENDBRANCH  45  59
BRANCH  46  70
ATOM     70  C   UNL     1       0.153 -10.304   7.158  1.00  0.00     0.023 A 
ATOM     71  C   UNL     1      -0.993 -10.113   7.954  1.00  0.00     0.012 A 
ATOM     72  C   UNL     1       0.236 -11.447   6.341  1.00  0.00     0.148 A 
ATOM     73  C   UNL     1      -2.034 -11.042   7.934  1.00  0.00     0.002 A 
ATOM     74  C   UNL     1      -0.836 -12.327   6.268  1.00  0.00     0.091 A 
ATOM     75  F   UNL     1       1.351 -11.637   5.619  1.00  0.00    -0.205 F 
ATOM     76  C   UNL     1      -1.966 -12.136   7.075  1.00  0.00     0.022 A 
BRANCH  74  77
ATOM     77  S   UNL     1      -0.885 -13.636   5.038  1.00  0.00     0.127 S 
ATOM     78  O   UNL     1      -0.421 -14.789   5.803  1.00  0.00    -0.237 OA
ATOM     79  O   UNL     1      -2.302 -13.670   4.671  1.00  0.00    -0.237 OA
ATOM     80  O   UNL     1      -0.010 -13.178   3.966  1.00  0.00    -0.744 OA
ENDBRANCH  74  77
ENDBRANCH  46  70
BRANCH  58  81
ATOM     81  C   UNL     1       4.856  -8.053  11.785  1.00  0.00     0.023 A 
ATOM     82  C   UNL     1       5.551  -9.264  11.972  1.00  0.00     0.012 A 
ATOM     83  C   UNL     1       4.526  -7.265  12.904  1.00  0.00     0.148 A 
ATOM     84  C   UNL     1       5.882  -9.703  13.254  1.00  0.00     0.002 A 
ATOM     85  C   UNL     1       4.890  -7.692  14.177  1.00  0.00     0.091 A 
ATOM     86  F   UNL     1       3.844  -6.127  12.711  1.00  0.00    -0.205 F 
ATOM     87  C   UNL     1       5.559  -8.913  14.355  1.00  0.00     0.022 A 
BRANCH  85  88
ATOM     88  S   UNL     1       4.567  -6.694  15.636  1.00  0.00     0.127 S 
ATOM     89  O   UNL     1       3.322  -7.277  16.130  1.00  0.00    -0.237 OA
ATOM     90  O   UNL     1       5.739  -6.962  16.473  1.00  0.00    -0.237 OA
ATOM     91  O   UNL     1       4.480  -5.321  15.156  1.00  0.00    -0.744 OA
ENDBRANCH  85  88
ENDBRANCH  58  81
ENDBRANCH  32  33
ENDBRANCH  25  27
ENDBRANCH  24  25
ENDBRANCH   1  24
TORSDOF 16
