REMARK SMILES Cc1c(C(=O)OCCOC(=O)c2ccc(-c3c4nc(c(-c5cccc(S(=O)(=O)[O-])c5F)c5ccc([nH]5)c(-c5cccc(S(=O)(=O)[O-])c5F)c5nc(c(-c6cccc(S(=O)(=O)[O-])c6F)c6ccc3[nH]6)C=C5)C=C4)cc2)ccc2c1N[C@@H](c1ccc(S(=O)(=O)N3CCOCC3)cc1)[C@@H]1CC=C[C@H]21
REMARK SMILES IDX 7 1 6 2 4 3 5 4 3 5 1 6 2 7 78 8 75 9 77 10 79 11 76 12
REMARK SMILES IDX 100 13 80 14 96 16 99 17 97 18 98 19 81 20 82 21 95 22 83 23
REMARK SMILES IDX 94 24 84 25 85 26 86 27 87 28 88 29 89 30 93 31 90 32 92 33
REMARK SMILES IDX 91 34 8 35 9 36 10 37 11 38 12 39 13 40 74 41 14 42 73 43
REMARK SMILES IDX 15 44 16 45 17 46 67 47 18 48 72 49 66 50 68 51 19 52 71 53
REMARK SMILES IDX 65 54 64 55 20 57 52 58 32 59 51 60 33 61 36 62 50 63 69 64
REMARK SMILES IDX 34 65 35 66 49 68 70 69 37 70 21 71 22 72 30 73 23 74 25 75
REMARK SMILES IDX 31 76 24 77 26 78 27 79 28 80 29 81 53 82 54 83 62 84 55 85
REMARK SMILES IDX 57 86 63 87 56 88 58 89 59 90 60 91 61 92 38 93 39 94 47 95
REMARK SMILES IDX 40 96 42 97 48 98 41 99 43 100 44 101 45 102 46 103
REMARK H PARENT 79 15 68 56 36 67
REMARK Flexibility Score: inf
ROOT
ATOM      1  C   UNL     1       1.337  -3.160  -2.356  1.00  0.00     0.275 C 
ENDROOT
BRANCH   1   2
ATOM      2  O   UNL     1       1.145  -2.420  -1.137  1.00  0.00    -0.458 OA
BRANCH   2   3
ATOM      3  C   UNL     1       0.005  -2.672  -0.452  1.00  0.00     0.338 C 
ATOM      4  O   UNL     1      -0.872  -3.463  -0.757  1.00  0.00    -0.246 OA
BRANCH   3   5
ATOM      5  C   UNL     1      -0.017  -1.895   0.808  1.00  0.00     0.065 A 
ATOM      6  C   UNL     1       0.578   0.253  -0.400  1.00  0.00     0.047 C 
ATOM      7  C   UNL     1       0.239  -0.510   0.857  1.00  0.00    -0.013 A 
ATOM      8  C   UNL     1       0.164   0.151   2.106  1.00  0.00     0.042 A 
ATOM      9  C   UNL     1      -0.392  -2.589   1.964  1.00  0.00     0.016 A 
ATOM     10  C   UNL     1      -0.242  -0.560   3.252  1.00  0.00    -0.017 A 
ATOM     11  N   UNL     1       0.354   1.520   2.172  1.00  0.00    -0.377 N 
ATOM     12  C   UNL     1      -0.483  -1.935   3.181  1.00  0.00     0.007 A 
ATOM     13  C   UNL     1      -0.528   0.137   4.550  1.00  0.00     0.049 C 
ATOM     14  C   UNL     1       0.326   2.234   3.433  1.00  0.00     0.114 C 
ATOM     15  H   UNL     1       0.512   2.023   1.341  1.00  0.00     0.161 HD
ATOM     16  C   UNL     1      -0.711   1.657   4.422  1.00  0.00     0.031 C 
ATOM     17  C   UNL     1       0.529   0.039   5.617  1.00  0.00    -0.023 C 
ATOM     18  C   UNL     1      -0.486   2.124   5.877  1.00  0.00     0.034 C 
ATOM     19  C   UNL     1       0.536   1.146   6.372  1.00  0.00    -0.030 C 
BRANCH  14  20
ATOM     20  C   UNL     1       0.063   3.700   3.128  1.00  0.00    -0.025 A 
ATOM     21  C   UNL     1      -0.760   4.145   2.073  1.00  0.00     0.007 A 
ATOM     22  C   UNL     1       0.669   4.649   3.948  1.00  0.00     0.007 A 
ATOM     23  C   UNL     1      -0.978   5.513   1.856  1.00  0.00     0.022 A 
ATOM     24  C   UNL     1       0.431   5.995   3.744  1.00  0.00     0.022 A 
ATOM     25  C   UNL     1      -0.383   6.439   2.712  1.00  0.00     0.082 A 
BRANCH  25  26
ATOM     26  S   UNL     1      -0.683   8.177   2.500  1.00  0.00     0.243 S 
ATOM     27  O   UNL     1       0.234   8.632   1.479  1.00  0.00    -0.207 OA
ATOM     28  O   UNL     1      -2.116   8.337   2.362  1.00  0.00    -0.207 OA
BRANCH  26  29
ATOM     29  N   UNL     1      -0.233   8.882   3.960  1.00  0.00    -0.193 NA
ATOM     30  C   UNL     1       1.155   9.325   4.231  1.00  0.00     0.131 C 
ATOM     31  C   UNL     1      -1.154   8.929   5.112  1.00  0.00     0.131 C 
ATOM     32  C   UNL     1       1.686   8.824   5.588  1.00  0.00     0.177 C 
ATOM     33  C   UNL     1      -0.502   8.319   6.353  1.00  0.00     0.177 C 
ATOM     34  O   UNL     1       0.741   8.968   6.653  1.00  0.00    -0.379 OA
ENDBRANCH  26  29
ENDBRANCH  25  26
ENDBRANCH  14  20
ENDBRANCH   3   5
ENDBRANCH   2   3
ENDBRANCH   1   2
BRANCH   1  35
ATOM     35  C   UNL     1       2.502  -4.128  -2.193  1.00  0.00     0.275 C 
BRANCH  35  36
ATOM     36  O   UNL     1       2.148  -5.137  -1.233  1.00  0.00    -0.458 OA
BRANCH  36  37
ATOM     37  C   UNL     1       2.734  -5.018  -0.021  1.00  0.00     0.338 C 
ATOM     38  O   UNL     1       3.594  -4.223   0.317  1.00  0.00    -0.246 OA
BRANCH  37  39
ATOM     39  C   UNL     1       2.144  -6.003   0.896  1.00  0.00     0.060 A 
ATOM     40  C   UNL     1       0.797  -5.902   1.233  1.00  0.00     0.016 A 
ATOM     41  C   UNL     1       2.956  -6.950   1.515  1.00  0.00     0.016 A 
ATOM     42  C   UNL     1       0.285  -6.658   2.284  1.00  0.00     0.010 A 
ATOM     43  C   UNL     1       2.408  -7.793   2.486  1.00  0.00     0.010 A 
ATOM     44  C   UNL     1       1.081  -7.623   2.920  1.00  0.00    -0.014 A 
BRANCH  44  45
ATOM     45  C   UNL     1       0.538  -8.425   4.053  1.00  0.00     0.031 A 
ATOM     46  C   UNL     1       1.220  -8.397   5.399  1.00  0.00     0.074 A 
ATOM     47  C   UNL     1      -0.568  -9.178   3.881  1.00  0.00     0.049 A 
ATOM     48  N   UNL     1       0.968  -9.114   6.463  1.00  0.00    -0.248 NA
ATOM     49  C   UNL     1       2.338  -7.452   5.572  1.00  0.00     0.031 C 
ATOM     50  C   UNL     1      -1.330  -9.294   2.635  1.00  0.00     0.029 A 
ATOM     51  N   UNL     1      -1.248  -9.990   4.757  1.00  0.00    -0.354 N 
ATOM     52  C   UNL     1       1.932  -8.760   7.400  1.00  0.00     0.074 A 
ATOM     53  C   UNL     1       2.774  -7.759   6.786  1.00  0.00     0.031 C 
ATOM     54  C   UNL     1      -2.390 -10.090   2.837  1.00  0.00     0.029 A 
ATOM     55  C   UNL     1      -2.349 -10.601   4.202  1.00  0.00     0.049 A 
ATOM     56  H   UNL     1      -0.973 -10.122   5.693  1.00  0.00     0.167 HD
ATOM     57  C   UNL     1       2.088  -9.211   8.666  1.00  0.00     0.034 A 
ATOM     58  C   UNL     1      -3.218 -11.492   4.720  1.00  0.00     0.034 A 
ATOM     59  C   UNL     1       1.196 -10.133   9.311  1.00  0.00     0.049 A 
ATOM     60  C   UNL     1      -3.029 -11.967   6.131  1.00  0.00     0.074 A 
ATOM     61  C   UNL     1       1.244 -10.601  10.612  1.00  0.00     0.029 A 
ATOM     62  N   UNL     1       0.087 -10.709   8.714  1.00  0.00    -0.354 N 
ATOM     63  N   UNL     1      -2.134 -11.588   7.010  1.00  0.00    -0.248 NA
ATOM     64  C   UNL     1      -3.963 -12.989   6.626  1.00  0.00     0.031 C 
ATOM     65  C   UNL     1       0.162 -11.462  10.803  1.00  0.00     0.029 A 
ATOM     66  C   UNL     1      -0.558 -11.528   9.621  1.00  0.00     0.049 A 
ATOM     67  H   UNL     1      -0.198 -10.558   7.784  1.00  0.00     0.167 HD
ATOM     68  C   UNL     1      -2.402 -12.315   8.163  1.00  0.00     0.074 A 
ATOM     69  C   UNL     1      -3.554 -13.145   7.880  1.00  0.00     0.031 C 
ATOM     70  C   UNL     1      -1.736 -12.307   9.341  1.00  0.00     0.034 A 
BRANCH  57  71
ATOM     71  C   UNL     1       3.236  -8.676   9.478  1.00  0.00     0.023 A 
ATOM     72  C   UNL     1       3.117  -7.413  10.090  1.00  0.00     0.012 A 
ATOM     73  C   UNL     1       4.374  -9.467   9.728  1.00  0.00     0.148 A 
ATOM     74  C   UNL     1       4.121  -6.939  10.933  1.00  0.00     0.002 A 
ATOM     75  C   UNL     1       5.358  -9.000  10.592  1.00  0.00     0.091 A 
ATOM     76  F   UNL     1       4.465 -10.662   9.128  1.00  0.00    -0.205 F 
ATOM     77  C   UNL     1       5.234  -7.735  11.191  1.00  0.00     0.022 A 
BRANCH  75  78
ATOM     78  S   UNL     1       6.806  -9.965  11.037  1.00  0.00     0.127 S 
ATOM     79  O   UNL     1       7.886  -9.145  10.489  1.00  0.00    -0.237 OA
ATOM     80  O   UNL     1       6.729  -9.976  12.498  1.00  0.00    -0.237 OA
ATOM     81  O   UNL     1       6.637 -11.265  10.403  1.00  0.00    -0.744 OA
ENDBRANCH  75  78
ENDBRANCH  57  71
BRANCH  58  82
ATOM     82  C   UNL     1      -4.367 -11.957   3.895  1.00  0.00     0.023 A 
ATOM     83  C   UNL     1      -5.656 -11.468   4.181  1.00  0.00     0.012 A 
ATOM     84  C   UNL     1      -4.182 -12.809   2.789  1.00  0.00     0.148 A 
ATOM     85  C   UNL     1      -6.742 -11.822   3.381  1.00  0.00     0.002 A 
ATOM     86  C   UNL     1      -5.261 -13.123   1.970  1.00  0.00     0.091 A 
ATOM     87  F   UNL     1      -2.947 -13.268   2.543  1.00  0.00    -0.205 F 
ATOM     88  C   UNL     1      -6.543 -12.638   2.270  1.00  0.00     0.022 A 
BRANCH  86  89
ATOM     89  S   UNL     1      -5.084 -14.074   0.457  1.00  0.00     0.127 S 
ATOM     90  O   UNL     1      -5.822 -15.292   0.781  1.00  0.00    -0.237 OA
ATOM     91  O   UNL     1      -5.733 -13.202  -0.523  1.00  0.00    -0.237 OA
ATOM     92  O   UNL     1      -3.651 -14.242   0.259  1.00  0.00    -0.744 OA
ENDBRANCH  86  89
ENDBRANCH  58  82
BRANCH  70  93
ATOM     93  C   UNL     1      -2.216 -13.211  10.440  1.00  0.00     0.023 A 
ATOM     94  C   UNL     1      -1.807 -14.558  10.441  1.00  0.00     0.012 A 
ATOM     95  C   UNL     1      -2.906 -12.687  11.550  1.00  0.00     0.148 A 
ATOM     96  C   UNL     1      -2.073 -15.372  11.540  1.00  0.00     0.002 A 
ATOM     97  C   UNL     1      -3.139 -13.495  12.654  1.00  0.00     0.091 A 
ATOM     98  F   UNL     1      -3.278 -11.399  11.518  1.00  0.00    -0.205 F 
ATOM     99  C   UNL     1      -2.725 -14.838  12.650  1.00  0.00     0.022 A 
BRANCH  97 100
ATOM    100  S   UNL     1      -3.898 -12.884  14.163  1.00  0.00     0.127 S 
ATOM    101  O   UNL     1      -5.089 -13.727  14.261  1.00  0.00    -0.237 OA
ATOM    102  O   UNL     1      -2.866 -13.166  15.160  1.00  0.00    -0.237 OA
ATOM    103  O   UNL     1      -4.165 -11.470  13.939  1.00  0.00    -0.744 OA
ENDBRANCH  97 100
ENDBRANCH  70  93
ENDBRANCH  44  45
ENDBRANCH  37  39
ENDBRANCH  36  37
ENDBRANCH  35  36
ENDBRANCH   1  35
TORSDOF 17
