REMARK SMILES [NH3+]C1CC[NH+](CC(=O)N2CCO[C@H](CC(=O)OCCOC(=O)c3ccc(-c4c5nc(c(-c6cccc(S(=O)(=O)[O-])c6F)c6ccc([nH]6)c(-c6cccc(S(=O)(=O)[O-])c6F)c6nc(c(-c7cccc(S(=O)(=O)[O-])c7F)c7ccc4[nH]7)C=C6)C=C5)cc3)C2)CC1
REMARK SMILES IDX 18 1 17 2 15 3 16 4 14 5 13 6 9 7 10 8 86 9 11 10 12 11 7 12
REMARK SMILES IDX 8 13 6 14 5 15 2 16 3 17 88 18 4 19 87 20 1 22 19 26 20 27
REMARK SMILES IDX 21 28 22 29 23 30 24 31 85 32 25 33 84 34 26 35 27 36 28 37
REMARK SMILES IDX 78 38 29 39 83 40 77 41 79 42 30 43 82 44 76 45 75 46 31 48
REMARK SMILES IDX 63 49 43 50 62 51 44 52 47 53 61 54 80 55 45 56 46 57 60 59
REMARK SMILES IDX 81 60 48 61 32 62 33 63 41 64 34 65 36 66 42 67 35 68 37 69
REMARK SMILES IDX 38 70 39 71 40 72 64 73 65 74 73 75 66 76 68 77 74 78 67 79
REMARK SMILES IDX 69 80 70 81 71 82 72 83 49 84 50 85 58 86 51 87 53 88 59 89
REMARK SMILES IDX 52 90 54 91 55 92 56 93 57 94
REMARK H PARENT 5 21 1 23 1 24 1 25 79 47 47 58
REMARK Flexibility Score: inf
ROOT
ATOM      1  C   UNL     1       3.589  -7.649  -3.426  1.00  0.00     0.274 C 
ENDROOT
BRANCH   1   2
ATOM      2  O   UNL     1       2.874  -7.037  -2.340  1.00  0.00    -0.462 OA
BRANCH   2   3
ATOM      3  C   UNL     1       3.267  -5.783  -2.015  1.00  0.00     0.308 C 
ATOM      4  O   UNL     1       4.229  -5.196  -2.496  1.00  0.00    -0.252 OA
BRANCH   3   5
ATOM      5  C   UNL     1       2.420  -5.175  -0.937  1.00  0.00     0.156 C 
BRANCH   5   6
ATOM      6  C   UNL     1       0.909  -5.392  -1.114  1.00  0.00     0.148 C 
ATOM      7  N   UNL     1      -1.198  -3.993  -0.739  1.00  0.00    -0.333 N 
ATOM      8  C   UNL     1      -1.627  -5.016   0.212  1.00  0.00     0.148 C 
ATOM      9  C   UNL     1       0.221  -4.015  -1.060  1.00  0.00     0.152 C 
ATOM     10  C   UNL     1      -0.973  -6.367  -0.076  1.00  0.00     0.182 C 
ATOM     11  O   UNL     1       0.456  -6.240  -0.039  1.00  0.00    -0.374 OA
BRANCH   7  12
ATOM     12  C   UNL     1      -1.939  -2.807  -0.804  1.00  0.00     0.277 C 
ATOM     13  O   UNL     1      -2.853  -2.585  -0.003  1.00  0.00    -0.268 OA
BRANCH  12  14
ATOM     14  C   UNL     1      -1.669  -1.841  -1.973  1.00  0.00     0.363 C 
BRANCH  14  15
ATOM     15  N   UNL     1      -0.951  -0.601  -1.666  1.00  0.00    -0.327 N 
ATOM     16  C   UNL     1       0.528   0.341   0.712  1.00  0.00     0.192 C 
ATOM     17  C   UNL     1      -1.005   0.315   0.659  1.00  0.00     0.126 C 
ATOM     18  C   UNL     1       1.105  -0.682  -0.264  1.00  0.00     0.126 C 
ATOM     19  C   UNL     1      -1.569   0.357  -0.762  1.00  0.00     0.268 C 
ATOM     20  C   UNL     1       0.498  -0.598  -1.663  1.00  0.00     0.268 C 
ATOM     21  H   UNL     1      -1.139  -0.193  -2.581  1.00  0.00     0.348 HD
BRANCH  16  22
ATOM     22  N   UNL     1       1.075   1.677   0.468  1.00  0.00    -0.355 N 
ATOM     23  H   UNL     1       0.671   2.336   1.134  1.00  0.00     0.344 HD
ATOM     24  H   UNL     1       0.845   1.970  -0.482  1.00  0.00     0.344 HD
ATOM     25  H   UNL     1       2.088   1.656   0.582  1.00  0.00     0.344 HD
ENDBRANCH  16  22
ENDBRANCH  14  15
ENDBRANCH  12  14
ENDBRANCH   7  12
ENDBRANCH   5   6
ENDBRANCH   3   5
ENDBRANCH   2   3
ENDBRANCH   1   2
BRANCH   1  26
ATOM     26  C   UNL     1       2.862  -7.421  -4.753  1.00  0.00     0.275 C 
BRANCH  26  27
ATOM     27  O   UNL     1       3.075  -6.096  -5.275  1.00  0.00    -0.458 OA
BRANCH  27  28
ATOM     28  C   UNL     1       2.142  -5.166  -4.966  1.00  0.00     0.338 C 
ATOM     29  O   UNL     1       1.153  -5.308  -4.269  1.00  0.00    -0.246 OA
BRANCH  28  30
ATOM     30  C   UNL     1       2.526  -3.871  -5.544  1.00  0.00     0.060 A 
ATOM     31  C   UNL     1       2.812  -2.804  -4.687  1.00  0.00     0.016 A 
ATOM     32  C   UNL     1       2.542  -3.701  -6.929  1.00  0.00     0.016 A 
ATOM     33  C   UNL     1       3.137  -1.556  -5.222  1.00  0.00     0.010 A 
ATOM     34  C   UNL     1       2.878  -2.455  -7.460  1.00  0.00     0.010 A 
ATOM     35  C   UNL     1       3.182  -1.375  -6.613  1.00  0.00    -0.014 A 
BRANCH  35  36
ATOM     36  C   UNL     1       3.614  -0.087  -7.210  1.00  0.00     0.031 A 
ATOM     37  C   UNL     1       2.634   0.785  -7.941  1.00  0.00     0.074 A 
ATOM     38  C   UNL     1       4.920   0.240  -7.182  1.00  0.00     0.049 A 
ATOM     39  N   UNL     1       2.859   1.859  -8.651  1.00  0.00    -0.248 NA
ATOM     40  C   UNL     1       1.217   0.394  -7.869  1.00  0.00     0.031 C 
ATOM     41  C   UNL     1       5.969  -0.541  -6.524  1.00  0.00     0.029 A 
ATOM     42  N   UNL     1       5.594   1.288  -7.758  1.00  0.00    -0.354 N 
ATOM     43  C   UNL     1       1.622   2.257  -9.142  1.00  0.00     0.074 A 
ATOM     44  C   UNL     1       0.648   1.306  -8.647  1.00  0.00     0.031 C 
ATOM     45  C   UNL     1       7.157   0.036  -6.760  1.00  0.00     0.029 A 
ATOM     46  C   UNL     1       6.959   1.200  -7.619  1.00  0.00     0.049 A 
ATOM     47  H   UNL     1       5.144   2.029  -8.225  1.00  0.00     0.167 HD
ATOM     48  C   UNL     1       1.325   3.325  -9.920  1.00  0.00     0.034 A 
ATOM     49  C   UNL     1       7.945   1.946  -8.155  1.00  0.00     0.034 A 
ATOM     50  C   UNL     1       2.292   4.285 -10.384  1.00  0.00     0.049 A 
ATOM     51  C   UNL     1       7.591   3.103  -9.047  1.00  0.00     0.074 A 
ATOM     52  C   UNL     1       2.075   5.445 -11.106  1.00  0.00     0.029 A 
ATOM     53  N   UNL     1       3.661   4.188 -10.189  1.00  0.00    -0.354 N 
ATOM     54  N   UNL     1       6.406   3.546  -9.389  1.00  0.00    -0.248 NA
ATOM     55  C   UNL     1       8.708   3.872  -9.616  1.00  0.00     0.031 C 
ATOM     56  C   UNL     1       3.315   6.039 -11.366  1.00  0.00     0.029 A 
ATOM     57  C   UNL     1       4.304   5.254 -10.797  1.00  0.00     0.049 A 
ATOM     58  H   UNL     1       4.111   3.467  -9.691  1.00  0.00     0.167 HD
ATOM     59  C   UNL     1       6.632   4.655 -10.196  1.00  0.00     0.074 A 
ATOM     60  C   UNL     1       8.068   4.831 -10.272  1.00  0.00     0.031 C 
ATOM     61  C   UNL     1       5.731   5.442 -10.834  1.00  0.00     0.034 A 
BRANCH  48  62
ATOM     62  C   UNL     1      -0.118   3.545 -10.289  1.00  0.00     0.023 A 
ATOM     63  C   UNL     1      -1.006   4.062  -9.324  1.00  0.00     0.012 A 
ATOM     64  C   UNL     1      -0.578   3.312 -11.600  1.00  0.00     0.148 A 
ATOM     65  C   UNL     1      -2.336   4.322  -9.652  1.00  0.00     0.002 A 
ATOM     66  C   UNL     1      -1.897   3.606 -11.928  1.00  0.00     0.091 A 
ATOM     67  F   UNL     1       0.276   2.798 -12.496  1.00  0.00    -0.205 F 
ATOM     68  C   UNL     1      -2.779   4.104 -10.954  1.00  0.00     0.022 A 
BRANCH  66  69
ATOM     69  S   UNL     1      -2.540   3.418 -13.595  1.00  0.00     0.127 S 
ATOM     70  O   UNL     1      -3.335   2.197 -13.469  1.00  0.00    -0.237 OA
ATOM     71  O   UNL     1      -3.326   4.641 -13.766  1.00  0.00    -0.237 OA
ATOM     72  O   UNL     1      -1.374   3.323 -14.462  1.00  0.00    -0.744 OA
ENDBRANCH  66  69
ENDBRANCH  48  62
BRANCH  49  73
ATOM     73  C   UNL     1       9.365   1.626  -7.838  1.00  0.00     0.023 A 
ATOM     74  C   UNL     1      10.095   2.493  -7.003  1.00  0.00     0.012 A 
ATOM     75  C   UNL     1       9.977   0.450  -8.313  1.00  0.00     0.148 A 
ATOM     76  C   UNL     1      11.415   2.202  -6.659  1.00  0.00     0.002 A 
ATOM     77  C   UNL     1      11.274   0.138  -7.922  1.00  0.00     0.091 A 
ATOM     78  F   UNL     1       9.273  -0.351  -9.126  1.00  0.00    -0.205 F 
ATOM     79  C   UNL     1      12.000   1.020  -7.106  1.00  0.00     0.022 A 
BRANCH  77  80
ATOM     80  S   UNL     1      12.052  -1.426  -8.342  1.00  0.00     0.127 S 
ATOM     81  O   UNL     1      13.005  -1.020  -9.371  1.00  0.00    -0.237 OA
ATOM     82  O   UNL     1      12.652  -1.821  -7.067  1.00  0.00    -0.237 OA
ATOM     83  O   UNL     1      10.968  -2.293  -8.784  1.00  0.00    -0.744 OA
ENDBRANCH  77  80
ENDBRANCH  49  73
BRANCH  61  84
ATOM     84  C   UNL     1       6.265   6.571 -11.676  1.00  0.00     0.023 A 
ATOM     85  C   UNL     1       6.835   6.284 -12.932  1.00  0.00     0.012 A 
ATOM     86  C   UNL     1       6.131   7.912 -11.266  1.00  0.00     0.148 A 
ATOM     87  C   UNL     1       7.283   7.313 -13.759  1.00  0.00     0.002 A 
ATOM     88  C   UNL     1       6.543   8.935 -12.113  1.00  0.00     0.091 A 
ATOM     89  F   UNL     1       5.602   8.162 -10.060  1.00  0.00    -0.205 F 
ATOM     90  C   UNL     1       7.127   8.637 -13.356  1.00  0.00     0.022 A 
BRANCH  88  91
ATOM     91  S   UNL     1       6.309  10.672 -11.718  1.00  0.00     0.127 S 
ATOM     92  O   UNL     1       7.681  11.108 -11.464  1.00  0.00    -0.237 OA
ATOM     93  O   UNL     1       5.721  11.195 -12.951  1.00  0.00    -0.237 OA
ATOM     94  O   UNL     1       5.421  10.705 -10.563  1.00  0.00    -0.744 OA
ENDBRANCH  88  91
ENDBRANCH  61  84
ENDBRANCH  35  36
ENDBRANCH  28  30
ENDBRANCH  27  28
ENDBRANCH  26  27
ENDBRANCH   1  26
TORSDOF 19
