REMARK SMILES O=C(Cn1c2ccccc2c(=O)c2cc(F)ccc21)OCCOC(=O)c1ccc(-c2c3nc(c(-c4cccc(S(=O)(=O)[O-])c4F)c4ccc([nH]4)c(-c4cccc(S(=O)(=O)[O-])c4F)c4nc(c(-c5cccc(S(=O)(=O)[O-])c5F)c5ccc2[nH]5)C=C4)C=C3)cc1
REMARK SMILES IDX 22 1 21 2 20 3 2 4 1 5 3 6 4 7 5 8 19 9 6 10 10 11 13 12
REMARK SMILES IDX 18 13 7 14 9 15 11 16 14 17 17 18 8 19 12 20 15 21 16 22
REMARK SMILES IDX 23 23 24 24 25 25 26 26 27 27 88 28 28 29 87 30 29 31 30 32
REMARK SMILES IDX 31 33 81 34 32 35 86 36 80 37 82 38 33 39 85 40 79 41 78 42
REMARK SMILES IDX 34 44 66 45 46 46 65 47 47 48 50 49 64 50 83 51 48 52 49 53
REMARK SMILES IDX 63 55 84 56 51 57 35 58 36 59 44 60 37 61 39 62 45 63 38 64
REMARK SMILES IDX 40 65 41 66 42 67 43 68 67 69 68 70 76 71 69 72 71 73 77 74
REMARK SMILES IDX 70 75 72 76 73 77 74 78 75 79 52 80 53 81 61 82 54 83 56 84
REMARK SMILES IDX 62 85 55 86 57 87 58 88 59 89 60 90
REMARK H PARENT 82 43 50 54
REMARK Flexibility Score: inf
ROOT
ATOM      1  C   UNL     1       3.705   2.496   0.440  1.00  0.00     0.275 C 
ENDROOT
BRANCH   1   2
ATOM      2  C   UNL     1       3.558   1.533  -0.743  1.00  0.00     0.274 C 
BRANCH   2   3
ATOM      3  O   UNL     1       2.365   0.733  -0.669  1.00  0.00    -0.461 OA
BRANCH   3   4
ATOM      4  C   UNL     1       2.450  -0.624  -0.541  1.00  0.00     0.326 C 
ATOM      5  O   UNL     1       1.722  -1.349  -1.214  1.00  0.00    -0.250 OA
BRANCH   4   6
ATOM      6  C   UNL     1       3.321  -1.147   0.607  1.00  0.00     0.245 C 
BRANCH   6   7
ATOM      7  N   UNL     1       4.142  -2.323   0.239  1.00  0.00    -0.329 N 
ATOM      8  C   UNL     1       5.421  -2.100  -0.325  1.00  0.00     0.053 A 
ATOM      9  C   UNL     1       3.556  -3.612   0.304  1.00  0.00     0.053 A 
ATOM     10  C   UNL     1       6.155  -0.911  -0.171  1.00  0.00     0.027 A 
ATOM     11  C   UNL     1       6.046  -3.118  -1.062  1.00  0.00     0.046 A 
ATOM     12  C   UNL     1       4.231  -4.709  -0.270  1.00  0.00     0.049 A 
ATOM     13  C   UNL     1       2.344  -3.896   0.963  1.00  0.00     0.030 A 
ATOM     14  C   UNL     1       7.362  -0.688  -0.845  1.00  0.00     0.002 A 
ATOM     15  C   UNL     1       7.252  -2.904  -1.748  1.00  0.00     0.014 A 
ATOM     16  C   UNL     1       5.448  -4.467  -1.072  1.00  0.00     0.197 A 
ATOM     17  C   UNL     1       3.778  -6.026  -0.122  1.00  0.00     0.053 A 
ATOM     18  C   UNL     1       1.879  -5.210   1.106  1.00  0.00     0.041 A 
ATOM     19  C   UNL     1       7.896  -1.675  -1.661  1.00  0.00     0.001 A 
ATOM     20  O   UNL     1       5.970  -5.372  -1.716  1.00  0.00    -0.288 OA
ATOM     21  C   UNL     1       2.611  -6.262   0.582  1.00  0.00     0.124 A 
ATOM     22  F   UNL     1       2.182  -7.518   0.750  1.00  0.00    -0.207 F 
ENDBRANCH   6   7
ENDBRANCH   4   6
ENDBRANCH   3   4
ENDBRANCH   2   3
ENDBRANCH   1   2
BRANCH   1  23
ATOM     23  O   UNL     1       3.564   1.810   1.695  1.00  0.00    -0.458 OA
BRANCH  23  24
ATOM     24  C   UNL     1       2.298   1.807   2.201  1.00  0.00     0.338 C 
ATOM     25  O   UNL     1       1.353   2.430   1.764  1.00  0.00    -0.246 OA
BRANCH  24  26
ATOM     26  C   UNL     1       2.182   0.761   3.252  1.00  0.00     0.060 A 
ATOM     27  C   UNL     1       3.259   0.383   4.061  1.00  0.00     0.016 A 
ATOM     28  C   UNL     1       0.947   0.112   3.389  1.00  0.00     0.016 A 
ATOM     29  C   UNL     1       3.088  -0.623   5.020  1.00  0.00     0.010 A 
ATOM     30  C   UNL     1       0.777  -0.888   4.351  1.00  0.00     0.010 A 
ATOM     31  C   UNL     1       1.841  -1.252   5.188  1.00  0.00    -0.014 A 
BRANCH  31  32
ATOM     32  C   UNL     1       1.603  -2.145   6.351  1.00  0.00     0.031 A 
ATOM     33  C   UNL     1       1.515  -3.638   6.223  1.00  0.00     0.074 A 
ATOM     34  C   UNL     1       1.408  -1.573   7.555  1.00  0.00     0.049 A 
ATOM     35  N   UNL     1       1.396  -4.534   7.169  1.00  0.00    -0.248 NA
ATOM     36  C   UNL     1       1.557  -4.200   4.866  1.00  0.00     0.031 C 
ATOM     37  C   UNL     1       1.388  -0.130   7.803  1.00  0.00     0.029 A 
ATOM     38  N   UNL     1       1.181  -2.128   8.789  1.00  0.00    -0.354 N 
ATOM     39  C   UNL     1       1.336  -5.765   6.528  1.00  0.00     0.074 A 
ATOM     40  C   UNL     1       1.421  -5.500   5.107  1.00  0.00     0.031 C 
ATOM     41  C   UNL     1       1.178   0.086   9.110  1.00  0.00     0.029 A 
ATOM     42  C   UNL     1       1.040  -1.198   9.791  1.00  0.00     0.049 A 
ATOM     43  H   UNL     1       1.123  -3.099   8.941  1.00  0.00     0.167 HD
ATOM     44  C   UNL     1       1.242  -6.999   7.078  1.00  0.00     0.034 A 
ATOM     45  C   UNL     1       0.842  -1.354  11.114  1.00  0.00     0.034 A 
ATOM     46  C   UNL     1       1.190  -7.263   8.492  1.00  0.00     0.049 A 
ATOM     47  C   UNL     1       0.778  -2.733  11.701  1.00  0.00     0.074 A 
ATOM     48  C   UNL     1       1.206  -8.489   9.136  1.00  0.00     0.029 A 
ATOM     49  N   UNL     1       1.093  -6.297   9.479  1.00  0.00    -0.354 N 
ATOM     50  N   UNL     1       0.910  -3.888  11.096  1.00  0.00    -0.248 NA
ATOM     51  C   UNL     1       0.572  -2.834  13.154  1.00  0.00     0.031 C 
ATOM     52  C   UNL     1       1.104  -8.266  10.511  1.00  0.00     0.029 A 
ATOM     53  C   UNL     1       1.034  -6.899  10.725  1.00  0.00     0.049 A 
ATOM     54  H   UNL     1       1.070  -5.326   9.320  1.00  0.00     0.167 HD
ATOM     55  C   UNL     1       0.831  -4.851  12.095  1.00  0.00     0.074 A 
ATOM     56  C   UNL     1       0.646  -4.146  13.346  1.00  0.00     0.031 C 
ATOM     57  C   UNL     1       0.899  -6.198  11.975  1.00  0.00     0.034 A 
BRANCH  44  58
ATOM     58  C   UNL     1       1.266  -8.195   6.164  1.00  0.00     0.023 A 
ATOM     59  C   UNL     1       2.503  -8.641   5.661  1.00  0.00     0.012 A 
ATOM     60  C   UNL     1       0.105  -8.958   5.934  1.00  0.00     0.148 A 
ATOM     61  C   UNL     1       2.586  -9.830   4.938  1.00  0.00     0.002 A 
ATOM     62  C   UNL     1       0.199 -10.158   5.237  1.00  0.00     0.091 A 
ATOM     63  F   UNL     1      -1.061  -8.507   6.418  1.00  0.00    -0.205 F 
ATOM     64  C   UNL     1       1.438 -10.593   4.737  1.00  0.00     0.022 A 
BRANCH  62  65
ATOM     65  S   UNL     1      -1.204 -11.251   4.985  1.00  0.00     0.127 S 
ATOM     66  O   UNL     1      -1.390 -11.166   3.537  1.00  0.00    -0.237 OA
ATOM     67  O   UNL     1      -0.685 -12.534   5.460  1.00  0.00    -0.237 OA
ATOM     68  O   UNL     1      -2.292 -10.701   5.782  1.00  0.00    -0.744 OA
ENDBRANCH  62  65
ENDBRANCH  44  58
BRANCH  45  69
ATOM     69  C   UNL     1       0.807  -0.147  11.979  1.00  0.00     0.023 A 
ATOM     70  C   UNL     1       1.952   0.184  12.728  1.00  0.00     0.012 A 
ATOM     71  C   UNL     1      -0.303   0.718  11.986  1.00  0.00     0.148 A 
ATOM     72  C   UNL     1       1.991   1.359  13.477  1.00  0.00     0.002 A 
ATOM     73  C   UNL     1      -0.242   1.905  12.704  1.00  0.00     0.091 A 
ATOM     74  F   UNL     1      -1.375   0.377  11.258  1.00  0.00    -0.205 F 
ATOM     75  C   UNL     1       0.900   2.223  13.457  1.00  0.00     0.022 A 
BRANCH  73  76
ATOM     76  S   UNL     1      -1.550   3.136  12.656  1.00  0.00     0.127 S 
ATOM     77  O   UNL     1      -1.986   3.162  14.050  1.00  0.00    -0.237 OA
ATOM     78  O   UNL     1      -0.821   4.325  12.215  1.00  0.00    -0.237 OA
ATOM     79  O   UNL     1      -2.531   2.637  11.703  1.00  0.00    -0.744 OA
ENDBRANCH  73  76
ENDBRANCH  45  69
BRANCH  57  80
ATOM     80  C   UNL     1       0.786  -7.033  13.220  1.00  0.00     0.023 A 
ATOM     81  C   UNL     1      -0.487  -7.289  13.764  1.00  0.00     0.012 A 
ATOM     82  C   UNL     1       1.917  -7.675  13.762  1.00  0.00     0.148 A 
ATOM     83  C   UNL     1      -0.633  -8.173  14.833  1.00  0.00     0.002 A 
ATOM     84  C   UNL     1       1.760  -8.578  14.806  1.00  0.00     0.091 A 
ATOM     85  F   UNL     1       3.118  -7.408  13.228  1.00  0.00    -0.205 F 
ATOM     86  C   UNL     1       0.486  -8.825  15.345  1.00  0.00     0.022 A 
BRANCH  84  87
ATOM     87  S   UNL     1       3.127  -9.524  15.489  1.00  0.00     0.127 S 
ATOM     88  O   UNL     1       3.179  -9.024  16.862  1.00  0.00    -0.237 OA
ATOM     89  O   UNL     1       2.645 -10.899  15.359  1.00  0.00    -0.237 OA
ATOM     90  O   UNL     1       4.289  -9.204  14.672  1.00  0.00    -0.744 OA
ENDBRANCH  84  87
ENDBRANCH  57  80
ENDBRANCH  31  32
ENDBRANCH  24  26
ENDBRANCH  23  24
ENDBRANCH   1  23
TORSDOF 15
