REMARK SMILES CCCCC(=O)Nc1ccc(C(=O)N2CCC[C@H](C(=O)OCCOC(=O)c3ccc(-c4c5nc(c(-c6cccc(S(=O)(=O)[O-])c6F)c6ccc([nH]6)c(-c6cccc(S(=O)(=O)[O-])c6F)c6nc(c(-c7cccc(S(=O)(=O)[O-])c7F)c7ccc4[nH]7)C=C6)C=C5)cc3)C2)cc1
REMARK SMILES IDX 21 1 19 2 20 3 18 4 14 5 15 6 90 7 16 8 17 9 12 10 13 11
REMARK SMILES IDX 11 12 8 13 9 14 92 15 10 16 91 17 7 18 5 19 6 20 4 22 3 23
REMARK SMILES IDX 2 24 1 25 22 26 23 27 24 28 25 29 26 30 27 31 28 32 89 33
REMARK SMILES IDX 29 34 88 35 30 36 31 37 32 38 82 39 33 40 87 41 81 42 83 43
REMARK SMILES IDX 34 44 86 45 80 46 79 47 35 49 67 50 47 51 66 52 48 53 51 54
REMARK SMILES IDX 65 55 84 56 49 57 50 58 64 60 85 61 52 62 36 63 37 64 45 65
REMARK SMILES IDX 38 66 40 67 46 68 39 69 41 70 42 71 43 72 44 73 68 74 69 75
REMARK SMILES IDX 77 76 70 77 72 78 78 79 71 80 73 81 74 82 75 83 76 84 53 85
REMARK SMILES IDX 54 86 62 87 55 88 57 89 63 90 56 91 58 92 59 93 60 94 61 95
REMARK H PARENT 7 21 83 48 51 59
REMARK Flexibility Score: inf
ROOT
ATOM      1  O   UNL     1       1.931   1.402   6.490  1.00  0.00    -0.462 OA
ENDROOT
BRANCH   1   2
ATOM      2  C   UNL     1       1.782   2.404   5.593  1.00  0.00     0.310 C 
ATOM      3  O   UNL     1       0.857   3.208   5.588  1.00  0.00    -0.252 OA
BRANCH   2   4
ATOM      4  C   UNL     1       2.858   2.416   4.521  1.00  0.00     0.119 C 
ATOM      5  N   UNL     1       2.098   0.477   3.204  1.00  0.00    -0.338 N 
ATOM      6  C   UNL     1       3.338  -0.256   3.436  1.00  0.00     0.120 C 
ATOM      7  C   UNL     1       2.219   1.929   3.227  1.00  0.00     0.135 C 
ATOM      8  C   UNL     1       4.032   0.159   4.726  1.00  0.00     0.022 C 
ATOM      9  C   UNL     1       4.158   1.678   4.843  1.00  0.00     0.019 C 
BRANCH   5  10
ATOM     10  C   UNL     1       0.885  -0.201   3.325  1.00  0.00     0.253 C 
ATOM     11  O   UNL     1       0.726  -1.100   4.150  1.00  0.00    -0.269 OA
BRANCH  10  12
ATOM     12  C   UNL     1      -0.123  -0.054   2.220  1.00  0.00     0.040 A 
ATOM     13  C   UNL     1      -1.496  -0.194  -0.216  1.00  0.00     0.041 A 
ATOM     14  C   UNL     1      -1.538  -1.281   0.648  1.00  0.00     0.027 A 
ATOM     15  C   UNL     1      -0.948   1.008   0.209  1.00  0.00     0.027 A 
ATOM     16  C   UNL     1      -0.832  -1.215   1.856  1.00  0.00     0.016 A 
ATOM     17  C   UNL     1      -0.269   1.080   1.423  1.00  0.00     0.016 A 
BRANCH  13  18
ATOM     18  N   UNL     1      -1.982  -0.295  -1.520  1.00  0.00    -0.326 N 
ATOM     19  C   UNL     1      -1.296   0.089  -2.650  1.00  0.00     0.224 C 
ATOM     20  O   UNL     1      -1.908   0.438  -3.660  1.00  0.00    -0.275 OA
ATOM     21  H   UNL     1      -2.885  -0.670  -1.641  1.00  0.00     0.169 HD
BRANCH  19  22
ATOM     22  C   UNL     1       0.218  -0.141  -2.674  1.00  0.00     0.100 C 
BRANCH  22  23
ATOM     23  C   UNL     1       1.128   1.087  -2.606  1.00  0.00     0.010 C 
BRANCH  23  24
ATOM     24  C   UNL     1       1.961   1.303  -1.331  1.00  0.00    -0.003 C 
ATOM     25  C   UNL     1       2.505   0.055  -0.651  1.00  0.00     0.004 C 
ENDBRANCH  23  24
ENDBRANCH  22  23
ENDBRANCH  19  22
ENDBRANCH  13  18
ENDBRANCH  10  12
ENDBRANCH   5  10
ENDBRANCH   2   4
ENDBRANCH   1   2
BRANCH   1  26
ATOM     26  C   UNL     1       0.926   1.292   7.512  1.00  0.00     0.274 C 
BRANCH  26  27
ATOM     27  C   UNL     1       1.444   1.837   8.843  1.00  0.00     0.275 C 
BRANCH  27  28
ATOM     28  O   UNL     1       1.657   3.259   8.781  1.00  0.00    -0.458 OA
BRANCH  28  29
ATOM     29  C   UNL     1       2.902   3.637   8.408  1.00  0.00     0.338 C 
ATOM     30  O   UNL     1       3.861   2.918   8.188  1.00  0.00    -0.246 OA
BRANCH  29  31
ATOM     31  C   UNL     1       2.916   5.082   8.142  1.00  0.00     0.060 A 
ATOM     32  C   UNL     1       3.136   5.504   6.829  1.00  0.00     0.016 A 
ATOM     33  C   UNL     1       2.798   6.009   9.175  1.00  0.00     0.016 A 
ATOM     34  C   UNL     1       3.244   6.857   6.533  1.00  0.00     0.010 A 
ATOM     35  C   UNL     1       2.910   7.371   8.880  1.00  0.00     0.010 A 
ATOM     36  C   UNL     1       3.147   7.799   7.561  1.00  0.00    -0.014 A 
BRANCH  36  37
ATOM     37  C   UNL     1       3.361   9.232   7.261  1.00  0.00     0.031 A 
ATOM     38  C   UNL     1       4.638   9.892   7.691  1.00  0.00     0.074 A 
ATOM     39  C   UNL     1       2.412   9.930   6.612  1.00  0.00     0.049 A 
ATOM     40  N   UNL     1       4.981  11.150   7.619  1.00  0.00    -0.248 NA
ATOM     41  C   UNL     1       5.666   9.019   8.283  1.00  0.00     0.031 C 
ATOM     42  C   UNL     1       1.145   9.381   6.126  1.00  0.00     0.029 A 
ATOM     43  N   UNL     1       2.356  11.257   6.272  1.00  0.00    -0.354 N 
ATOM     44  C   UNL     1       6.240  11.232   8.199  1.00  0.00     0.074 A 
ATOM     45  C   UNL     1       6.605   9.895   8.612  1.00  0.00     0.031 C 
ATOM     46  C   UNL     1       0.425  10.370   5.572  1.00  0.00     0.029 A 
ATOM     47  C   UNL     1       1.161  11.625   5.702  1.00  0.00     0.049 A 
ATOM     48  H   UNL     1       3.100  11.885   6.421  1.00  0.00     0.167 HD
ATOM     49  C   UNL     1       7.022  12.324   8.363  1.00  0.00     0.034 A 
ATOM     50  C   UNL     1       0.699  12.842   5.356  1.00  0.00     0.034 A 
ATOM     51  C   UNL     1       6.666  13.643   7.914  1.00  0.00     0.049 A 
ATOM     52  C   UNL     1       1.584  14.042   5.565  1.00  0.00     0.074 A 
ATOM     53  C   UNL     1       7.406  14.809   7.996  1.00  0.00     0.029 A 
ATOM     54  N   UNL     1       5.467  13.971   7.300  1.00  0.00    -0.354 N 
ATOM     55  N   UNL     1       2.807  14.093   6.036  1.00  0.00    -0.248 NA
ATOM     56  C   UNL     1       1.035  15.348   5.176  1.00  0.00     0.031 C 
ATOM     57  C   UNL     1       6.646  15.847   7.444  1.00  0.00     0.029 A 
ATOM     58  C   UNL     1       5.440  15.323   7.004  1.00  0.00     0.049 A 
ATOM     59  H   UNL     1       4.741  13.336   7.104  1.00  0.00     0.167 HD
ATOM     60  C   UNL     1       3.183  15.429   5.977  1.00  0.00     0.074 A 
ATOM     61  C   UNL     1       2.067  16.151   5.400  1.00  0.00     0.031 C 
ATOM     62  C   UNL     1       4.339  16.012   6.381  1.00  0.00     0.034 A 
BRANCH  49  63
ATOM     63  C   UNL     1       8.353  12.133   9.038  1.00  0.00     0.023 A 
ATOM     64  C   UNL     1       9.412  11.526   8.333  1.00  0.00     0.012 A 
ATOM     65  C   UNL     1       8.569  12.592  10.352  1.00  0.00     0.148 A 
ATOM     66  C   UNL     1      10.658  11.355   8.934  1.00  0.00     0.002 A 
ATOM     67  C   UNL     1       9.825  12.453  10.931  1.00  0.00     0.091 A 
ATOM     68  F   UNL     1       7.542  13.141  11.015  1.00  0.00    -0.205 F 
ATOM     69  C   UNL     1      10.868  11.827  10.228  1.00  0.00     0.022 A 
BRANCH  67  70
ATOM     70  S   UNL     1      10.210  13.089  12.567  1.00  0.00     0.127 S 
ATOM     71  O   UNL     1      10.270  11.859  13.355  1.00  0.00    -0.237 OA
ATOM     72  O   UNL     1      11.504  13.738  12.351  1.00  0.00    -0.237 OA
ATOM     73  O   UNL     1       9.126  14.000  12.906  1.00  0.00    -0.744 OA
ENDBRANCH  67  70
ENDBRANCH  49  63
BRANCH  50  74
ATOM     74  C   UNL     1      -0.657  12.979   4.755  1.00  0.00     0.023 A 
ATOM     75  C   UNL     1      -0.780  13.339   3.400  1.00  0.00     0.012 A 
ATOM     76  C   UNL     1      -1.821  12.723   5.506  1.00  0.00     0.148 A 
ATOM     77  C   UNL     1      -2.038  13.462   2.809  1.00  0.00     0.002 A 
ATOM     78  C   UNL     1      -3.068  12.793   4.897  1.00  0.00     0.091 A 
ATOM     79  F   UNL     1      -1.685  12.404   6.802  1.00  0.00    -0.205 F 
ATOM     80  C   UNL     1      -3.180  13.177   3.552  1.00  0.00     0.022 A 
BRANCH  78  81
ATOM     81  S   UNL     1      -4.578  12.314   5.746  1.00  0.00     0.127 S 
ATOM     82  O   UNL     1      -5.197  13.610   6.010  1.00  0.00    -0.237 OA
ATOM     83  O   UNL     1      -5.254  11.504   4.732  1.00  0.00    -0.237 OA
ATOM     84  O   UNL     1      -4.144  11.565   6.918  1.00  0.00    -0.744 OA
ENDBRANCH  78  81
ENDBRANCH  50  74
BRANCH  62  85
ATOM     85  C   UNL     1       4.470  17.500   6.194  1.00  0.00     0.023 A 
ATOM     86  C   UNL     1       3.769  18.372   7.050  1.00  0.00     0.012 A 
ATOM     87  C   UNL     1       5.342  18.032   5.224  1.00  0.00     0.148 A 
ATOM     88  C   UNL     1       3.913  19.753   6.926  1.00  0.00     0.002 A 
ATOM     89  C   UNL     1       5.515  19.409   5.136  1.00  0.00     0.091 A 
ATOM     90  F   UNL     1       5.983  17.186   4.405  1.00  0.00    -0.205 F 
ATOM     91  C   UNL     1       4.795  20.270   5.979  1.00  0.00     0.022 A 
BRANCH  89  92
ATOM     92  S   UNL     1       6.698  20.154   4.009  1.00  0.00     0.127 S 
ATOM     93  O   UNL     1       5.824  20.669   2.956  1.00  0.00    -0.237 OA
ATOM     94  O   UNL     1       7.320  21.184   4.842  1.00  0.00    -0.237 OA
ATOM     95  O   UNL     1       7.598  19.081   3.610  1.00  0.00    -0.744 OA
ENDBRANCH  89  92
ENDBRANCH  62  85
ENDBRANCH  36  37
ENDBRANCH  29  31
ENDBRANCH  28  29
ENDBRANCH  27  28
ENDBRANCH  26  27
ENDBRANCH   1  26
TORSDOF 20
