REMARK SMILES C[C@@H]1CCC[C@]1(Sc1ccc(F)cc1)C(=O)OCCOC(=O)c1ccc(-c2c3nc(c(-c4cccc(S(=O)(=O)[O-])c4F)c4ccc([nH]4)c(-c4cccc(S(=O)(=O)[O-])c4F)c4nc(c(-c5cccc(S(=O)(=O)[O-])c5F)c5ccc2[nH]5)C=C4)C=C3)cc1
REMARK SMILES IDX 19 1 18 2 17 3 15 4 16 5 6 6 1 7 2 8 3 9 4 10 5 11 7 12 8 13
REMARK SMILES IDX 9 14 14 15 10 16 13 17 11 18 12 19 20 20 21 21 22 22 23 23
REMARK SMILES IDX 24 24 85 25 25 26 84 27 26 28 27 29 28 30 78 31 29 32 83 33
REMARK SMILES IDX 77 34 79 35 30 36 82 37 76 38 75 39 31 41 63 42 43 43 62 44
REMARK SMILES IDX 44 45 47 46 61 47 80 48 45 49 46 50 60 52 81 53 48 54 32 55
REMARK SMILES IDX 33 56 41 57 34 58 36 59 42 60 35 61 37 62 38 63 39 64 40 65
REMARK SMILES IDX 64 66 65 67 73 68 66 69 68 70 74 71 67 72 69 73 70 74 71 75
REMARK SMILES IDX 72 76 49 77 50 78 58 79 51 80 53 81 59 82 52 83 54 84 55 85
REMARK SMILES IDX 56 86 57 87
REMARK H PARENT 79 40 47 51
REMARK Flexibility Score: inf
ROOT
ATOM      1  C   UNL     1       2.545   4.035  -0.888  1.00  0.00     0.275 C 
ENDROOT
BRANCH   1   2
ATOM      2  C   UNL     1       2.152   3.912   0.585  1.00  0.00     0.274 C 
BRANCH   2   3
ATOM      3  O   UNL     1       1.764   2.560   0.906  1.00  0.00    -0.461 OA
BRANCH   3   4
ATOM      4  C   UNL     1       0.432   2.289   0.808  1.00  0.00     0.322 C 
ATOM      5  O   UNL     1      -0.418   3.136   0.544  1.00  0.00    -0.251 OA
BRANCH   4   6
ATOM      6  C   UNL     1       0.077   0.831   1.179  1.00  0.00     0.120 C 
ATOM      7  C   UNL     1       1.951  -0.029  -0.442  1.00  0.00     0.010 C 
ATOM      8  C   UNL     1       1.106  -0.275   0.816  1.00  0.00     0.014 C 
ATOM      9  C   UNL     1       0.262  -1.544   0.579  1.00  0.00     0.005 C 
ATOM     10  C   UNL     1      -1.145  -1.092   0.220  1.00  0.00     0.002 C 
ATOM     11  C   UNL     1      -1.165   0.421   0.369  1.00  0.00     0.030 C 
BRANCH   6  12
ATOM     12  S   UNL     1      -0.200   0.964   3.046  1.00  0.00    -0.107 SA
BRANCH  12  13
ATOM     13  C   UNL     1      -1.241  -0.409   3.456  1.00  0.00     0.009 A 
ATOM     14  C   UNL     1      -0.662  -1.590   3.932  1.00  0.00     0.018 A 
ATOM     15  C   UNL     1      -2.635  -0.301   3.393  1.00  0.00     0.018 A 
ATOM     16  C   UNL     1      -1.464  -2.677   4.278  1.00  0.00     0.040 A 
ATOM     17  C   UNL     1      -3.440  -1.387   3.745  1.00  0.00     0.040 A 
ATOM     18  C   UNL     1      -2.846  -2.567   4.178  1.00  0.00     0.123 A 
ATOM     19  F   UNL     1      -3.614  -3.611   4.514  1.00  0.00    -0.207 F 
ENDBRANCH  12  13
ENDBRANCH   6  12
ENDBRANCH   4   6
ENDBRANCH   3   4
ENDBRANCH   2   3
ENDBRANCH   1   2
BRANCH   1  20
ATOM     20  O   UNL     1       1.413   3.724  -1.716  1.00  0.00    -0.458 OA
BRANCH  20  21
ATOM     21  C   UNL     1       1.683   3.059  -2.865  1.00  0.00     0.338 C 
ATOM     22  O   UNL     1       2.789   2.759  -3.283  1.00  0.00    -0.246 OA
BRANCH  21  23
ATOM     23  C   UNL     1       0.423   2.703  -3.562  1.00  0.00     0.060 A 
ATOM     24  C   UNL     1      -0.749   2.437  -2.853  1.00  0.00     0.016 A 
ATOM     25  C   UNL     1       0.432   2.553  -4.949  1.00  0.00     0.016 A 
ATOM     26  C   UNL     1      -1.874   1.930  -3.506  1.00  0.00     0.010 A 
ATOM     27  C   UNL     1      -0.732   2.152  -5.615  1.00  0.00     0.010 A 
ATOM     28  C   UNL     1      -1.891   1.802  -4.901  1.00  0.00    -0.014 A 
BRANCH  28  29
ATOM     29  C   UNL     1      -3.104   1.320  -5.625  1.00  0.00     0.031 A 
ATOM     30  C   UNL     1      -3.009   0.154  -6.576  1.00  0.00     0.074 A 
ATOM     31  C   UNL     1      -4.284   1.960  -5.487  1.00  0.00     0.049 A 
ATOM     32  N   UNL     1      -3.870  -0.254  -7.472  1.00  0.00    -0.248 NA
ATOM     33  C   UNL     1      -1.772  -0.645  -6.529  1.00  0.00     0.031 C 
ATOM     34  C   UNL     1      -4.530   3.100  -4.604  1.00  0.00     0.029 A 
ATOM     35  N   UNL     1      -5.494   1.758  -6.109  1.00  0.00    -0.354 N 
ATOM     36  C   UNL     1      -3.246  -1.290  -8.157  1.00  0.00     0.074 A 
ATOM     37  C   UNL     1      -1.942  -1.468  -7.555  1.00  0.00     0.031 C 
ATOM     38  C   UNL     1      -5.806   3.489  -4.728  1.00  0.00     0.029 A 
ATOM     39  C   UNL     1      -6.449   2.687  -5.763  1.00  0.00     0.049 A 
ATOM     40  H   UNL     1      -5.661   1.021  -6.740  1.00  0.00     0.167 HD
ATOM     41  C   UNL     1      -3.718  -2.028  -9.189  1.00  0.00     0.034 A 
ATOM     42  C   UNL     1      -7.685   2.914  -6.253  1.00  0.00     0.034 A 
ATOM     43  C   UNL     1      -5.052  -1.919  -9.718  1.00  0.00     0.049 A 
ATOM     44  C   UNL     1      -8.206   2.052  -7.366  1.00  0.00     0.074 A 
ATOM     45  C   UNL     1      -5.644  -2.680 -10.711  1.00  0.00     0.029 A 
ATOM     46  N   UNL     1      -6.004  -1.009  -9.290  1.00  0.00    -0.354 N 
ATOM     47  N   UNL     1      -7.619   1.048  -7.970  1.00  0.00    -0.248 NA
ATOM     48  C   UNL     1      -9.558   2.347  -7.863  1.00  0.00     0.031 C 
ATOM     49  C   UNL     1      -6.955  -2.226 -10.887  1.00  0.00     0.029 A 
ATOM     50  C   UNL     1      -7.180  -1.187  -9.999  1.00  0.00     0.049 A 
ATOM     51  H   UNL     1      -5.866  -0.334  -8.586  1.00  0.00     0.167 HD
ATOM     52  C   UNL     1      -8.527   0.589  -8.915  1.00  0.00     0.074 A 
ATOM     53  C   UNL     1      -9.718   1.403  -8.782  1.00  0.00     0.031 C 
ATOM     54  C   UNL     1      -8.375  -0.401  -9.829  1.00  0.00     0.034 A 
BRANCH  41  55
ATOM     55  C   UNL     1      -2.805  -3.054  -9.805  1.00  0.00     0.023 A 
ATOM     56  C   UNL     1      -2.579  -4.277  -9.144  1.00  0.00     0.012 A 
ATOM     57  C   UNL     1      -2.245  -2.843 -11.081  1.00  0.00     0.148 A 
ATOM     58  C   UNL     1      -1.795  -5.268  -9.735  1.00  0.00     0.002 A 
ATOM     59  C   UNL     1      -1.496  -3.850 -11.680  1.00  0.00     0.091 A 
ATOM     60  F   UNL     1      -2.449  -1.663 -11.683  1.00  0.00    -0.205 F 
ATOM     61  C   UNL     1      -1.265  -5.060 -11.006  1.00  0.00     0.022 A 
BRANCH  59  62
ATOM     62  S   UNL     1      -0.842  -3.699 -13.348  1.00  0.00     0.127 S 
ATOM     63  O   UNL     1       0.570  -3.424 -13.088  1.00  0.00    -0.237 OA
ATOM     64  O   UNL     1      -1.111  -5.023 -13.911  1.00  0.00    -0.237 OA
ATOM     65  O   UNL     1      -1.591  -2.616 -13.971  1.00  0.00    -0.744 OA
ENDBRANCH  59  62
ENDBRANCH  41  55
BRANCH  42  66
ATOM     66  C   UNL     1      -8.504   4.009  -5.659  1.00  0.00     0.023 A 
ATOM     67  C   UNL     1      -9.595   3.682  -4.833  1.00  0.00     0.012 A 
ATOM     68  C   UNL     1      -8.133   5.361  -5.806  1.00  0.00     0.148 A 
ATOM     69  C   UNL     1     -10.297   4.681  -4.157  1.00  0.00     0.002 A 
ATOM     70  C   UNL     1      -8.793   6.343  -5.078  1.00  0.00     0.091 A 
ATOM     71  F   UNL     1      -7.107   5.652  -6.619  1.00  0.00    -0.205 F 
ATOM     72  C   UNL     1      -9.883   6.007  -4.262  1.00  0.00     0.022 A 
BRANCH  70  73
ATOM     73  S   UNL     1      -8.210   8.042  -5.015  1.00  0.00     0.127 S 
ATOM     74  O   UNL     1      -9.220   8.735  -5.809  1.00  0.00    -0.237 OA
ATOM     75  O   UNL     1      -8.252   8.325  -3.579  1.00  0.00    -0.237 OA
ATOM     76  O   UNL     1      -6.867   8.015  -5.578  1.00  0.00    -0.744 OA
ENDBRANCH  70  73
ENDBRANCH  42  66
BRANCH  54  77
ATOM     77  C   UNL     1      -9.517  -0.669 -10.771  1.00  0.00     0.023 A 
ATOM     78  C   UNL     1      -9.726   0.197 -11.862  1.00  0.00     0.012 A 
ATOM     79  C   UNL     1     -10.311  -1.825 -10.641  1.00  0.00     0.148 A 
ATOM     80  C   UNL     1     -10.717  -0.076 -12.803  1.00  0.00     0.002 A 
ATOM     81  C   UNL     1     -11.272  -2.111 -11.603  1.00  0.00     0.091 A 
ATOM     82  F   UNL     1     -10.109  -2.625  -9.583  1.00  0.00    -0.205 F 
ATOM     83  C   UNL     1     -11.481  -1.235 -12.681  1.00  0.00     0.022 A 
BRANCH  81  84
ATOM     84  S   UNL     1     -12.238  -3.626 -11.569  1.00  0.00     0.127 S 
ATOM     85  O   UNL     1     -13.523  -3.150 -11.061  1.00  0.00    -0.237 OA
ATOM     86  O   UNL     1     -12.249  -4.025 -12.977  1.00  0.00    -0.237 OA
ATOM     87  O   UNL     1     -11.513  -4.538 -10.694  1.00  0.00    -0.744 OA
ENDBRANCH  81  84
ENDBRANCH  54  77
ENDBRANCH  28  29
ENDBRANCH  21  23
ENDBRANCH  20  21
ENDBRANCH   1  20
TORSDOF 16
