REMARK SMILES Cc1ccc(C(=O)Nc2cccc(F)c2C(=O)OCCOC(=O)c2ccc(-c3c4nc(c(-c5cccc(S(=O)(=O)[O-])c5F)c5ccc([nH]5)c(-c5cccc(S(=O)(=O)[O-])c5F)c5nc(c(-c6cccc(S(=O)(=O)[O-])c6F)c6ccc3[nH]6)C=C5)C=C4)cc2)c(F)c1
REMARK SMILES IDX 20 1 19 2 18 3 16 4 17 5 15 6 9 7 10 8 11 9 13 10 12 11
REMARK SMILES IDX 14 12 8 13 6 14 7 15 5 17 1 18 2 19 3 20 89 21 4 22 87 23
REMARK SMILES IDX 88 24 21 25 22 26 23 27 24 28 25 29 86 30 26 31 85 32 27 33
REMARK SMILES IDX 28 34 29 35 79 36 30 37 84 38 78 39 80 40 31 41 83 42 77 43
REMARK SMILES IDX 76 44 32 46 64 47 44 48 63 49 45 50 48 51 62 52 81 53 46 54
REMARK SMILES IDX 47 55 61 57 82 58 49 59 33 60 34 61 42 62 35 63 37 64 43 65
REMARK SMILES IDX 36 66 38 67 39 68 40 69 41 70 65 71 66 72 74 73 67 74 69 75
REMARK SMILES IDX 75 76 68 77 70 78 71 79 72 80 73 81 50 82 51 83 59 84 52 85
REMARK SMILES IDX 54 86 60 87 53 88 55 89 56 90 57 91 58 92
REMARK H PARENT 8 16 80 45 48 56
REMARK Flexibility Score: inf
ROOT
ATOM      1  C   UNL     1      -3.938  -7.705  -2.067  1.00  0.00     0.275 C 
ENDROOT
BRANCH   1   2
ATOM      2  C   UNL     1      -2.672  -7.257  -2.794  1.00  0.00     0.275 C 
BRANCH   2   3
ATOM      3  O   UNL     1      -1.618  -6.953  -1.854  1.00  0.00    -0.458 OA
BRANCH   3   4
ATOM      4  C   UNL     1      -1.245  -5.653  -1.800  1.00  0.00     0.343 C 
ATOM      5  O   UNL     1      -1.764  -4.740  -2.419  1.00  0.00    -0.246 OA
BRANCH   4   6
ATOM      6  C   UNL     1      -0.181  -5.427  -0.794  1.00  0.00     0.119 A 
ATOM      7  C   UNL     1      -0.198  -4.269   0.017  1.00  0.00     0.059 A 
ATOM      8  C   UNL     1       0.809  -4.061   0.963  1.00  0.00     0.027 A 
ATOM      9  C   UNL     1       1.890  -4.943   1.026  1.00  0.00     0.005 A 
ATOM     10  C   UNL     1       0.921  -6.271  -0.746  1.00  0.00     0.139 A 
ATOM     11  C   UNL     1       1.960  -6.029   0.151  1.00  0.00     0.040 A 
ATOM     12  F   UNL     1       1.046  -7.293  -1.605  1.00  0.00    -0.206 F 
BRANCH   7  13
ATOM     13  N   UNL     1      -1.250  -3.366  -0.159  1.00  0.00    -0.321 N 
ATOM     14  C   UNL     1      -1.300  -2.033  -0.483  1.00  0.00     0.258 C 
ATOM     15  O   UNL     1      -2.358  -1.622  -0.963  1.00  0.00    -0.269 OA
ATOM     16  H   UNL     1      -2.137  -3.769  -0.022  1.00  0.00     0.170 HD
BRANCH  14  17
ATOM     17  C   UNL     1      -0.175  -1.105  -0.375  1.00  0.00     0.075 A 
ATOM     18  C   UNL     1       2.969   1.783   0.086  1.00  0.00     0.044 C 
ATOM     19  C   UNL     1       1.877   0.776  -0.103  1.00  0.00    -0.048 A 
ATOM     20  C   UNL     1       2.160  -0.516  -0.561  1.00  0.00     0.004 A 
ATOM     21  C   UNL     1       0.550   1.143   0.140  1.00  0.00     0.043 A 
ATOM     22  C   UNL     1       1.133  -1.446  -0.726  1.00  0.00     0.017 A 
ATOM     23  C   UNL     1      -0.463   0.203   0.015  1.00  0.00     0.136 A 
ATOM     24  F   UNL     1      -1.715   0.588   0.295  1.00  0.00    -0.206 F 
ENDBRANCH  14  17
ENDBRANCH   7  13
ENDBRANCH   4   6
ENDBRANCH   3   4
ENDBRANCH   2   3
ENDBRANCH   1   2
BRANCH   1  25
ATOM     25  O   UNL     1      -4.577  -6.575  -1.440  1.00  0.00    -0.458 OA
BRANCH  25  26
ATOM     26  C   UNL     1      -4.670  -6.618  -0.091  1.00  0.00     0.338 C 
ATOM     27  O   UNL     1      -4.306  -7.530   0.639  1.00  0.00    -0.246 OA
BRANCH  26  28
ATOM     28  C   UNL     1      -5.173  -5.339   0.448  1.00  0.00     0.060 A 
ATOM     29  C   UNL     1      -4.500  -4.183   0.101  1.00  0.00     0.016 A 
ATOM     30  C   UNL     1      -6.105  -5.297   1.484  1.00  0.00     0.016 A 
ATOM     31  C   UNL     1      -4.553  -3.082   0.955  1.00  0.00     0.010 A 
ATOM     32  C   UNL     1      -6.310  -4.100   2.200  1.00  0.00     0.010 A 
ATOM     33  C   UNL     1      -5.465  -2.991   2.017  1.00  0.00    -0.014 A 
BRANCH  33  34
ATOM     34  C   UNL     1      -5.456  -1.785   2.932  1.00  0.00     0.031 A 
ATOM     35  C   UNL     1      -5.521  -1.945   4.444  1.00  0.00     0.074 A 
ATOM     36  C   UNL     1      -5.311  -0.526   2.446  1.00  0.00     0.049 A 
ATOM     37  N   UNL     1      -5.669  -1.024   5.367  1.00  0.00    -0.248 NA
ATOM     38  C   UNL     1      -5.426  -3.308   4.998  1.00  0.00     0.031 C 
ATOM     39  C   UNL     1      -5.196  -0.166   1.031  1.00  0.00     0.029 A 
ATOM     40  N   UNL     1      -5.195   0.693   3.087  1.00  0.00    -0.354 N 
ATOM     41  C   UNL     1      -5.795  -1.700   6.578  1.00  0.00     0.074 A 
ATOM     42  C   UNL     1      -5.680  -3.109   6.285  1.00  0.00     0.031 C 
ATOM     43  C   UNL     1      -4.902   1.135   0.918  1.00  0.00     0.029 A 
ATOM     44  C   UNL     1      -4.969   1.754   2.232  1.00  0.00     0.049 A 
ATOM     45  H   UNL     1      -5.266   0.795   4.064  1.00  0.00     0.167 HD
ATOM     46  C   UNL     1      -5.980  -1.197   7.823  1.00  0.00     0.034 A 
ATOM     47  C   UNL     1      -4.874   3.083   2.449  1.00  0.00     0.034 A 
ATOM     48  C   UNL     1      -5.970   0.204   8.147  1.00  0.00     0.049 A 
ATOM     49  C   UNL     1      -5.074   3.612   3.841  1.00  0.00     0.074 A 
ATOM     50  C   UNL     1      -6.137   0.794   9.389  1.00  0.00     0.029 A 
ATOM     51  N   UNL     1      -5.751   1.230   7.244  1.00  0.00    -0.354 N 
ATOM     52  N   UNL     1      -5.217   2.950   4.962  1.00  0.00    -0.248 NA
ATOM     53  C   UNL     1      -5.120   5.075   4.002  1.00  0.00     0.031 C 
ATOM     54  C   UNL     1      -6.043   2.178   9.234  1.00  0.00     0.029 A 
ATOM     55  C   UNL     1      -5.782   2.448   7.901  1.00  0.00     0.049 A 
ATOM     56  H   UNL     1      -5.597   1.111   6.278  1.00  0.00     0.167 HD
ATOM     57  C   UNL     1      -5.359   3.910   5.956  1.00  0.00     0.074 A 
ATOM     58  C   UNL     1      -5.247   5.202   5.316  1.00  0.00     0.031 C 
ATOM     59  C   UNL     1      -5.595   3.730   7.276  1.00  0.00     0.034 A 
BRANCH  46  60
ATOM     60  C   UNL     1      -6.200  -2.154   8.969  1.00  0.00     0.023 A 
ATOM     61  C   UNL     1      -5.113  -2.851   9.529  1.00  0.00     0.012 A 
ATOM     62  C   UNL     1      -7.469  -2.239   9.582  1.00  0.00     0.148 A 
ATOM     63  C   UNL     1      -5.287  -3.628  10.675  1.00  0.00     0.002 A 
ATOM     64  C   UNL     1      -7.623  -2.976  10.750  1.00  0.00     0.091 A 
ATOM     65  F   UNL     1      -8.490  -1.570   9.029  1.00  0.00    -0.205 F 
ATOM     66  C   UNL     1      -6.535  -3.679  11.293  1.00  0.00     0.022 A 
BRANCH  64  67
ATOM     67  S   UNL     1      -9.163  -3.027  11.675  1.00  0.00     0.127 S 
ATOM     68  O   UNL     1      -9.519  -4.443  11.577  1.00  0.00    -0.237 OA
ATOM     69  O   UNL     1      -8.735  -2.597  13.005  1.00  0.00    -0.237 OA
ATOM     70  O   UNL     1     -10.074  -2.115  10.998  1.00  0.00    -0.744 OA
ENDBRANCH  64  67
ENDBRANCH  46  60
BRANCH  47  71
ATOM     71  C   UNL     1      -4.602   4.023   1.315  1.00  0.00     0.023 A 
ATOM     72  C   UNL     1      -3.421   4.794   1.320  1.00  0.00     0.012 A 
ATOM     73  C   UNL     1      -5.493   4.157   0.230  1.00  0.00     0.148 A 
ATOM     74  C   UNL     1      -3.147   5.689   0.284  1.00  0.00     0.002 A 
ATOM     75  C   UNL     1      -5.176   4.991  -0.836  1.00  0.00     0.091 A 
ATOM     76  F   UNL     1      -6.638   3.459   0.256  1.00  0.00    -0.205 F 
ATOM     77  C   UNL     1      -4.014   5.775  -0.802  1.00  0.00     0.022 A 
BRANCH  75  78
ATOM     78  S   UNL     1      -6.162   5.041  -2.337  1.00  0.00     0.127 S 
ATOM     79  O   UNL     1      -6.856   6.319  -2.197  1.00  0.00    -0.237 OA
ATOM     80  O   UNL     1      -5.136   5.011  -3.380  1.00  0.00    -0.237 OA
ATOM     81  O   UNL     1      -7.004   3.852  -2.291  1.00  0.00    -0.744 OA
ENDBRANCH  75  78
ENDBRANCH  47  71
BRANCH  59  82
ATOM     82  C   UNL     1      -5.714   4.944   8.157  1.00  0.00     0.023 A 
ATOM     83  C   UNL     1      -6.889   5.719   8.119  1.00  0.00     0.012 A 
ATOM     84  C   UNL     1      -4.729   5.221   9.125  1.00  0.00     0.148 A 
ATOM     85  C   UNL     1      -7.078   6.758   9.029  1.00  0.00     0.002 A 
ATOM     86  C   UNL     1      -4.947   6.224  10.060  1.00  0.00     0.091 A 
ATOM     87  F   UNL     1      -3.614   4.475   9.131  1.00  0.00    -0.205 F 
ATOM     88  C   UNL     1      -6.117   6.999  10.009  1.00  0.00     0.022 A 
BRANCH  86  89
ATOM     89  S   UNL     1      -3.819   6.539  11.423  1.00  0.00     0.127 S 
ATOM     90  O   UNL     1      -3.343   7.886  11.111  1.00  0.00    -0.237 OA
ATOM     91  O   UNL     1      -4.708   6.459  12.582  1.00  0.00    -0.237 OA
ATOM     92  O   UNL     1      -2.804   5.496  11.360  1.00  0.00    -0.744 OA
ENDBRANCH  86  89
ENDBRANCH  59  82
ENDBRANCH  33  34
ENDBRANCH  26  28
ENDBRANCH  25  26
ENDBRANCH   1  25
TORSDOF 16
