REMARK SMILES CCOC(=O)C1=C(C)N(c2ccccc2)C(=O)[C@@H]1CC(=O)OCCOC(=O)c1ccc(-c2c3nc(c(-c4cccc(S(=O)(=O)[O-])c4F)c4ccc([nH]4)c(-c4cccc(S(=O)(=O)[O-])c4F)c4nc(c(-c5cccc(S(=O)(=O)[O-])c5F)c5ccc2[nH]5)C=C4)C=C3)cc1
REMARK SMILES IDX 23 1 22 2 20 3 21 4 19 5 18 6 6 7 7 8 8 9 9 10 16 11 17 12
REMARK SMILES IDX 4 13 5 14 3 15 2 16 1 17 10 18 11 19 15 20 12 21 14 22 13 23
REMARK SMILES IDX 24 24 25 25 26 26 27 27 28 28 29 29 90 30 30 31 89 32 31 33
REMARK SMILES IDX 32 34 33 35 83 36 34 37 88 38 82 39 84 40 35 41 87 42 81 43
REMARK SMILES IDX 80 44 36 46 68 47 48 48 67 49 49 50 52 51 66 52 85 53 50 54
REMARK SMILES IDX 51 55 65 57 86 58 53 59 37 60 38 61 46 62 39 63 41 64 47 65
REMARK SMILES IDX 40 66 42 67 43 68 44 69 45 70 69 71 70 72 78 73 71 74 73 75
REMARK SMILES IDX 79 76 72 77 74 78 75 79 76 80 77 81 54 82 55 83 63 84 56 85
REMARK SMILES IDX 58 86 64 87 57 88 59 89 60 90 61 91 62 92
REMARK H PARENT 84 45 52 56
REMARK Flexibility Score: inf
ROOT
ATOM      1  C   UNL     1       2.188   9.151   1.956  1.00  0.00     0.274 C 
ENDROOT
BRANCH   1   2
ATOM      2  O   UNL     1       2.738   7.901   1.504  1.00  0.00    -0.462 OA
BRANCH   2   3
ATOM      3  C   UNL     1       2.549   6.806   2.269  1.00  0.00     0.307 C 
ATOM      4  O   UNL     1       2.007   6.803   3.365  1.00  0.00    -0.252 OA
BRANCH   3   5
ATOM      5  C   UNL     1       3.164   5.568   1.656  1.00  0.00     0.141 C 
BRANCH   5   6
ATOM      6  C   UNL     1       2.718   5.273   0.223  1.00  0.00     0.130 C 
ATOM      7  C   UNL     1       3.115   3.885  -0.220  1.00  0.00     0.070 C 
ATOM      8  C   UNL     1       4.063   3.889  -1.168  1.00  0.00     0.034 C 
ATOM      9  C   UNL     1       4.790   2.722  -1.746  1.00  0.00     0.065 C 
ATOM     10  N   UNL     1       4.381   5.195  -1.472  1.00  0.00    -0.284 N 
ATOM     11  C   UNL     1       3.561   6.086  -0.761  1.00  0.00     0.239 C 
ATOM     12  O   UNL     1       3.536   7.302  -0.889  1.00  0.00    -0.273 OA
BRANCH   7  13
ATOM     13  C   UNL     1       2.620   2.672   0.431  1.00  0.00     0.336 C 
ATOM     14  O   UNL     1       3.344   1.900   1.039  1.00  0.00    -0.246 OA
BRANCH  13  15
ATOM     15  O   UNL     1       1.290   2.553   0.222  1.00  0.00    -0.463 OA
BRANCH  15  16
ATOM     16  C   UNL     1       0.683   1.369   0.771  1.00  0.00     0.230 C 
ATOM     17  C   UNL     1       0.934   0.162  -0.119  1.00  0.00     0.049 C 
ENDBRANCH  15  16
ENDBRANCH  13  15
ENDBRANCH   7  13
BRANCH  10  18
ATOM     18  C   UNL     1       5.426   5.679  -2.289  1.00  0.00     0.049 A 
ATOM     19  C   UNL     1       5.600   5.235  -3.600  1.00  0.00     0.027 A 
ATOM     20  C   UNL     1       6.316   6.628  -1.762  1.00  0.00     0.027 A 
ATOM     21  C   UNL     1       6.653   5.731  -4.372  1.00  0.00     0.002 A 
ATOM     22  C   UNL     1       7.385   7.098  -2.521  1.00  0.00     0.002 A 
ATOM     23  C   UNL     1       7.551   6.651  -3.829  1.00  0.00     0.000 A 
ENDBRANCH  10  18
ENDBRANCH   5   6
ENDBRANCH   3   5
ENDBRANCH   2   3
ENDBRANCH   1   2
BRANCH   1  24
ATOM     24  C   UNL     1       0.826   9.425   1.316  1.00  0.00     0.275 C 
BRANCH  24  25
ATOM     25  O   UNL     1      -0.183   8.556   1.862  1.00  0.00    -0.458 OA
BRANCH  25  26
ATOM     26  C   UNL     1      -0.445   7.451   1.128  1.00  0.00     0.338 C 
ATOM     27  O   UNL     1       0.017   7.157   0.040  1.00  0.00    -0.246 OA
BRANCH  26  28
ATOM     28  C   UNL     1      -1.302   6.535   1.891  1.00  0.00     0.060 A 
ATOM     29  C   UNL     1      -0.766   5.311   2.303  1.00  0.00     0.016 A 
ATOM     30  C   UNL     1      -2.650   6.829   2.094  1.00  0.00     0.016 A 
ATOM     31  C   UNL     1      -1.584   4.358   2.898  1.00  0.00     0.010 A 
ATOM     32  C   UNL     1      -3.468   5.874   2.701  1.00  0.00     0.010 A 
ATOM     33  C   UNL     1      -2.946   4.624   3.081  1.00  0.00    -0.014 A 
BRANCH  33  34
ATOM     34  C   UNL     1      -3.840   3.565   3.605  1.00  0.00     0.031 A 
ATOM     35  C   UNL     1      -4.831   2.910   2.684  1.00  0.00     0.074 A 
ATOM     36  C   UNL     1      -3.769   3.206   4.899  1.00  0.00     0.049 A 
ATOM     37  N   UNL     1      -5.750   2.022   2.958  1.00  0.00    -0.248 NA
ATOM     38  C   UNL     1      -4.785   3.311   1.268  1.00  0.00     0.031 C 
ATOM     39  C   UNL     1      -2.842   3.768   5.882  1.00  0.00     0.029 A 
ATOM     40  N   UNL     1      -4.508   2.299   5.615  1.00  0.00    -0.354 N 
ATOM     41  C   UNL     1      -6.424   1.793   1.764  1.00  0.00     0.074 A 
ATOM     42  C   UNL     1      -5.808   2.636   0.762  1.00  0.00     0.031 C 
ATOM     43  C   UNL     1      -3.083   3.211   7.079  1.00  0.00     0.029 A 
ATOM     44  C   UNL     1      -4.204   2.284   6.956  1.00  0.00     0.049 A 
ATOM     45  H   UNL     1      -5.190   1.717   5.209  1.00  0.00     0.167 HD
ATOM     46  C   UNL     1      -7.455   0.949   1.523  1.00  0.00     0.034 A 
ATOM     47  C   UNL     1      -4.785   1.619   7.974  1.00  0.00     0.034 A 
ATOM     48  C   UNL     1      -8.041   0.093   2.520  1.00  0.00     0.049 A 
ATOM     49  C   UNL     1      -5.934   0.692   7.679  1.00  0.00     0.074 A 
ATOM     50  C   UNL     1      -9.059  -0.833   2.367  1.00  0.00     0.029 A 
ATOM     51  N   UNL     1      -7.670   0.062   3.855  1.00  0.00    -0.354 N 
ATOM     52  N   UNL     1      -6.493   0.411   6.527  1.00  0.00    -0.248 NA
ATOM     53  C   UNL     1      -6.510  -0.036   8.818  1.00  0.00     0.031 C 
ATOM     54  C   UNL     1      -9.320  -1.404   3.617  1.00  0.00     0.029 A 
ATOM     55  C   UNL     1      -8.441  -0.861   4.540  1.00  0.00     0.049 A 
ATOM     56  H   UNL     1      -6.962   0.616   4.257  1.00  0.00     0.167 HD
ATOM     57  C   UNL     1      -7.457  -0.555   6.795  1.00  0.00     0.074 A 
ATOM     58  C   UNL     1      -7.393  -0.822   8.218  1.00  0.00     0.031 C 
ATOM     59  C   UNL     1      -8.324  -1.158   5.945  1.00  0.00     0.034 A 
BRANCH  46  60
ATOM     60  C   UNL     1      -8.005   0.893   0.122  1.00  0.00     0.023 A 
ATOM     61  C   UNL     1      -7.255   0.280  -0.902  1.00  0.00     0.012 A 
ATOM     62  C   UNL     1      -9.289   1.396  -0.168  1.00  0.00     0.148 A 
ATOM     63  C   UNL     1      -7.760   0.198  -2.200  1.00  0.00     0.002 A 
ATOM     64  C   UNL     1      -9.804   1.269  -1.453  1.00  0.00     0.091 A 
ATOM     65  F   UNL     1      -9.978   1.994   0.814  1.00  0.00    -0.205 F 
ATOM     66  C   UNL     1      -9.037   0.681  -2.472  1.00  0.00     0.022 A 
BRANCH  64  67
ATOM     67  S   UNL     1     -11.468   1.788  -1.886  1.00  0.00     0.127 S 
ATOM     68  O   UNL     1     -11.204   2.946  -2.739  1.00  0.00    -0.237 OA
ATOM     69  O   UNL     1     -11.981   0.614  -2.594  1.00  0.00    -0.237 OA
ATOM     70  O   UNL     1     -12.139   2.080  -0.627  1.00  0.00    -0.744 OA
ENDBRANCH  64  67
ENDBRANCH  46  60
BRANCH  47  71
ATOM     71  C   UNL     1      -4.269   1.782   9.362  1.00  0.00     0.023 A 
ATOM     72  C   UNL     1      -3.618   0.704   9.992  1.00  0.00     0.012 A 
ATOM     73  C   UNL     1      -4.404   3.002  10.053  1.00  0.00     0.148 A 
ATOM     74  C   UNL     1      -3.140   0.827  11.297  1.00  0.00     0.002 A 
ATOM     75  C   UNL     1      -3.876   3.135  11.332  1.00  0.00     0.091 A 
ATOM     76  F   UNL     1      -5.040   4.011   9.443  1.00  0.00    -0.205 F 
ATOM     77  C   UNL     1      -3.259   2.043  11.963  1.00  0.00     0.022 A 
BRANCH  75  78
ATOM     78  S   UNL     1      -3.873   4.699  12.215  1.00  0.00     0.127 S 
ATOM     79  O   UNL     1      -4.846   4.446  13.274  1.00  0.00    -0.237 OA
ATOM     80  O   UNL     1      -2.483   4.789  12.664  1.00  0.00    -0.237 OA
ATOM     81  O   UNL     1      -4.252   5.706  11.233  1.00  0.00    -0.744 OA
ENDBRANCH  75  78
ENDBRANCH  47  71
BRANCH  59  82
ATOM     82  C   UNL     1      -9.239  -2.213   6.511  1.00  0.00     0.023 A 
ATOM     83  C   UNL     1     -10.316  -1.844   7.340  1.00  0.00     0.012 A 
ATOM     84  C   UNL     1      -9.069  -3.567   6.158  1.00  0.00     0.148 A 
ATOM     85  C   UNL     1     -11.191  -2.810   7.837  1.00  0.00     0.002 A 
ATOM     86  C   UNL     1      -9.975  -4.517   6.614  1.00  0.00     0.091 A 
ATOM     87  F   UNL     1      -8.027  -3.901   5.384  1.00  0.00    -0.205 F 
ATOM     88  C   UNL     1     -11.028  -4.143   7.464  1.00  0.00     0.022 A 
BRANCH  86  89
ATOM     89  S   UNL     1      -9.901  -6.237   6.104  1.00  0.00     0.127 S 
ATOM     90  O   UNL     1      -9.417  -6.888   7.320  1.00  0.00    -0.237 OA
ATOM     91  O   UNL     1     -11.297  -6.524   5.773  1.00  0.00    -0.237 OA
ATOM     92  O   UNL     1      -8.991  -6.280   4.967  1.00  0.00    -0.744 OA
ENDBRANCH  86  89
ENDBRANCH  59  82
ENDBRANCH  33  34
ENDBRANCH  26  28
ENDBRANCH  25  26
ENDBRANCH  24  25
ENDBRANCH   1  24
TORSDOF 19
