REMARK SMILES O=C(CC1CC[NH+](C[C@H]2COc3ccccc3O2)CC1)OCCOC(=O)c1ccc(-c2c3nc(c(-c4cccc(S(=O)(=O)[O-])c4F)c4ccc([nH]4)c(-c4cccc(S(=O)(=O)[O-])c4F)c4nc(c(-c5cccc(S(=O)(=O)[O-])c5F)c5ccc2[nH]5)C=C4)C=C3)cc1
REMARK SMILES IDX 22 1 21 2 2 3 1 4 3 5 4 6 5 7 20 8 6 9 19 10 7 11 8 13 9 14
REMARK SMILES IDX 10 15 18 16 11 17 17 18 12 19 16 20 13 21 15 22 14 23 23 24
REMARK SMILES IDX 24 25 25 26 26 27 27 28 28 29 89 30 29 31 88 32 30 33 31 34
REMARK SMILES IDX 32 35 82 36 33 37 87 38 81 39 83 40 34 41 86 42 80 43 79 44
REMARK SMILES IDX 35 46 67 47 47 48 66 49 48 50 51 51 65 52 84 53 49 54 50 55
REMARK SMILES IDX 64 57 85 58 52 59 36 60 37 61 45 62 38 63 40 64 46 65 39 66
REMARK SMILES IDX 41 67 42 68 43 69 44 70 68 71 69 72 77 73 70 74 72 75 78 76
REMARK SMILES IDX 71 77 73 78 74 79 75 80 76 81 53 82 54 83 62 84 55 85 57 86
REMARK SMILES IDX 63 87 56 88 58 89 59 90 60 91 61 92
REMARK H PARENT 7 12 83 45 51 56
REMARK Flexibility Score: inf
ROOT
ATOM      1  C   UNL     1       9.586   0.974   1.143  1.00  0.00     0.274 C 
ENDROOT
BRANCH   1   2
ATOM      2  O   UNL     1      10.373   2.158   1.367  1.00  0.00    -0.462 OA
BRANCH   2   3
ATOM      3  C   UNL     1      11.136   2.632   0.339  1.00  0.00     0.306 C 
ATOM      4  O   UNL     1      12.335   2.838   0.480  1.00  0.00    -0.252 OA
BRANCH   3   5
ATOM      5  C   UNL     1      10.367   3.051  -0.899  1.00  0.00     0.126 C 
BRANCH   5   6
ATOM      6  C   UNL     1      10.955   2.608  -2.251  1.00  0.00     0.011 C 
ATOM      7  C   UNL     1      10.110   3.164  -3.414  1.00  0.00     0.066 C 
ATOM      8  C   UNL     1      11.017   1.086  -2.427  1.00  0.00     0.066 C 
ATOM      9  C   UNL     1       8.724   2.508  -3.480  1.00  0.00     0.262 C 
ATOM     10  C   UNL     1       9.634   0.430  -2.566  1.00  0.00     0.262 C 
ATOM     11  N   UNL     1       8.770   1.047  -3.574  1.00  0.00    -0.332 N 
ATOM     12  H   UNL     1       9.205   0.869  -4.479  1.00  0.00     0.348 HD
BRANCH  11  13
ATOM     13  C   UNL     1       7.433   0.397  -3.642  1.00  0.00     0.311 C 
BRANCH  13  14
ATOM     14  C   UNL     1       6.433   0.519  -2.456  1.00  0.00     0.265 C 
ATOM     15  C   UNL     1       5.654   1.832  -2.418  1.00  0.00     0.281 C 
ATOM     16  O   UNL     1       5.465  -0.565  -2.540  1.00  0.00    -0.477 OA
ATOM     17  O   UNL     1       4.942   1.932  -1.176  1.00  0.00    -0.486 OA
ATOM     18  C   UNL     1       4.437  -0.402  -1.636  1.00  0.00     0.162 A 
ATOM     19  C   UNL     1       4.208   0.798  -0.952  1.00  0.00     0.161 A 
ATOM     20  C   UNL     1       3.585  -1.484  -1.421  1.00  0.00     0.050 A 
ATOM     21  C   UNL     1       3.191   0.895  -0.005  1.00  0.00     0.050 A 
ATOM     22  C   UNL     1       2.540  -1.377  -0.495  1.00  0.00     0.004 A 
ATOM     23  C   UNL     1       2.352  -0.194   0.222  1.00  0.00     0.004 A 
ENDBRANCH  13  14
ENDBRANCH  11  13
ENDBRANCH   5   6
ENDBRANCH   3   5
ENDBRANCH   2   3
ENDBRANCH   1   2
BRANCH   1  24
ATOM     24  C   UNL     1       8.065   1.200   1.172  1.00  0.00     0.275 C 
BRANCH  24  25
ATOM     25  O   UNL     1       7.691   2.483   0.652  1.00  0.00    -0.458 OA
BRANCH  25  26
ATOM     26  C   UNL     1       7.700   3.458   1.597  1.00  0.00     0.338 C 
ATOM     27  O   UNL     1       7.774   3.288   2.805  1.00  0.00    -0.246 OA
BRANCH  26  28
ATOM     28  C   UNL     1       7.834   4.790   0.973  1.00  0.00     0.060 A 
ATOM     29  C   UNL     1       8.803   5.638   1.520  1.00  0.00     0.016 A 
ATOM     30  C   UNL     1       7.020   5.235  -0.073  1.00  0.00     0.016 A 
ATOM     31  C   UNL     1       8.912   6.955   1.080  1.00  0.00     0.010 A 
ATOM     32  C   UNL     1       7.137   6.562  -0.519  1.00  0.00     0.010 A 
ATOM     33  C   UNL     1       8.052   7.443   0.086  1.00  0.00    -0.014 A 
BRANCH  33  34
ATOM     34  C   UNL     1       8.060   8.904  -0.199  1.00  0.00     0.031 A 
ATOM     35  C   UNL     1       6.977   9.783   0.373  1.00  0.00     0.074 A 
ATOM     36  C   UNL     1       9.075   9.465  -0.884  1.00  0.00     0.049 A 
ATOM     37  N   UNL     1       6.880  11.088   0.362  1.00  0.00    -0.248 NA
ATOM     38  C   UNL     1       5.861   9.106   1.052  1.00  0.00     0.031 C 
ATOM     39  C   UNL     1      10.185   8.737  -1.498  1.00  0.00     0.029 A 
ATOM     40  N   UNL     1       9.335  10.782  -1.177  1.00  0.00    -0.354 N 
ATOM     41  C   UNL     1       5.698  11.390   1.028  1.00  0.00     0.074 A 
ATOM     42  C   UNL     1       5.094  10.129   1.403  1.00  0.00     0.031 C 
ATOM     43  C   UNL     1      11.002   9.617  -2.104  1.00  0.00     0.029 A 
ATOM     44  C   UNL     1      10.472  10.968  -1.929  1.00  0.00     0.049 A 
ATOM     45  H   UNL     1       8.761  11.524  -0.877  1.00  0.00     0.167 HD
ATOM     46  C   UNL     1       5.172  12.603   1.328  1.00  0.00     0.034 A 
ATOM     47  C   UNL     1      11.022  12.097  -2.422  1.00  0.00     0.034 A 
ATOM     48  C   UNL     1       5.769  13.862   0.968  1.00  0.00     0.049 A 
ATOM     49  C   UNL     1      10.400  13.431  -2.096  1.00  0.00     0.074 A 
ATOM     50  C   UNL     1       5.324  15.139   1.264  1.00  0.00     0.029 A 
ATOM     51  N   UNL     1       6.928  14.008   0.223  1.00  0.00    -0.354 N 
ATOM     52  N   UNL     1       9.361  13.700  -1.343  1.00  0.00    -0.248 NA
ATOM     53  C   UNL     1      11.055  14.624  -2.655  1.00  0.00     0.031 C 
ATOM     54  C   UNL     1       6.196  16.058   0.670  1.00  0.00     0.029 A 
ATOM     55  C   UNL     1       7.205  15.352   0.036  1.00  0.00     0.049 A 
ATOM     56  H   UNL     1       7.474  13.265  -0.122  1.00  0.00     0.167 HD
ATOM     57  C   UNL     1       9.262  15.088  -1.309  1.00  0.00     0.074 A 
ATOM     58  C   UNL     1      10.364  15.605  -2.091  1.00  0.00     0.031 C 
ATOM     59  C   UNL     1       8.331  15.865  -0.701  1.00  0.00     0.034 A 
BRANCH  46  60
ATOM     60  C   UNL     1       3.893  12.636   2.124  1.00  0.00     0.023 A 
ATOM     61  C   UNL     1       3.923  12.317   3.498  1.00  0.00     0.012 A 
ATOM     62  C   UNL     1       2.686  13.063   1.539  1.00  0.00     0.148 A 
ATOM     63  C   UNL     1       2.766  12.400   4.271  1.00  0.00     0.002 A 
ATOM     64  C   UNL     1       1.546  13.184   2.326  1.00  0.00     0.091 A 
ATOM     65  F   UNL     1       2.676  13.345   0.229  1.00  0.00    -0.205 F 
ATOM     66  C   UNL     1       1.582  12.844   3.688  1.00  0.00     0.022 A 
BRANCH  64  67
ATOM     67  S   UNL     1      -0.010  13.818   1.692  1.00  0.00     0.127 S 
ATOM     68  O   UNL     1      -0.865  12.634   1.770  1.00  0.00    -0.237 OA
ATOM     69  O   UNL     1      -0.331  14.867   2.660  1.00  0.00    -0.237 OA
ATOM     70  O   UNL     1       0.266  14.295   0.344  1.00  0.00    -0.744 OA
ENDBRANCH  64  67
ENDBRANCH  46  60
BRANCH  47  71
ATOM     71  C   UNL     1      12.253  12.028  -3.263  1.00  0.00     0.023 A 
ATOM     72  C   UNL     1      13.460  12.581  -2.791  1.00  0.00     0.012 A 
ATOM     73  C   UNL     1      12.221  11.444  -4.543  1.00  0.00     0.148 A 
ATOM     74  C   UNL     1      14.599  12.595  -3.598  1.00  0.00     0.002 A 
ATOM     75  C   UNL     1      13.374  11.407  -5.318  1.00  0.00     0.091 A 
ATOM     76  F   UNL     1      11.058  10.942  -4.984  1.00  0.00    -0.205 F 
ATOM     77  C   UNL     1      14.558  12.001  -4.857  1.00  0.00     0.022 A 
BRANCH  75  78
ATOM     78  S   UNL     1      13.440  10.553  -6.896  1.00  0.00     0.127 S 
ATOM     79  O   UNL     1      13.490  11.667  -7.838  1.00  0.00    -0.237 OA
ATOM     80  O   UNL     1      14.682   9.789  -6.776  1.00  0.00    -0.237 OA
ATOM     81  O   UNL     1      12.237   9.732  -6.946  1.00  0.00    -0.744 OA
ENDBRANCH  75  78
ENDBRANCH  47  71
BRANCH  59  82
ATOM     82  C   UNL     1       8.476  17.362  -0.824  1.00  0.00     0.023 A 
ATOM     83  C   UNL     1       8.251  17.991  -2.066  1.00  0.00     0.012 A 
ATOM     84  C   UNL     1       8.785  18.153   0.301  1.00  0.00     0.148 A 
ATOM     85  C   UNL     1       8.377  19.374  -2.196  1.00  0.00     0.002 A 
ATOM     86  C   UNL     1       8.857  19.536   0.175  1.00  0.00     0.091 A 
ATOM     87  F   UNL     1       9.011  17.541   1.472  1.00  0.00    -0.205 F 
ATOM     88  C   UNL     1       8.669  20.147  -1.075  1.00  0.00     0.022 A 
BRANCH  86  89
ATOM     89  S   UNL     1       9.133  20.621   1.581  1.00  0.00     0.127 S 
ATOM     90  O   UNL     1      10.509  21.060   1.353  1.00  0.00    -0.237 OA
ATOM     91  O   UNL     1       8.120  21.657   1.378  1.00  0.00    -0.237 OA
ATOM     92  O   UNL     1       8.926  19.800   2.767  1.00  0.00    -0.744 OA
ENDBRANCH  86  89
ENDBRANCH  59  82
ENDBRANCH  33  34
ENDBRANCH  26  28
ENDBRANCH  25  26
ENDBRANCH  24  25
ENDBRANCH   1  24
TORSDOF 17
