REMARK SMILES O=C(COc1ccccc1[C@@H]1[NH2+]CCc2cc(O)c(O)cc21)OCCOC(=O)c1ccc(-c2c3nc(c(-c4cccc(S(=O)(=O)[O-])c4F)c4ccc([nH]4)c(-c4cccc(S(=O)(=O)[O-])c4F)c4nc(c(-c5cccc(S(=O)(=O)[O-])c5F)c5ccc2[nH]5)C=C4)C=C3)cc1
REMARK SMILES IDX 24 1 23 2 2 3 1 4 3 5 4 6 5 7 6 8 10 9 7 10 9 11 8 12 11 13
REMARK SMILES IDX 12 14 22 15 13 16 15 19 21 20 14 21 16 22 19 23 17 24 20 25
REMARK SMILES IDX 18 27 25 29 26 30 27 31 28 32 29 33 30 34 91 35 31 36 90 37
REMARK SMILES IDX 32 38 33 39 34 40 84 41 35 42 89 43 83 44 85 45 36 46 88 47
REMARK SMILES IDX 82 48 81 49 37 51 69 52 49 53 68 54 50 55 53 56 67 57 86 58
REMARK SMILES IDX 51 59 52 60 66 62 87 63 54 64 38 65 39 66 47 67 40 68 42 69
REMARK SMILES IDX 48 70 41 71 43 72 44 73 45 74 46 75 70 76 71 77 79 78 72 79
REMARK SMILES IDX 74 80 80 81 73 82 75 83 76 84 77 85 78 86 55 87 56 88 64 89
REMARK SMILES IDX 57 90 59 91 65 92 58 93 60 94 61 95 62 96 63 97
REMARK H PARENT 12 17 12 18 20 26 18 28 85 50 53 61
REMARK Flexibility Score: inf
ROOT
ATOM      1  C   UNL     1       5.341  -0.049  -1.191  1.00  0.00     0.274 C 
ENDROOT
BRANCH   1   2
ATOM      2  O   UNL     1       4.061  -0.640  -0.902  1.00  0.00    -0.460 OA
BRANCH   2   3
ATOM      3  C   UNL     1       3.130   0.147  -0.294  1.00  0.00     0.344 C 
ATOM      4  O   UNL     1       2.018   0.265  -0.798  1.00  0.00    -0.248 OA
BRANCH   3   5
ATOM      5  C   UNL     1       3.578   0.782   1.028  1.00  0.00     0.351 C 
BRANCH   5   6
ATOM      6  O   UNL     1       3.994  -0.153   1.995  1.00  0.00    -0.481 OA
BRANCH   6   7
ATOM      7  C   UNL     1       3.186  -0.606   3.001  1.00  0.00     0.129 A 
ATOM      8  C   UNL     1       3.971  -0.871   4.141  1.00  0.00     0.047 A 
ATOM      9  C   UNL     1       1.817  -0.969   2.995  1.00  0.00     0.056 A 
ATOM     10  C   UNL     1       3.471  -1.573   5.229  1.00  0.00     0.004 A 
ATOM     11  C   UNL     1       1.370  -1.771   4.073  1.00  0.00     0.014 A 
ATOM     12  C   UNL     1       2.181  -2.069   5.171  1.00  0.00     0.001 A 
BRANCH   9  13
ATOM     13  C   UNL     1       0.807  -0.565   1.917  1.00  0.00     0.249 C 
ATOM     14  N   UNL     1       0.806   0.890   1.686  1.00  0.00    -0.336 N 
ATOM     15  C   UNL     1      -0.681  -0.924   2.059  1.00  0.00     0.021 A 
ATOM     16  C   UNL     1       0.245   1.676   2.796  1.00  0.00     0.266 C 
ATOM     17  H   UNL     1       0.255   1.081   0.849  1.00  0.00     0.347 HD
ATOM     18  H   UNL     1       1.781   1.173   1.590  1.00  0.00     0.347 HD
ATOM     19  C   UNL     1      -1.476  -0.101   2.900  1.00  0.00    -0.029 A 
ATOM     20  C   UNL     1      -1.306  -1.819   1.179  1.00  0.00     0.060 A 
ATOM     21  C   UNL     1      -0.761   0.955   3.702  1.00  0.00     0.097 C 
ATOM     22  C   UNL     1      -2.869  -0.167   2.858  1.00  0.00     0.054 A 
ATOM     23  C   UNL     1      -2.696  -1.836   1.112  1.00  0.00     0.157 A 
ATOM     24  C   UNL     1      -3.464  -1.014   1.938  1.00  0.00     0.157 A 
BRANCH  23  25
ATOM     25  O   UNL     1      -3.361  -2.598   0.187  1.00  0.00    -0.504 OA
ATOM     26  H   UNL     1      -4.297  -2.593   0.162  1.00  0.00     0.293 HD
ENDBRANCH  23  25
BRANCH  24  27
ATOM     27  O   UNL     1      -4.822  -0.979   1.792  1.00  0.00    -0.504 OA
ATOM     28  H   UNL     1      -5.339  -0.427   2.345  1.00  0.00     0.293 HD
ENDBRANCH  24  27
ENDBRANCH   9  13
ENDBRANCH   6   7
ENDBRANCH   5   6
ENDBRANCH   3   5
ENDBRANCH   2   3
ENDBRANCH   1   2
BRANCH   1  29
ATOM     29  C   UNL     1       5.209   1.150  -2.143  1.00  0.00     0.275 C 
BRANCH  29  30
ATOM     30  O   UNL     1       4.671   2.287  -1.430  1.00  0.00    -0.458 OA
BRANCH  30  31
ATOM     31  C   UNL     1       3.546   2.853  -1.951  1.00  0.00     0.338 C 
ATOM     32  O   UNL     1       3.037   2.596  -3.021  1.00  0.00    -0.246 OA
BRANCH  31  33
ATOM     33  C   UNL     1       2.926   3.739  -0.930  1.00  0.00     0.060 A 
ATOM     34  C   UNL     1       1.558   3.592  -0.671  1.00  0.00     0.016 A 
ATOM     35  C   UNL     1       3.660   4.713  -0.246  1.00  0.00     0.016 A 
ATOM     36  C   UNL     1       0.920   4.429   0.252  1.00  0.00     0.010 A 
ATOM     37  C   UNL     1       3.015   5.562   0.668  1.00  0.00     0.010 A 
ATOM     38  C   UNL     1       1.636   5.440   0.911  1.00  0.00    -0.014 A 
BRANCH  38  39
ATOM     39  C   UNL     1       0.902   6.444   1.732  1.00  0.00     0.031 A 
ATOM     40  C   UNL     1       0.354   7.676   1.062  1.00  0.00     0.074 A 
ATOM     41  C   UNL     1       0.690   6.270   3.051  1.00  0.00     0.049 A 
ATOM     42  N   UNL     1      -0.355   8.650   1.571  1.00  0.00    -0.248 NA
ATOM     43  C   UNL     1       0.644   7.825  -0.373  1.00  0.00     0.031 C 
ATOM     44  C   UNL     1       1.165   5.139   3.843  1.00  0.00     0.029 A 
ATOM     45  N   UNL     1       0.022   7.059   3.960  1.00  0.00    -0.354 N 
ATOM     46  C   UNL     1      -0.601   9.528   0.523  1.00  0.00     0.074 A 
ATOM     47  C   UNL     1       0.051   8.978  -0.648  1.00  0.00     0.031 C 
ATOM     48  C   UNL     1       0.779   5.308   5.121  1.00  0.00     0.029 A 
ATOM     49  C   UNL     1       0.053   6.572   5.247  1.00  0.00     0.049 A 
ATOM     50  H   UNL     1      -0.435   7.894   3.712  1.00  0.00     0.167 HD
ATOM     51  C   UNL     1      -1.313  10.680   0.521  1.00  0.00     0.034 A 
ATOM     52  C   UNL     1      -0.430   7.092   6.395  1.00  0.00     0.034 A 
ATOM     53  C   UNL     1      -1.950  11.258   1.674  1.00  0.00     0.049 A 
ATOM     54  C   UNL     1      -1.179   8.405   6.372  1.00  0.00     0.074 A 
ATOM     55  C   UNL     1      -2.683  12.430   1.752  1.00  0.00     0.029 A 
ATOM     56  N   UNL     1      -1.918  10.724   2.951  1.00  0.00    -0.354 N 
ATOM     57  N   UNL     1      -1.508   9.156   5.350  1.00  0.00    -0.248 NA
ATOM     58  C   UNL     1      -1.649   8.927   7.668  1.00  0.00     0.031 C 
ATOM     59  C   UNL     1      -3.078  12.615   3.082  1.00  0.00     0.029 A 
ATOM     60  C   UNL     1      -2.611  11.545   3.826  1.00  0.00     0.049 A 
ATOM     61  H   UNL     1      -1.470   9.884   3.201  1.00  0.00     0.167 HD
ATOM     62  C   UNL     1      -2.244  10.217   5.874  1.00  0.00     0.074 A 
ATOM     63  C   UNL     1      -2.346   9.993   7.300  1.00  0.00     0.031 C 
ATOM     64  C   UNL     1      -2.766  11.294   5.236  1.00  0.00     0.034 A 
BRANCH  51  65
ATOM     65  C   UNL     1      -1.469  11.388  -0.796  1.00  0.00     0.023 A 
ATOM     66  C   UNL     1      -2.369  10.873  -1.751  1.00  0.00     0.012 A 
ATOM     67  C   UNL     1      -0.774  12.581  -1.067  1.00  0.00     0.148 A 
ATOM     68  C   UNL     1      -2.558  11.524  -2.968  1.00  0.00     0.002 A 
ATOM     69  C   UNL     1      -0.996  13.245  -2.267  1.00  0.00     0.091 A 
ATOM     70  F   UNL     1       0.092  13.038  -0.152  1.00  0.00    -0.205 F 
ATOM     71  C   UNL     1      -1.880  12.714  -3.222  1.00  0.00     0.022 A 
BRANCH  69  72
ATOM     72  S   UNL     1      -0.221  14.816  -2.664  1.00  0.00     0.127 S 
ATOM     73  O   UNL     1       0.692  14.430  -3.739  1.00  0.00    -0.237 OA
ATOM     74  O   UNL     1      -1.363  15.622  -3.093  1.00  0.00    -0.237 OA
ATOM     75  O   UNL     1       0.419  15.270  -1.437  1.00  0.00    -0.744 OA
ENDBRANCH  69  72
ENDBRANCH  51  65
BRANCH  52  76
ATOM     76  C   UNL     1      -0.239   6.376   7.692  1.00  0.00     0.023 A 
ATOM     77  C   UNL     1      -1.358   5.872   8.384  1.00  0.00     0.012 A 
ATOM     78  C   UNL     1       1.039   6.239   8.266  1.00  0.00     0.148 A 
ATOM     79  C   UNL     1      -1.213   5.288   9.643  1.00  0.00     0.002 A 
ATOM     80  C   UNL     1       1.183   5.602   9.493  1.00  0.00     0.091 A 
ATOM     81  F   UNL     1       2.091   6.750   7.610  1.00  0.00    -0.205 F 
ATOM     82  C   UNL     1       0.057   5.145  10.194  1.00  0.00     0.022 A 
BRANCH  80  83
ATOM     83  S   UNL     1       2.795   5.268  10.212  1.00  0.00     0.127 S 
ATOM     84  O   UNL     1       2.858   6.260  11.282  1.00  0.00    -0.237 OA
ATOM     85  O   UNL     1       2.646   3.883  10.663  1.00  0.00    -0.237 OA
ATOM     86  O   UNL     1       3.748   5.441   9.124  1.00  0.00    -0.744 OA
ENDBRANCH  80  83
ENDBRANCH  52  76
BRANCH  64  87
ATOM     87  C   UNL     1      -3.521  12.310   6.060  1.00  0.00     0.023 A 
ATOM     88  C   UNL     1      -2.820  13.145   6.955  1.00  0.00     0.012 A 
ATOM     89  C   UNL     1      -4.912  12.482   5.908  1.00  0.00     0.148 A 
ATOM     90  C   UNL     1      -3.495  14.103   7.713  1.00  0.00     0.002 A 
ATOM     91  C   UNL     1      -5.571  13.471   6.632  1.00  0.00     0.091 A 
ATOM     92  F   UNL     1      -5.570  11.670   5.068  1.00  0.00    -0.205 F 
ATOM     93  C   UNL     1      -4.866  14.273   7.544  1.00  0.00     0.022 A 
BRANCH  91  94
ATOM     94  S   UNL     1      -7.319  13.822   6.409  1.00  0.00     0.127 S 
ATOM     95  O   UNL     1      -7.904  13.199   7.594  1.00  0.00    -0.237 OA
ATOM     96  O   UNL     1      -7.349  15.286   6.413  1.00  0.00    -0.237 OA
ATOM     97  O   UNL     1      -7.685  13.219   5.134  1.00  0.00    -0.744 OA
ENDBRANCH  91  94
ENDBRANCH  64  87
ENDBRANCH  38  39
ENDBRANCH  31  33
ENDBRANCH  30  31
ENDBRANCH  29  30
ENDBRANCH   1  29
TORSDOF 19
