REMARK SMILES CC(C)Cc1ccc(-c2cc(Cl)cc3c2O[C@H](C(F)(F)F)C(C(=O)OCCOC(=O)c2ccc(-c4c5nc(c(-c6cccc(S(=O)(=O)[O-])c6F)c6ccc([nH]6)c(-c6cccc(S(=O)(=O)[O-])c6F)c6nc(c(-c7cccc(S(=O)(=O)[O-])c7F)c7ccc4[nH]7)C=C6)C=C5)cc2)=C3)cc1
REMARK SMILES IDX 26 1 25 2 23 3 24 4 22 5 9 6 10 7 15 8 11 9 14 10 16 11
REMARK SMILES IDX 12 12 13 13 94 14 17 15 8 16 5 17 6 18 96 19 7 20 95 21 4 22
REMARK SMILES IDX 2 23 1 24 3 25 18 26 19 27 20 28 21 29 27 30 28 31 29 32
REMARK SMILES IDX 30 33 31 34 32 35 93 36 33 37 92 38 34 39 35 40 36 41 86 42
REMARK SMILES IDX 37 43 91 44 85 45 87 46 38 47 90 48 84 49 83 50 39 52 71 53
REMARK SMILES IDX 51 54 70 55 52 56 55 57 69 58 88 59 53 60 54 61 68 63 89 64
REMARK SMILES IDX 56 65 40 66 41 67 49 68 42 69 44 70 50 71 43 72 45 73 46 74
REMARK SMILES IDX 47 75 48 76 72 77 73 78 81 79 74 80 76 81 82 82 75 83 77 84
REMARK SMILES IDX 78 85 79 86 80 87 57 88 58 89 66 90 59 91 61 92 67 93 60 94
REMARK SMILES IDX 62 95 63 96 64 97 65 98
REMARK H PARENT 87 51 55 62
REMARK Flexibility Score: inf
ROOT
ATOM      1  C   UNL     1      -3.801   3.955  10.943  1.00  0.00     0.275 C 
ENDROOT
BRANCH   1   2
ATOM      2  O   UNL     1      -2.979   2.942  10.307  1.00  0.00    -0.459 OA
BRANCH   2   3
ATOM      3  C   UNL     1      -3.591   1.731  10.226  1.00  0.00     0.338 C 
ATOM      4  O   UNL     1      -4.722   1.504  10.644  1.00  0.00    -0.246 OA
BRANCH   3   5
ATOM      5  C   UNL     1      -2.779   0.667   9.576  1.00  0.00     0.087 C 
ATOM      6  C   UNL     1      -2.482   0.760   5.547  1.00  0.00     0.026 A 
ATOM      7  C   UNL     1      -3.653   1.505   5.265  1.00  0.00     0.033 A 
ATOM      8  C   UNL     1      -2.410   0.316   6.871  1.00  0.00     0.135 A 
ATOM      9  C   UNL     1      -4.740   1.610   6.138  1.00  0.00     0.042 A 
ATOM     10  C   UNL     1      -3.609   0.188   7.623  1.00  0.00     0.019 A 
ATOM     11  O   UNL     1      -1.231   0.239   7.614  1.00  0.00    -0.475 OA
ATOM     12  Cl  UNL     1      -6.013   2.743   5.962  1.00  0.00    -0.084 Cl
ATOM     13  C   UNL     1      -4.780   0.820   7.254  1.00  0.00     0.032 A 
ATOM     14  C   UNL     1      -3.524  -0.300   9.012  1.00  0.00     0.027 C 
ATOM     15  C   UNL     1      -1.390   0.855   8.993  1.00  0.00     0.316 C 
BRANCH   6  16
ATOM     16  C   UNL     1      -1.665   0.417   4.330  1.00  0.00    -0.015 A 
ATOM     17  C   UNL     1      -1.001   0.366   1.503  1.00  0.00    -0.048 A 
ATOM     18  C   UNL     1      -0.380   1.251   2.393  1.00  0.00     0.004 A 
ATOM     19  C   UNL     1      -1.896  -0.554   2.057  1.00  0.00     0.004 A 
ATOM     20  C   UNL     1      -0.664   1.235   3.788  1.00  0.00     0.009 A 
ATOM     21  C   UNL     1      -2.216  -0.528   3.432  1.00  0.00     0.009 A 
BRANCH  17  22
ATOM     22  C   UNL     1      -0.811   0.430  -0.013  1.00  0.00     0.038 C 
BRANCH  22  23
ATOM     23  C   UNL     1       0.629   0.645  -0.538  1.00  0.00    -0.013 C 
ATOM     24  C   UNL     1       1.603  -0.385   0.033  1.00  0.00     0.008 C 
ATOM     25  C   UNL     1       0.694   0.565  -2.071  1.00  0.00     0.008 C 
ENDBRANCH  22  23
ENDBRANCH  17  22
ENDBRANCH   6  16
BRANCH  15  26
ATOM     26  C   UNL     1      -0.446   0.193  10.007  1.00  0.00     0.430 C 
ATOM     27  F   UNL     1      -0.624  -1.150  10.062  1.00  0.00    -0.167 F 
ATOM     28  F   UNL     1       0.855   0.424   9.736  1.00  0.00    -0.167 F 
ATOM     29  F   UNL     1      -0.674   0.663  11.264  1.00  0.00    -0.167 F 
ENDBRANCH  15  26
ENDBRANCH   3   5
ENDBRANCH   2   3
ENDBRANCH   1   2
BRANCH   1  30
ATOM     30  C   UNL     1      -3.566   5.372  10.407  1.00  0.00     0.275 C 
BRANCH  30  31
ATOM     31  O   UNL     1      -3.683   5.434   8.975  1.00  0.00    -0.458 OA
BRANCH  31  32
ATOM     32  C   UNL     1      -2.505   5.308   8.321  1.00  0.00     0.338 C 
ATOM     33  O   UNL     1      -1.406   5.178   8.851  1.00  0.00    -0.246 OA
BRANCH  32  34
ATOM     34  C   UNL     1      -2.697   5.206   6.853  1.00  0.00     0.060 A 
ATOM     35  C   UNL     1      -1.757   4.450   6.164  1.00  0.00     0.016 A 
ATOM     36  C   UNL     1      -3.734   5.817   6.132  1.00  0.00     0.016 A 
ATOM     37  C   UNL     1      -1.892   4.267   4.788  1.00  0.00     0.010 A 
ATOM     38  C   UNL     1      -3.864   5.609   4.734  1.00  0.00     0.010 A 
ATOM     39  C   UNL     1      -2.962   4.793   4.043  1.00  0.00    -0.014 A 
BRANCH  39  40
ATOM     40  C   UNL     1      -3.011   4.447   2.573  1.00  0.00     0.031 A 
ATOM     41  C   UNL     1      -1.856   4.841   1.697  1.00  0.00     0.074 A 
ATOM     42  C   UNL     1      -3.927   3.610   2.031  1.00  0.00     0.049 A 
ATOM     43  N   UNL     1      -1.595   4.479   0.469  1.00  0.00    -0.248 NA
ATOM     44  C   UNL     1      -0.868   5.760   2.283  1.00  0.00     0.031 C 
ATOM     45  C   UNL     1      -5.096   3.105   2.720  1.00  0.00     0.029 A 
ATOM     46  N   UNL     1      -3.982   2.954   0.815  1.00  0.00    -0.354 N 
ATOM     47  C   UNL     1      -0.432   5.142   0.123  1.00  0.00     0.074 A 
ATOM     48  C   UNL     1      -0.002   5.884   1.290  1.00  0.00     0.031 C 
ATOM     49  C   UNL     1      -5.634   2.084   2.036  1.00  0.00     0.029 A 
ATOM     50  C   UNL     1      -4.977   1.993   0.739  1.00  0.00     0.049 A 
ATOM     51  H   UNL     1      -3.369   3.152   0.070  1.00  0.00     0.167 HD
ATOM     52  C   UNL     1       0.203   5.175  -1.070  1.00  0.00     0.034 A 
ATOM     53  C   UNL     1      -5.365   1.170  -0.263  1.00  0.00     0.034 A 
ATOM     54  C   UNL     1      -0.246   4.525  -2.268  1.00  0.00     0.049 A 
ATOM     55  C   UNL     1      -4.702   1.310  -1.609  1.00  0.00     0.074 A 
ATOM     56  C   UNL     1       0.325   4.573  -3.528  1.00  0.00     0.029 A 
ATOM     57  N   UNL     1      -1.383   3.743  -2.375  1.00  0.00    -0.354 N 
ATOM     58  N   UNL     1      -3.644   2.009  -1.937  1.00  0.00    -0.248 NA
ATOM     59  C   UNL     1      -5.308   0.583  -2.738  1.00  0.00     0.031 C 
ATOM     60  C   UNL     1      -0.476   3.831  -4.402  1.00  0.00     0.029 A 
ATOM     61  C   UNL     1      -1.510   3.271  -3.672  1.00  0.00     0.049 A 
ATOM     62  H   UNL     1      -2.008   3.550  -1.639  1.00  0.00     0.167 HD
ATOM     63  C   UNL     1      -3.457   1.804  -3.299  1.00  0.00     0.074 A 
ATOM     64  C   UNL     1      -4.484   0.883  -3.733  1.00  0.00     0.031 C 
ATOM     65  C   UNL     1      -2.525   2.352  -4.114  1.00  0.00     0.034 A 
BRANCH  52  66
ATOM     66  C   UNL     1       1.430   6.030  -1.141  1.00  0.00     0.023 A 
ATOM     67  C   UNL     1       2.638   5.582  -0.574  1.00  0.00     0.012 A 
ATOM     68  C   UNL     1       1.370   7.288  -1.766  1.00  0.00     0.148 A 
ATOM     69  C   UNL     1       3.769   6.394  -0.605  1.00  0.00     0.002 A 
ATOM     70  C   UNL     1       2.510   8.072  -1.830  1.00  0.00     0.091 A 
ATOM     71  F   UNL     1       0.194   7.701  -2.260  1.00  0.00    -0.205 F 
ATOM     72  C   UNL     1       3.707   7.633  -1.240  1.00  0.00     0.022 A 
BRANCH  70  73
ATOM     73  S   UNL     1       2.538   9.653  -2.677  1.00  0.00     0.127 S 
ATOM     74  O   UNL     1       2.659  10.584  -1.556  1.00  0.00    -0.237 OA
ATOM     75  O   UNL     1       3.737   9.534  -3.506  1.00  0.00    -0.237 OA
ATOM     76  O   UNL     1       1.289   9.733  -3.421  1.00  0.00    -0.744 OA
ENDBRANCH  70  73
ENDBRANCH  52  66
BRANCH  53  77
ATOM     77  C   UNL     1      -6.492   0.190  -0.097  1.00  0.00     0.023 A 
ATOM     78  C   UNL     1      -6.276  -1.184  -0.340  1.00  0.00     0.012 A 
ATOM     79  C   UNL     1      -7.793   0.613   0.240  1.00  0.00     0.148 A 
ATOM     80  C   UNL     1      -7.332  -2.100  -0.283  1.00  0.00     0.002 A 
ATOM     81  C   UNL     1      -8.820  -0.315   0.381  1.00  0.00     0.091 A 
ATOM     82  F   UNL     1      -8.017   1.925   0.401  1.00  0.00    -0.205 F 
ATOM     83  C   UNL     1      -8.600  -1.669   0.095  1.00  0.00     0.022 A 
BRANCH  81  84
ATOM     84  S   UNL     1     -10.436   0.145   1.016  1.00  0.00     0.127 S 
ATOM     85  O   UNL     1     -11.259   0.089  -0.188  1.00  0.00    -0.237 OA
ATOM     86  O   UNL     1     -10.693  -0.916   1.990  1.00  0.00    -0.237 OA
ATOM     87  O   UNL     1     -10.259   1.466   1.606  1.00  0.00    -0.744 OA
ENDBRANCH  81  84
ENDBRANCH  53  77
BRANCH  65  88
ATOM     88  C   UNL     1      -2.535   1.950  -5.566  1.00  0.00     0.023 A 
ATOM     89  C   UNL     1      -3.546   2.426  -6.423  1.00  0.00     0.012 A 
ATOM     90  C   UNL     1      -1.500   1.152  -6.093  1.00  0.00     0.148 A 
ATOM     91  C   UNL     1      -3.539   2.096  -7.779  1.00  0.00     0.002 A 
ATOM     92  C   UNL     1      -1.471   0.870  -7.453  1.00  0.00     0.091 A 
ATOM     93  F   UNL     1      -0.562   0.689  -5.255  1.00  0.00    -0.205 F 
ATOM     94  C   UNL     1      -2.496   1.330  -8.296  1.00  0.00     0.022 A 
BRANCH  92  95
ATOM     95  S   UNL     1      -0.122  -0.031  -8.225  1.00  0.00     0.127 S 
ATOM     96  O   UNL     1      -0.788  -1.263  -8.644  1.00  0.00    -0.237 OA
ATOM     97  O   UNL     1       0.255   0.863  -9.321  1.00  0.00    -0.237 OA
ATOM     98  O   UNL     1       0.895  -0.195  -7.196  1.00  0.00    -0.744 OA
ENDBRANCH  92  95
ENDBRANCH  65  88
ENDBRANCH  39  40
ENDBRANCH  32  34
ENDBRANCH  31  32
ENDBRANCH  30  31
ENDBRANCH   1  30
TORSDOF 18
