REMARK SMILES CC(=O)N1CCC[C@@H](Cc2nccnc2C(=O)OCCOC(=O)c2ccc(-c3c4nc(c(-c5cccc(S(=O)(=O)[O-])c5F)c5ccc([nH]5)c(-c5cccc(S(=O)(=O)[O-])c5F)c5nc(c(-c6cccc(S(=O)(=O)[O-])c6F)c6ccc3[nH]6)C=C5)C=C4)cc2)C1
REMARK SMILES IDX 19 1 18 2 16 3 17 4 15 5 10 6 11 7 12 8 14 9 13 10 9 11 8 12
REMARK SMILES IDX 4 13 5 14 87 15 6 16 7 17 2 18 1 19 3 20 20 21 21 22 22 23
REMARK SMILES IDX 23 24 24 25 25 26 86 27 26 28 85 29 27 30 28 31 29 32 79 33
REMARK SMILES IDX 30 34 84 35 78 36 80 37 31 38 83 39 77 40 76 41 32 43 64 44
REMARK SMILES IDX 44 45 63 46 45 47 48 48 62 49 81 50 46 51 47 52 61 54 82 55
REMARK SMILES IDX 49 56 33 57 34 58 42 59 35 60 37 61 43 62 36 63 38 64 39 65
REMARK SMILES IDX 40 66 41 67 65 68 66 69 74 70 67 71 69 72 75 73 68 74 70 75
REMARK SMILES IDX 71 76 72 77 73 78 50 79 51 80 59 81 52 82 54 83 60 84 53 85
REMARK SMILES IDX 55 86 56 87 57 88 58 89
REMARK H PARENT 80 42 48 53
REMARK Flexibility Score: inf
ROOT
ATOM      1  C   UNL     1       5.557   0.019  -7.815  1.00  0.00     0.275 C 
ENDROOT
BRANCH   1   2
ATOM      2  O   UNL     1       4.992   0.797  -6.739  1.00  0.00    -0.457 OA
BRANCH   2   3
ATOM      3  C   UNL     1       5.856   1.608  -6.068  1.00  0.00     0.358 C 
ATOM      4  O   UNL     1       7.054   1.685  -6.248  1.00  0.00    -0.244 OA
BRANCH   3   5
ATOM      5  C   UNL     1       5.109   2.463  -5.102  1.00  0.00     0.169 A 
ATOM      6  C   UNL     1       4.251   1.964  -4.123  1.00  0.00     0.074 A 
ATOM      7  N   UNL     1       3.630   2.815  -3.252  1.00  0.00    -0.257 NA
ATOM      8  C   UNL     1       3.844   4.139  -3.421  1.00  0.00     0.131 A 
ATOM      9  N   UNL     1       5.365   3.800  -5.221  1.00  0.00    -0.246 NA
ATOM     10  C   UNL     1       4.698   4.622  -4.386  1.00  0.00     0.132 A 
BRANCH   6  11
ATOM     11  C   UNL     1       4.035   0.500  -3.851  1.00  0.00     0.064 C 
BRANCH  11  12
ATOM     12  C   UNL     1       2.566   0.035  -3.771  1.00  0.00     0.015 C 
ATOM     13  N   UNL     1       0.467   0.033  -2.480  1.00  0.00    -0.343 N 
ATOM     14  C   UNL     1      -0.356   0.199  -3.678  1.00  0.00     0.119 C 
ATOM     15  C   UNL     1       1.807   0.614  -2.566  1.00  0.00     0.123 C 
ATOM     16  C   UNL     1       0.360  -0.290  -4.936  1.00  0.00     0.022 C 
ATOM     17  C   UNL     1       1.772   0.291  -5.061  1.00  0.00     0.007 C 
BRANCH  13  18
ATOM     18  C   UNL     1      -0.099  -0.486  -1.327  1.00  0.00     0.219 C 
ATOM     19  C   UNL     1       0.740  -0.455  -0.073  1.00  0.00     0.114 C 
ATOM     20  O   UNL     1      -1.239  -0.952  -1.288  1.00  0.00    -0.275 OA
ENDBRANCH  13  18
ENDBRANCH  11  12
ENDBRANCH   6  11
ENDBRANCH   3   5
ENDBRANCH   2   3
ENDBRANCH   1   2
BRANCH   1  21
ATOM     21  C   UNL     1       4.720   0.182  -9.085  1.00  0.00     0.275 C 
BRANCH  21  22
ATOM     22  O   UNL     1       4.812   1.530  -9.580  1.00  0.00    -0.458 OA
BRANCH  22  23
ATOM     23  C   UNL     1       3.848   2.372  -9.140  1.00  0.00     0.338 C 
ATOM     24  O   UNL     1       2.878   2.097  -8.454  1.00  0.00    -0.246 OA
BRANCH  23  25
ATOM     25  C   UNL     1       4.239   3.747  -9.478  1.00  0.00     0.060 A 
ATOM     26  C   UNL     1       4.734   4.541  -8.446  1.00  0.00     0.016 A 
ATOM     27  C   UNL     1       4.095   4.265 -10.762  1.00  0.00     0.016 A 
ATOM     28  C   UNL     1       5.081   5.866  -8.678  1.00  0.00     0.010 A 
ATOM     29  C   UNL     1       4.467   5.593 -11.004  1.00  0.00     0.010 A 
ATOM     30  C   UNL     1       4.960   6.403  -9.964  1.00  0.00    -0.014 A 
BRANCH  30  31
ATOM     31  C   UNL     1       5.364   7.807 -10.221  1.00  0.00     0.031 A 
ATOM     32  C   UNL     1       4.333   8.834 -10.584  1.00  0.00     0.074 A 
ATOM     33  C   UNL     1       6.666   8.147 -10.149  1.00  0.00     0.049 A 
ATOM     34  N   UNL     1       4.503  10.066 -10.987  1.00  0.00    -0.248 NA
ATOM     35  C   UNL     1       2.923   8.422 -10.482  1.00  0.00     0.031 C 
ATOM     36  C   UNL     1       7.755   7.240  -9.782  1.00  0.00     0.029 A 
ATOM     37  N   UNL     1       7.297   9.338 -10.407  1.00  0.00    -0.354 N 
ATOM     38  C   UNL     1       3.229  10.562 -11.235  1.00  0.00     0.074 A 
ATOM     39  C   UNL     1       2.294   9.501 -10.928  1.00  0.00     0.031 C 
ATOM     40  C   UNL     1       8.921   7.899  -9.861  1.00  0.00     0.029 A 
ATOM     41  C   UNL     1       8.668   9.254 -10.339  1.00  0.00     0.049 A 
ATOM     42  H   UNL     1       6.816  10.170 -10.621  1.00  0.00     0.167 HD
ATOM     43  C   UNL     1       2.875  11.794 -11.670  1.00  0.00     0.034 A 
ATOM     44  C   UNL     1       9.619  10.149 -10.672  1.00  0.00     0.034 A 
ATOM     45  C   UNL     1       3.809  12.855 -11.937  1.00  0.00     0.049 A 
ATOM     46  C   UNL     1       9.200  11.498 -11.187  1.00  0.00     0.074 A 
ATOM     47  C   UNL     1       3.546  14.152 -12.344  1.00  0.00     0.029 A 
ATOM     48  N   UNL     1       5.187  12.743 -11.826  1.00  0.00    -0.354 N 
ATOM     49  N   UNL     1       7.990  11.980 -11.345  1.00  0.00    -0.248 NA
ATOM     50  C   UNL     1      10.272  12.431 -11.558  1.00  0.00     0.031 C 
ATOM     51  C   UNL     1       4.768  14.819 -12.493  1.00  0.00     0.029 A 
ATOM     52  C   UNL     1       5.790  13.941 -12.168  1.00  0.00     0.049 A 
ATOM     53  H   UNL     1       5.666  11.930 -11.544  1.00  0.00     0.167 HD
ATOM     54  C   UNL     1       8.155  13.273 -11.825  1.00  0.00     0.074 A 
ATOM     55  C   UNL     1       9.582  13.512 -11.899  1.00  0.00     0.031 C 
ATOM     56  C   UNL     1       7.211  14.172 -12.197  1.00  0.00     0.034 A 
BRANCH  43  57
ATOM     57  C   UNL     1       1.408  12.072 -11.861  1.00  0.00     0.023 A 
ATOM     58  C   UNL     1       0.592  12.300 -10.736  1.00  0.00     0.012 A 
ATOM     59  C   UNL     1       0.850  12.162 -13.152  1.00  0.00     0.148 A 
ATOM     60  C   UNL     1      -0.763  12.589 -10.890  1.00  0.00     0.002 A 
ATOM     61  C   UNL     1      -0.495  12.484 -13.298  1.00  0.00     0.091 A 
ATOM     62  F   UNL     1       1.638  11.917 -14.208  1.00  0.00    -0.205 F 
ATOM     63  C   UNL     1      -1.304  12.690 -12.169  1.00  0.00     0.022 A 
BRANCH  61  64
ATOM     64  S   UNL     1      -1.267  12.698 -14.906  1.00  0.00     0.127 S 
ATOM     65  O   UNL     1      -2.066  11.479 -15.014  1.00  0.00    -0.237 OA
ATOM     66  O   UNL     1      -2.046  13.922 -14.716  1.00  0.00    -0.237 OA
ATOM     67  O   UNL     1      -0.173  12.820 -15.861  1.00  0.00    -0.744 OA
ENDBRANCH  61  64
ENDBRANCH  43  57
BRANCH  44  68
ATOM     68  C   UNL     1      11.057   9.786 -10.531  1.00  0.00     0.023 A 
ATOM     69  C   UNL     1      11.837  10.408  -9.538  1.00  0.00     0.012 A 
ATOM     70  C   UNL     1      11.643   8.794 -11.342  1.00  0.00     0.148 A 
ATOM     71  C   UNL     1      13.177  10.058  -9.365  1.00  0.00     0.002 A 
ATOM     72  C   UNL     1      12.960   8.409 -11.126  1.00  0.00     0.091 A 
ATOM     73  F   UNL     1      10.894   8.232 -12.303  1.00  0.00    -0.205 F 
ATOM     74  C   UNL     1      13.734   9.049 -10.148  1.00  0.00     0.022 A 
BRANCH  72  75
ATOM     75  S   UNL     1      13.701   7.022 -11.996  1.00  0.00     0.127 S 
ATOM     76  O   UNL     1      14.529   7.699 -12.991  1.00  0.00    -0.237 OA
ATOM     77  O   UNL     1      14.446   6.351 -10.930  1.00  0.00    -0.237 OA
ATOM     78  O   UNL     1      12.580   6.250 -12.516  1.00  0.00    -0.744 OA
ENDBRANCH  72  75
ENDBRANCH  44  68
BRANCH  56  79
ATOM     79  C   UNL     1       7.689  15.499 -12.722  1.00  0.00     0.023 A 
ATOM     80  C   UNL     1       8.215  15.576 -14.026  1.00  0.00     0.012 A 
ATOM     81  C   UNL     1       7.551  16.675 -11.959  1.00  0.00     0.148 A 
ATOM     82  C   UNL     1       8.617  16.800 -14.557  1.00  0.00     0.002 A 
ATOM     83  C   UNL     1       7.915  17.898 -12.510  1.00  0.00     0.091 A 
ATOM     84  F   UNL     1       7.066  16.576 -10.713  1.00  0.00    -0.205 F 
ATOM     85  C   UNL     1       8.456  17.961 -13.805  1.00  0.00     0.022 A 
BRANCH  83  86
ATOM     86  S   UNL     1       7.666  19.454 -11.648  1.00  0.00     0.127 S 
ATOM     87  O   UNL     1       9.034  19.811 -11.276  1.00  0.00    -0.237 OA
ATOM     88  O   UNL     1       7.078  20.297 -12.690  1.00  0.00    -0.237 OA
ATOM     89  O   UNL     1       6.772  19.157 -10.537  1.00  0.00    -0.744 OA
ENDBRANCH  83  86
ENDBRANCH  56  79
ENDBRANCH  30  31
ENDBRANCH  23  25
ENDBRANCH  22  23
ENDBRANCH  21  22
ENDBRANCH   1  21
TORSDOF 17
