REMARK SMILES O=C(OCCOC(=O)[C@@H]1[C@H](C(=O)Nc2cccc(Cl)c2F)[C@@H]2C=C[C@H]1C2)c1ccc(-c2c3nc(c(-c4cccc(S(=O)(=O)[O-])c4F)c4ccc([nH]4)c(-c4cccc(S(=O)(=O)[O-])c4F)c4nc(c(-c5cccc(S(=O)(=O)[O-])c5F)c5ccc2[nH]5)C=C4)C=C3)cc1
REMARK SMILES IDX 4 1 3 2 2 3 1 4 27 5 28 6 89 7 29 8 88 9 30 10 31 11 32 12
REMARK SMILES IDX 82 13 33 14 87 15 81 16 83 17 34 18 86 19 80 20 79 21 35 23
REMARK SMILES IDX 67 24 47 25 66 26 48 27 51 28 65 29 84 30 49 31 50 32 64 34
REMARK SMILES IDX 85 35 52 36 36 37 37 38 45 39 38 40 40 41 46 42 39 43 41 44
REMARK SMILES IDX 42 45 43 46 44 47 68 48 69 49 77 50 70 51 72 52 78 53 71 54
REMARK SMILES IDX 73 55 74 56 75 57 76 58 53 59 54 60 62 61 55 62 57 63 63 64
REMARK SMILES IDX 56 65 58 66 59 67 60 68 61 69 5 70 6 71 7 72 8 73 9 74 10 75
REMARK SMILES IDX 25 76 22 77 24 78 26 79 23 80 11 81 12 82 13 83 14 85 15 86
REMARK SMILES IDX 20 87 16 88 18 89 21 90 17 91 19 92
REMARK H PARENT 83 22 51 33 13 84
REMARK Flexibility Score: inf
ROOT
ATOM      1  C   UNL     1       3.911  -1.311  -0.525  1.00  0.00     0.275 C 
ENDROOT
BRANCH   1   2
ATOM      2  O   UNL     1       3.070  -1.652   0.601  1.00  0.00    -0.458 OA
BRANCH   2   3
ATOM      3  C   UNL     1       2.419  -0.770   1.403  1.00  0.00     0.338 C 
ATOM      4  O   UNL     1       1.217  -0.910   1.612  1.00  0.00    -0.246 OA
BRANCH   3   5
ATOM      5  C   UNL     1       3.187   0.269   2.173  1.00  0.00     0.060 A 
ATOM      6  C   UNL     1       4.540   0.542   1.999  1.00  0.00     0.016 A 
ATOM      7  C   UNL     1       2.489   1.029   3.137  1.00  0.00     0.016 A 
ATOM      8  C   UNL     1       5.155   1.590   2.694  1.00  0.00     0.010 A 
ATOM      9  C   UNL     1       3.107   2.085   3.841  1.00  0.00     0.010 A 
ATOM     10  C   UNL     1       4.448   2.390   3.603  1.00  0.00    -0.014 A 
BRANCH  10  11
ATOM     11  C   UNL     1       5.262   3.318   4.437  1.00  0.00     0.031 A 
ATOM     12  C   UNL     1       5.963   2.704   5.595  1.00  0.00     0.074 A 
ATOM     13  C   UNL     1       5.518   4.602   4.115  1.00  0.00     0.049 A 
ATOM     14  N   UNL     1       6.874   3.221   6.365  1.00  0.00    -0.248 NA
ATOM     15  C   UNL     1       5.553   1.335   5.948  1.00  0.00     0.031 C 
ATOM     16  C   UNL     1       4.798   5.350   3.112  1.00  0.00     0.029 A 
ATOM     17  N   UNL     1       6.462   5.504   4.548  1.00  0.00    -0.354 N 
ATOM     18  C   UNL     1       7.094   2.271   7.345  1.00  0.00     0.074 A 
ATOM     19  C   UNL     1       6.266   1.125   7.038  1.00  0.00     0.031 C 
ATOM     20  C   UNL     1       5.430   6.501   2.839  1.00  0.00     0.029 A 
ATOM     21  C   UNL     1       6.513   6.665   3.793  1.00  0.00     0.049 A 
ATOM     22  H   UNL     1       7.048   5.340   5.323  1.00  0.00     0.167 HD
ATOM     23  C   UNL     1       7.875   2.375   8.438  1.00  0.00     0.034 A 
ATOM     24  C   UNL     1       7.299   7.759   3.897  1.00  0.00     0.034 A 
ATOM     25  C   UNL     1       8.625   3.550   8.769  1.00  0.00     0.049 A 
ATOM     26  C   UNL     1       8.194   7.828   5.102  1.00  0.00     0.074 A 
ATOM     27  C   UNL     1       9.404   3.784   9.884  1.00  0.00     0.029 A 
ATOM     28  N   UNL     1       8.658   4.707   8.001  1.00  0.00    -0.354 N 
ATOM     29  N   UNL     1       8.418   6.906   6.007  1.00  0.00    -0.248 NA
ATOM     30  C   UNL     1       8.900   9.094   5.342  1.00  0.00     0.031 C 
ATOM     31  C   UNL     1       9.883   5.096   9.807  1.00  0.00     0.029 A 
ATOM     32  C   UNL     1       9.453   5.657   8.613  1.00  0.00     0.049 A 
ATOM     33  H   UNL     1       8.184   4.831   7.147  1.00  0.00     0.167 HD
ATOM     34  C   UNL     1       9.284   7.478   6.925  1.00  0.00     0.074 A 
ATOM     35  C   UNL     1       9.583   8.812   6.442  1.00  0.00     0.031 C 
ATOM     36  C   UNL     1       9.764   6.958   8.079  1.00  0.00     0.034 A 
BRANCH  23  37
ATOM     37  C   UNL     1       7.830   1.212   9.380  1.00  0.00     0.023 A 
ATOM     38  C   UNL     1       8.413  -0.020   9.018  1.00  0.00     0.012 A 
ATOM     39  C   UNL     1       7.105   1.319  10.580  1.00  0.00     0.148 A 
ATOM     40  C   UNL     1       8.226  -1.146   9.817  1.00  0.00     0.002 A 
ATOM     41  C   UNL     1       6.971   0.207  11.396  1.00  0.00     0.091 A 
ATOM     42  F   UNL     1       6.521   2.489  10.872  1.00  0.00    -0.205 F 
ATOM     43  C   UNL     1       7.511  -1.030  11.007  1.00  0.00     0.022 A 
BRANCH  41  44
ATOM     44  S   UNL     1       6.125   0.271  12.975  1.00  0.00     0.127 S 
ATOM     45  O   UNL     1       4.983  -0.611  12.735  1.00  0.00    -0.237 OA
ATOM     46  O   UNL     1       7.138  -0.271  13.880  1.00  0.00    -0.237 OA
ATOM     47  O   UNL     1       5.790   1.670  13.200  1.00  0.00    -0.744 OA
ENDBRANCH  41  44
ENDBRANCH  23  37
BRANCH  24  48
ATOM     48  C   UNL     1       7.251   8.897   2.918  1.00  0.00     0.023 A 
ATOM     49  C   UNL     1       8.421   9.271   2.219  1.00  0.00     0.012 A 
ATOM     50  C   UNL     1       6.077   9.643   2.695  1.00  0.00     0.148 A 
ATOM     51  C   UNL     1       8.427  10.370   1.352  1.00  0.00     0.002 A 
ATOM     52  C   UNL     1       6.068  10.681   1.768  1.00  0.00     0.091 A 
ATOM     53  F   UNL     1       4.983   9.336   3.405  1.00  0.00    -0.205 F 
ATOM     54  C   UNL     1       7.246  11.065   1.114  1.00  0.00     0.022 A 
BRANCH  52  55
ATOM     55  S   UNL     1       4.551  11.515   1.285  1.00  0.00     0.127 S 
ATOM     56  O   UNL     1       4.711  12.821   1.917  1.00  0.00    -0.237 OA
ATOM     57  O   UNL     1       4.661  11.515  -0.175  1.00  0.00    -0.237 OA
ATOM     58  O   UNL     1       3.472  10.683   1.800  1.00  0.00    -0.744 OA
ENDBRANCH  52  55
ENDBRANCH  24  48
BRANCH  36  59
ATOM     59  C   UNL     1      10.739   7.799   8.849  1.00  0.00     0.023 A 
ATOM     60  C   UNL     1      10.308   8.927   9.572  1.00  0.00     0.012 A 
ATOM     61  C   UNL     1      12.090   7.411   8.896  1.00  0.00     0.148 A 
ATOM     62  C   UNL     1      11.222   9.678  10.308  1.00  0.00     0.002 A 
ATOM     63  C   UNL     1      12.981   8.127   9.679  1.00  0.00     0.091 A 
ATOM     64  F   UNL     1      12.476   6.350   8.172  1.00  0.00    -0.205 F 
ATOM     65  C   UNL     1      12.554   9.270  10.374  1.00  0.00     0.022 A 
BRANCH  63  66
ATOM     66  S   UNL     1      14.681   7.599   9.900  1.00  0.00     0.127 S 
ATOM     67  O   UNL     1      15.405   8.590   9.106  1.00  0.00    -0.237 OA
ATOM     68  O   UNL     1      14.857   7.726  11.347  1.00  0.00    -0.237 OA
ATOM     69  O   UNL     1      14.745   6.231   9.403  1.00  0.00    -0.744 OA
ENDBRANCH  63  66
ENDBRANCH  36  59
ENDBRANCH  10  11
ENDBRANCH   3   5
ENDBRANCH   2   3
ENDBRANCH   1   2
BRANCH   1  70
ATOM     70  C   UNL     1       3.373  -0.239  -1.463  1.00  0.00     0.274 C 
BRANCH  70  71
ATOM     71  O   UNL     1       3.056   0.974  -0.766  1.00  0.00    -0.462 OA
BRANCH  71  72
ATOM     72  C   UNL     1       2.283   1.803  -1.505  1.00  0.00     0.310 C 
ATOM     73  O   UNL     1       1.835   1.524  -2.606  1.00  0.00    -0.252 OA
BRANCH  72  74
ATOM     74  C   UNL     1       1.931   3.095  -0.832  1.00  0.00     0.119 C 
ATOM     75  C   UNL     1       2.295   4.364  -1.639  1.00  0.00     0.100 C 
ATOM     76  C   UNL     1       2.373   3.492   0.574  1.00  0.00     0.027 C 
ATOM     77  C   UNL     1       2.492   5.438  -0.533  1.00  0.00     0.025 C 
ATOM     78  C   UNL     1       3.795   3.980   0.596  1.00  0.00    -0.027 C 
ATOM     79  C   UNL     1       1.688   4.874   0.652  1.00  0.00     0.017 C 
ATOM     80  C   UNL     1       3.835   5.202   0.045  1.00  0.00    -0.027 C 
BRANCH  75  81
ATOM     81  C   UNL     1       3.356   4.226  -2.759  1.00  0.00     0.229 C 
ATOM     82  O   UNL     1       2.920   4.323  -3.924  1.00  0.00    -0.274 OA
ATOM     83  N   UNL     1       4.707   4.035  -2.734  1.00  0.00    -0.323 N 
ATOM     84  H   UNL     1       5.051   3.925  -3.649  1.00  0.00     0.170 HD
BRANCH  83  85
ATOM     85  C   UNL     1       5.765   3.947  -1.799  1.00  0.00     0.078 A 
ATOM     86  C   UNL     1       6.679   5.011  -1.747  1.00  0.00     0.029 A 
ATOM     87  C   UNL     1       6.144   2.756  -1.166  1.00  0.00     0.165 A 
ATOM     88  C   UNL     1       7.861   4.930  -0.991  1.00  0.00     0.004 A 
ATOM     89  C   UNL     1       7.342   2.657  -0.438  1.00  0.00     0.078 A 
ATOM     90  F   UNL     1       5.404   1.654  -1.319  1.00  0.00    -0.203 F 
ATOM     91  C   UNL     1       8.191   3.752  -0.326  1.00  0.00     0.024 A 
ATOM     92  Cl  UNL     1       7.842   1.149   0.240  1.00  0.00    -0.081 Cl
ENDBRANCH  83  85
ENDBRANCH  75  81
ENDBRANCH  72  74
ENDBRANCH  71  72
ENDBRANCH  70  71
ENDBRANCH   1  70
TORSDOF 16
