REMARK SMILES CC[N@@H+]1CC[C@H](C[NH2+]Cc2cc(C(=O)OCCOC(=O)c3ccc(-c4c5nc(c(-c6cccc(S(=O)(=O)[O-])c6F)c6ccc([nH]6)c(-c6cccc(S(=O)(=O)[O-])c6F)c6nc(c(-c7cccc(S(=O)(=O)[O-])c7F)c7ccc4[nH]7)C=C6)C=C5)cc3)cs2)C1
REMARK SMILES IDX 16 1 15 2 13 3 14 4 12 5 10 6 11 7 85 8 84 9 9 10 8 11 7 14
REMARK SMILES IDX 6 15 3 16 4 17 86 18 5 20 2 21 1 22 17 23 18 24 19 25 20 26
REMARK SMILES IDX 21 27 22 28 83 29 23 30 82 31 24 32 25 33 26 34 76 35 27 36
REMARK SMILES IDX 81 37 75 38 77 39 28 40 80 41 74 42 73 43 29 45 61 46 41 47
REMARK SMILES IDX 60 48 42 49 45 50 59 51 78 52 43 53 44 54 58 56 79 57 46 58
REMARK SMILES IDX 30 59 31 60 39 61 32 62 34 63 40 64 33 65 35 66 36 67 37 68
REMARK SMILES IDX 38 69 62 70 63 71 71 72 64 73 66 74 72 75 65 76 67 77 68 78
REMARK SMILES IDX 69 79 70 80 47 81 48 82 56 83 49 84 51 85 57 86 50 87 52 88
REMARK SMILES IDX 53 89 54 90 55 91
REMARK H PARENT 8 12 8 13 3 19 77 44 45 55
REMARK Flexibility Score: inf
ROOT
ATOM      1  C   UNL     1      -5.377  -8.358  -4.910  1.00  0.00     0.275 C 
ENDROOT
BRANCH   1   2
ATOM      2  O   UNL     1      -4.859  -8.089  -3.591  1.00  0.00    -0.458 OA
BRANCH   2   3
ATOM      3  C   UNL     1      -3.903  -7.118  -3.519  1.00  0.00     0.339 C 
ATOM      4  O   UNL     1      -3.367  -6.595  -4.485  1.00  0.00    -0.246 OA
BRANCH   3   5
ATOM      5  C   UNL     1      -3.670  -6.672  -2.151  1.00  0.00     0.071 A 
ATOM      6  C   UNL     1      -3.136  -6.673   0.130  1.00  0.00     0.059 A 
ATOM      7  C   UNL     1      -3.365  -7.463  -0.988  1.00  0.00     0.037 A 
ATOM      8  S   UNL     1      -3.768  -5.100  -0.141  1.00  0.00    -0.142 S 
ATOM      9  C   UNL     1      -3.644  -5.333  -1.816  1.00  0.00     0.081 A 
BRANCH   6  10
ATOM     10  C   UNL     1      -2.513  -7.009   1.455  1.00  0.00     0.308 C 
BRANCH  10  11
ATOM     11  N   UNL     1      -1.154  -6.443   1.605  1.00  0.00    -0.341 N 
ATOM     12  H   UNL     1      -0.676  -6.937   2.359  1.00  0.00     0.346 HD
ATOM     13  H   UNL     1      -0.670  -6.559   0.714  1.00  0.00     0.346 HD
BRANCH  11  14
ATOM     14  C   UNL     1      -1.172  -5.008   1.920  1.00  0.00     0.270 C 
BRANCH  14  15
ATOM     15  C   UNL     1       0.209  -4.375   2.102  1.00  0.00     0.105 C 
ATOM     16  N   UNL     1       1.057  -2.184   1.445  1.00  0.00    -0.335 N 
ATOM     17  C   UNL     1       1.989  -3.237   1.013  1.00  0.00     0.262 C 
ATOM     18  C   UNL     1       0.086  -2.856   2.328  1.00  0.00     0.271 C 
ATOM     19  H   UNL     1       1.535  -1.432   1.941  1.00  0.00     0.348 HD
ATOM     20  C   UNL     1       1.130  -4.485   0.892  1.00  0.00     0.076 C 
BRANCH  16  21
ATOM     21  C   UNL     1       0.419  -1.522   0.292  1.00  0.00     0.258 C 
ATOM     22  C   UNL     1       1.042  -0.145   0.097  1.00  0.00     0.071 C 
ENDBRANCH  16  21
ENDBRANCH  14  15
ENDBRANCH  11  14
ENDBRANCH  10  11
ENDBRANCH   6  10
ENDBRANCH   3   5
ENDBRANCH   2   3
ENDBRANCH   1   2
BRANCH   1  23
ATOM     23  C   UNL     1      -6.676  -7.587  -5.158  1.00  0.00     0.275 C 
BRANCH  23  24
ATOM     24  O   UNL     1      -6.402  -6.182  -5.319  1.00  0.00    -0.458 OA
BRANCH  24  25
ATOM     25  C   UNL     1      -6.940  -5.364  -4.386  1.00  0.00     0.338 C 
ATOM     26  O   UNL     1      -7.633  -5.684  -3.436  1.00  0.00    -0.246 OA
BRANCH  25  27
ATOM     27  C   UNL     1      -6.514  -3.975  -4.626  1.00  0.00     0.060 A 
ATOM     28  C   UNL     1      -5.184  -3.643  -4.403  1.00  0.00     0.016 A 
ATOM     29  C   UNL     1      -7.441  -2.972  -4.894  1.00  0.00     0.016 A 
ATOM     30  C   UNL     1      -4.806  -2.311  -4.266  1.00  0.00     0.010 A 
ATOM     31  C   UNL     1      -7.019  -1.635  -4.921  1.00  0.00     0.010 A 
ATOM     32  C   UNL     1      -5.708  -1.279  -4.552  1.00  0.00    -0.014 A 
BRANCH  32  33
ATOM     33  C   UNL     1      -5.278   0.151  -4.462  1.00  0.00     0.031 A 
ATOM     34  C   UNL     1      -6.064   1.143  -3.636  1.00  0.00     0.074 A 
ATOM     35  C   UNL     1      -4.184   0.576  -5.130  1.00  0.00     0.049 A 
ATOM     36  N   UNL     1      -5.945   2.445  -3.574  1.00  0.00    -0.248 NA
ATOM     37  C   UNL     1      -7.134   0.604  -2.781  1.00  0.00     0.031 C 
ATOM     38  C   UNL     1      -3.316  -0.262  -5.960  1.00  0.00     0.029 A 
ATOM     39  N   UNL     1      -3.616   1.825  -5.226  1.00  0.00    -0.354 N 
ATOM     40  C   UNL     1      -6.972   2.887  -2.745  1.00  0.00     0.074 A 
ATOM     41  C   UNL     1      -7.699   1.711  -2.319  1.00  0.00     0.031 C 
ATOM     42  C   UNL     1      -2.316   0.481  -6.454  1.00  0.00     0.029 A 
ATOM     43  C   UNL     1      -2.521   1.869  -6.060  1.00  0.00     0.049 A 
ATOM     44  H   UNL     1      -3.959   2.613  -4.745  1.00  0.00     0.167 HD
ATOM     45  C   UNL     1      -7.276   4.151  -2.365  1.00  0.00     0.034 A 
ATOM     46  C   UNL     1      -1.787   2.907  -6.508  1.00  0.00     0.034 A 
ATOM     47  C   UNL     1      -6.505   5.313  -2.722  1.00  0.00     0.049 A 
ATOM     48  C   UNL     1      -2.143   4.298  -6.067  1.00  0.00     0.074 A 
ATOM     49  C   UNL     1      -6.704   6.629  -2.338  1.00  0.00     0.029 A 
ATOM     50  N   UNL     1      -5.384   5.302  -3.537  1.00  0.00    -0.354 N 
ATOM     51  N   UNL     1      -3.085   4.685  -5.243  1.00  0.00    -0.248 NA
ATOM     52  C   UNL     1      -1.329   5.394  -6.610  1.00  0.00     0.031 C 
ATOM     53  C   UNL     1      -5.714   7.415  -2.937  1.00  0.00     0.029 A 
ATOM     54  C   UNL     1      -4.885   6.587  -3.675  1.00  0.00     0.049 A 
ATOM     55  H   UNL     1      -4.999   4.499  -3.956  1.00  0.00     0.167 HD
ATOM     56  C   UNL     1      -2.966   6.067  -5.152  1.00  0.00     0.074 A 
ATOM     57  C   UNL     1      -1.839   6.444  -5.982  1.00  0.00     0.031 C 
ATOM     58  C   UNL     1      -3.734   6.945  -4.463  1.00  0.00     0.034 A 
BRANCH  45  59
ATOM     59  C   UNL     1      -8.492   4.352  -1.494  1.00  0.00     0.023 A 
ATOM     60  C   UNL     1      -8.459   3.971  -0.138  1.00  0.00     0.012 A 
ATOM     61  C   UNL     1      -9.649   4.973  -2.008  1.00  0.00     0.148 A 
ATOM     62  C   UNL     1      -9.569   4.172   0.684  1.00  0.00     0.002 A 
ATOM     63  C   UNL     1     -10.735   5.210  -1.172  1.00  0.00     0.091 A 
ATOM     64  F   UNL     1      -9.671   5.313  -3.305  1.00  0.00    -0.205 F 
ATOM     65  C   UNL     1     -10.701   4.799   0.170  1.00  0.00     0.022 A 
BRANCH  63  66
ATOM     66  S   UNL     1     -12.207   6.082  -1.720  1.00  0.00     0.127 S 
ATOM     67  O   UNL     1     -13.182   4.995  -1.800  1.00  0.00    -0.237 OA
ATOM     68  O   UNL     1     -12.435   7.025  -0.625  1.00  0.00    -0.237 OA
ATOM     69  O   UNL     1     -11.856   6.702  -2.990  1.00  0.00    -0.744 OA
ENDBRANCH  63  66
ENDBRANCH  45  59
BRANCH  46  70
ATOM     70  C   UNL     1      -0.639   2.663  -7.428  1.00  0.00     0.023 A 
ATOM     71  C   UNL     1       0.674   2.888  -6.972  1.00  0.00     0.012 A 
ATOM     72  C   UNL     1      -0.837   2.169  -8.733  1.00  0.00     0.148 A 
ATOM     73  C   UNL     1       1.767   2.646  -7.806  1.00  0.00     0.002 A 
ATOM     74  C   UNL     1       0.257   1.870  -9.535  1.00  0.00     0.091 A 
ATOM     75  F   UNL     1      -2.095   1.981  -9.158  1.00  0.00    -0.205 F 
ATOM     76  C   UNL     1       1.560   2.124  -9.081  1.00  0.00     0.022 A 
BRANCH  74  77
ATOM     77  S   UNL     1       0.086   1.056 -11.128  1.00  0.00     0.127 S 
ATOM     78  O   UNL     1       0.405   2.140 -12.053  1.00  0.00    -0.237 OA
ATOM     79  O   UNL     1       1.097   0.002 -11.040  1.00  0.00    -0.237 OA
ATOM     80  O   UNL     1      -1.286   0.566 -11.171  1.00  0.00    -0.744 OA
ENDBRANCH  74  77
ENDBRANCH  46  70
BRANCH  58  81
ATOM     81  C   UNL     1      -3.369   8.404  -4.551  1.00  0.00     0.023 A 
ATOM     82  C   UNL     1      -3.630   9.118  -5.737  1.00  0.00     0.012 A 
ATOM     83  C   UNL     1      -2.825   9.079  -3.441  1.00  0.00     0.148 A 
ATOM     84  C   UNL     1      -3.327  10.476  -5.827  1.00  0.00     0.002 A 
ATOM     85  C   UNL     1      -2.569  10.443  -3.523  1.00  0.00     0.091 A 
ATOM     86  F   UNL     1      -2.564   8.376  -2.329  1.00  0.00    -0.205 F 
ATOM     87  C   UNL     1      -2.808  11.140  -4.718  1.00  0.00     0.022 A 
BRANCH  85  88
ATOM     88  S   UNL     1      -1.986  11.398  -2.118  1.00  0.00     0.127 S 
ATOM     89  O   UNL     1      -0.595  11.654  -2.487  1.00  0.00    -0.237 OA
ATOM     90  O   UNL     1      -2.855  12.575  -2.161  1.00  0.00    -0.237 OA
ATOM     91  O   UNL     1      -2.179  10.550  -0.949  1.00  0.00    -0.744 OA
ENDBRANCH  85  88
ENDBRANCH  58  81
ENDBRANCH  32  33
ENDBRANCH  25  27
ENDBRANCH  24  25
ENDBRANCH  23  24
ENDBRANCH   1  23
TORSDOF 19
