REMARK SMILES CC1(C)CCN(S(=O)(=O)c2ccc(O)c(C(=O)OCCOC(=O)c3ccc(-c4c5nc(c(-c6cccc(S(=O)(=O)[O-])c6F)c6ccc([nH]6)c(-c6cccc(S(=O)(=O)[O-])c6F)c6nc(c(-c7cccc(S(=O)(=O)[O-])c7F)c7ccc4[nH]7)C=C6)C=C5)cc3)c2)C1
REMARK SMILES IDX 20 1 19 2 18 3 16 4 17 5 15 6 10 7 11 8 87 9 12 10 13 11
REMARK SMILES IDX 7 12 8 13 9 14 6 15 1 16 2 17 3 18 4 19 88 20 5 21 14 22
REMARK SMILES IDX 21 24 22 25 23 26 24 27 25 28 86 29 26 30 85 31 27 32 28 33
REMARK SMILES IDX 29 34 79 35 30 36 84 37 78 38 80 39 31 40 83 41 77 42 76 43
REMARK SMILES IDX 32 45 64 46 44 47 63 48 45 49 48 50 62 51 81 52 46 53 47 54
REMARK SMILES IDX 61 56 82 57 49 58 33 59 34 60 42 61 35 62 37 63 43 64 36 65
REMARK SMILES IDX 38 66 39 67 40 68 41 69 65 70 66 71 74 72 67 73 69 74 75 75
REMARK SMILES IDX 68 76 70 77 71 78 72 79 73 80 50 81 51 82 59 83 52 84 54 85
REMARK SMILES IDX 60 86 53 87 55 88 56 89 57 90 58 91
REMARK H PARENT 14 23 80 44 48 55
REMARK Flexibility Score: inf
ROOT
ATOM      1  C   UNL     1       6.978   7.789   0.545  1.00  0.00     0.275 C 
ENDROOT
BRANCH   1   2
ATOM      2  C   UNL     1       5.728   7.959  -0.315  1.00  0.00     0.275 C 
BRANCH   2   3
ATOM      3  O   UNL     1       4.621   7.229   0.251  1.00  0.00    -0.458 OA
BRANCH   3   4
ATOM      4  C   UNL     1       4.124   6.202  -0.484  1.00  0.00     0.342 C 
ATOM      5  O   UNL     1       4.553   5.791  -1.549  1.00  0.00    -0.246 OA
BRANCH   4   6
ATOM      6  C   UNL     1       3.037   5.520   0.256  1.00  0.00     0.103 A 
ATOM      7  C   UNL     1       2.132   3.443   1.118  1.00  0.00     0.083 A 
ATOM      8  C   UNL     1       1.124   4.149   1.778  1.00  0.00     0.025 A 
ATOM      9  C   UNL     1       3.070   4.120   0.335  1.00  0.00     0.041 A 
ATOM     10  C   UNL     1       1.040   5.536   1.633  1.00  0.00     0.048 A 
ATOM     11  C   UNL     1       2.000   6.220   0.882  1.00  0.00     0.130 A 
BRANCH   7  12
ATOM     12  S   UNL     1       2.340   1.698   1.422  1.00  0.00     0.243 S 
ATOM     13  O   UNL     1       1.772   1.418   2.731  1.00  0.00    -0.207 OA
ATOM     14  O   UNL     1       3.706   1.365   1.115  1.00  0.00    -0.207 OA
BRANCH  12  15
ATOM     15  N   UNL     1       1.338   0.973   0.256  1.00  0.00    -0.197 NA
ATOM     16  C   UNL     1      -1.037  -0.112  -1.571  1.00  0.00     0.012 C 
ATOM     17  C   UNL     1      -0.827  -0.051  -0.051  1.00  0.00    -0.020 C 
ATOM     18  C   UNL     1      -2.179  -0.193   0.654  1.00  0.00     0.012 C 
ATOM     19  C   UNL     1       0.166  -1.113   0.424  1.00  0.00     0.024 C 
ATOM     20  C   UNL     1      -0.120   1.247   0.363  1.00  0.00     0.109 C 
ATOM     21  C   UNL     1       1.529  -0.504   0.123  1.00  0.00     0.103 C 
ENDBRANCH  12  15
ENDBRANCH   7  12
BRANCH  11  22
ATOM     22  O   UNL     1       1.895   7.576   0.742  1.00  0.00    -0.507 OA
ATOM     23  H   UNL     1       1.198   8.038   1.164  1.00  0.00     0.293 HD
ENDBRANCH  11  22
ENDBRANCH   4   6
ENDBRANCH   3   4
ENDBRANCH   2   3
ENDBRANCH   1   2
BRANCH   1  24
ATOM     24  O   UNL     1       7.438   6.431   0.458  1.00  0.00    -0.458 OA
BRANCH  24  25
ATOM     25  C   UNL     1       7.283   5.689   1.577  1.00  0.00     0.338 C 
ATOM     26  O   UNL     1       6.887   6.059   2.669  1.00  0.00    -0.246 OA
BRANCH  25  27
ATOM     27  C   UNL     1       7.607   4.288   1.274  1.00  0.00     0.060 A 
ATOM     28  C   UNL     1       6.708   3.556   0.506  1.00  0.00     0.016 A 
ATOM     29  C   UNL     1       8.706   3.664   1.857  1.00  0.00     0.016 A 
ATOM     30  C   UNL     1       6.835   2.173   0.415  1.00  0.00     0.010 A 
ATOM     31  C   UNL     1       8.892   2.288   1.668  1.00  0.00     0.010 A 
ATOM     32  C   UNL     1       7.933   1.514   0.987  1.00  0.00    -0.014 A 
BRANCH  32  33
ATOM     33  C   UNL     1       8.053   0.025   0.910  1.00  0.00     0.031 A 
ATOM     34  C   UNL     1       8.217  -0.791   2.170  1.00  0.00     0.074 A 
ATOM     35  C   UNL     1       8.026  -0.608  -0.281  1.00  0.00     0.049 A 
ATOM     36  N   UNL     1       8.538  -2.054   2.304  1.00  0.00    -0.248 NA
ATOM     37  C   UNL     1       8.021  -0.090   3.450  1.00  0.00     0.031 C 
ATOM     38  C   UNL     1       7.855   0.039  -1.583  1.00  0.00     0.029 A 
ATOM     39  N   UNL     1       8.154  -1.942  -0.593  1.00  0.00    -0.354 N 
ATOM     40  C   UNL     1       8.669  -2.273   3.672  1.00  0.00     0.074 A 
ATOM     41  C   UNL     1       8.383  -1.016   4.327  1.00  0.00     0.031 C 
ATOM     42  C   UNL     1       7.858  -0.894  -2.546  1.00  0.00     0.029 A 
ATOM     43  C   UNL     1       8.123  -2.196  -1.946  1.00  0.00     0.049 A 
ATOM     44  H   UNL     1       8.257  -2.647   0.086  1.00  0.00     0.167 HD
ATOM     45  C   UNL     1       8.989  -3.418   4.323  1.00  0.00     0.034 A 
ATOM     46  C   UNL     1       8.329  -3.335  -2.637  1.00  0.00     0.034 A 
ATOM     47  C   UNL     1       9.171  -4.692   3.677  1.00  0.00     0.049 A 
ATOM     48  C   UNL     1       8.649  -4.598  -1.890  1.00  0.00     0.074 A 
ATOM     49  C   UNL     1       9.444  -5.919   4.257  1.00  0.00     0.029 A 
ATOM     50  N   UNL     1       9.076  -4.909   2.311  1.00  0.00    -0.354 N 
ATOM     51  N   UNL     1       8.741  -4.792  -0.597  1.00  0.00    -0.248 NA
ATOM     52  C   UNL     1       8.886  -5.805  -2.696  1.00  0.00     0.031 C 
ATOM     53  C   UNL     1       9.525  -6.876   3.240  1.00  0.00     0.029 A 
ATOM     54  C   UNL     1       9.283  -6.249   2.029  1.00  0.00     0.049 A 
ATOM     55  H   UNL     1       8.889  -4.213   1.640  1.00  0.00     0.167 HD
ATOM     56  C   UNL     1       9.024  -6.142  -0.433  1.00  0.00     0.074 A 
ATOM     57  C   UNL     1       9.061  -6.726  -1.758  1.00  0.00     0.031 C 
ATOM     58  C   UNL     1       9.257  -6.830   0.711  1.00  0.00     0.034 A 
BRANCH  45  59
ATOM     59  C   UNL     1       9.141  -3.361   5.822  1.00  0.00     0.023 A 
ATOM     60  C   UNL     1       8.002  -3.243   6.643  1.00  0.00     0.012 A 
ATOM     61  C   UNL     1      10.411  -3.496   6.421  1.00  0.00     0.148 A 
ATOM     62  C   UNL     1       8.126  -3.226   8.033  1.00  0.00     0.002 A 
ATOM     63  C   UNL     1      10.522  -3.524   7.807  1.00  0.00     0.091 A 
ATOM     64  F   UNL     1      11.486  -3.590   5.626  1.00  0.00    -0.205 F 
ATOM     65  C   UNL     1       9.382  -3.377   8.614  1.00  0.00     0.022 A 
BRANCH  63  66
ATOM     66  S   UNL     1      12.087  -3.800   8.646  1.00  0.00     0.127 S 
ATOM     67  O   UNL     1      12.383  -2.467   9.169  1.00  0.00    -0.237 OA
ATOM     68  O   UNL     1      11.723  -4.786   9.665  1.00  0.00    -0.237 OA
ATOM     69  O   UNL     1      13.005  -4.294   7.630  1.00  0.00    -0.744 OA
ENDBRANCH  63  66
ENDBRANCH  45  59
BRANCH  46  70
ATOM     70  C   UNL     1       8.226  -3.326  -4.125  1.00  0.00     0.023 A 
ATOM     71  C   UNL     1       7.160  -4.003  -4.750  1.00  0.00     0.012 A 
ATOM     72  C   UNL     1       9.144  -2.611  -4.921  1.00  0.00     0.148 A 
ATOM     73  C   UNL     1       7.021  -3.982  -6.138  1.00  0.00     0.002 A 
ATOM     74  C   UNL     1       8.961  -2.541  -6.296  1.00  0.00     0.091 A 
ATOM     75  F   UNL     1      10.168  -1.996  -4.313  1.00  0.00    -0.205 F 
ATOM     76  C   UNL     1       7.910  -3.239  -6.909  1.00  0.00     0.022 A 
BRANCH  74  77
ATOM     77  S   UNL     1       9.970  -1.482  -7.341  1.00  0.00     0.127 S 
ATOM     78  O   UNL     1      10.823  -2.454  -8.018  1.00  0.00    -0.237 OA
ATOM     79  O   UNL     1       8.963  -0.846  -8.193  1.00  0.00    -0.237 OA
ATOM     80  O   UNL     1      10.645  -0.566  -6.431  1.00  0.00    -0.744 OA
ENDBRANCH  74  77
ENDBRANCH  46  70
BRANCH  58  81
ATOM     81  C   UNL     1       9.536  -8.305   0.592  1.00  0.00     0.023 A 
ATOM     82  C   UNL     1      10.786  -8.742   0.110  1.00  0.00     0.012 A 
ATOM     83  C   UNL     1       8.588  -9.254   1.022  1.00  0.00     0.148 A 
ATOM     84  C   UNL     1      11.076 -10.104   0.030  1.00  0.00     0.002 A 
ATOM     85  C   UNL     1       8.901 -10.607   0.981  1.00  0.00     0.091 A 
ATOM     86  F   UNL     1       7.397  -8.817   1.458  1.00  0.00    -0.205 F 
ATOM     87  C   UNL     1      10.140 -11.034   0.476  1.00  0.00     0.022 A 
BRANCH  85  88
ATOM     88  S   UNL     1       7.792 -11.870   1.615  1.00  0.00     0.127 S 
ATOM     89  O   UNL     1       7.292 -12.474   0.382  1.00  0.00    -0.237 OA
ATOM     90  O   UNL     1       8.698 -12.721   2.388  1.00  0.00    -0.237 OA
ATOM     91  O   UNL     1       6.799 -11.166   2.415  1.00  0.00    -0.744 OA
ENDBRANCH  85  88
ENDBRANCH  58  81
ENDBRANCH  32  33
ENDBRANCH  25  27
ENDBRANCH  24  25
ENDBRANCH   1  24
TORSDOF 17
