REMARK SMILES C[NH2+][C@@H](C)c1ccc(SCc2ccc(C(=O)OCCOC(=O)c3ccc(-c4c5nc(c(-c6cccc(S(=O)(=O)[O-])c6F)c6ccc([nH]6)c(-c6cccc(S(=O)(=O)[O-])c6F)c6nc(c(-c7cccc(S(=O)(=O)[O-])c7F)c7ccc4[nH]7)C=C6)C=C5)cc3)cc2)cc1
REMARK SMILES IDX 18 1 17 2 15 3 16 4 14 5 11 6 12 7 87 8 13 9 86 10 10 11
REMARK SMILES IDX 9 12 8 13 5 14 6 15 89 16 7 17 88 18 3 19 4 20 2 21 1 22
REMARK SMILES IDX 19 25 20 26 21 27 22 28 23 29 24 30 85 31 25 32 84 33 26 34
REMARK SMILES IDX 27 35 28 36 78 37 29 38 83 39 77 40 79 41 30 42 82 43 76 44
REMARK SMILES IDX 75 45 31 47 63 48 43 49 62 50 44 51 47 52 61 53 80 54 45 55
REMARK SMILES IDX 46 56 60 58 81 59 48 60 32 61 33 62 41 63 34 64 36 65 42 66
REMARK SMILES IDX 35 67 37 68 38 69 39 70 40 71 64 72 65 73 73 74 66 75 68 76
REMARK SMILES IDX 74 77 67 78 69 79 70 80 71 81 72 82 49 83 50 84 58 85 51 86
REMARK SMILES IDX 53 87 59 88 52 89 54 90 55 91 56 92 57 93
REMARK H PARENT 2 23 2 24 79 46 47 57
REMARK Flexibility Score: inf
ROOT
ATOM      1  C   UNL     1      -7.921  -5.059   4.301  1.00  0.00     0.275 C 
ENDROOT
BRANCH   1   2
ATOM      2  O   UNL     1      -6.996  -4.442   5.222  1.00  0.00    -0.458 OA
BRANCH   2   3
ATOM      3  C   UNL     1      -6.537  -3.224   4.841  1.00  0.00     0.338 C 
ATOM      4  O   UNL     1      -6.798  -2.651   3.798  1.00  0.00    -0.246 OA
BRANCH   3   5
ATOM      5  C   UNL     1      -5.679  -2.608   5.880  1.00  0.00     0.060 A 
ATOM      6  C   UNL     1      -3.833  -1.222   7.481  1.00  0.00    -0.038 A 
ATOM      7  C   UNL     1      -4.947  -0.562   6.967  1.00  0.00     0.005 A 
ATOM      8  C   UNL     1      -3.727  -2.616   7.296  1.00  0.00     0.005 A 
ATOM      9  C   UNL     1      -5.826  -1.242   6.135  1.00  0.00     0.016 A 
ATOM     10  C   UNL     1      -4.648  -3.311   6.499  1.00  0.00     0.016 A 
BRANCH   6  11
ATOM     11  C   UNL     1      -2.730  -0.448   8.166  1.00  0.00     0.110 C 
BRANCH  11  12
ATOM     12  S   UNL     1      -2.266   1.156   7.388  1.00  0.00    -0.121 SA
BRANCH  12  13
ATOM     13  C   UNL     1      -1.937   0.791   5.663  1.00  0.00     0.008 A 
ATOM     14  C   UNL     1      -1.376   0.394   2.899  1.00  0.00     0.009 A 
ATOM     15  C   UNL     1      -1.540   1.683   3.424  1.00  0.00     0.011 A 
ATOM     16  C   UNL     1      -1.490  -0.689   3.781  1.00  0.00     0.011 A 
ATOM     17  C   UNL     1      -1.827   1.877   4.783  1.00  0.00     0.015 A 
ATOM     18  C   UNL     1      -1.749  -0.488   5.142  1.00  0.00     0.015 A 
BRANCH  14  19
ATOM     19  C   UNL     1      -0.986   0.209   1.436  1.00  0.00     0.210 C 
ATOM     20  C   UNL     1      -1.633  -1.033   0.802  1.00  0.00     0.081 C 
BRANCH  19  21
ATOM     21  N   UNL     1       0.484   0.193   1.360  1.00  0.00    -0.343 N 
ATOM     22  C   UNL     1       1.012   0.073   0.014  1.00  0.00     0.331 C 
ATOM     23  H   UNL     1       0.834   1.062   1.764  1.00  0.00     0.346 HD
ATOM     24  H   UNL     1       0.793  -0.635   1.869  1.00  0.00     0.346 HD
ENDBRANCH  19  21
ENDBRANCH  14  19
ENDBRANCH  12  13
ENDBRANCH  11  12
ENDBRANCH   6  11
ENDBRANCH   3   5
ENDBRANCH   2   3
ENDBRANCH   1   2
BRANCH   1  25
ATOM     25  C   UNL     1      -9.373  -4.898   4.758  1.00  0.00     0.275 C 
BRANCH  25  26
ATOM     26  O   UNL     1      -9.806  -3.530   4.653  1.00  0.00    -0.458 OA
BRANCH  26  27
ATOM     27  C   UNL     1      -9.816  -2.849   5.819  1.00  0.00     0.338 C 
ATOM     28  O   UNL     1      -9.520  -3.275   6.926  1.00  0.00    -0.246 OA
BRANCH  27  29
ATOM     29  C   UNL     1     -10.160  -1.439   5.597  1.00  0.00     0.060 A 
ATOM     30  C   UNL     1      -9.157  -0.593   5.146  1.00  0.00     0.016 A 
ATOM     31  C   UNL     1     -11.365  -0.911   6.046  1.00  0.00     0.016 A 
ATOM     32  C   UNL     1      -9.270   0.781   5.325  1.00  0.00     0.010 A 
ATOM     33  C   UNL     1     -11.543   0.480   6.055  1.00  0.00     0.010 A 
ATOM     34  C   UNL     1     -10.477   1.348   5.752  1.00  0.00    -0.014 A 
BRANCH  34  35
ATOM     35  C   UNL     1     -10.617   2.832   5.869  1.00  0.00     0.031 A 
ATOM     36  C   UNL     1     -11.139   3.461   7.139  1.00  0.00     0.074 A 
ATOM     37  C   UNL     1     -10.296   3.625   4.823  1.00  0.00     0.049 A 
ATOM     38  N   UNL     1     -11.505   4.699   7.359  1.00  0.00    -0.248 NA
ATOM     39  C   UNL     1     -11.293   2.582   8.310  1.00  0.00     0.031 C 
ATOM     40  C   UNL     1      -9.769   3.163   3.536  1.00  0.00     0.029 A 
ATOM     41  N   UNL     1     -10.380   4.989   4.667  1.00  0.00    -0.354 N 
ATOM     42  C   UNL     1     -12.008   4.728   8.656  1.00  0.00     0.074 A 
ATOM     43  C   UNL     1     -11.893   3.383   9.179  1.00  0.00     0.031 C 
ATOM     44  C   UNL     1      -9.550   4.215   2.738  1.00  0.00     0.029 A 
ATOM     45  C   UNL     1     -10.024   5.417   3.407  1.00  0.00     0.049 A 
ATOM     46  H   UNL     1     -10.666   5.598   5.385  1.00  0.00     0.167 HD
ATOM     47  C   UNL     1     -12.514   5.777   9.349  1.00  0.00     0.034 A 
ATOM     48  C   UNL     1     -10.123   6.625   2.821  1.00  0.00     0.034 A 
ATOM     49  C   UNL     1     -12.564   7.126   8.846  1.00  0.00     0.049 A 
ATOM     50  C   UNL     1     -10.693   7.769   3.607  1.00  0.00     0.074 A 
ATOM     51  C   UNL     1     -13.007   8.268   9.490  1.00  0.00     0.029 A 
ATOM     52  N   UNL     1     -12.156   7.516   7.580  1.00  0.00    -0.354 N 
ATOM     53  N   UNL     1     -11.120   7.784   4.845  1.00  0.00    -0.248 NA
ATOM     54  C   UNL     1     -10.781   9.065   2.922  1.00  0.00     0.031 C 
ATOM     55  C   UNL     1     -12.900   9.342   8.601  1.00  0.00     0.029 A 
ATOM     56  C   UNL     1     -12.348   8.878   7.418  1.00  0.00     0.049 A 
ATOM     57  H   UNL     1     -11.784   6.913   6.896  1.00  0.00     0.167 HD
ATOM     58  C   UNL     1     -11.498   9.096   5.100  1.00  0.00     0.074 A 
ATOM     59  C   UNL     1     -11.229   9.850   3.892  1.00  0.00     0.031 C 
ATOM     60  C   UNL     1     -12.031   9.625   6.228  1.00  0.00     0.034 A 
BRANCH  47  61
ATOM     61  C   UNL     1     -13.058   5.518  10.734  1.00  0.00     0.023 A 
ATOM     62  C   UNL     1     -12.182   5.221  11.798  1.00  0.00     0.012 A 
ATOM     63  C   UNL     1     -14.440   5.629  10.993  1.00  0.00     0.148 A 
ATOM     64  C   UNL     1     -12.675   4.999  13.084  1.00  0.00     0.002 A 
ATOM     65  C   UNL     1     -14.918   5.455  12.287  1.00  0.00     0.091 A 
ATOM     66  F   UNL     1     -15.262   5.898   9.969  1.00  0.00    -0.205 F 
ATOM     67  C   UNL     1     -14.039   5.126  13.331  1.00  0.00     0.022 A 
BRANCH  65  68
ATOM     68  S   UNL     1     -16.647   5.681  12.722  1.00  0.00     0.127 S 
ATOM     69  O   UNL     1     -17.059   4.310  13.017  1.00  0.00    -0.237 OA
ATOM     70  O   UNL     1     -16.558   6.555  13.893  1.00  0.00    -0.237 OA
ATOM     71  O   UNL     1     -17.280   6.287  11.559  1.00  0.00    -0.744 OA
ENDBRANCH  65  68
ENDBRANCH  47  61
BRANCH  48  72
ATOM     72  C   UNL     1      -9.676   6.804   1.409  1.00  0.00     0.023 A 
ATOM     73  C   UNL     1      -8.540   7.588   1.134  1.00  0.00     0.012 A 
ATOM     74  C   UNL     1     -10.344   6.165   0.344  1.00  0.00     0.148 A 
ATOM     75  C   UNL     1      -8.093   7.753  -0.177  1.00  0.00     0.002 A 
ATOM     76  C   UNL     1      -9.855   6.281  -0.951  1.00  0.00     0.091 A 
ATOM     77  F   UNL     1     -11.431   5.432   0.625  1.00  0.00    -0.205 F 
ATOM     78  C   UNL     1      -8.740   7.090  -1.217  1.00  0.00     0.022 A 
BRANCH  76  79
ATOM     79  S   UNL     1     -10.538   5.349  -2.326  1.00  0.00     0.127 S 
ATOM     80  O   UNL     1     -11.161   6.403  -3.121  1.00  0.00    -0.237 OA
ATOM     81  O   UNL     1      -9.335   4.760  -2.917  1.00  0.00    -0.237 OA
ATOM     82  O   UNL     1     -11.450   4.381  -1.734  1.00  0.00    -0.744 OA
ENDBRANCH  76  79
ENDBRANCH  48  72
BRANCH  60  83
ATOM     83  C   UNL     1     -12.308  11.105   6.236  1.00  0.00     0.023 A 
ATOM     84  C   UNL     1     -13.377  11.629   5.482  1.00  0.00     0.012 A 
ATOM     85  C   UNL     1     -11.543  11.967   7.045  1.00  0.00     0.148 A 
ATOM     86  C   UNL     1     -13.658  12.994   5.508  1.00  0.00     0.002 A 
ATOM     87  C   UNL     1     -11.863  13.316   7.109  1.00  0.00     0.091 A 
ATOM     88  F   UNL     1     -10.518  11.450   7.738  1.00  0.00    -0.205 F 
ATOM     89  C   UNL     1     -12.910  13.835   6.330  1.00  0.00     0.022 A 
BRANCH  87  90
ATOM     90  S   UNL     1     -11.020  14.455   8.213  1.00  0.00     0.127 S 
ATOM     91  O   UNL     1     -10.273  15.286   7.270  1.00  0.00    -0.237 OA
ATOM     92  O   UNL     1     -12.139  15.132   8.869  1.00  0.00    -0.237 OA
ATOM     93  O   UNL     1     -10.207  13.632   9.098  1.00  0.00    -0.744 OA
ENDBRANCH  87  90
ENDBRANCH  60  83
ENDBRANCH  34  35
ENDBRANCH  27  29
ENDBRANCH  26  27
ENDBRANCH  25  26
ENDBRANCH   1  25
TORSDOF 19
