REMARK SMILES O=C(OCCOC(=O)c1cc(S(=O)(=O)Nc2ccccc2-n2cc(Br)cn2)c[nH]1)c1ccc(-c2c3nc(c(-c4cccc(S(=O)(=O)[O-])c4F)c4ccc([nH]4)c(-c4cccc(S(=O)(=O)[O-])c4F)c4nc(c(-c5cccc(S(=O)(=O)[O-])c5F)c5ccc2[nH]5)C=C4)C=C3)cc1
REMARK SMILES IDX 5 1 4 2 3 3 2 4 1 5 30 6 31 7 92 8 32 9 91 10 33 11 34 12
REMARK SMILES IDX 35 13 85 14 36 15 90 16 84 17 86 18 37 19 89 20 83 21 82 22
REMARK SMILES IDX 38 24 70 25 50 26 69 27 51 28 54 29 68 30 87 31 52 32 53 33
REMARK SMILES IDX 67 35 88 36 55 37 39 38 40 39 48 40 41 41 43 42 49 43 42 44
REMARK SMILES IDX 44 45 45 46 46 47 47 48 71 49 72 50 80 51 73 52 75 53 81 54
REMARK SMILES IDX 74 55 76 56 77 57 78 58 79 59 56 60 57 61 65 62 58 63 60 64
REMARK SMILES IDX 66 65 59 66 61 67 62 68 63 69 64 70 6 71 7 72 8 73 9 74
REMARK SMILES IDX 10 75 29 76 11 77 28 78 12 80 13 81 14 82 15 83 16 85 17 86
REMARK SMILES IDX 21 87 18 88 20 89 19 90 22 91 23 92 27 93 24 94 26 95 25 96
REMARK H PARENT 86 23 54 34 29 79 15 84
REMARK Flexibility Score: inf
ROOT
ATOM      1  C   UNL     1       4.755   1.701  -0.624  1.00  0.00     0.275 C 
ENDROOT
BRANCH   1   2
ATOM      2  C   UNL     1       4.493   0.513  -1.560  1.00  0.00     0.275 C 
BRANCH   2   3
ATOM      3  O   UNL     1       3.092   0.212  -1.688  1.00  0.00    -0.458 OA
BRANCH   3   4
ATOM      4  C   UNL     1       2.298  -0.414  -0.785  1.00  0.00     0.338 C 
ATOM      5  O   UNL     1       1.113  -0.100  -0.700  1.00  0.00    -0.246 OA
BRANCH   4   6
ATOM      6  C   UNL     1       2.782  -1.586  -0.005  1.00  0.00     0.060 A 
ATOM      7  C   UNL     1       4.056  -1.720   0.560  1.00  0.00     0.016 A 
ATOM      8  C   UNL     1       1.827  -2.586   0.241  1.00  0.00     0.016 A 
ATOM      9  C   UNL     1       4.399  -2.855   1.286  1.00  0.00     0.010 A 
ATOM     10  C   UNL     1       2.152  -3.708   0.994  1.00  0.00     0.010 A 
ATOM     11  C   UNL     1       3.442  -3.842   1.513  1.00  0.00    -0.014 A 
BRANCH  11  12
ATOM     12  C   UNL     1       3.762  -4.937   2.451  1.00  0.00     0.031 A 
ATOM     13  C   UNL     1       3.665  -4.492   3.925  1.00  0.00     0.074 A 
ATOM     14  C   UNL     1       4.087  -6.137   1.881  1.00  0.00     0.049 A 
ATOM     15  N   UNL     1       4.235  -4.990   4.984  1.00  0.00    -0.248 NA
ATOM     16  C   UNL     1       2.913  -3.249   4.263  1.00  0.00     0.031 C 
ATOM     17  C   UNL     1       4.179  -6.366   0.421  1.00  0.00     0.029 A 
ATOM     18  N   UNL     1       4.393  -7.391   2.372  1.00  0.00    -0.354 N 
ATOM     19  C   UNL     1       3.695  -4.300   6.101  1.00  0.00     0.074 A 
ATOM     20  C   UNL     1       3.027  -3.146   5.589  1.00  0.00     0.031 C 
ATOM     21  C   UNL     1       4.562  -7.632   0.153  1.00  0.00     0.029 A 
ATOM     22  C   UNL     1       4.707  -8.370   1.394  1.00  0.00     0.049 A 
ATOM     23  H   UNL     1       4.394  -7.592   3.336  1.00  0.00     0.167 HD
ATOM     24  C   UNL     1       3.669  -4.822   7.363  1.00  0.00     0.034 A 
ATOM     25  C   UNL     1       5.062  -9.683   1.558  1.00  0.00     0.034 A 
ATOM     26  C   UNL     1       4.210  -6.140   7.342  1.00  0.00     0.049 A 
ATOM     27  C   UNL     1       4.805 -10.002   2.970  1.00  0.00     0.074 A 
ATOM     28  C   UNL     1       5.481  -6.636   7.258  1.00  0.00     0.029 A 
ATOM     29  N   UNL     1       3.301  -7.139   7.081  1.00  0.00    -0.354 N 
ATOM     30  N   UNL     1       3.618 -10.095   3.493  1.00  0.00    -0.248 NA
ATOM     31  C   UNL     1       5.934 -10.144   3.896  1.00  0.00     0.031 C 
ATOM     32  C   UNL     1       5.320  -7.846   6.556  1.00  0.00     0.029 A 
ATOM     33  C   UNL     1       3.955  -8.112   6.374  1.00  0.00     0.049 A 
ATOM     34  H   UNL     1       2.355  -7.152   7.353  1.00  0.00     0.167 HD
ATOM     35  C   UNL     1       3.876  -9.914   4.829  1.00  0.00     0.074 A 
ATOM     36  C   UNL     1       5.257 -10.288   5.032  1.00  0.00     0.031 C 
ATOM     37  C   UNL     1       3.174  -8.973   5.514  1.00  0.00     0.034 A 
BRANCH  24  38
ATOM     38  C   UNL     1       2.981  -4.430   8.651  1.00  0.00     0.023 A 
ATOM     39  C   UNL     1       3.552  -4.988   9.832  1.00  0.00     0.012 A 
ATOM     40  C   UNL     1       1.699  -3.865   8.760  1.00  0.00     0.148 A 
ATOM     41  C   UNL     1       2.847  -5.096  11.028  1.00  0.00     0.002 A 
ATOM     42  C   UNL     1       1.012  -3.933   9.979  1.00  0.00     0.091 A 
ATOM     43  F   UNL     1       1.110  -3.356   7.673  1.00  0.00    -0.205 F 
ATOM     44  C   UNL     1       1.568  -4.578  11.096  1.00  0.00     0.022 A 
BRANCH  42  45
ATOM     45  S   UNL     1      -0.629  -3.239  10.218  1.00  0.00     0.127 S 
ATOM     46  O   UNL     1      -1.474  -4.429  10.158  1.00  0.00    -0.237 OA
ATOM     47  O   UNL     1      -0.519  -2.648  11.555  1.00  0.00    -0.237 OA
ATOM     48  O   UNL     1      -0.801  -2.263   9.153  1.00  0.00    -0.744 OA
ENDBRANCH  42  45
ENDBRANCH  24  38
BRANCH  25  49
ATOM     49  C   UNL     1       5.668 -10.777   0.702  1.00  0.00     0.023 A 
ATOM     50  C   UNL     1       5.877 -10.673  -0.681  1.00  0.00     0.012 A 
ATOM     51  C   UNL     1       6.197 -11.951   1.318  1.00  0.00     0.148 A 
ATOM     52  C   UNL     1       6.652 -11.618  -1.382  1.00  0.00     0.002 A 
ATOM     53  C   UNL     1       7.072 -12.806   0.657  1.00  0.00     0.091 A 
ATOM     54  F   UNL     1       5.829 -12.273   2.563  1.00  0.00    -0.205 F 
ATOM     55  C   UNL     1       7.295 -12.652  -0.706  1.00  0.00     0.022 A 
BRANCH  53  56
ATOM     56  S   UNL     1       8.085 -14.002   1.550  1.00  0.00     0.127 S 
ATOM     57  O   UNL     1       7.742 -15.258   0.887  1.00  0.00    -0.237 OA
ATOM     58  O   UNL     1       9.434 -13.507   1.271  1.00  0.00    -0.237 OA
ATOM     59  O   UNL     1       7.691 -13.909   2.950  1.00  0.00    -0.744 OA
ENDBRANCH  53  56
ENDBRANCH  25  49
BRANCH  37  60
ATOM     60  C   UNL     1       1.752  -8.732   4.996  1.00  0.00     0.023 A 
ATOM     61  C   UNL     1       0.900  -9.853   4.904  1.00  0.00     0.012 A 
ATOM     62  C   UNL     1       1.244  -7.504   4.511  1.00  0.00     0.148 A 
ATOM     63  C   UNL     1      -0.377  -9.770   4.339  1.00  0.00     0.002 A 
ATOM     64  C   UNL     1      -0.029  -7.420   3.934  1.00  0.00     0.091 A 
ATOM     65  F   UNL     1       2.007  -6.419   4.600  1.00  0.00    -0.205 F 
ATOM     66  C   UNL     1      -0.843  -8.555   3.854  1.00  0.00     0.022 A 
BRANCH  64  67
ATOM     67  S   UNL     1      -0.714  -5.908   3.222  1.00  0.00     0.127 S 
ATOM     68  O   UNL     1      -0.768  -6.233   1.795  1.00  0.00    -0.237 OA
ATOM     69  O   UNL     1      -2.024  -5.824   3.866  1.00  0.00    -0.237 OA
ATOM     70  O   UNL     1       0.212  -4.836   3.556  1.00  0.00    -0.744 OA
ENDBRANCH  64  67
ENDBRANCH  37  60
ENDBRANCH  11  12
ENDBRANCH   4   6
ENDBRANCH   3   4
ENDBRANCH   2   3
ENDBRANCH   1   2
BRANCH   1  71
ATOM     71  O   UNL     1       4.379   1.439   0.738  1.00  0.00    -0.457 OA
BRANCH  71  72
ATOM     72  C   UNL     1       3.115   1.823   1.079  1.00  0.00     0.354 C 
ATOM     73  O   UNL     1       2.346   2.418   0.332  1.00  0.00    -0.244 OA
BRANCH  72  74
ATOM     74  C   UNL     1       2.808   1.411   2.422  1.00  0.00     0.126 A 
ATOM     75  C   UNL     1       3.604   1.413   3.555  1.00  0.00     0.057 A 
ATOM     76  N   UNL     1       1.549   1.015   2.828  1.00  0.00    -0.354 N 
ATOM     77  C   UNL     1       2.725   1.383   4.673  1.00  0.00     0.106 A 
ATOM     78  C   UNL     1       1.479   1.030   4.199  1.00  0.00     0.105 A 
ATOM     79  H   UNL     1       0.813   0.760   2.226  1.00  0.00     0.166 HD
BRANCH  77  80
ATOM     80  S   UNL     1       3.171   1.860   6.274  1.00  0.00     0.263 S 
ATOM     81  O   UNL     1       2.005   1.625   7.109  1.00  0.00    -0.201 OA
ATOM     82  O   UNL     1       4.444   1.244   6.525  1.00  0.00    -0.201 OA
BRANCH  80  83
ATOM     83  N   UNL     1       3.432   3.565   6.337  1.00  0.00    -0.277 N 
ATOM     84  H   UNL     1       3.101   4.113   7.085  1.00  0.00     0.180 HD
BRANCH  83  85
ATOM     85  C   UNL     1       4.157   4.141   5.239  1.00  0.00     0.075 A 
ATOM     86  C   UNL     1       5.555   4.037   5.258  1.00  0.00     0.029 A 
ATOM     87  C   UNL     1       3.510   4.596   4.072  1.00  0.00     0.089 A 
ATOM     88  C   UNL     1       6.308   4.356   4.126  1.00  0.00     0.002 A 
ATOM     89  C   UNL     1       4.281   4.890   2.930  1.00  0.00     0.030 A 
ATOM     90  C   UNL     1       5.671   4.771   2.959  1.00  0.00     0.002 A 
BRANCH  87  91
ATOM     91  N   UNL     1       2.092   4.689   3.968  1.00  0.00    -0.238 N 
ATOM     92  C   UNL     1       1.151   4.758   4.974  1.00  0.00     0.130 A 
ATOM     93  N   UNL     1       1.489   4.697   2.744  1.00  0.00    -0.175 NA
ATOM     94  C   UNL     1      -0.057   4.522   4.380  1.00  0.00     0.056 A 
ATOM     95  C   UNL     1       0.203   4.452   3.012  1.00  0.00     0.151 A 
ATOM     96  Br  UNL     1      -1.721   4.330   5.196  1.00  0.00    -0.047 Br
ENDBRANCH  87  91
ENDBRANCH  83  85
ENDBRANCH  80  83
ENDBRANCH  77  80
ENDBRANCH  72  74
ENDBRANCH  71  72
ENDBRANCH   1  71
TORSDOF 18
