REMARK SMILES O=C(OCCOC(=O)c1ccc(-c2c3nc(c(-c4cccc(S(=O)(=O)[O-])c4F)c4ccc([nH]4)c(-c4cccc(S(=O)(=O)[O-])c4F)c4nc(c(-c5cccc(S(=O)(=O)[O-])c5F)c5ccc2[nH]5)C=C4)C=C3)cc1)C1=Cc2c(Cl)ccc(Cl)c2O[C@@H]1C(F)(F)F
REMARK SMILES IDX 5 1 4 2 3 3 2 4 1 5 72 6 73 7 83 8 74 9 82 10 75 11 81 12
REMARK SMILES IDX 76 13 77 14 79 15 78 16 80 17 84 18 85 19 86 20 87 21 6 22
REMARK SMILES IDX 7 23 8 24 9 25 10 26 71 27 11 28 70 29 12 30 13 31 14 32
REMARK SMILES IDX 64 33 15 34 69 35 63 36 65 37 16 38 68 39 62 40 61 41 17 43
REMARK SMILES IDX 49 44 29 45 48 46 30 47 33 48 47 49 66 50 31 51 32 52 46 54
REMARK SMILES IDX 67 55 34 56 18 57 19 58 27 59 20 60 22 61 28 62 21 63 23 64
REMARK SMILES IDX 24 65 25 66 26 67 50 68 51 69 59 70 52 71 54 72 60 73 53 74
REMARK SMILES IDX 55 75 56 76 57 77 58 78 35 79 36 80 44 81 37 82 39 83 45 84
REMARK SMILES IDX 38 85 40 86 41 87 42 88 43 89
REMARK H PARENT 65 42 33 53
REMARK Flexibility Score: inf
ROOT
ATOM      1  C   UNL     1       4.644  -0.160  -0.966  1.00  0.00     0.275 C 
ENDROOT
BRANCH   1   2
ATOM      2  C   UNL     1       3.889   0.889   0.763  1.00  0.00     0.275 C 
BRANCH   2   3
ATOM      3  O   UNL     1       3.095   2.230   0.758  1.00  0.00    -0.459 OA
BRANCH   3   4
ATOM      4  C   UNL     1       3.293   2.962  -0.345  1.00  0.00     0.338 C 
ATOM      5  O   UNL     1       2.746   3.968  -0.716  1.00  0.00    -0.246 OA
BRANCH   4   6
ATOM      6  C   UNL     1       4.072   1.958  -1.024  1.00  0.00     0.087 C 
ATOM      7  C   UNL     1       5.450   1.898  -0.488  1.00  0.00     0.029 C 
ATOM      8  C   UNL     1       2.766   0.543  -0.883  1.00  0.00     0.316 C 
ATOM      9  C   UNL     1       6.070   0.529   0.542  1.00  0.00     0.037 A 
ATOM     10  O   UNL     1       3.383  -0.894   0.234  1.00  0.00    -0.474 OA
ATOM     11  C   UNL     1       7.279   0.641   1.187  1.00  0.00     0.052 A 
ATOM     12  C   UNL     1       5.048  -0.817   0.973  1.00  0.00     0.148 A 
ATOM     13  Cl  UNL     1       8.375   1.932   0.930  1.00  0.00    -0.084 Cl
ATOM     14  C   UNL     1       7.556  -0.349   2.147  1.00  0.00     0.023 A 
ATOM     15  C   UNL     1       5.410  -1.738   1.921  1.00  0.00     0.083 A 
ATOM     16  C   UNL     1       6.676  -1.462   2.494  1.00  0.00     0.026 A 
ATOM     17  Cl  UNL     1       4.458  -3.036   2.458  1.00  0.00    -0.080 Cl
BRANCH   8  18
ATOM     18  C   UNL     1       2.192   0.580  -2.340  1.00  0.00     0.430 C 
ATOM     19  F   UNL     1       0.946   0.087  -2.392  1.00  0.00    -0.167 F 
ATOM     20  F   UNL     1       2.055   1.890  -2.704  1.00  0.00    -0.167 F 
ATOM     21  F   UNL     1       2.961   0.072  -3.313  1.00  0.00    -0.167 F 
ENDBRANCH   8  18
ENDBRANCH   4   6
ENDBRANCH   3   4
ENDBRANCH   2   3
ENDBRANCH   1   2
BRANCH   1  22
ATOM     22  O   UNL     1       3.836  -1.388  -1.839  1.00  0.00    -0.458 OA
BRANCH  22  23
ATOM     23  C   UNL     1       3.015  -2.479  -1.724  1.00  0.00     0.338 C 
ATOM     24  O   UNL     1       2.633  -3.069  -0.731  1.00  0.00    -0.246 OA
BRANCH  23  25
ATOM     25  C   UNL     1       2.348  -2.601  -3.057  1.00  0.00     0.060 A 
ATOM     26  C   UNL     1       0.979  -2.297  -3.150  1.00  0.00     0.016 A 
ATOM     27  C   UNL     1       3.136  -2.616  -4.207  1.00  0.00     0.016 A 
ATOM     28  C   UNL     1       0.464  -1.768  -4.347  1.00  0.00     0.010 A 
ATOM     29  C   UNL     1       2.612  -2.118  -5.402  1.00  0.00     0.010 A 
ATOM     30  C   UNL     1       1.299  -1.617  -5.464  1.00  0.00    -0.014 A 
BRANCH  30  31
ATOM     31  C   UNL     1       0.772  -1.163  -6.778  1.00  0.00     0.031 A 
ATOM     32  C   UNL     1       0.242  -2.243  -7.673  1.00  0.00     0.074 A 
ATOM     33  C   UNL     1       0.863   0.108  -7.227  1.00  0.00     0.049 A 
ATOM     34  N   UNL     1      -0.166  -2.177  -8.909  1.00  0.00    -0.248 NA
ATOM     35  C   UNL     1       0.206  -3.595  -7.088  1.00  0.00     0.031 C 
ATOM     36  C   UNL     1       1.382   1.253  -6.479  1.00  0.00     0.029 A 
ATOM     37  N   UNL     1       0.548   0.641  -8.460  1.00  0.00    -0.354 N 
ATOM     38  C   UNL     1      -0.482  -3.482  -9.257  1.00  0.00     0.074 A 
ATOM     39  C   UNL     1      -0.184  -4.320  -8.119  1.00  0.00     0.031 C 
ATOM     40  C   UNL     1       1.375   2.342  -7.274  1.00  0.00     0.029 A 
ATOM     41  C   UNL     1       0.867   1.977  -8.596  1.00  0.00     0.049 A 
ATOM     42  H   UNL     1       0.132   0.115  -9.180  1.00  0.00     0.167 HD
ATOM     43  C   UNL     1      -0.996  -3.951 -10.414  1.00  0.00     0.034 A 
ATOM     44  C   UNL     1       0.765   2.796  -9.667  1.00  0.00     0.034 A 
ATOM     45  C   UNL     1      -1.276  -3.133 -11.554  1.00  0.00     0.049 A 
ATOM     46  C   UNL     1       0.203   2.243 -10.964  1.00  0.00     0.074 A 
ATOM     47  C   UNL     1      -1.815  -3.507 -12.769  1.00  0.00     0.029 A 
ATOM     48  N   UNL     1      -1.016  -1.774 -11.624  1.00  0.00    -0.354 N 
ATOM     49  N   UNL     1      -0.235   1.035 -11.230  1.00  0.00    -0.248 NA
ATOM     50  C   UNL     1       0.092   3.175 -12.100  1.00  0.00     0.031 C 
ATOM     51  C   UNL     1      -1.864  -2.373 -13.585  1.00  0.00     0.029 A 
ATOM     52  C   UNL     1      -1.384  -1.289 -12.864  1.00  0.00     0.049 A 
ATOM     53  H   UNL     1      -0.627  -1.234 -10.898  1.00  0.00     0.167 HD
ATOM     54  C   UNL     1      -0.719   1.077 -12.536  1.00  0.00     0.074 A 
ATOM     55  C   UNL     1      -0.531   2.433 -13.007  1.00  0.00     0.031 C 
ATOM     56  C   UNL     1      -1.260   0.083 -13.284  1.00  0.00     0.034 A 
BRANCH  43  57
ATOM     57  C   UNL     1      -1.294  -5.422 -10.459  1.00  0.00     0.023 A 
ATOM     58  C   UNL     1      -2.355  -5.934  -9.682  1.00  0.00     0.012 A 
ATOM     59  C   UNL     1      -0.493  -6.300 -11.209  1.00  0.00     0.148 A 
ATOM     60  C   UNL     1      -2.576  -7.306  -9.604  1.00  0.00     0.002 A 
ATOM     61  C   UNL     1      -0.752  -7.663 -11.166  1.00  0.00     0.091 A 
ATOM     62  F   UNL     1       0.528  -5.792 -11.914  1.00  0.00    -0.205 F 
ATOM     63  C   UNL     1      -1.779  -8.169 -10.350  1.00  0.00     0.022 A 
BRANCH  61  64
ATOM     64  S   UNL     1       0.174  -8.855 -12.135  1.00  0.00     0.127 S 
ATOM     65  O   UNL     1       0.885  -9.594 -11.093  1.00  0.00    -0.237 OA
ATOM     66  O   UNL     1      -0.895  -9.605 -12.794  1.00  0.00    -0.237 OA
ATOM     67  O   UNL     1       1.017  -8.079 -13.033  1.00  0.00    -0.744 OA
ENDBRANCH  61  64
ENDBRANCH  43  57
BRANCH  44  68
ATOM     68  C   UNL     1       1.132   4.248  -9.586  1.00  0.00     0.023 A 
ATOM     69  C   UNL     1       0.112   5.219  -9.696  1.00  0.00     0.012 A 
ATOM     70  C   UNL     1       2.468   4.682  -9.473  1.00  0.00     0.148 A 
ATOM     71  C   UNL     1       0.416   6.582  -9.743  1.00  0.00     0.002 A 
ATOM     72  C   UNL     1       2.761   6.045  -9.475  1.00  0.00     0.091 A 
ATOM     73  F   UNL     1       3.431   3.754  -9.387  1.00  0.00    -0.205 F 
ATOM     74  C   UNL     1       1.739   6.995  -9.629  1.00  0.00     0.022 A 
BRANCH  72  75
ATOM     75  S   UNL     1       4.425   6.690  -9.251  1.00  0.00     0.127 S 
ATOM     76  O   UNL     1       4.690   7.297 -10.553  1.00  0.00    -0.237 OA
ATOM     77  O   UNL     1       4.234   7.643  -8.157  1.00  0.00    -0.237 OA
ATOM     78  O   UNL     1       5.253   5.540  -8.914  1.00  0.00    -0.744 OA
ENDBRANCH  72  75
ENDBRANCH  44  68
BRANCH  56  79
ATOM     79  C   UNL     1      -1.755   0.412 -14.669  1.00  0.00     0.023 A 
ATOM     80  C   UNL     1      -0.837   0.634 -15.713  1.00  0.00     0.012 A 
ATOM     81  C   UNL     1      -3.134   0.356 -14.959  1.00  0.00     0.148 A 
ATOM     82  C   UNL     1      -1.285   0.812 -17.022  1.00  0.00     0.002 A 
ATOM     83  C   UNL     1      -3.569   0.481 -16.272  1.00  0.00     0.091 A 
ATOM     84  F   UNL     1      -3.992   0.160 -13.947  1.00  0.00    -0.205 F 
ATOM     85  C   UNL     1      -2.647   0.719 -17.303  1.00  0.00     0.022 A 
BRANCH  83  86
ATOM     86  S   UNL     1      -5.289   0.257 -16.742  1.00  0.00     0.127 S 
ATOM     87  O   UNL     1      -5.687   1.623 -17.075  1.00  0.00    -0.237 OA
ATOM     88  O   UNL     1      -5.181  -0.645 -17.890  1.00  0.00    -0.237 OA
ATOM     89  O   UNL     1      -5.951  -0.322 -15.581  1.00  0.00    -0.744 OA
ENDBRANCH  83  86
ENDBRANCH  56  79
ENDBRANCH  30  31
ENDBRANCH  23  25
ENDBRANCH  22  23
ENDBRANCH   1  22
TORSDOF 15
