REMARK SMILES O=C(OCCOC(=O)c1cc(S(=O)(=O)Cc2cccc(O)c2)ccc1F)c1ccc(-c2c3nc(c(-c4cccc(S(=O)(=O)[O-])c4F)c4ccc([nH]4)c(-c4cccc(S(=O)(=O)[O-])c4F)c4nc(c(-c5cccc(S(=O)(=O)[O-])c5F)c5ccc2[nH]5)C=C4)C=C3)cc1
REMARK SMILES IDX 5 1 4 2 3 3 2 4 1 5 27 6 28 7 89 8 29 9 88 10 30 11 31 12
REMARK SMILES IDX 32 13 82 14 33 15 87 16 81 17 83 18 34 19 86 20 80 21 79 22
REMARK SMILES IDX 35 24 67 25 47 26 66 27 48 28 51 29 65 30 84 31 49 32 50 33
REMARK SMILES IDX 64 35 85 36 52 37 36 38 37 39 45 40 38 41 40 42 46 43 39 44
REMARK SMILES IDX 41 45 42 46 43 47 44 48 68 49 69 50 77 51 70 52 72 53 78 54
REMARK SMILES IDX 71 55 73 56 74 57 75 58 76 59 53 60 54 61 62 62 55 63 57 64
REMARK SMILES IDX 63 65 56 66 58 67 59 68 60 69 61 70 6 71 7 72 8 73 9 74
REMARK SMILES IDX 10 75 25 76 11 77 24 78 26 79 23 80 12 81 13 82 14 83 15 84
REMARK SMILES IDX 16 85 17 86 22 87 18 88 20 89 19 90 21 91
REMARK H PARENT 83 23 51 34 21 92
REMARK Flexibility Score: inf
ROOT
ATOM      1  C   UNL     1       3.751  -1.566  -1.643  1.00  0.00     0.275 C 
ENDROOT
BRANCH   1   2
ATOM      2  C   UNL     1       4.019  -1.686  -0.140  1.00  0.00     0.275 C 
BRANCH   2   3
ATOM      3  O   UNL     1       3.005  -1.118   0.701  1.00  0.00    -0.458 OA
BRANCH   3   4
ATOM      4  C   UNL     1       2.827   0.159   1.112  1.00  0.00     0.338 C 
ATOM      5  O   UNL     1       1.944   0.381   1.940  1.00  0.00    -0.246 OA
BRANCH   4   6
ATOM      6  C   UNL     1       3.573   1.335   0.554  1.00  0.00     0.060 A 
ATOM      7  C   UNL     1       4.822   1.313  -0.075  1.00  0.00     0.016 A 
ATOM      8  C   UNL     1       2.939   2.580   0.684  1.00  0.00     0.016 A 
ATOM      9  C   UNL     1       5.385   2.466  -0.632  1.00  0.00     0.010 A 
ATOM     10  C   UNL     1       3.503   3.738   0.144  1.00  0.00     0.010 A 
ATOM     11  C   UNL     1       4.728   3.687  -0.529  1.00  0.00    -0.014 A 
BRANCH  11  12
ATOM     12  C   UNL     1       5.401   4.928  -0.969  1.00  0.00     0.031 A 
ATOM     13  C   UNL     1       5.914   5.860   0.088  1.00  0.00     0.074 A 
ATOM     14  C   UNL     1       5.529   5.231  -2.276  1.00  0.00     0.049 A 
ATOM     15  N   UNL     1       6.480   7.027  -0.053  1.00  0.00    -0.248 NA
ATOM     16  C   UNL     1       5.771   5.419   1.487  1.00  0.00     0.031 C 
ATOM     17  C   UNL     1       5.097   4.387  -3.386  1.00  0.00     0.029 A 
ATOM     18  N   UNL     1       6.017   6.358  -2.892  1.00  0.00    -0.354 N 
ATOM     19  C   UNL     1       6.766   7.455   1.236  1.00  0.00     0.074 A 
ATOM     20  C   UNL     1       6.257   6.457   2.147  1.00  0.00     0.031 C 
ATOM     21  C   UNL     1       5.259   5.055  -4.542  1.00  0.00     0.029 A 
ATOM     22  C   UNL     1       5.818   6.372  -4.254  1.00  0.00     0.049 A 
ATOM     23  H   UNL     1       6.466   7.087  -2.405  1.00  0.00     0.167 HD
ATOM     24  C   UNL     1       7.435   8.562   1.623  1.00  0.00     0.034 A 
ATOM     25  C   UNL     1       6.054   7.341  -5.161  1.00  0.00     0.034 A 
ATOM     26  C   UNL     1       7.943   9.544   0.710  1.00  0.00     0.049 A 
ATOM     27  C   UNL     1       6.725   8.608  -4.699  1.00  0.00     0.074 A 
ATOM     28  C   UNL     1       8.668  10.685   0.994  1.00  0.00     0.029 A 
ATOM     29  N   UNL     1       7.766   9.506  -0.664  1.00  0.00    -0.354 N 
ATOM     30  N   UNL     1       7.099   8.942  -3.487  1.00  0.00    -0.248 NA
ATOM     31  C   UNL     1       7.061   9.605  -5.726  1.00  0.00     0.031 C 
ATOM     32  C   UNL     1       8.900  11.357  -0.209  1.00  0.00     0.029 A 
ATOM     33  C   UNL     1       8.350  10.615  -1.244  1.00  0.00     0.049 A 
ATOM     34  H   UNL     1       7.294   8.794  -1.154  1.00  0.00     0.167 HD
ATOM     35  C   UNL     1       7.769  10.153  -3.614  1.00  0.00     0.074 A 
ATOM     36  C   UNL     1       7.743  10.498  -5.021  1.00  0.00     0.031 C 
ATOM     37  C   UNL     1       8.355  10.910  -2.654  1.00  0.00     0.034 A 
BRANCH  24  38
ATOM     38  C   UNL     1       7.688   8.738   3.094  1.00  0.00     0.023 A 
ATOM     39  C   UNL     1       8.625   7.906   3.741  1.00  0.00     0.012 A 
ATOM     40  C   UNL     1       7.031   9.744   3.824  1.00  0.00     0.148 A 
ATOM     41  C   UNL     1       8.884   8.055   5.102  1.00  0.00     0.002 A 
ATOM     42  C   UNL     1       7.330   9.918   5.169  1.00  0.00     0.091 A 
ATOM     43  F   UNL     1       6.128  10.506   3.190  1.00  0.00    -0.205 F 
ATOM     44  C   UNL     1       8.245   9.067   5.812  1.00  0.00     0.022 A 
BRANCH  42  45
ATOM     45  S   UNL     1       6.623  11.240   6.155  1.00  0.00     0.127 S 
ATOM     46  O   UNL     1       5.864  10.490   7.155  1.00  0.00    -0.237 OA
ATOM     47  O   UNL     1       7.819  11.906   6.670  1.00  0.00    -0.237 OA
ATOM     48  O   UNL     1       5.820  12.041   5.242  1.00  0.00    -0.744 OA
ENDBRANCH  42  45
ENDBRANCH  24  38
BRANCH  25  49
ATOM     49  C   UNL     1       5.715   7.127  -6.598  1.00  0.00     0.023 A 
ATOM     50  C   UNL     1       6.746   6.958  -7.542  1.00  0.00     0.012 A 
ATOM     51  C   UNL     1       4.375   7.069  -7.032  1.00  0.00     0.148 A 
ATOM     52  C   UNL     1       6.453   6.769  -8.894  1.00  0.00     0.002 A 
ATOM     53  C   UNL     1       4.088   6.834  -8.373  1.00  0.00     0.091 A 
ATOM     54  F   UNL     1       3.406   7.234  -6.120  1.00  0.00    -0.205 F 
ATOM     55  C   UNL     1       5.125   6.699  -9.309  1.00  0.00     0.022 A 
BRANCH  53  56
ATOM     56  S   UNL     1       2.410   6.611  -8.975  1.00  0.00     0.127 S 
ATOM     57  O   UNL     1       2.218   7.815  -9.780  1.00  0.00    -0.237 OA
ATOM     58  O   UNL     1       2.529   5.369  -9.739  1.00  0.00    -0.237 OA
ATOM     59  O   UNL     1       1.578   6.505  -7.783  1.00  0.00    -0.744 OA
ENDBRANCH  53  56
ENDBRANCH  25  49
BRANCH  37  60
ATOM     60  C   UNL     1       9.057  12.172  -3.076  1.00  0.00     0.023 A 
ATOM     61  C   UNL     1       8.304  13.301  -3.449  1.00  0.00     0.012 A 
ATOM     62  C   UNL     1      10.459  12.275  -2.963  1.00  0.00     0.148 A 
ATOM     63  C   UNL     1       8.938  14.513  -3.718  1.00  0.00     0.002 A 
ATOM     64  C   UNL     1      11.077  13.499  -3.178  1.00  0.00     0.091 A 
ATOM     65  F   UNL     1      11.154  11.180  -2.623  1.00  0.00    -0.205 F 
ATOM     66  C   UNL     1      10.319  14.617  -3.565  1.00  0.00     0.022 A 
BRANCH  64  67
ATOM     67  S   UNL     1      12.831  13.755  -2.889  1.00  0.00     0.127 S 
ATOM     68  O   UNL     1      13.331  13.939  -4.250  1.00  0.00    -0.237 OA
ATOM     69  O   UNL     1      12.834  14.966  -2.068  1.00  0.00    -0.237 OA
ATOM     70  O   UNL     1      13.306  12.559  -2.207  1.00  0.00    -0.744 OA
ENDBRANCH  64  67
ENDBRANCH  37  60
ENDBRANCH  11  12
ENDBRANCH   4   6
ENDBRANCH   3   4
ENDBRANCH   2   3
ENDBRANCH   1   2
BRANCH   1  71
ATOM     71  O   UNL     1       3.346  -0.256  -2.073  1.00  0.00    -0.458 OA
BRANCH  71  72
ATOM     72  C   UNL     1       2.006  -0.054  -2.180  1.00  0.00     0.341 C 
ATOM     73  O   UNL     1       1.129  -0.853  -1.891  1.00  0.00    -0.246 OA
BRANCH  72  74
ATOM     74  C   UNL     1       1.727   1.328  -2.610  1.00  0.00     0.097 A 
ATOM     75  C   UNL     1       0.847   2.125  -1.865  1.00  0.00     0.039 A 
ATOM     76  C   UNL     1       2.301   1.836  -3.770  1.00  0.00     0.137 A 
ATOM     77  C   UNL     1       0.595   3.451  -2.264  1.00  0.00     0.068 A 
ATOM     78  C   UNL     1       2.002   3.131  -4.197  1.00  0.00     0.041 A 
ATOM     79  F   UNL     1       3.146   1.094  -4.500  1.00  0.00    -0.206 F 
ATOM     80  C   UNL     1       1.155   3.948  -3.442  1.00  0.00     0.023 A 
BRANCH  77  81
ATOM     81  S   UNL     1      -0.439   4.445  -1.198  1.00  0.00     0.182 S 
ATOM     82  O   UNL     1      -1.748   3.817  -1.290  1.00  0.00    -0.223 OA
ATOM     83  O   UNL     1       0.237   4.497   0.086  1.00  0.00    -0.223 OA
BRANCH  81  84
ATOM     84  C   UNL     1      -0.610   6.087  -1.858  1.00  0.00     0.177 C 
BRANCH  84  85
ATOM     85  C   UNL     1       0.523   7.062  -1.626  1.00  0.00    -0.029 A 
ATOM     86  C   UNL     1       1.876   6.724  -1.520  1.00  0.00     0.005 A 
ATOM     87  C   UNL     1       0.203   8.435  -1.630  1.00  0.00     0.051 A 
ATOM     88  C   UNL     1       2.860   7.710  -1.384  1.00  0.00     0.004 A 
ATOM     89  C   UNL     1       1.193   9.411  -1.512  1.00  0.00     0.115 A 
ATOM     90  C   UNL     1       2.525   9.057  -1.381  1.00  0.00     0.046 A 
BRANCH  89  91
ATOM     91  O   UNL     1       0.814  10.720  -1.545  1.00  0.00    -0.508 OA
ATOM     92  H   UNL     1       1.458  11.397  -1.468  1.00  0.00     0.293 HD
ENDBRANCH  89  91
ENDBRANCH  84  85
ENDBRANCH  81  84
ENDBRANCH  77  81
ENDBRANCH  72  74
ENDBRANCH  71  72
ENDBRANCH   1  71
TORSDOF 18
