REMARK SMILES C[C@@H]1CCC[C@](C#N)([C@H](O)C(=O)OCCOC(=O)c2ccc(-c3c4nc(c(-c5cccc(S(=O)(=O)[O-])c5F)c5ccc([nH]5)c(-c5cccc(S(=O)(=O)[O-])c5F)c5nc(c(-c6cccc(S(=O)(=O)[O-])c6F)c6ccc3[nH]6)C=C5)C=C4)cc2)C1
REMARK SMILES IDX 15 1 14 2 13 3 11 4 12 5 9 6 6 7 1 8 2 9 3 10 82 11 4 12
REMARK SMILES IDX 5 13 7 14 8 15 10 16 16 18 17 19 18 20 19 21 20 22 81 23
REMARK SMILES IDX 21 24 80 25 22 26 23 27 24 28 74 29 25 30 79 31 73 32 75 33
REMARK SMILES IDX 26 34 78 35 72 36 71 37 27 39 59 40 39 41 58 42 40 43 43 44
REMARK SMILES IDX 57 45 76 46 41 47 42 48 56 50 77 51 44 52 28 53 29 54 37 55
REMARK SMILES IDX 30 56 32 57 38 58 31 59 33 60 34 61 35 62 36 63 60 64 61 65
REMARK SMILES IDX 69 66 62 67 64 68 70 69 63 70 65 71 66 72 67 73 68 74 45 75
REMARK SMILES IDX 46 76 54 77 47 78 49 79 55 80 48 81 50 82 51 83 52 84 53 85
REMARK H PARENT 10 17 75 38 43 49
REMARK Flexibility Score: inf
ROOT
ATOM      1  C   UNL     1       6.178   3.556  -0.818  1.00  0.00     0.275 C 
ENDROOT
BRANCH   1   2
ATOM      2  C   UNL     1       5.723   2.200  -0.274  1.00  0.00     0.274 C 
BRANCH   2   3
ATOM      3  O   UNL     1       4.334   1.942  -0.561  1.00  0.00    -0.460 OA
BRANCH   3   4
ATOM      4  C   UNL     1       3.444   2.252   0.410  1.00  0.00     0.336 C 
ATOM      5  O   UNL     1       3.745   2.675   1.522  1.00  0.00    -0.249 OA
BRANCH   4   6
ATOM      6  C   UNL     1       2.008   1.820   0.080  1.00  0.00     0.244 C 
BRANCH   6   7
ATOM      7  C   UNL     1       1.353   2.158  -1.292  1.00  0.00     0.094 C 
ATOM      8  C   UNL     1       0.422  -0.983  -0.446  1.00  0.00     0.008 C 
ATOM      9  C   UNL     1       0.176  -0.158  -1.714  1.00  0.00    -0.013 C 
ATOM     10  C   UNL     1       1.220  -0.453  -2.801  1.00  0.00     0.003 C 
ATOM     11  C   UNL     1       0.023   1.354  -1.455  1.00  0.00     0.029 C 
ATOM     12  C   UNL     1       2.511   0.350  -2.662  1.00  0.00     0.002 C 
ATOM     13  C   UNL     1       2.221   1.839  -2.527  1.00  0.00     0.026 C 
BRANCH   7  14
ATOM     14  C   UNL     1       0.972   3.595  -1.360  1.00  0.00     0.072 C 
ATOM     15  N   UNL     1       0.605   4.686  -1.469  1.00  0.00    -0.198 NA
ENDBRANCH   7  14
ENDBRANCH   6   7
BRANCH   6  16
ATOM     16  O   UNL     1       1.120   2.204   1.148  1.00  0.00    -0.380 OA
ATOM     17  H   UNL     1       1.047   3.171   1.176  1.00  0.00     0.211 HD
ENDBRANCH   6  16
ENDBRANCH   4   6
ENDBRANCH   3   4
ENDBRANCH   2   3
ENDBRANCH   1   2
BRANCH   1  18
ATOM     18  O   UNL     1       5.571   4.643  -0.098  1.00  0.00    -0.458 OA
BRANCH  18  19
ATOM     19  C   UNL     1       4.412   5.096  -0.634  1.00  0.00     0.338 C 
ATOM     20  O   UNL     1       3.897   4.708  -1.669  1.00  0.00    -0.246 OA
BRANCH  19  21
ATOM     21  C   UNL     1       3.748   6.005   0.311  1.00  0.00     0.060 A 
ATOM     22  C   UNL     1       2.593   5.554   0.953  1.00  0.00     0.016 A 
ATOM     23  C   UNL     1       4.191   7.311   0.496  1.00  0.00     0.016 A 
ATOM     24  C   UNL     1       1.847   6.400   1.754  1.00  0.00     0.010 A 
ATOM     25  C   UNL     1       3.457   8.160   1.328  1.00  0.00     0.010 A 
ATOM     26  C   UNL     1       2.274   7.712   1.947  1.00  0.00    -0.014 A 
BRANCH  26  27
ATOM     27  C   UNL     1       1.443   8.626   2.756  1.00  0.00     0.031 A 
ATOM     28  C   UNL     1       0.726   9.754   2.081  1.00  0.00     0.074 A 
ATOM     29  C   UNL     1       1.337   8.427   4.082  1.00  0.00     0.049 A 
ATOM     30  N   UNL     1       0.080  10.756   2.613  1.00  0.00    -0.248 NA
ATOM     31  C   UNL     1       0.750   9.761   0.609  1.00  0.00     0.031 C 
ATOM     32  C   UNL     1       1.944   7.319   4.823  1.00  0.00     0.029 A 
ATOM     33  N   UNL     1       0.696   9.162   5.045  1.00  0.00    -0.354 N 
ATOM     34  C   UNL     1      -0.330  11.547   1.547  1.00  0.00     0.074 A 
ATOM     35  C   UNL     1       0.142  10.907   0.338  1.00  0.00     0.031 C 
ATOM     36  C   UNL     1       1.658   7.455   6.127  1.00  0.00     0.029 A 
ATOM     37  C   UNL     1       0.905   8.689   6.318  1.00  0.00     0.049 A 
ATOM     38  H   UNL     1       0.141   9.950   4.844  1.00  0.00     0.167 HD
ATOM     39  C   UNL     1      -1.040  12.699   1.581  1.00  0.00     0.034 A 
ATOM     40  C   UNL     1       0.562   9.219   7.507  1.00  0.00     0.034 A 
ATOM     41  C   UNL     1      -1.527  13.295   2.797  1.00  0.00     0.049 A 
ATOM     42  C   UNL     1      -0.185  10.524   7.519  1.00  0.00     0.074 A 
ATOM     43  C   UNL     1      -2.272  14.449   2.954  1.00  0.00     0.029 A 
ATOM     44  N   UNL     1      -1.315  12.780   4.069  1.00  0.00    -0.354 N 
ATOM     45  N   UNL     1      -0.600  11.248   6.508  1.00  0.00    -0.248 NA
ATOM     46  C   UNL     1      -0.527  11.077   8.836  1.00  0.00     0.031 C 
ATOM     47  C   UNL     1      -2.485  14.647   4.323  1.00  0.00     0.029 A 
ATOM     48  C   UNL     1      -1.906  13.596   5.018  1.00  0.00     0.049 A 
ATOM     49  H   UNL     1      -0.817  11.954   4.267  1.00  0.00     0.167 HD
ATOM     50  C   UNL     1      -1.286  12.322   7.062  1.00  0.00     0.074 A 
ATOM     51  C   UNL     1      -1.243  12.142   8.500  1.00  0.00     0.031 C 
ATOM     52  C   UNL     1      -1.889  13.367   6.442  1.00  0.00     0.034 A 
BRANCH  39  53
ATOM     53  C   UNL     1      -1.323  13.381   0.268  1.00  0.00     0.023 A 
ATOM     54  C   UNL     1      -2.223  12.801  -0.650  1.00  0.00     0.012 A 
ATOM     55  C   UNL     1      -0.706  14.606  -0.055  1.00  0.00     0.148 A 
ATOM     56  C   UNL     1      -2.467  13.402  -1.885  1.00  0.00     0.002 A 
ATOM     57  C   UNL     1      -0.991  15.225  -1.267  1.00  0.00     0.091 A 
ATOM     58  F   UNL     1       0.165  15.134   0.818  1.00  0.00    -0.205 F 
ATOM     59  C   UNL     1      -1.858  14.617  -2.189  1.00  0.00     0.022 A 
BRANCH  57  60
ATOM     60  S   UNL     1      -0.318  16.828  -1.717  1.00  0.00     0.127 S 
ATOM     61  O   UNL     1       0.639  16.466  -2.762  1.00  0.00    -0.237 OA
ATOM     62  O   UNL     1      -1.505  17.537  -2.198  1.00  0.00    -0.237 OA
ATOM     63  O   UNL     1       0.263  17.377  -0.500  1.00  0.00    -0.744 OA
ENDBRANCH  57  60
ENDBRANCH  39  53
BRANCH  40  64
ATOM     64  C   UNL     1       0.899   8.504   8.770  1.00  0.00     0.023 A 
ATOM     65  C   UNL     1      -0.139   7.951   9.544  1.00  0.00     0.012 A 
ATOM     66  C   UNL     1       2.233   8.336   9.190  1.00  0.00     0.148 A 
ATOM     67  C   UNL     1       0.142   7.269  10.727  1.00  0.00     0.002 A 
ATOM     68  C   UNL     1       2.510   7.607  10.341  1.00  0.00     0.091 A 
ATOM     69  F   UNL     1       3.207   8.878   8.446  1.00  0.00    -0.205 F 
ATOM     70  C   UNL     1       1.465   7.087  11.120  1.00  0.00     0.022 A 
BRANCH  68  71
ATOM     71  S   UNL     1       4.185   7.214  10.860  1.00  0.00     0.127 S 
ATOM     72  O   UNL     1       4.305   7.988  12.093  1.00  0.00    -0.237 OA
ATOM     73  O   UNL     1       4.109   5.764  11.048  1.00  0.00    -0.237 OA
ATOM     74  O   UNL     1       5.048   7.634   9.765  1.00  0.00    -0.744 OA
ENDBRANCH  68  71
ENDBRANCH  40  64
BRANCH  52  75
ATOM     75  C   UNL     1      -2.594  14.372   7.314  1.00  0.00     0.023 A 
ATOM     76  C   UNL     1      -1.847  15.268   8.103  1.00  0.00     0.012 A 
ATOM     77  C   UNL     1      -4.000  14.470   7.296  1.00  0.00     0.148 A 
ATOM     78  C   UNL     1      -2.490  16.223   8.890  1.00  0.00     0.002 A 
ATOM     79  C   UNL     1      -4.630  15.458   8.040  1.00  0.00     0.091 A 
ATOM     80  F   UNL     1      -4.692  13.595   6.552  1.00  0.00    -0.205 F 
ATOM     81  C   UNL     1      -3.879  16.326   8.849  1.00  0.00     0.022 A 
BRANCH  79  82
ATOM     82  S   UNL     1      -6.404  15.731   7.972  1.00  0.00     0.127 S 
ATOM     83  O   UNL     1      -6.828  15.270   9.293  1.00  0.00    -0.237 OA
ATOM     84  O   UNL     1      -6.486  17.179   7.776  1.00  0.00    -0.237 OA
ATOM     85  O   UNL     1      -6.891  14.941   6.849  1.00  0.00    -0.744 OA
ENDBRANCH  79  82
ENDBRANCH  52  75
ENDBRANCH  26  27
ENDBRANCH  19  21
ENDBRANCH  18  19
ENDBRANCH   1  18
TORSDOF 17
