REMARK SMILES O=C(OCCOC(=O)[C@@H]1CCn2c(C(=O)c3ccccc3)ccc21)c1ccc(-c2c3nc(c(-c4cccc(S(=O)(=O)[O-])c4F)c4ccc([nH]4)c(-c4cccc(S(=O)(=O)[O-])c4F)c4nc(c(-c5cccc(S(=O)(=O)[O-])c5F)c5ccc2[nH]5)C=C4)C=C3)cc1
REMARK SMILES IDX 4 1 3 2 2 3 1 4 25 5 26 6 87 7 27 8 86 9 28 10 29 11 30 12
REMARK SMILES IDX 80 13 31 14 85 15 79 16 81 17 32 18 84 19 78 20 77 21 33 23
REMARK SMILES IDX 65 24 45 25 64 26 46 27 49 28 63 29 82 30 47 31 48 32 62 34
REMARK SMILES IDX 83 35 50 36 34 37 35 38 43 39 36 40 38 41 44 42 37 43 39 44
REMARK SMILES IDX 40 45 41 46 42 47 66 48 67 49 75 50 68 51 70 52 76 53 69 54
REMARK SMILES IDX 71 55 72 56 73 57 74 58 51 59 52 60 60 61 53 62 55 63 61 64
REMARK SMILES IDX 54 65 56 66 57 67 58 68 59 69 5 70 6 71 7 72 8 73 9 74 10 75
REMARK SMILES IDX 24 76 11 77 12 78 23 79 13 80 22 81 14 82 15 83 16 84 17 85
REMARK SMILES IDX 21 86 18 87 20 88 19 89
REMARK H PARENT 81 22 49 33
REMARK Flexibility Score: inf
ROOT
ATOM      1  C   UNL     1       4.132  -1.400   0.421  1.00  0.00     0.275 C 
ENDROOT
BRANCH   1   2
ATOM      2  O   UNL     1       3.178  -0.491   0.980  1.00  0.00    -0.458 OA
BRANCH   2   3
ATOM      3  C   UNL     1       3.110   0.854   0.863  1.00  0.00     0.338 C 
ATOM      4  O   UNL     1       2.328   1.460   1.595  1.00  0.00    -0.246 OA
BRANCH   3   5
ATOM      5  C   UNL     1       3.836   1.641  -0.189  1.00  0.00     0.060 A 
ATOM      6  C   UNL     1       5.011   1.281  -0.867  1.00  0.00     0.016 A 
ATOM      7  C   UNL     1       3.235   2.860  -0.542  1.00  0.00     0.016 A 
ATOM      8  C   UNL     1       5.502   2.034  -1.946  1.00  0.00     0.010 A 
ATOM      9  C   UNL     1       3.723   3.616  -1.609  1.00  0.00     0.010 A 
ATOM     10  C   UNL     1       4.840   3.189  -2.346  1.00  0.00    -0.014 A 
BRANCH  10  11
ATOM     11  C   UNL     1       5.353   4.071  -3.418  1.00  0.00     0.031 A 
ATOM     12  C   UNL     1       5.855   5.413  -2.989  1.00  0.00     0.074 A 
ATOM     13  C   UNL     1       5.242   3.763  -4.726  1.00  0.00     0.049 A 
ATOM     14  N   UNL     1       6.137   6.461  -3.708  1.00  0.00    -0.248 NA
ATOM     15  C   UNL     1       6.010   5.606  -1.536  1.00  0.00     0.031 C 
ATOM     16  C   UNL     1       4.790   2.484  -5.269  1.00  0.00     0.029 A 
ATOM     17  N   UNL     1       5.443   4.537  -5.843  1.00  0.00    -0.354 N 
ATOM     18  C   UNL     1       6.460   7.449  -2.790  1.00  0.00     0.074 A 
ATOM     19  C   UNL     1       6.245   6.902  -1.470  1.00  0.00     0.031 C 
ATOM     20  C   UNL     1       4.646   2.592  -6.603  1.00  0.00     0.029 A 
ATOM     21  C   UNL     1       5.026   3.940  -7.013  1.00  0.00     0.049 A 
ATOM     22  H   UNL     1       5.847   5.434  -5.811  1.00  0.00     0.167 HD
ATOM     23  C   UNL     1       6.952   8.685  -3.021  1.00  0.00     0.034 A 
ATOM     24  C   UNL     1       4.961   4.431  -8.268  1.00  0.00     0.034 A 
ATOM     25  C   UNL     1       7.201   9.194  -4.334  1.00  0.00     0.049 A 
ATOM     26  C   UNL     1       5.499   5.818  -8.520  1.00  0.00     0.074 A 
ATOM     27  C   UNL     1       7.775  10.394  -4.702  1.00  0.00     0.029 A 
ATOM     28  N   UNL     1       6.875   8.521  -5.503  1.00  0.00    -0.354 N 
ATOM     29  N   UNL     1       5.951   6.692  -7.652  1.00  0.00    -0.248 NA
ATOM     30  C   UNL     1       5.591   6.262  -9.919  1.00  0.00     0.031 C 
ATOM     31  C   UNL     1       7.773  10.456  -6.099  1.00  0.00     0.029 A 
ATOM     32  C   UNL     1       7.232   9.279  -6.598  1.00  0.00     0.049 A 
ATOM     33  H   UNL     1       6.452   7.633  -5.544  1.00  0.00     0.167 HD
ATOM     34  C   UNL     1       6.452   7.751  -8.400  1.00  0.00     0.074 A 
ATOM     35  C   UNL     1       6.225   7.421  -9.793  1.00  0.00     0.031 C 
ATOM     36  C   UNL     1       7.059   8.886  -7.974  1.00  0.00     0.034 A 
BRANCH  23  37
ATOM     37  C   UNL     1       7.264   9.513  -1.807  1.00  0.00     0.023 A 
ATOM     38  C   UNL     1       8.295   9.108  -0.930  1.00  0.00     0.012 A 
ATOM     39  C   UNL     1       6.474  10.627  -1.479  1.00  0.00     0.148 A 
ATOM     40  C   UNL     1       8.472   9.741   0.297  1.00  0.00     0.002 A 
ATOM     41  C   UNL     1       6.697  11.291  -0.280  1.00  0.00     0.091 A 
ATOM     42  F   UNL     1       5.486  10.981  -2.312  1.00  0.00    -0.205 F 
ATOM     43  C   UNL     1       7.674  10.834   0.621  1.00  0.00     0.022 A 
BRANCH  41  44
ATOM     44  S   UNL     1       5.773  12.753   0.195  1.00  0.00     0.127 S 
ATOM     45  O   UNL     1       4.916  12.229   1.255  1.00  0.00    -0.237 OA
ATOM     46  O   UNL     1       6.834  13.650   0.650  1.00  0.00    -0.237 OA
ATOM     47  O   UNL     1       5.081  13.195  -1.011  1.00  0.00    -0.744 OA
ENDBRANCH  41  44
ENDBRANCH  23  37
BRANCH  24  48
ATOM     48  C   UNL     1       4.461   3.586  -9.392  1.00  0.00     0.023 A 
ATOM     49  C   UNL     1       5.379   3.051 -10.318  1.00  0.00     0.012 A 
ATOM     50  C   UNL     1       3.090   3.302  -9.547  1.00  0.00     0.148 A 
ATOM     51  C   UNL     1       4.940   2.281 -11.397  1.00  0.00     0.002 A 
ATOM     52  C   UNL     1       2.662   2.506 -10.606  1.00  0.00     0.091 A 
ATOM     53  F   UNL     1       2.233   3.811  -8.650  1.00  0.00    -0.205 F 
ATOM     54  C   UNL     1       3.583   2.006 -11.540  1.00  0.00     0.022 A 
BRANCH  52  55
ATOM     55  S   UNL     1       0.946   2.023 -10.837  1.00  0.00     0.127 S 
ATOM     56  O   UNL     1       0.643   2.609 -12.141  1.00  0.00    -0.237 OA
ATOM     57  O   UNL     1       1.046   0.564 -10.823  1.00  0.00    -0.237 OA
ATOM     58  O   UNL     1       0.222   2.596  -9.710  1.00  0.00    -0.744 OA
ENDBRANCH  52  55
ENDBRANCH  24  48
BRANCH  36  59
ATOM     59  C   UNL     1       7.612   9.832  -9.002  1.00  0.00     0.023 A 
ATOM     60  C   UNL     1       6.753  10.691  -9.710  1.00  0.00     0.012 A 
ATOM     61  C   UNL     1       9.009   9.990  -9.114  1.00  0.00     0.148 A 
ATOM     62  C   UNL     1       7.279  11.701 -10.514  1.00  0.00     0.002 A 
ATOM     63  C   UNL     1       9.523  11.032  -9.870  1.00  0.00     0.091 A 
ATOM     64  F   UNL     1       9.802   9.141  -8.443  1.00  0.00    -0.205 F 
ATOM     65  C   UNL     1       8.660  11.885 -10.577  1.00  0.00     0.022 A 
BRANCH  63  66
ATOM     66  S   UNL     1      11.276  11.424  -9.899  1.00  0.00     0.127 S 
ATOM     67  O   UNL     1      11.628  11.104 -11.281  1.00  0.00    -0.237 OA
ATOM     68  O   UNL     1      11.277  12.852  -9.582  1.00  0.00    -0.237 OA
ATOM     69  O   UNL     1      11.897  10.577  -8.889  1.00  0.00    -0.744 OA
ENDBRANCH  63  66
ENDBRANCH  36  59
ENDBRANCH  10  11
ENDBRANCH   3   5
ENDBRANCH   2   3
ENDBRANCH   1   2
BRANCH   1  70
ATOM     70  C   UNL     1       3.792  -1.905  -0.985  1.00  0.00     0.274 C 
BRANCH  70  71
ATOM     71  O   UNL     1       3.183  -0.933  -1.857  1.00  0.00    -0.462 OA
BRANCH  71  72
ATOM     72  C   UNL     1       1.822  -1.026  -1.997  1.00  0.00     0.315 C 
ATOM     73  O   UNL     1       1.144  -1.835  -1.369  1.00  0.00    -0.251 OA
BRANCH  72  74
ATOM     74  C   UNL     1       1.278  -0.144  -3.132  1.00  0.00     0.148 C 
ATOM     75  C   UNL     1       2.082   1.120  -3.485  1.00  0.00     0.043 C 
ATOM     76  C   UNL     1      -0.056   0.426  -2.803  1.00  0.00     0.033 A 
ATOM     77  C   UNL     1       1.141   2.337  -3.417  1.00  0.00     0.124 C 
ATOM     78  N   UNL     1      -0.104   1.789  -2.930  1.00  0.00    -0.341 N 
ATOM     79  C   UNL     1      -1.300  -0.017  -2.460  1.00  0.00     0.025 A 
ATOM     80  C   UNL     1      -1.322   2.291  -2.580  1.00  0.00     0.090 A 
ATOM     81  C   UNL     1      -2.094   1.150  -2.326  1.00  0.00     0.032 A 
BRANCH  80  82
ATOM     82  C   UNL     1      -1.824   3.655  -2.437  1.00  0.00     0.209 C 
ATOM     83  O   UNL     1      -2.999   3.875  -2.129  1.00  0.00    -0.287 OA
BRANCH  82  84
ATOM     84  C   UNL     1      -0.977   4.868  -2.538  1.00  0.00     0.024 A 
ATOM     85  C   UNL     1      -1.006   5.770  -1.461  1.00  0.00     0.012 A 
ATOM     86  C   UNL     1      -0.302   5.219  -3.709  1.00  0.00     0.012 A 
ATOM     87  C   UNL     1      -0.333   6.992  -1.540  1.00  0.00     0.001 A 
ATOM     88  C   UNL     1       0.390   6.435  -3.776  1.00  0.00     0.001 A 
ATOM     89  C   UNL     1       0.373   7.319  -2.695  1.00  0.00     0.000 A 
ENDBRANCH  82  84
ENDBRANCH  80  82
ENDBRANCH  72  74
ENDBRANCH  71  72
ENDBRANCH  70  71
ENDBRANCH   1  70
TORSDOF 16
