REMARK SMILES O=C(OCCOC(=O)c1ccccc1Nc1cccc(C(F)(F)F)c1)c1ccc(-c2c3nc(c(-c4cccc(S(=O)(=O)[O-])c4F)c4ccc([nH]4)c(-c4cccc(S(=O)(=O)[O-])c4F)c4nc(c(-c5cccc(S(=O)(=O)[O-])c5F)c5ccc2[nH]5)C=C4)C=C3)cc1
REMARK SMILES IDX 4 1 3 2 2 3 1 4 26 5 27 6 88 7 28 8 87 9 29 10 30 11 31 12
REMARK SMILES IDX 81 13 32 14 86 15 80 16 82 17 33 18 85 19 79 20 78 21 34 23
REMARK SMILES IDX 66 24 46 25 65 26 47 27 50 28 64 29 83 30 48 31 49 32 63 34
REMARK SMILES IDX 84 35 51 36 35 37 36 38 44 39 37 40 39 41 45 42 38 43 40 44
REMARK SMILES IDX 41 45 42 46 43 47 67 48 68 49 76 50 69 51 71 52 77 53 70 54
REMARK SMILES IDX 72 55 73 56 74 57 75 58 52 59 53 60 61 61 54 62 56 63 62 64
REMARK SMILES IDX 55 65 57 66 58 67 59 68 60 69 5 70 6 71 7 72 8 73 9 74 10 75
REMARK SMILES IDX 14 76 11 77 13 78 12 79 15 80 16 82 17 83 25 84 18 85 20 86
REMARK SMILES IDX 19 87 21 88 22 89 23 90 24 91
REMARK H PARENT 82 22 50 33 15 81
REMARK Flexibility Score: inf
ROOT
ATOM      1  C   UNL     1       4.539  -1.371   0.136  1.00  0.00     0.275 C 
ENDROOT
BRANCH   1   2
ATOM      2  O   UNL     1       3.341  -0.806   0.694  1.00  0.00    -0.458 OA
BRANCH   2   3
ATOM      3  C   UNL     1       2.979   0.486   0.872  1.00  0.00     0.338 C 
ATOM      4  O   UNL     1       2.064   0.721   1.662  1.00  0.00    -0.246 OA
BRANCH   3   5
ATOM      5  C   UNL     1       3.534   1.645   0.094  1.00  0.00     0.060 A 
ATOM      6  C   UNL     1       4.770   1.700  -0.557  1.00  0.00     0.016 A 
ATOM      7  C   UNL     1       2.719   2.795   0.035  1.00  0.00     0.016 A 
ATOM      8  C   UNL     1       5.177   2.847  -1.248  1.00  0.00     0.010 A 
ATOM      9  C   UNL     1       3.118   3.945  -0.656  1.00  0.00     0.010 A 
ATOM     10  C   UNL     1       4.362   3.978  -1.288  1.00  0.00    -0.014 A 
BRANCH  10  11
ATOM     11  C   UNL     1       4.900   5.239  -1.847  1.00  0.00     0.031 A 
ATOM     12  C   UNL     1       5.623   6.156  -0.923  1.00  0.00     0.074 A 
ATOM     13  C   UNL     1       4.756   5.541  -3.148  1.00  0.00     0.049 A 
ATOM     14  N   UNL     1       6.281   7.245  -1.201  1.00  0.00    -0.248 NA
ATOM     15  C   UNL     1       5.595   5.803   0.505  1.00  0.00     0.031 C 
ATOM     16  C   UNL     1       4.047   4.694  -4.086  1.00  0.00     0.029 A 
ATOM     17  N   UNL     1       5.190   6.587  -3.919  1.00  0.00    -0.354 N 
ATOM     18  C   UNL     1       6.688   7.748   0.024  1.00  0.00     0.074 A 
ATOM     19  C   UNL     1       6.240   6.825   1.042  1.00  0.00     0.031 C 
ATOM     20  C   UNL     1       4.123   5.211  -5.320  1.00  0.00     0.029 A 
ATOM     21  C   UNL     1       4.889   6.447  -5.260  1.00  0.00     0.049 A 
ATOM     22  H   UNL     1       5.670   7.365  -3.553  1.00  0.00     0.167 HD
ATOM     23  C   UNL     1       7.347   8.902   0.268  1.00  0.00     0.034 A 
ATOM     24  C   UNL     1       5.239   7.209  -6.317  1.00  0.00     0.034 A 
ATOM     25  C   UNL     1       7.746   9.812  -0.769  1.00  0.00     0.049 A 
ATOM     26  C   UNL     1       6.094   8.418  -6.028  1.00  0.00     0.074 A 
ATOM     27  C   UNL     1       8.378  11.033  -0.649  1.00  0.00     0.029 A 
ATOM     28  N   UNL     1       7.528   9.599  -2.125  1.00  0.00    -0.354 N 
ATOM     29  N   UNL     1       6.575   8.825  -4.875  1.00  0.00    -0.248 NA
ATOM     30  C   UNL     1       6.480   9.259  -7.168  1.00  0.00     0.031 C 
ATOM     31  C   UNL     1       8.517  11.573  -1.933  1.00  0.00     0.029 A 
ATOM     32  C   UNL     1       8.005  10.670  -2.856  1.00  0.00     0.049 A 
ATOM     33  H   UNL     1       7.096   8.802  -2.509  1.00  0.00     0.167 HD
ATOM     34  C   UNL     1       7.333   9.954  -5.149  1.00  0.00     0.074 A 
ATOM     35  C   UNL     1       7.286  10.140  -6.588  1.00  0.00     0.031 C 
ATOM     36  C   UNL     1       7.978  10.786  -4.294  1.00  0.00     0.034 A 
BRANCH  23  37
ATOM     37  C   UNL     1       7.582   9.245   1.711  1.00  0.00     0.023 A 
ATOM     38  C   UNL     1       8.521   8.517   2.471  1.00  0.00     0.012 A 
ATOM     39  C   UNL     1       6.809  10.242   2.334  1.00  0.00     0.148 A 
ATOM     40  C   UNL     1       8.647   8.741   3.841  1.00  0.00     0.002 A 
ATOM     41  C   UNL     1       6.974  10.491   3.690  1.00  0.00     0.091 A 
ATOM     42  F   UNL     1       5.895  10.894   1.602  1.00  0.00    -0.205 F 
ATOM     43  C   UNL     1       7.878   9.731   4.449  1.00  0.00     0.022 A 
BRANCH  41  44
ATOM     44  S   UNL     1       6.069  11.783   4.548  1.00  0.00     0.127 S 
ATOM     45  O   UNL     1       5.144  11.002   5.367  1.00  0.00    -0.237 OA
ATOM     46  O   UNL     1       7.132  12.453   5.298  1.00  0.00    -0.237 OA
ATOM     47  O   UNL     1       5.453  12.598   3.511  1.00  0.00    -0.744 OA
ENDBRANCH  41  44
ENDBRANCH  23  37
BRANCH  24  48
ATOM     48  C   UNL     1       4.934   6.765  -7.718  1.00  0.00     0.023 A 
ATOM     49  C   UNL     1       6.005   6.469  -8.588  1.00  0.00     0.012 A 
ATOM     50  C   UNL     1       3.620   6.553  -8.184  1.00  0.00     0.148 A 
ATOM     51  C   UNL     1       5.783   5.991  -9.881  1.00  0.00     0.002 A 
ATOM     52  C   UNL     1       3.406   6.007  -9.450  1.00  0.00     0.091 A 
ATOM     53  F   UNL     1       2.597   6.863  -7.375  1.00  0.00    -0.205 F 
ATOM     54  C   UNL     1       4.484   5.742 -10.306  1.00  0.00     0.022 A 
BRANCH  52  55
ATOM     55  S   UNL     1       1.778   5.489 -10.013  1.00  0.00     0.127 S 
ATOM     56  O   UNL     1       1.452   6.526 -10.988  1.00  0.00    -0.237 OA
ATOM     57  O   UNL     1       2.060   4.171 -10.586  1.00  0.00    -0.237 OA
ATOM     58  O   UNL     1       0.947   5.452  -8.817  1.00  0.00    -0.744 OA
ENDBRANCH  52  55
ENDBRANCH  24  48
BRANCH  36  59
ATOM     59  C   UNL     1       8.681  11.976  -4.887  1.00  0.00     0.023 A 
ATOM     60  C   UNL     1       7.920  13.056  -5.377  1.00  0.00     0.012 A 
ATOM     61  C   UNL     1      10.084  12.074  -4.846  1.00  0.00     0.148 A 
ATOM     62  C   UNL     1       8.548  14.208  -5.845  1.00  0.00     0.002 A 
ATOM     63  C   UNL     1      10.701  13.245  -5.266  1.00  0.00     0.091 A 
ATOM     64  F   UNL     1      10.786  11.027  -4.389  1.00  0.00    -0.205 F 
ATOM     65  C   UNL     1       9.936  14.307  -5.776  1.00  0.00     0.022 A 
BRANCH  63  66
ATOM     66  S   UNL     1      12.470  13.508  -5.115  1.00  0.00     0.127 S 
ATOM     67  O   UNL     1      12.897  13.467  -6.513  1.00  0.00    -0.237 OA
ATOM     68  O   UNL     1      12.534  14.832  -4.495  1.00  0.00    -0.237 OA
ATOM     69  O   UNL     1      12.969  12.424  -4.279  1.00  0.00    -0.744 OA
ENDBRANCH  63  66
ENDBRANCH  36  59
ENDBRANCH  10  11
ENDBRANCH   3   5
ENDBRANCH   2   3
ENDBRANCH   1   2
BRANCH   1  70
ATOM     70  C   UNL     1       4.408  -1.743  -1.343  1.00  0.00     0.275 C 
BRANCH  70  71
ATOM     71  O   UNL     1       3.897  -0.667  -2.147  1.00  0.00    -0.458 OA
BRANCH  71  72
ATOM     72  C   UNL     1       2.545  -0.700  -2.325  1.00  0.00     0.340 C 
ATOM     73  O   UNL     1       1.793  -1.563  -1.917  1.00  0.00    -0.246 OA
BRANCH  72  74
ATOM     74  C   UNL     1       2.061   0.537  -2.980  1.00  0.00     0.083 A 
ATOM     75  C   UNL     1       0.908   1.107  -2.406  1.00  0.00     0.018 A 
ATOM     76  C   UNL     1       2.668   1.116  -4.111  1.00  0.00     0.053 A 
ATOM     77  C   UNL     1       0.328   2.241  -2.964  1.00  0.00     0.001 A 
ATOM     78  C   UNL     1       1.965   2.158  -4.740  1.00  0.00     0.027 A 
ATOM     79  C   UNL     1       0.837   2.745  -4.153  1.00  0.00     0.002 A 
BRANCH  76  80
ATOM     80  N   UNL     1       3.925   0.675  -4.602  1.00  0.00    -0.355 N 
ATOM     81  H   UNL     1       4.287  -0.147  -4.198  1.00  0.00     0.167 HD
BRANCH  80  82
ATOM     82  C   UNL     1       4.716   1.278  -5.604  1.00  0.00     0.039 A 
ATOM     83  C   UNL     1       4.367   1.171  -6.952  1.00  0.00     0.026 A 
ATOM     84  C   UNL     1       5.809   2.086  -5.255  1.00  0.00     0.039 A 
ATOM     85  C   UNL     1       5.099   1.840  -7.935  1.00  0.00     0.003 A 
ATOM     86  C   UNL     1       6.531   2.801  -6.230  1.00  0.00     0.058 A 
ATOM     87  C   UNL     1       6.175   2.652  -7.577  1.00  0.00     0.013 A 
BRANCH  86  88
ATOM     88  C   UNL     1       7.661   3.726  -5.843  1.00  0.00     0.416 C 
ATOM     89  F   UNL     1       8.878   3.172  -6.119  1.00  0.00    -0.166 F 
ATOM     90  F   UNL     1       7.643   4.912  -6.508  1.00  0.00    -0.166 F 
ATOM     91  F   UNL     1       7.692   4.026  -4.515  1.00  0.00    -0.166 F 
ENDBRANCH  86  88
ENDBRANCH  80  82
ENDBRANCH  76  80
ENDBRANCH  72  74
ENDBRANCH  71  72
ENDBRANCH  70  71
ENDBRANCH   1  70
TORSDOF 17
