REMARK SMILES COc1ccccc1[C@@H]1C[N@@H+](Cc2cn3cc(C)ccc3n2)C[C@H]1C(=O)OCCOC(=O)c1ccc(-c2c3nc(c(-c4cccc(S(=O)(=O)[O-])c4F)c4ccc([nH]4)c(-c4cccc(S(=O)(=O)[O-])c4F)c4nc(c(-c5cccc(S(=O)(=O)[O-])c5F)c5ccc2[nH]5)C=C4)C=C3)cc1
REMARK SMILES IDX 29 1 28 2 27 3 25 4 26 5 24 6 9 7 10 8 11 9 23 10 8 12 3 13
REMARK SMILES IDX 4 14 5 15 7 16 6 17 2 18 1 19 12 20 13 21 14 22 22 23 15 24
REMARK SMILES IDX 21 25 16 26 20 27 17 28 19 29 18 30 30 31 31 32 32 33 33 34
REMARK SMILES IDX 34 35 95 36 35 37 94 38 36 39 37 40 38 41 88 42 39 43 93 44
REMARK SMILES IDX 87 45 89 46 40 47 92 48 86 49 85 50 41 52 73 53 53 54 72 55
REMARK SMILES IDX 54 56 57 57 71 58 90 59 55 60 56 61 70 63 91 64 58 65 42 66
REMARK SMILES IDX 43 67 51 68 44 69 46 70 52 71 45 72 47 73 48 74 49 75 50 76
REMARK SMILES IDX 74 77 75 78 83 79 76 80 78 81 84 82 77 83 79 84 80 85 81 86
REMARK SMILES IDX 82 87 59 88 60 89 68 90 61 91 63 92 69 93 62 94 64 95 65 96
REMARK SMILES IDX 66 97 67 98
REMARK H PARENT 11 11 89 51 57 62
REMARK Flexibility Score: inf
ROOT
ATOM      1  C   UNL     1       3.771  -4.773   2.838  1.00  0.00     0.275 C 
ENDROOT
BRANCH   1   2
ATOM      2  C   UNL     1       4.008  -4.401   1.377  1.00  0.00     0.274 C 
BRANCH   2   3
ATOM      3  O   UNL     1       3.959  -2.981   1.132  1.00  0.00    -0.462 OA
BRANCH   3   4
ATOM      4  C   UNL     1       2.784  -2.466   0.683  1.00  0.00     0.315 C 
ATOM      5  O   UNL     1       1.765  -3.129   0.511  1.00  0.00    -0.252 OA
BRANCH   4   6
ATOM      6  C   UNL     1       2.871  -1.007   0.279  1.00  0.00     0.167 C 
ATOM      7  C   UNL     1       3.200   0.054   1.332  1.00  0.00     0.098 C 
ATOM      8  C   UNL     1       3.802   1.169   0.461  1.00  0.00     0.272 C 
ATOM      9  N   UNL     1       4.571   0.502  -0.598  1.00  0.00    -0.329 N 
ATOM     10  C   UNL     1       3.962  -0.826  -0.786  1.00  0.00     0.278 C 
ATOM     11  H   UNL     1       4.515   1.042  -1.462  1.00  0.00     0.348 HD
BRANCH   7  12
ATOM     12  C   UNL     1       2.143   0.613   2.273  1.00  0.00     0.004 A 
ATOM     13  C   UNL     1       0.944   1.226   1.878  1.00  0.00     0.122 A 
ATOM     14  C   UNL     1       0.051   1.748   2.826  1.00  0.00     0.047 A 
ATOM     15  C   UNL     1       0.353   1.693   4.188  1.00  0.00     0.004 A 
ATOM     16  C   UNL     1       2.438   0.610   3.655  1.00  0.00     0.008 A 
ATOM     17  C   UNL     1       1.558   1.140   4.602  1.00  0.00     0.001 A 
BRANCH  13  18
ATOM     18  O   UNL     1       0.719   1.518   0.559  1.00  0.00    -0.496 OA
ATOM     19  C   UNL     1      -0.180   0.611  -0.069  1.00  0.00     0.278 C 
ENDBRANCH  13  18
ENDBRANCH   7  12
BRANCH   9  20
ATOM     20  C   UNL     1       6.027   0.468  -0.359  1.00  0.00     0.321 C 
BRANCH  20  21
ATOM     21  C   UNL     1       6.426  -0.065   0.984  1.00  0.00     0.114 A 
ATOM     22  C   UNL     1       6.612   0.638   2.162  1.00  0.00     0.122 A 
ATOM     23  N   UNL     1       6.596  -1.416   1.204  1.00  0.00    -0.228 NA
ATOM     24  N   UNL     1       6.737  -0.310   3.143  1.00  0.00    -0.306 N 
ATOM     25  C   UNL     1       6.743  -1.544   2.507  1.00  0.00     0.137 A 
ATOM     26  C   UNL     1       6.810  -0.146   4.523  1.00  0.00     0.096 A 
ATOM     27  C   UNL     1       6.848  -2.692   3.339  1.00  0.00     0.048 A 
ATOM     28  C   UNL     1       6.894  -1.233   5.316  1.00  0.00    -0.034 A 
ATOM     29  C   UNL     1       6.907  -2.550   4.678  1.00  0.00     0.009 A 
ATOM     30  C   UNL     1       6.937  -1.165   6.810  1.00  0.00     0.046 C 
ENDBRANCH  20  21
ENDBRANCH   9  20
ENDBRANCH   4   6
ENDBRANCH   3   4
ENDBRANCH   2   3
ENDBRANCH   1   2
BRANCH   1  31
ATOM     31  O   UNL     1       2.430  -4.535   3.260  1.00  0.00    -0.458 OA
BRANCH  31  32
ATOM     32  C   UNL     1       2.247  -3.268   3.693  1.00  0.00     0.338 C 
ATOM     33  O   UNL     1       3.007  -2.326   3.566  1.00  0.00    -0.246 OA
BRANCH  32  34
ATOM     34  C   UNL     1       1.077  -3.193   4.553  1.00  0.00     0.060 A 
ATOM     35  C   UNL     1       0.287  -2.048   4.492  1.00  0.00     0.016 A 
ATOM     36  C   UNL     1       0.959  -4.129   5.583  1.00  0.00     0.016 A 
ATOM     37  C   UNL     1      -0.565  -1.774   5.542  1.00  0.00     0.010 A 
ATOM     38  C   UNL     1       0.089  -3.867   6.620  1.00  0.00     0.010 A 
ATOM     39  C   UNL     1      -0.631  -2.668   6.618  1.00  0.00    -0.014 A 
BRANCH  39  40
ATOM     40  C   UNL     1      -1.649  -2.428   7.632  1.00  0.00     0.031 A 
ATOM     41  C   UNL     1      -3.033  -2.537   7.100  1.00  0.00     0.074 A 
ATOM     42  C   UNL     1      -1.373  -2.337   8.948  1.00  0.00     0.049 A 
ATOM     43  N   UNL     1      -3.999  -1.681   7.180  1.00  0.00    -0.248 NA
ATOM     44  C   UNL     1      -3.335  -3.708   6.254  1.00  0.00     0.031 C 
ATOM     45  C   UNL     1      -0.065  -2.566   9.571  1.00  0.00     0.029 A 
ATOM     46  N   UNL     1      -2.216  -2.201  10.018  1.00  0.00    -0.354 N 
ATOM     47  C   UNL     1      -5.096  -2.330   6.612  1.00  0.00     0.074 A 
ATOM     48  C   UNL     1      -4.585  -3.451   5.878  1.00  0.00     0.031 C 
ATOM     49  C   UNL     1      -0.245  -2.820  10.884  1.00  0.00     0.029 A 
ATOM     50  C   UNL     1      -1.649  -2.635  11.211  1.00  0.00     0.049 A 
ATOM     51  H   UNL     1      -3.127  -1.834   9.950  1.00  0.00     0.167 HD
ATOM     52  C   UNL     1      -6.352  -2.097   7.074  1.00  0.00     0.034 A 
ATOM     53  C   UNL     1      -2.283  -2.902  12.376  1.00  0.00     0.034 A 
ATOM     54  C   UNL     1      -6.430  -0.855   7.796  1.00  0.00     0.049 A 
ATOM     55  C   UNL     1      -3.603  -2.238  12.368  1.00  0.00     0.074 A 
ATOM     56  C   UNL     1      -6.542   0.485   7.509  1.00  0.00     0.029 A 
ATOM     57  N   UNL     1      -6.102  -0.968   9.117  1.00  0.00    -0.354 N 
ATOM     58  N   UNL     1      -3.770  -0.946  12.410  1.00  0.00    -0.248 NA
ATOM     59  C   UNL     1      -4.801  -3.019  12.073  1.00  0.00     0.031 C 
ATOM     60  C   UNL     1      -6.188   1.185   8.701  1.00  0.00     0.029 A 
ATOM     61  C   UNL     1      -5.863   0.254   9.684  1.00  0.00     0.049 A 
ATOM     62  H   UNL     1      -6.046  -1.823   9.602  1.00  0.00     0.167 HD
ATOM     63  C   UNL     1      -4.964  -0.742  11.747  1.00  0.00     0.074 A 
ATOM     64  C   UNL     1      -5.635  -2.033  11.737  1.00  0.00     0.031 C 
ATOM     65  C   UNL     1      -5.145   0.339  10.938  1.00  0.00     0.034 A 
BRANCH  52  66
ATOM     66  C   UNL     1      -7.392  -3.183   7.325  1.00  0.00     0.023 A 
ATOM     67  C   UNL     1      -8.644  -2.749   7.822  1.00  0.00     0.012 A 
ATOM     68  C   UNL     1      -7.131  -4.572   7.403  1.00  0.00     0.148 A 
ATOM     69  C   UNL     1      -9.550  -3.631   8.422  1.00  0.00     0.002 A 
ATOM     70  C   UNL     1      -8.065  -5.456   7.938  1.00  0.00     0.091 A 
ATOM     71  F   UNL     1      -5.930  -5.058   7.085  1.00  0.00    -0.205 F 
ATOM     72  C   UNL     1      -9.262  -4.987   8.479  1.00  0.00     0.022 A 
BRANCH  70  73
ATOM     73  S   UNL     1      -7.752  -7.227   8.005  1.00  0.00     0.127 S 
ATOM     74  O   UNL     1      -7.453  -7.418   9.421  1.00  0.00    -0.237 OA
ATOM     75  O   UNL     1      -9.035  -7.775   7.563  1.00  0.00    -0.237 OA
ATOM     76  O   UNL     1      -6.653  -7.466   7.078  1.00  0.00    -0.744 OA
ENDBRANCH  70  73
ENDBRANCH  52  66
BRANCH  53  77
ATOM     77  C   UNL     1      -1.890  -3.802  13.484  1.00  0.00     0.023 A 
ATOM     78  C   UNL     1      -2.381  -3.548  14.780  1.00  0.00     0.012 A 
ATOM     79  C   UNL     1      -1.242  -5.033  13.242  1.00  0.00     0.148 A 
ATOM     80  C   UNL     1      -2.261  -4.500  15.796  1.00  0.00     0.002 A 
ATOM     81  C   UNL     1      -1.110  -5.971  14.262  1.00  0.00     0.091 A 
ATOM     82  F   UNL     1      -0.837  -5.317  11.997  1.00  0.00    -0.205 F 
ATOM     83  C   UNL     1      -1.631  -5.713  15.536  1.00  0.00     0.022 A 
BRANCH  81  84
ATOM     84  S   UNL     1      -0.302  -7.557  14.005  1.00  0.00     0.127 S 
ATOM     85  O   UNL     1       0.539  -7.668  15.198  1.00  0.00    -0.237 OA
ATOM     86  O   UNL     1      -1.437  -8.473  13.970  1.00  0.00    -0.237 OA
ATOM     87  O   UNL     1       0.447  -7.419  12.762  1.00  0.00    -0.744 OA
ENDBRANCH  81  84
ENDBRANCH  53  77
BRANCH  65  88
ATOM     88  C   UNL     1      -4.378   1.589  11.238  1.00  0.00     0.023 A 
ATOM     89  C   UNL     1      -2.975   1.659  11.160  1.00  0.00     0.012 A 
ATOM     90  C   UNL     1      -5.106   2.757  11.527  1.00  0.00     0.148 A 
ATOM     91  C   UNL     1      -2.311   2.868  11.389  1.00  0.00     0.002 A 
ATOM     92  C   UNL     1      -4.446   3.966  11.704  1.00  0.00     0.091 A 
ATOM     93  F   UNL     1      -6.442   2.671  11.619  1.00  0.00    -0.205 F 
ATOM     94  C   UNL     1      -3.046   4.024  11.647  1.00  0.00     0.022 A 
BRANCH  92  95
ATOM     95  S   UNL     1      -5.362   5.494  11.913  1.00  0.00     0.127 S 
ATOM     96  O   UNL     1      -5.378   5.649  13.365  1.00  0.00    -0.237 OA
ATOM     97  O   UNL     1      -4.530   6.466  11.203  1.00  0.00    -0.237 OA
ATOM     98  O   UNL     1      -6.657   5.257  11.284  1.00  0.00    -0.744 OA
ENDBRANCH  92  95
ENDBRANCH  65  88
ENDBRANCH  39  40
ENDBRANCH  32  34
ENDBRANCH  31  32
ENDBRANCH   1  31
TORSDOF 18
