REMARK SMILES COCc1cc(OCC(=O)OCCOC(=O)c2ccc(-c3c4nc(c(-c5cccc(S(=O)(=O)[O-])c5F)c5ccc([nH]5)c(-c5cccc(S(=O)(=O)[O-])c5F)c5nc(c(-c6cccc(S(=O)(=O)[O-])c6F)c6ccc3[nH]6)C=C5)C=C4)cc2)nc(Nc2cccc(C)c2C)n1
REMARK SMILES IDX 12 1 11 2 9 3 10 4 8 5 7 6 6 7 4 8 5 9 91 10 81 11 80 12
REMARK SMILES IDX 3 13 2 14 1 15 82 16 83 18 84 19 89 20 85 21 87 22 90 23
REMARK SMILES IDX 86 24 88 25 13 26 14 27 15 28 16 29 17 30 18 31 79 32 19 33
REMARK SMILES IDX 78 34 20 35 21 36 22 37 72 38 23 39 77 40 71 41 73 42 24 43
REMARK SMILES IDX 76 44 70 45 69 46 25 48 57 49 37 50 56 51 38 52 41 53 55 54
REMARK SMILES IDX 74 55 39 56 40 57 54 59 75 60 42 61 26 62 27 63 35 64 28 65
REMARK SMILES IDX 30 66 36 67 29 68 31 69 32 70 33 71 34 72 58 73 59 74 67 75
REMARK SMILES IDX 60 76 62 77 68 78 61 79 63 80 64 81 65 82 66 83 43 84 44 85
REMARK SMILES IDX 52 86 45 87 47 88 53 89 46 90 48 91 49 92 50 93 51 94
REMARK H PARENT 82 17 73 47 41 58
REMARK Flexibility Score: inf
ROOT
ATOM      1  C   UNL     1      -4.799   1.698  -2.743  1.00  0.00     0.274 C 
ENDROOT
BRANCH   1   2
ATOM      2  O   UNL     1      -3.965   2.645  -2.046  1.00  0.00    -0.460 OA
BRANCH   2   3
ATOM      3  C   UNL     1      -3.879   2.480  -0.698  1.00  0.00     0.344 C 
ATOM      4  O   UNL     1      -4.450   1.602  -0.061  1.00  0.00    -0.248 OA
BRANCH   3   5
ATOM      5  C   UNL     1      -3.011   3.541  -0.026  1.00  0.00     0.353 C 
BRANCH   5   6
ATOM      6  O   UNL     1      -2.301   4.442  -0.855  1.00  0.00    -0.466 OA
BRANCH   6   7
ATOM      7  C   UNL     1      -1.048   4.098  -1.276  1.00  0.00     0.219 A 
ATOM      8  C   UNL     1       0.772   2.687  -1.688  1.00  0.00     0.076 A 
ATOM      9  C   UNL     1      -0.495   2.843  -1.172  1.00  0.00     0.095 A 
ATOM     10  N   UNL     1       1.409   3.695  -2.295  1.00  0.00    -0.215 NA
ATOM     11  C   UNL     1       0.806   4.887  -2.359  1.00  0.00     0.230 A 
ATOM     12  N   UNL     1      -0.399   5.135  -1.837  1.00  0.00    -0.177 NA
BRANCH   8  13
ATOM     13  C   UNL     1       1.523   1.386  -1.592  1.00  0.00     0.216 C 
BRANCH  13  14
ATOM     14  O   UNL     1       1.525   0.878  -0.258  1.00  0.00    -0.378 OA
ATOM     15  C   UNL     1       2.466   1.531   0.586  1.00  0.00     0.195 C 
ENDBRANCH  13  14
ENDBRANCH   8  13
BRANCH  11  16
ATOM     16  N   UNL     1       1.475   5.925  -3.003  1.00  0.00    -0.324 N 
ATOM     17  H   UNL     1       1.116   6.834  -2.889  1.00  0.00     0.170 HD
BRANCH  16  18
ATOM     18  C   UNL     1       2.619   5.777  -3.801  1.00  0.00     0.044 A 
ATOM     19  C   UNL     1       3.828   6.321  -3.348  1.00  0.00     0.026 A 
ATOM     20  C   UNL     1       2.609   4.973  -4.971  1.00  0.00    -0.025 A 
ATOM     21  C   UNL     1       5.022   6.046  -4.010  1.00  0.00     0.002 A 
ATOM     22  C   UNL     1       3.828   4.668  -5.618  1.00  0.00    -0.046 A 
ATOM     23  C   UNL     1       1.310   4.414  -5.506  1.00  0.00     0.047 C 
ATOM     24  C   UNL     1       5.022   5.221  -5.132  1.00  0.00     0.004 A 
ATOM     25  C   UNL     1       3.905   3.782  -6.833  1.00  0.00     0.044 C 
ENDBRANCH  16  18
ENDBRANCH  11  16
ENDBRANCH   6   7
ENDBRANCH   5   6
ENDBRANCH   3   5
ENDBRANCH   2   3
ENDBRANCH   1   2
BRANCH   1  26
ATOM     26  C   UNL     1      -3.952   0.597  -3.373  1.00  0.00     0.275 C 
BRANCH  26  27
ATOM     27  O   UNL     1      -3.234  -0.106  -2.345  1.00  0.00    -0.458 OA
BRANCH  27  28
ATOM     28  C   UNL     1      -1.963  -0.445  -2.661  1.00  0.00     0.338 C 
ATOM     29  O   UNL     1      -1.397  -0.236  -3.721  1.00  0.00    -0.246 OA
BRANCH  28  30
ATOM     30  C   UNL     1      -1.294  -1.101  -1.517  1.00  0.00     0.060 A 
ATOM     31  C   UNL     1      -1.472  -0.644  -0.209  1.00  0.00     0.016 A 
ATOM     32  C   UNL     1      -0.356  -2.103  -1.786  1.00  0.00     0.016 A 
ATOM     33  C   UNL     1      -0.635  -1.115   0.805  1.00  0.00     0.010 A 
ATOM     34  C   UNL     1       0.417  -2.635  -0.751  1.00  0.00     0.010 A 
ATOM     35  C   UNL     1       0.323  -2.114   0.547  1.00  0.00    -0.014 A 
BRANCH  35  36
ATOM     36  C   UNL     1       1.186  -2.633   1.644  1.00  0.00     0.031 A 
ATOM     37  C   UNL     1       2.689  -2.502   1.610  1.00  0.00     0.074 A 
ATOM     38  C   UNL     1       0.603  -3.256   2.687  1.00  0.00     0.049 A 
ATOM     39  N   UNL     1       3.565  -2.870   2.513  1.00  0.00    -0.248 NA
ATOM     40  C   UNL     1       3.293  -1.873   0.424  1.00  0.00     0.031 C 
ATOM     41  C   UNL     1      -0.835  -3.490   2.827  1.00  0.00     0.029 A 
ATOM     42  N   UNL     1       1.145  -3.828   3.811  1.00  0.00    -0.354 N 
ATOM     43  C   UNL     1       4.812  -2.509   2.015  1.00  0.00     0.074 A 
ATOM     44  C   UNL     1       4.588  -1.915   0.714  1.00  0.00     0.031 C 
ATOM     45  C   UNL     1      -1.062  -4.159   3.965  1.00  0.00     0.029 A 
ATOM     46  C   UNL     1       0.215  -4.446   4.611  1.00  0.00     0.049 A 
ATOM     47  H   UNL     1       2.106  -3.797   4.023  1.00  0.00     0.167 HD
ATOM     48  C   UNL     1       6.029  -2.629   2.597  1.00  0.00     0.034 A 
ATOM     49  C   UNL     1       0.363  -5.193   5.721  1.00  0.00     0.034 A 
ATOM     50  C   UNL     1       6.264  -3.229   3.885  1.00  0.00     0.049 A 
ATOM     51  C   UNL     1       1.733  -5.398   6.296  1.00  0.00     0.074 A 
ATOM     52  C   UNL     1       7.456  -3.329   4.583  1.00  0.00     0.029 A 
ATOM     53  N   UNL     1       5.300  -3.861   4.652  1.00  0.00    -0.354 N 
ATOM     54  N   UNL     1       2.875  -4.897   5.895  1.00  0.00    -0.248 NA
ATOM     55  C   UNL     1       1.833  -6.252   7.487  1.00  0.00     0.031 C 
ATOM     56  C   UNL     1       7.217  -4.046   5.761  1.00  0.00     0.029 A 
ATOM     57  C   UNL     1       5.875  -4.386   5.798  1.00  0.00     0.049 A 
ATOM     58  H   UNL     1       4.346  -3.927   4.418  1.00  0.00     0.167 HD
ATOM     59  C   UNL     1       3.829  -5.365   6.789  1.00  0.00     0.074 A 
ATOM     60  C   UNL     1       3.126  -6.165   7.771  1.00  0.00     0.031 C 
ATOM     61  C   UNL     1       5.170  -5.165   6.783  1.00  0.00     0.034 A 
BRANCH  48  62
ATOM     62  C   UNL     1       7.214  -2.039   1.880  1.00  0.00     0.023 A 
ATOM     63  C   UNL     1       7.449  -0.653   1.989  1.00  0.00     0.012 A 
ATOM     64  C   UNL     1       8.139  -2.848   1.194  1.00  0.00     0.148 A 
ATOM     65  C   UNL     1       8.587  -0.080   1.422  1.00  0.00     0.002 A 
ATOM     66  C   UNL     1       9.283  -2.272   0.651  1.00  0.00     0.091 A 
ATOM     67  F   UNL     1       7.883  -4.158   1.080  1.00  0.00    -0.205 F 
ATOM     68  C   UNL     1       9.508  -0.889   0.763  1.00  0.00     0.022 A 
BRANCH  66  69
ATOM     69  S   UNL     1      10.554  -3.241  -0.172  1.00  0.00     0.127 S 
ATOM     70  O   UNL     1      10.297  -2.930  -1.577  1.00  0.00    -0.237 OA
ATOM     71  O   UNL     1      11.786  -2.662   0.364  1.00  0.00    -0.237 OA
ATOM     72  O   UNL     1      10.315  -4.623   0.221  1.00  0.00    -0.744 OA
ENDBRANCH  66  69
ENDBRANCH  48  62
BRANCH  49  73
ATOM     73  C   UNL     1      -0.846  -5.779   6.360  1.00  0.00     0.023 A 
ATOM     74  C   UNL     1      -1.303  -5.267   7.588  1.00  0.00     0.012 A 
ATOM     75  C   UNL     1      -1.598  -6.775   5.706  1.00  0.00     0.148 A 
ATOM     76  C   UNL     1      -2.489  -5.738   8.152  1.00  0.00     0.002 A 
ATOM     77  C   UNL     1      -2.810  -7.191   6.241  1.00  0.00     0.091 A 
ATOM     78  F   UNL     1      -1.130  -7.276   4.553  1.00  0.00    -0.205 F 
ATOM     79  C   UNL     1      -3.253  -6.684   7.470  1.00  0.00     0.022 A 
BRANCH  77  80
ATOM     80  S   UNL     1      -3.909  -8.269   5.315  1.00  0.00     0.127 S 
ATOM     81  O   UNL     1      -3.539  -9.587   5.821  1.00  0.00    -0.237 OA
ATOM     82  O   UNL     1      -5.234  -7.801   5.727  1.00  0.00    -0.237 OA
ATOM     83  O   UNL     1      -3.600  -8.003   3.916  1.00  0.00    -0.744 OA
ENDBRANCH  77  80
ENDBRANCH  49  73
BRANCH  61  84
ATOM     84  C   UNL     1       5.971  -5.844   7.861  1.00  0.00     0.023 A 
ATOM     85  C   UNL     1       6.204  -7.231   7.770  1.00  0.00     0.012 A 
ATOM     86  C   UNL     1       6.519  -5.121   8.936  1.00  0.00     0.148 A 
ATOM     87  C   UNL     1       6.944  -7.892   8.749  1.00  0.00     0.002 A 
ATOM     88  C   UNL     1       7.289  -5.781   9.889  1.00  0.00     0.091 A 
ATOM     89  F   UNL     1       6.268  -3.806   9.025  1.00  0.00    -0.205 F 
ATOM     90  C   UNL     1       7.495  -7.167   9.803  1.00  0.00     0.022 A 
BRANCH  88  91
ATOM     91  S   UNL     1       8.087  -4.886  11.227  1.00  0.00     0.127 S 
ATOM     92  O   UNL     1       7.083  -4.964  12.285  1.00  0.00    -0.237 OA
ATOM     93  O   UNL     1       9.293  -5.680  11.474  1.00  0.00    -0.237 OA
ATOM     94  O   UNL     1       8.351  -3.557  10.692  1.00  0.00    -0.744 OA
ENDBRANCH  88  91
ENDBRANCH  61  84
ENDBRANCH  35  36
ENDBRANCH  28  30
ENDBRANCH  27  28
ENDBRANCH  26  27
ENDBRANCH   1  26
TORSDOF 20
