REMARK SMILES Cc1ccc(C(=O)N2CCC3(CCC(=O)N(CC(=O)OCCOC(=O)c4ccc(-c5c6nc(c(-c7cccc(S(=O)(=O)[O-])c7F)c7ccc([nH]7)c(-c7cccc(S(=O)(=O)[O-])c7F)c7nc(c(-c8cccc(S(=O)(=O)[O-])c8F)c8ccc5[nH]8)C=C7)C=C6)cc4)C3)CC2)cc1O
REMARK SMILES IDX 21 1 20 2 18 3 19 4 17 5 16 6 6 7 7 8 8 9 9 10 91 11 10 12
REMARK SMILES IDX 90 13 11 14 12 15 89 16 13 17 14 18 15 19 5 20 1 21 2 22
REMARK SMILES IDX 3 23 93 24 4 25 92 26 94 27 22 29 23 30 24 31 25 32 26 33
REMARK SMILES IDX 27 34 88 35 28 36 87 37 29 38 30 39 31 40 81 41 32 42 86 43
REMARK SMILES IDX 80 44 82 45 33 46 85 47 79 48 78 49 34 51 66 52 46 53 65 54
REMARK SMILES IDX 47 55 50 56 64 57 83 58 48 59 49 60 63 62 84 63 51 64 35 65
REMARK SMILES IDX 36 66 44 67 37 68 39 69 45 70 38 71 40 72 41 73 42 74 43 75
REMARK SMILES IDX 67 76 68 77 76 78 69 79 71 80 77 81 70 82 72 83 73 84 74 85
REMARK SMILES IDX 75 86 52 87 53 88 61 89 54 90 56 91 62 92 55 93 57 94 58 95
REMARK SMILES IDX 59 96 60 97
REMARK H PARENT 94 28 82 50 50 61
REMARK Flexibility Score: inf
ROOT
ATOM      1  C   UNL     1      10.049  -5.282   4.138  1.00  0.00     0.274 C 
ENDROOT
BRANCH   1   2
ATOM      2  O   UNL     1       9.159  -4.464   3.361  1.00  0.00    -0.461 OA
BRANCH   2   3
ATOM      3  C   UNL     1       8.349  -3.634   4.058  1.00  0.00     0.325 C 
ATOM      4  O   UNL     1       8.217  -3.644   5.279  1.00  0.00    -0.250 OA
BRANCH   3   5
ATOM      5  C   UNL     1       7.615  -2.618   3.189  1.00  0.00     0.242 C 
BRANCH   5   6
ATOM      6  N   UNL     1       7.759  -2.673   1.735  1.00  0.00    -0.331 N 
ATOM      7  C   UNL     1       2.934   1.480   0.378  1.00  0.00     0.253 C 
ATOM      8  O   UNL     1       2.798   2.577   0.913  1.00  0.00    -0.269 OA
ATOM      9  N   UNL     1       4.174   0.880   0.203  1.00  0.00    -0.339 N 
ATOM     10  C   UNL     1       5.232   1.157   1.158  1.00  0.00     0.120 C 
ATOM     11  C   UNL     1       4.587   0.190  -1.008  1.00  0.00     0.120 C 
ATOM     12  C   UNL     1       5.836  -0.174   1.616  1.00  0.00     0.030 C 
ATOM     13  C   UNL     1       5.262  -1.135  -0.678  1.00  0.00     0.030 C 
ATOM     14  C   UNL     1       6.343  -1.055   0.439  1.00  0.00    -0.008 C 
ATOM     15  C   UNL     1       7.676  -0.503  -0.139  1.00  0.00     0.019 C 
ATOM     16  C   UNL     1       6.583  -2.512   0.912  1.00  0.00     0.127 C 
ATOM     17  C   UNL     1       8.878  -0.758   0.772  1.00  0.00     0.101 C 
ATOM     18  C   UNL     1       8.945  -2.217   1.174  1.00  0.00     0.223 C 
ATOM     19  O   UNL     1       9.937  -2.918   1.032  1.00  0.00    -0.275 OA
BRANCH   7  20
ATOM     20  C   UNL     1       1.710   0.692   0.059  1.00  0.00     0.043 A 
ATOM     21  C   UNL     1      -1.992  -1.529  -0.176  1.00  0.00     0.048 C 
ATOM     22  C   UNL     1      -0.714  -0.742  -0.140  1.00  0.00    -0.009 A 
ATOM     23  C   UNL     1       0.491  -1.409   0.119  1.00  0.00     0.008 A 
ATOM     24  C   UNL     1      -0.682   0.650  -0.292  1.00  0.00     0.119 A 
ATOM     25  C   UNL     1       1.687  -0.697   0.234  1.00  0.00     0.014 A 
ATOM     26  C   UNL     1       0.514   1.364  -0.208  1.00  0.00     0.060 A 
BRANCH  24  27
ATOM     27  O   UNL     1      -1.814   1.388  -0.491  1.00  0.00    -0.508 OA
ATOM     28  H   UNL     1      -2.646   0.962  -0.556  1.00  0.00     0.293 HD
ENDBRANCH  24  27
ENDBRANCH   7  20
ENDBRANCH   5   6
ENDBRANCH   3   5
ENDBRANCH   2   3
ENDBRANCH   1   2
BRANCH   1  29
ATOM     29  C   UNL     1      11.418  -4.615   4.268  1.00  0.00     0.275 C 
BRANCH  29  30
ATOM     30  O   UNL     1      11.315  -3.409   5.047  1.00  0.00    -0.458 OA
BRANCH  30  31
ATOM     31  C   UNL     1      11.572  -2.261   4.380  1.00  0.00     0.338 C 
ATOM     32  O   UNL     1      11.904  -2.124   3.218  1.00  0.00    -0.246 OA
BRANCH  31  33
ATOM     33  C   UNL     1      11.410  -1.109   5.273  1.00  0.00     0.060 A 
ATOM     34  C   UNL     1      10.134  -0.613   5.543  1.00  0.00     0.016 A 
ATOM     35  C   UNL     1      12.548  -0.429   5.703  1.00  0.00     0.016 A 
ATOM     36  C   UNL     1       9.996   0.610   6.197  1.00  0.00     0.010 A 
ATOM     37  C   UNL     1      12.406   0.766   6.409  1.00  0.00     0.010 A 
ATOM     38  C   UNL     1      11.131   1.312   6.631  1.00  0.00    -0.014 A 
BRANCH  38  39
ATOM     39  C   UNL     1      10.989   2.619   7.317  1.00  0.00     0.031 A 
ATOM     40  C   UNL     1      11.492   3.879   6.667  1.00  0.00     0.074 A 
ATOM     41  C   UNL     1      10.442   2.661   8.547  1.00  0.00     0.049 A 
ATOM     42  N   UNL     1      11.534   5.093   7.150  1.00  0.00    -0.248 NA
ATOM     43  C   UNL     1      12.026   3.760   5.299  1.00  0.00     0.031 C 
ATOM     44  C   UNL     1       9.946   1.499   9.287  1.00  0.00     0.029 A 
ATOM     45  N   UNL     1      10.236   3.714   9.401  1.00  0.00    -0.354 N 
ATOM     46  C   UNL     1      12.144   5.872   6.174  1.00  0.00     0.074 A 
ATOM     47  C   UNL     1      12.449   4.996   5.063  1.00  0.00     0.031 C 
ATOM     48  C   UNL     1       9.502   1.901  10.487  1.00  0.00     0.029 A 
ATOM     49  C   UNL     1       9.717   3.338  10.618  1.00  0.00     0.049 A 
ATOM     50  H   UNL     1      10.440   4.648   9.166  1.00  0.00     0.167 HD
ATOM     51  C   UNL     1      12.413   7.198   6.198  1.00  0.00     0.034 A 
ATOM     52  C   UNL     1       9.465   4.065  11.724  1.00  0.00     0.034 A 
ATOM     53  C   UNL     1      12.050   8.077   7.277  1.00  0.00     0.049 A 
ATOM     54  C   UNL     1       9.734   5.543  11.702  1.00  0.00     0.074 A 
ATOM     55  C   UNL     1      12.212   9.449   7.359  1.00  0.00     0.029 A 
ATOM     56  N   UNL     1      11.449   7.673   8.458  1.00  0.00    -0.354 N 
ATOM     57  N   UNL     1      10.198   6.281  10.723  1.00  0.00    -0.248 NA
ATOM     58  C   UNL     1       9.422   6.295  12.926  1.00  0.00     0.031 C 
ATOM     59  C   UNL     1      11.711   9.875   8.594  1.00  0.00     0.029 A 
ATOM     60  C   UNL     1      11.237   8.768   9.279  1.00  0.00     0.049 A 
ATOM     61  H   UNL     1      11.208   6.745   8.681  1.00  0.00     0.167 HD
ATOM     62  C   UNL     1      10.218   7.583  11.204  1.00  0.00     0.074 A 
ATOM     63  C   UNL     1       9.691   7.539  12.553  1.00  0.00     0.031 C 
ATOM     64  C   UNL     1      10.657   8.712  10.595  1.00  0.00     0.034 A 
BRANCH  51  65
ATOM     65  C   UNL     1      13.092   7.804   5.000  1.00  0.00     0.023 A 
ATOM     66  C   UNL     1      12.334   8.095   3.850  1.00  0.00     0.012 A 
ATOM     67  C   UNL     1      14.452   8.169   5.046  1.00  0.00     0.148 A 
ATOM     68  C   UNL     1      12.921   8.731   2.756  1.00  0.00     0.002 A 
ATOM     69  C   UNL     1      15.024   8.829   3.963  1.00  0.00     0.091 A 
ATOM     70  F   UNL     1      15.161   7.860   6.141  1.00  0.00    -0.205 F 
ATOM     71  C   UNL     1      14.260   9.107   2.817  1.00  0.00     0.022 A 
BRANCH  69  72
ATOM     72  S   UNL     1      16.724   9.410   3.971  1.00  0.00     0.127 S 
ATOM     73  O   UNL     1      17.363   8.465   3.056  1.00  0.00    -0.237 OA
ATOM     74  O   UNL     1      16.590  10.770   3.447  1.00  0.00    -0.237 OA
ATOM     75  O   UNL     1      17.166   9.336   5.357  1.00  0.00    -0.744 OA
ENDBRANCH  69  72
ENDBRANCH  51  65
BRANCH  52  76
ATOM     76  C   UNL     1       8.885   3.400  12.923  1.00  0.00     0.023 A 
ATOM     77  C   UNL     1       7.547   3.656  13.276  1.00  0.00     0.012 A 
ATOM     78  C   UNL     1       9.628   2.473  13.679  1.00  0.00     0.148 A 
ATOM     79  C   UNL     1       6.965   3.014  14.370  1.00  0.00     0.002 A 
ATOM     80  C   UNL     1       9.024   1.794  14.732  1.00  0.00     0.091 A 
ATOM     81  F   UNL     1      10.909   2.255  13.349  1.00  0.00    -0.205 F 
ATOM     82  C   UNL     1       7.698   2.073  15.089  1.00  0.00     0.022 A 
BRANCH  80  83
ATOM     83  S   UNL     1       9.881   0.466  15.585  1.00  0.00     0.127 S 
ATOM     84  O   UNL     1      10.549   1.179  16.669  1.00  0.00    -0.237 OA
ATOM     85  O   UNL     1       8.783  -0.405  16.008  1.00  0.00    -0.237 OA
ATOM     86  O   UNL     1      10.744  -0.125  14.569  1.00  0.00    -0.744 OA
ENDBRANCH  80  83
ENDBRANCH  52  76
BRANCH  64  87
ATOM     87  C   UNL     1      10.583   9.994  11.376  1.00  0.00     0.023 A 
ATOM     88  C   UNL     1      11.542  10.246  12.375  1.00  0.00     0.012 A 
ATOM     89  C   UNL     1       9.620  10.975  11.074  1.00  0.00     0.148 A 
ATOM     90  C   UNL     1      11.531  11.450  13.079  1.00  0.00     0.002 A 
ATOM     91  C   UNL     1       9.637  12.188  11.755  1.00  0.00     0.091 A 
ATOM     92  F   UNL     1       8.700  10.707  10.136  1.00  0.00    -0.205 F 
ATOM     93  C   UNL     1      10.588  12.424  12.761  1.00  0.00     0.022 A 
BRANCH  91  94
ATOM     94  S   UNL     1       8.504  13.519  11.343  1.00  0.00     0.127 S 
ATOM     95  O   UNL     1       7.453  13.339  12.343  1.00  0.00    -0.237 OA
ATOM     96  O   UNL     1       9.329  14.713  11.535  1.00  0.00    -0.237 OA
ATOM     97  O   UNL     1       8.112  13.282   9.960  1.00  0.00    -0.744 OA
ENDBRANCH  91  94
ENDBRANCH  64  87
ENDBRANCH  38  39
ENDBRANCH  31  33
ENDBRANCH  30  31
ENDBRANCH  29  30
ENDBRANCH   1  29
TORSDOF 17
