REMARK SMILES Cc1ccc(S(=O)(=O)n2cc(C(=O)C(=O)NCC(=O)OCCOC(=O)c3ccc(-c4c5nc(c(-c6cccc(S(=O)(=O)[O-])c6F)c6ccc([nH]6)c(-c6cccc(S(=O)(=O)[O-])c6F)c6nc(c(-c7cccc(S(=O)(=O)[O-])c7F)c7ccc4[nH]7)C=C6)C=C5)cc3)c3ccccc32)cc1
REMARK SMILES IDX 21 1 20 2 18 3 19 4 17 5 16 6 14 7 15 8 12 10 13 11 11 12
REMARK SMILES IDX 9 13 10 14 94 15 89 16 93 17 90 18 92 19 91 20 6 21 7 22
REMARK SMILES IDX 8 23 5 24 1 25 2 26 3 27 96 28 4 29 95 30 22 31 23 32 24 33
REMARK SMILES IDX 25 34 26 35 27 36 88 37 28 38 87 39 29 40 30 41 31 42 81 43
REMARK SMILES IDX 32 44 86 45 80 46 82 47 33 48 85 49 79 50 78 51 34 53 66 54
REMARK SMILES IDX 46 55 65 56 47 57 50 58 64 59 83 60 48 61 49 62 63 64 84 65
REMARK SMILES IDX 51 66 35 67 36 68 44 69 37 70 39 71 45 72 38 73 40 74 41 75
REMARK SMILES IDX 42 76 43 77 67 78 68 79 76 80 69 81 71 82 77 83 70 84 72 85
REMARK SMILES IDX 73 86 74 87 75 88 52 89 53 90 61 91 54 92 56 93 62 94 55 95
REMARK SMILES IDX 57 96 58 97 59 98 60 99
REMARK H PARENT 16 9 82 52 50 63
REMARK Flexibility Score: inf
ROOT
ATOM      1  C   UNL     1     -12.167   4.401   2.313  1.00  0.00     0.274 C 
ENDROOT
BRANCH   1   2
ATOM      2  O   UNL     1     -10.791   4.336   1.946  1.00  0.00    -0.461 OA
BRANCH   2   3
ATOM      3  C   UNL     1      -9.954   3.563   2.670  1.00  0.00     0.325 C 
ATOM      4  O   UNL     1     -10.291   2.818   3.579  1.00  0.00    -0.250 OA
BRANCH   3   5
ATOM      5  C   UNL     1      -8.537   3.737   2.145  1.00  0.00     0.239 C 
BRANCH   5   6
ATOM      6  N   UNL     1      -7.568   3.286   3.125  1.00  0.00    -0.338 N 
ATOM      7  C   UNL     1      -6.203   3.380   2.991  1.00  0.00     0.292 C 
ATOM      8  O   UNL     1      -5.436   2.924   3.830  1.00  0.00    -0.265 OA
ATOM      9  H   UNL     1      -7.915   2.879   3.951  1.00  0.00     0.164 HD
BRANCH   7  10
ATOM     10  C   UNL     1      -5.661   4.010   1.700  1.00  0.00     0.252 C 
ATOM     11  O   UNL     1      -5.882   5.201   1.510  1.00  0.00    -0.283 OA
BRANCH  10  12
ATOM     12  C   UNL     1      -4.985   3.161   0.724  1.00  0.00     0.054 A 
ATOM     13  N   UNL     1      -4.110   1.358  -0.249  1.00  0.00    -0.240 N 
ATOM     14  C   UNL     1      -4.756   1.806   0.872  1.00  0.00     0.117 A 
ATOM     15  C   UNL     1      -3.907   2.379  -1.151  1.00  0.00     0.065 A 
ATOM     16  C   UNL     1      -4.436   3.534  -0.550  1.00  0.00     0.012 A 
ATOM     17  C   UNL     1      -3.295   2.416  -2.416  1.00  0.00     0.028 A 
ATOM     18  C   UNL     1      -4.340   4.759  -1.246  1.00  0.00     0.011 A 
ATOM     19  C   UNL     1      -3.219   3.643  -3.078  1.00  0.00     0.002 A 
ATOM     20  C   UNL     1      -3.732   4.799  -2.503  1.00  0.00     0.001 A 
BRANCH  13  21
ATOM     21  S   UNL     1      -3.456  -0.207  -0.360  1.00  0.00     0.268 S 
ATOM     22  O   UNL     1      -3.693  -0.658  -1.717  1.00  0.00    -0.201 OA
ATOM     23  O   UNL     1      -3.979  -0.938   0.782  1.00  0.00    -0.201 OA
BRANCH  21  24
ATOM     24  C   UNL     1      -1.702  -0.081  -0.131  1.00  0.00     0.088 A 
ATOM     25  C   UNL     1       2.591  -0.024   0.060  1.00  0.00     0.044 C 
ATOM     26  C   UNL     1       1.092  -0.042   0.036  1.00  0.00    -0.051 A 
ATOM     27  C   UNL     1       0.409  -1.260  -0.065  1.00  0.00     0.005 A 
ATOM     28  C   UNL     1       0.360   1.150   0.096  1.00  0.00     0.005 A 
ATOM     29  C   UNL     1      -0.982  -1.281  -0.153  1.00  0.00     0.022 A 
ATOM     30  C   UNL     1      -1.035   1.135   0.024  1.00  0.00     0.022 A 
ENDBRANCH  21  24
ENDBRANCH  13  21
ENDBRANCH  10  12
ENDBRANCH   7  10
ENDBRANCH   5   6
ENDBRANCH   3   5
ENDBRANCH   2   3
ENDBRANCH   1   2
BRANCH   1  31
ATOM     31  C   UNL     1     -12.551   4.682   3.784  1.00  0.00     0.275 C 
BRANCH  31  32
ATOM     32  O   UNL     1     -11.662   5.226   4.819  1.00  0.00    -0.458 OA
BRANCH  32  33
ATOM     33  C   UNL     1     -10.630   6.105   4.945  1.00  0.00     0.338 C 
ATOM     34  O   UNL     1     -10.078   6.279   6.007  1.00  0.00    -0.246 OA
BRANCH  33  35
ATOM     35  C   UNL     1     -10.174   6.801   3.734  1.00  0.00     0.060 A 
ATOM     36  C   UNL     1      -8.820   7.097   3.490  1.00  0.00     0.016 A 
ATOM     37  C   UNL     1     -11.132   7.082   2.792  1.00  0.00     0.016 A 
ATOM     38  C   UNL     1      -8.435   7.594   2.237  1.00  0.00     0.010 A 
ATOM     39  C   UNL     1     -10.722   7.256   1.504  1.00  0.00     0.010 A 
ATOM     40  C   UNL     1      -9.400   7.646   1.238  1.00  0.00    -0.014 A 
BRANCH  40  41
ATOM     41  C   UNL     1      -9.318   8.370  -0.027  1.00  0.00     0.031 A 
ATOM     42  C   UNL     1      -8.600   7.899  -1.210  1.00  0.00     0.074 A 
ATOM     43  C   UNL     1     -10.277   9.326  -0.097  1.00  0.00     0.049 A 
ATOM     44  N   UNL     1      -8.299   8.676  -2.192  1.00  0.00    -0.248 NA
ATOM     45  C   UNL     1      -8.185   6.515  -1.409  1.00  0.00     0.031 C 
ATOM     46  C   UNL     1     -10.990   9.887  -1.224  1.00  0.00     0.029 A 
ATOM     47  N   UNL     1     -10.854   9.963   1.009  1.00  0.00    -0.354 N 
ATOM     48  C   UNL     1      -7.941   7.869  -3.249  1.00  0.00     0.074 A 
ATOM     49  C   UNL     1      -7.772   6.547  -2.685  1.00  0.00     0.031 C 
ATOM     50  C   UNL     1     -11.722  10.933  -0.786  1.00  0.00     0.029 A 
ATOM     51  C   UNL     1     -11.347  11.191   0.603  1.00  0.00     0.049 A 
ATOM     52  H   UNL     1     -10.902   9.598   1.922  1.00  0.00     0.167 HD
ATOM     53  C   UNL     1      -8.037   8.355  -4.519  1.00  0.00     0.034 A 
ATOM     54  C   UNL     1     -10.822  12.333   1.139  1.00  0.00     0.034 A 
ATOM     55  C   UNL     1      -8.634   9.702  -4.505  1.00  0.00     0.049 A 
ATOM     56  C   UNL     1     -10.031  13.066   0.070  1.00  0.00     0.074 A 
ATOM     57  C   UNL     1      -9.947  10.122  -4.657  1.00  0.00     0.029 A 
ATOM     58  N   UNL     1      -7.948  10.776  -3.942  1.00  0.00    -0.354 N 
ATOM     59  N   UNL     1      -9.783  12.581  -1.115  1.00  0.00    -0.248 NA
ATOM     60  C   UNL     1      -9.436  14.382   0.262  1.00  0.00     0.031 C 
ATOM     61  C   UNL     1     -10.067  11.417  -4.086  1.00  0.00     0.029 A 
ATOM     62  C   UNL     1      -8.826  11.805  -3.611  1.00  0.00     0.049 A 
ATOM     63  H   UNL     1      -6.975  10.803  -3.797  1.00  0.00     0.167 HD
ATOM     64  C   UNL     1      -8.921  13.394  -1.786  1.00  0.00     0.074 A 
ATOM     65  C   UNL     1      -8.801  14.552  -0.911  1.00  0.00     0.031 C 
ATOM     66  C   UNL     1      -8.337  13.023  -2.966  1.00  0.00     0.034 A 
BRANCH  53  67
ATOM     67  C   UNL     1      -7.972   7.482  -5.761  1.00  0.00     0.023 A 
ATOM     68  C   UNL     1      -8.789   7.841  -6.858  1.00  0.00     0.012 A 
ATOM     69  C   UNL     1      -7.176   6.322  -5.926  1.00  0.00     0.148 A 
ATOM     70  C   UNL     1      -8.888   7.062  -8.014  1.00  0.00     0.002 A 
ATOM     71  C   UNL     1      -7.307   5.517  -7.068  1.00  0.00     0.091 A 
ATOM     72  F   UNL     1      -6.255   6.023  -4.999  1.00  0.00    -0.205 F 
ATOM     73  C   UNL     1      -8.166   5.885  -8.110  1.00  0.00     0.022 A 
BRANCH  71  74
ATOM     74  S   UNL     1      -6.466   3.934  -7.258  1.00  0.00     0.127 S 
ATOM     75  O   UNL     1      -7.554   3.056  -7.694  1.00  0.00    -0.237 OA
ATOM     76  O   UNL     1      -5.474   4.226  -8.290  1.00  0.00    -0.237 OA
ATOM     77  O   UNL     1      -5.931   3.607  -5.942  1.00  0.00    -0.744 OA
ENDBRANCH  71  74
ENDBRANCH  53  67
BRANCH  54  78
ATOM     78  C   UNL     1     -10.380  12.154   2.577  1.00  0.00     0.023 A 
ATOM     79  C   UNL     1     -11.354  11.695   3.506  1.00  0.00     0.012 A 
ATOM     80  C   UNL     1      -9.024  11.971   2.903  1.00  0.00     0.148 A 
ATOM     81  C   UNL     1     -10.991  10.932   4.624  1.00  0.00     0.002 A 
ATOM     82  C   UNL     1      -8.672  11.197   4.013  1.00  0.00     0.091 A 
ATOM     83  F   UNL     1      -8.086  12.465   2.085  1.00  0.00    -0.205 F 
ATOM     84  C   UNL     1      -9.650  10.648   4.854  1.00  0.00     0.022 A 
BRANCH  82  85
ATOM     85  S   UNL     1      -6.950  10.743   4.263  1.00  0.00     0.127 S 
ATOM     86  O   UNL     1      -7.034   9.612   5.187  1.00  0.00    -0.237 OA
ATOM     87  O   UNL     1      -6.497  10.384   2.926  1.00  0.00    -0.237 OA
ATOM     88  O   UNL     1      -6.400  11.966   4.840  1.00  0.00    -0.744 OA
ENDBRANCH  82  85
ENDBRANCH  54  78
BRANCH  66  89
ATOM     89  C   UNL     1      -7.245  13.814  -3.640  1.00  0.00     0.023 A 
ATOM     90  C   UNL     1      -6.354  14.625  -2.913  1.00  0.00     0.012 A 
ATOM     91  C   UNL     1      -7.000  13.664  -5.027  1.00  0.00     0.148 A 
ATOM     92  C   UNL     1      -5.335  15.341  -3.543  1.00  0.00     0.002 A 
ATOM     93  C   UNL     1      -5.905  14.274  -5.625  1.00  0.00     0.091 A 
ATOM     94  F   UNL     1      -7.843  12.944  -5.782  1.00  0.00    -0.205 F 
ATOM     95  C   UNL     1      -5.097  15.150  -4.897  1.00  0.00     0.022 A 
BRANCH  93  96
ATOM     96  S   UNL     1      -5.399  13.839  -7.293  1.00  0.00     0.127 S 
ATOM     97  O   UNL     1      -6.015  14.903  -8.083  1.00  0.00    -0.237 OA
ATOM     98  O   UNL     1      -3.940  13.911  -7.205  1.00  0.00    -0.237 OA
ATOM     99  O   UNL     1      -5.916  12.495  -7.513  1.00  0.00    -0.744 OA
ENDBRANCH  93  96
ENDBRANCH  66  89
ENDBRANCH  40  41
ENDBRANCH  33  35
ENDBRANCH  32  33
ENDBRANCH  31  32
ENDBRANCH   1  31
TORSDOF 19
