REMARK SMILES CCc1cc(OCCC(=O)OCCOC(=O)c2ccc(-c3c4nc(c(-c5cccc(S(=O)(=O)[O-])c5F)c5ccc([nH]5)c(-c5cccc(S(=O)(=O)[O-])c5F)c5nc(c(-c6cccc(S(=O)(=O)[O-])c6F)c6ccc3[nH]6)C=C5)C=C4)cc2)nc(-c2cnccn2)n1
REMARK SMILES IDX 12 1 11 2 9 3 10 4 8 5 7 6 6 7 5 8 3 9 4 10 88 11 81 12
REMARK SMILES IDX 80 13 2 14 1 15 82 16 83 17 87 18 84 19 86 20 85 21 13 22
REMARK SMILES IDX 14 23 15 24 16 25 17 26 18 27 79 28 19 29 78 30 20 31 21 32
REMARK SMILES IDX 22 33 72 34 23 35 77 36 71 37 73 38 24 39 76 40 70 41 69 42
REMARK SMILES IDX 25 44 57 45 37 46 56 47 38 48 41 49 55 50 74 51 39 52 40 53
REMARK SMILES IDX 54 55 75 56 42 57 26 58 27 59 35 60 28 61 30 62 36 63 29 64
REMARK SMILES IDX 31 65 32 66 33 67 34 68 58 69 59 70 67 71 60 72 62 73 68 74
REMARK SMILES IDX 61 75 63 76 64 77 65 78 66 79 43 80 44 81 52 82 45 83 47 84
REMARK SMILES IDX 53 85 46 86 48 87 49 88 50 89 51 90
REMARK H PARENT 73 43 41 54
REMARK Flexibility Score: inf
ROOT
ATOM      1  C   UNL     1      -1.686   2.090  -0.305  1.00  0.00     0.274 C 
ENDROOT
BRANCH   1   2
ATOM      2  O   UNL     1      -1.223   3.366  -0.788  1.00  0.00    -0.462 OA
BRANCH   2   3
ATOM      3  C   UNL     1      -1.919   4.463  -0.415  1.00  0.00     0.309 C 
ATOM      4  O   UNL     1      -2.970   4.442   0.212  1.00  0.00    -0.252 OA
BRANCH   3   5
ATOM      5  C   UNL     1      -1.285   5.743  -0.898  1.00  0.00     0.164 C 
BRANCH   5   6
ATOM      6  C   UNL     1       0.239   5.805  -0.810  1.00  0.00     0.243 C 
BRANCH   6   7
ATOM      7  O   UNL     1       0.891   5.396  -2.014  1.00  0.00    -0.477 OA
BRANCH   7   8
ATOM      8  C   UNL     1       1.401   4.142  -2.168  1.00  0.00     0.217 A 
ATOM      9  C   UNL     1       1.922   1.906  -1.570  1.00  0.00     0.048 A 
ATOM     10  C   UNL     1       1.590   3.196  -1.180  1.00  0.00     0.092 A 
ATOM     11  N   UNL     1       2.185   1.622  -2.844  1.00  0.00    -0.231 NA
ATOM     12  C   UNL     1       2.114   2.635  -3.724  1.00  0.00     0.183 A 
ATOM     13  N   UNL     1       1.722   3.889  -3.444  1.00  0.00    -0.192 NA
BRANCH   9  14
ATOM     14  C   UNL     1       1.879   0.741  -0.614  1.00  0.00     0.053 C 
ATOM     15  C   UNL     1       2.292  -0.620  -1.157  1.00  0.00     0.011 C 
ENDBRANCH   9  14
BRANCH  12  16
ATOM     16  C   UNL     1       2.779   2.376  -4.991  1.00  0.00     0.126 A 
ATOM     17  C   UNL     1       3.999   2.992  -5.256  1.00  0.00     0.143 A 
ATOM     18  N   UNL     1       2.308   1.364  -5.775  1.00  0.00    -0.250 NA
ATOM     19  N   UNL     1       4.806   2.620  -6.280  1.00  0.00    -0.261 NA
ATOM     20  C   UNL     1       3.113   0.993  -6.790  1.00  0.00     0.132 A 
ATOM     21  C   UNL     1       4.338   1.596  -7.027  1.00  0.00     0.131 A 
ENDBRANCH  12  16
ENDBRANCH   7   8
ENDBRANCH   6   7
ENDBRANCH   5   6
ENDBRANCH   3   5
ENDBRANCH   2   3
ENDBRANCH   1   2
BRANCH   1  22
ATOM     22  C   UNL     1      -0.962   1.708   0.980  1.00  0.00     0.275 C 
BRANCH  22  23
ATOM     23  O   UNL     1      -1.342   2.556   2.046  1.00  0.00    -0.458 OA
BRANCH  23  24
ATOM     24  C   UNL     1      -0.443   3.512   2.359  1.00  0.00     0.338 C 
ATOM     25  O   UNL     1       0.631   3.794   1.866  1.00  0.00    -0.246 OA
BRANCH  24  26
ATOM     26  C   UNL     1      -1.005   4.160   3.505  1.00  0.00     0.060 A 
ATOM     27  C   UNL     1      -1.805   5.284   3.312  1.00  0.00     0.016 A 
ATOM     28  C   UNL     1      -0.840   3.499   4.721  1.00  0.00     0.016 A 
ATOM     29  C   UNL     1      -2.487   5.766   4.399  1.00  0.00     0.010 A 
ATOM     30  C   UNL     1      -1.565   3.952   5.790  1.00  0.00     0.010 A 
ATOM     31  C   UNL     1      -2.373   5.084   5.618  1.00  0.00    -0.014 A 
BRANCH  31  32
ATOM     32  C   UNL     1      -3.107   5.589   6.766  1.00  0.00     0.031 A 
ATOM     33  C   UNL     1      -2.331   6.297   7.817  1.00  0.00     0.074 A 
ATOM     34  C   UNL     1      -4.428   5.363   6.792  1.00  0.00     0.049 A 
ATOM     35  N   UNL     1      -2.761   6.842   8.914  1.00  0.00    -0.248 NA
ATOM     36  C   UNL     1      -0.871   6.391   7.620  1.00  0.00     0.031 C 
ATOM     37  C   UNL     1      -5.178   4.625   5.767  1.00  0.00     0.029 A 
ATOM     38  N   UNL     1      -5.369   5.723   7.704  1.00  0.00    -0.354 N 
ATOM     39  C   UNL     1      -1.628   7.313   9.557  1.00  0.00     0.074 A 
ATOM     40  C   UNL     1      -0.485   6.975   8.744  1.00  0.00     0.031 C 
ATOM     41  C   UNL     1      -6.475   4.602   6.107  1.00  0.00     0.029 A 
ATOM     42  C   UNL     1      -6.629   5.285   7.383  1.00  0.00     0.049 A 
ATOM     43  H   UNL     1      -5.167   6.245   8.514  1.00  0.00     0.167 HD
ATOM     44  C   UNL     1      -1.575   7.979  10.729  1.00  0.00     0.034 A 
ATOM     45  C   UNL     1      -7.771   5.426   8.075  1.00  0.00     0.034 A 
ATOM     46  C   UNL     1      -2.758   8.275  11.486  1.00  0.00     0.049 A 
ATOM     47  C   UNL     1      -7.682   6.207   9.354  1.00  0.00     0.074 A 
ATOM     48  C   UNL     1      -2.878   8.966  12.673  1.00  0.00     0.029 A 
ATOM     49  N   UNL     1      -4.039   7.870  11.118  1.00  0.00    -0.354 N 
ATOM     50  N   UNL     1      -6.622   6.743   9.917  1.00  0.00    -0.248 NA
ATOM     51  C   UNL     1      -8.935   6.437  10.074  1.00  0.00     0.031 C 
ATOM     52  C   UNL     1      -4.229   8.946  13.041  1.00  0.00     0.029 A 
ATOM     53  C   UNL     1      -4.958   8.285  12.060  1.00  0.00     0.049 A 
ATOM     54  H   UNL     1      -4.257   7.361  10.304  1.00  0.00     0.167 HD
ATOM     55  C   UNL     1      -7.078   7.396  11.050  1.00  0.00     0.074 A 
ATOM     56  C   UNL     1      -8.521   7.211  11.068  1.00  0.00     0.031 C 
ATOM     57  C   UNL     1      -6.385   8.074  12.001  1.00  0.00     0.034 A 
BRANCH  44  58
ATOM     58  C   UNL     1      -0.219   8.390  11.232  1.00  0.00     0.023 A 
ATOM     59  C   UNL     1       0.525   9.377  10.549  1.00  0.00     0.012 A 
ATOM     60  C   UNL     1       0.332   7.781  12.374  1.00  0.00     0.148 A 
ATOM     61  C   UNL     1       1.807   9.724  10.975  1.00  0.00     0.002 A 
ATOM     62  C   UNL     1       1.589   8.168  12.822  1.00  0.00     0.091 A 
ATOM     63  F   UNL     1      -0.370   6.816  12.985  1.00  0.00    -0.205 F 
ATOM     64  C   UNL     1       2.334   9.127  12.117  1.00  0.00     0.022 A 
BRANCH  62  65
ATOM     65  S   UNL     1       2.328   7.509  14.320  1.00  0.00     0.127 S 
ATOM     66  O   UNL     1       3.476   6.777  13.786  1.00  0.00    -0.237 OA
ATOM     67  O   UNL     1       2.669   8.729  15.051  1.00  0.00    -0.237 OA
ATOM     68  O   UNL     1       1.305   6.686  14.948  1.00  0.00    -0.744 OA
ENDBRANCH  62  65
ENDBRANCH  44  58
BRANCH  45  69
ATOM     69  C   UNL     1      -9.041   4.869   7.540  1.00  0.00     0.023 A 
ATOM     70  C   UNL     1     -10.053   5.736   7.087  1.00  0.00     0.012 A 
ATOM     71  C   UNL     1      -9.219   3.477   7.405  1.00  0.00     0.148 A 
ATOM     72  C   UNL     1     -11.230   5.227   6.535  1.00  0.00     0.002 A 
ATOM     73  C   UNL     1     -10.368   2.978   6.804  1.00  0.00     0.091 A 
ATOM     74  F   UNL     1      -8.245   2.667   7.844  1.00  0.00    -0.205 F 
ATOM     75  C   UNL     1     -11.383   3.851   6.383  1.00  0.00     0.022 A 
BRANCH  73  76
ATOM     76  S   UNL     1     -10.585   1.231   6.447  1.00  0.00     0.127 S 
ATOM     77  O   UNL     1     -11.611   0.854   7.415  1.00  0.00    -0.237 OA
ATOM     78  O   UNL     1     -11.031   1.259   5.053  1.00  0.00    -0.237 OA
ATOM     79  O   UNL     1      -9.275   0.624   6.644  1.00  0.00    -0.744 OA
ENDBRANCH  73  76
ENDBRANCH  45  69
BRANCH  57  80
ATOM     80  C   UNL     1      -7.201   8.668  13.111  1.00  0.00     0.023 A 
ATOM     81  C   UNL     1      -7.790   7.829  14.077  1.00  0.00     0.012 A 
ATOM     82  C   UNL     1      -7.341  10.063  13.214  1.00  0.00     0.148 A 
ATOM     83  C   UNL     1      -8.555   8.372  15.104  1.00  0.00     0.002 A 
ATOM     84  C   UNL     1      -8.051  10.600  14.276  1.00  0.00     0.091 A 
ATOM     85  F   UNL     1      -6.785  10.836  12.270  1.00  0.00    -0.205 F 
ATOM     86  C   UNL     1      -8.676   9.756  15.210  1.00  0.00     0.022 A 
BRANCH  84  87
ATOM     87  S   UNL     1      -8.157  12.368  14.552  1.00  0.00     0.127 S 
ATOM     88  O   UNL     1      -9.536  12.648  14.159  1.00  0.00    -0.237 OA
ATOM     89  O   UNL     1      -7.896  12.472  15.988  1.00  0.00    -0.237 OA
ATOM     90  O   UNL     1      -7.130  12.967  13.709  1.00  0.00    -0.744 OA
ENDBRANCH  84  87
ENDBRANCH  57  80
ENDBRANCH  31  32
ENDBRANCH  24  26
ENDBRANCH  23  24
ENDBRANCH  22  23
ENDBRANCH   1  22
TORSDOF 19
