REMARK SMILES CCc1cc(Nc2ccc(C(=O)OCCOC(=O)c3ccc(-c4c5nc(c(-c6cccc(S(=O)(=O)[O-])c6F)c6ccc([nH]6)c(-c6cccc(S(=O)(=O)[O-])c6F)c6nc(c(-c7cccc(S(=O)(=O)[O-])c7F)c7ccc4[nH]7)C=C6)C=C5)cc3)cc2)nc(C(C)C)n1
REMARK SMILES IDX 14 1 13 2 11 3 12 4 10 5 7 6 8 7 83 8 9 9 82 10 6 11 5 13
REMARK SMILES IDX 3 14 4 15 89 16 85 17 84 18 2 19 1 20 86 21 87 22 88 23
REMARK SMILES IDX 15 24 16 25 17 26 18 27 19 28 20 29 81 30 21 31 80 32 22 33
REMARK SMILES IDX 23 34 24 35 74 36 25 37 79 38 73 39 75 40 26 41 78 42 72 43
REMARK SMILES IDX 71 44 27 46 59 47 39 48 58 49 40 50 43 51 57 52 76 53 41 54
REMARK SMILES IDX 42 55 56 57 77 58 44 59 28 60 29 61 37 62 30 63 32 64 38 65
REMARK SMILES IDX 31 66 33 67 34 68 35 69 36 70 60 71 61 72 69 73 62 74 64 75
REMARK SMILES IDX 70 76 63 77 65 78 66 79 67 80 68 81 45 82 46 83 54 84 47 85
REMARK SMILES IDX 49 86 55 87 48 88 50 89 51 90 52 91 53 92
REMARK H PARENT 6 12 75 45 43 56
REMARK Flexibility Score: inf
ROOT
ATOM      1  C   UNL     1       3.671   8.999   8.307  1.00  0.00     0.275 C 
ENDROOT
BRANCH   1   2
ATOM      2  O   UNL     1       3.442   8.028   7.264  1.00  0.00    -0.458 OA
BRANCH   2   3
ATOM      3  C   UNL     1       2.255   7.375   7.336  1.00  0.00     0.338 C 
ATOM      4  O   UNL     1       1.413   7.495   8.207  1.00  0.00    -0.246 OA
BRANCH   3   5
ATOM      5  C   UNL     1       2.046   6.526   6.141  1.00  0.00     0.060 A 
ATOM      6  C   UNL     1       1.461   4.804   4.001  1.00  0.00     0.040 A 
ATOM      7  C   UNL     1       0.495   5.689   4.471  1.00  0.00     0.027 A 
ATOM      8  C   UNL     1       2.731   4.805   4.601  1.00  0.00     0.027 A 
ATOM      9  C   UNL     1       0.776   6.505   5.558  1.00  0.00     0.018 A 
ATOM     10  C   UNL     1       3.038   5.681   5.650  1.00  0.00     0.018 A 
BRANCH   6  11
ATOM     11  N   UNL     1       1.066   3.833   3.067  1.00  0.00    -0.340 N 
ATOM     12  H   UNL     1       0.679   4.151   2.219  1.00  0.00     0.168 HD
BRANCH  11  13
ATOM     13  C   UNL     1       1.178   2.442   3.244  1.00  0.00     0.134 A 
ATOM     14  C   UNL     1       0.920   0.255   2.410  1.00  0.00     0.046 A 
ATOM     15  C   UNL     1       0.758   1.613   2.227  1.00  0.00     0.071 A 
ATOM     16  N   UNL     1       1.431  -0.260   3.549  1.00  0.00    -0.238 NA
ATOM     17  C   UNL     1       1.791   0.620   4.503  1.00  0.00     0.133 A 
ATOM     18  N   UNL     1       1.706   1.950   4.374  1.00  0.00    -0.216 NA
BRANCH  14  19
ATOM     19  C   UNL     1       0.501  -0.720   1.340  1.00  0.00     0.053 C 
ATOM     20  C   UNL     1       1.053  -0.378  -0.040  1.00  0.00     0.011 C 
ENDBRANCH  14  19
BRANCH  17  21
ATOM     21  C   UNL     1       2.358   0.113   5.809  1.00  0.00     0.051 C 
ATOM     22  C   UNL     1       1.415  -0.878   6.488  1.00  0.00     0.016 C 
ATOM     23  C   UNL     1       3.745  -0.486   5.596  1.00  0.00     0.016 C 
ENDBRANCH  17  21
ENDBRANCH  11  13
ENDBRANCH   6  11
ENDBRANCH   3   5
ENDBRANCH   2   3
ENDBRANCH   1   2
BRANCH   1  24
ATOM     24  C   UNL     1       3.404  10.423   7.817  1.00  0.00     0.275 C 
BRANCH  24  25
ATOM     25  O   UNL     1       1.999  10.643   7.593  1.00  0.00    -0.458 OA
BRANCH  25  26
ATOM     26  C   UNL     1       1.621  10.634   6.295  1.00  0.00     0.338 C 
ATOM     27  O   UNL     1       2.338  10.481   5.319  1.00  0.00    -0.246 OA
BRANCH  26  28
ATOM     28  C   UNL     1       0.161  10.752   6.173  1.00  0.00     0.060 A 
ATOM     29  C   UNL     1      -0.596   9.611   6.389  1.00  0.00     0.016 A 
ATOM     30  C   UNL     1      -0.432  11.882   5.620  1.00  0.00     0.016 A 
ATOM     31  C   UNL     1      -1.883   9.517   5.871  1.00  0.00     0.010 A 
ATOM     32  C   UNL     1      -1.789  11.842   5.269  1.00  0.00     0.010 A 
ATOM     33  C   UNL     1      -2.521  10.641   5.330  1.00  0.00    -0.014 A 
BRANCH  33  34
ATOM     34  C   UNL     1      -3.936  10.554   4.849  1.00  0.00     0.031 A 
ATOM     35  C   UNL     1      -4.319  11.061   3.476  1.00  0.00     0.074 A 
ATOM     36  C   UNL     1      -4.895  10.039   5.651  1.00  0.00     0.049 A 
ATOM     37  N   UNL     1      -5.512  11.245   2.967  1.00  0.00    -0.248 NA
ATOM     38  C   UNL     1      -3.225  11.427   2.560  1.00  0.00     0.031 C 
ATOM     39  C   UNL     1      -4.681   9.502   6.999  1.00  0.00     0.029 A 
ATOM     40  N   UNL     1      -6.251   9.899   5.463  1.00  0.00    -0.354 N 
ATOM     41  C   UNL     1      -5.314  11.829   1.719  1.00  0.00     0.074 A 
ATOM     42  C   UNL     1      -3.885  11.951   1.535  1.00  0.00     0.031 C 
ATOM     43  C   UNL     1      -5.845   9.073   7.502  1.00  0.00     0.029 A 
ATOM     44  C   UNL     1      -6.910   9.408   6.569  1.00  0.00     0.049 A 
ATOM     45  H   UNL     1      -6.706  10.128   4.620  1.00  0.00     0.167 HD
ATOM     46  C   UNL     1      -6.239  12.227   0.812  1.00  0.00     0.034 A 
ATOM     47  C   UNL     1      -8.224   9.300   6.846  1.00  0.00     0.034 A 
ATOM     48  C   UNL     1      -7.657  12.035   0.966  1.00  0.00     0.049 A 
ATOM     49  C   UNL     1      -9.221   9.751   5.820  1.00  0.00     0.074 A 
ATOM     50  C   UNL     1      -8.667  12.343   0.069  1.00  0.00     0.029 A 
ATOM     51  N   UNL     1      -8.269  11.490   2.083  1.00  0.00    -0.354 N 
ATOM     52  N   UNL     1      -9.009  10.240   4.623  1.00  0.00    -0.248 NA
ATOM     53  C   UNL     1     -10.641   9.623   6.175  1.00  0.00     0.031 C 
ATOM     54  C   UNL     1      -9.891  12.021   0.660  1.00  0.00     0.029 A 
ATOM     55  C   UNL     1      -9.642  11.467   1.905  1.00  0.00     0.049 A 
ATOM     56  H   UNL     1      -7.798  11.167   2.884  1.00  0.00     0.167 HD
ATOM     57  C   UNL     1     -10.266  10.444   4.070  1.00  0.00     0.074 A 
ATOM     58  C   UNL     1     -11.234  10.001   5.051  1.00  0.00     0.031 C 
ATOM     59  C   UNL     1     -10.591  10.968   2.864  1.00  0.00     0.034 A 
BRANCH  46  60
ATOM     60  C   UNL     1      -5.767  12.912  -0.447  1.00  0.00     0.023 A 
ATOM     61  C   UNL     1      -5.149  12.170  -1.472  1.00  0.00     0.012 A 
ATOM     62  C   UNL     1      -6.045  14.280  -0.655  1.00  0.00     0.148 A 
ATOM     63  C   UNL     1      -4.797  12.782  -2.676  1.00  0.00     0.002 A 
ATOM     64  C   UNL     1      -5.735  14.870  -1.874  1.00  0.00     0.091 A 
ATOM     65  F   UNL     1      -6.623  14.971   0.337  1.00  0.00    -0.205 F 
ATOM     66  C   UNL     1      -5.101  14.126  -2.882  1.00  0.00     0.022 A 
BRANCH  64  67
ATOM     67  S   UNL     1      -6.165  16.570  -2.271  1.00  0.00     0.127 S 
ATOM     68  O   UNL     1      -4.845  17.185  -2.404  1.00  0.00    -0.237 OA
ATOM     69  O   UNL     1      -6.895  16.414  -3.529  1.00  0.00    -0.237 OA
ATOM     70  O   UNL     1      -6.964  17.056  -1.155  1.00  0.00    -0.744 OA
ENDBRANCH  64  67
ENDBRANCH  46  60
BRANCH  47  71
ATOM     71  C   UNL     1      -8.675   8.772   8.167  1.00  0.00     0.023 A 
ATOM     72  C   UNL     1      -9.382   7.555   8.228  1.00  0.00     0.012 A 
ATOM     73  C   UNL     1      -8.412   9.471   9.362  1.00  0.00     0.148 A 
ATOM     74  C   UNL     1      -9.855   7.069   9.448  1.00  0.00     0.002 A 
ATOM     75  C   UNL     1      -8.826   8.946  10.580  1.00  0.00     0.091 A 
ATOM     76  F   UNL     1      -7.754  10.637   9.287  1.00  0.00    -0.205 F 
ATOM     77  C   UNL     1      -9.568   7.757  10.623  1.00  0.00     0.022 A 
BRANCH  75  78
ATOM     78  S   UNL     1      -8.373   9.696  12.148  1.00  0.00     0.127 S 
ATOM     79  O   UNL     1      -9.636  10.300  12.566  1.00  0.00    -0.237 OA
ATOM     80  O   UNL     1      -7.957   8.532  12.932  1.00  0.00    -0.237 OA
ATOM     81  O   UNL     1      -7.294  10.624  11.839  1.00  0.00    -0.744 OA
ENDBRANCH  75  78
ENDBRANCH  47  71
BRANCH  59  82
ATOM     82  C   UNL     1     -12.051  11.031   2.505  1.00  0.00     0.023 A 
ATOM     83  C   UNL     1     -12.900  11.954   3.147  1.00  0.00     0.012 A 
ATOM     84  C   UNL     1     -12.566  10.208   1.484  1.00  0.00     0.148 A 
ATOM     85  C   UNL     1     -14.250  12.028   2.805  1.00  0.00     0.002 A 
ATOM     86  C   UNL     1     -13.898  10.328   1.111  1.00  0.00     0.091 A 
ATOM     87  F   UNL     1     -11.745   9.324   0.900  1.00  0.00    -0.205 F 
ATOM     88  C   UNL     1     -14.745  11.225   1.780  1.00  0.00     0.022 A 
BRANCH  86  89
ATOM     89  S   UNL     1     -14.597   9.408  -0.265  1.00  0.00     0.127 S 
ATOM     90  O   UNL     1     -15.485   8.473   0.423  1.00  0.00    -0.237 OA
ATOM     91  O   UNL     1     -15.282  10.457  -1.020  1.00  0.00    -0.237 OA
ATOM     92  O   UNL     1     -13.470   8.801  -0.959  1.00  0.00    -0.744 OA
ENDBRANCH  86  89
ENDBRANCH  59  82
ENDBRANCH  33  34
ENDBRANCH  26  28
ENDBRANCH  25  26
ENDBRANCH  24  25
ENDBRANCH   1  24
TORSDOF 18
