REMARK SMILES Cc1ccc(F)c(-c2ncccc2C(=O)OCCOC(=O)c2ccc(-c3c4nc(c(-c5cccc(S(=O)(=O)[O-])c5F)c5ccc([nH]5)c(-c5cccc(S(=O)(=O)[O-])c5F)c5nc(c(-c6cccc(S(=O)(=O)[O-])c6F)c6ccc3[nH]6)C=C5)C=C4)cc2)c1
REMARK SMILES IDX 18 1 17 2 16 3 14 4 15 5 13 6 8 7 9 8 10 9 12 10 11 11 7 12
REMARK SMILES IDX 1 13 2 14 3 15 85 16 4 17 5 18 6 19 19 20 20 21 21 22 22 23
REMARK SMILES IDX 23 24 84 25 24 26 83 27 25 28 26 29 27 30 77 31 28 32 82 33
REMARK SMILES IDX 76 34 78 35 29 36 81 37 75 38 74 39 30 41 62 42 42 43 61 44
REMARK SMILES IDX 43 45 46 46 60 47 79 48 44 49 45 50 59 52 80 53 47 54 31 55
REMARK SMILES IDX 32 56 40 57 33 58 35 59 41 60 34 61 36 62 37 63 38 64 39 65
REMARK SMILES IDX 63 66 64 67 72 68 65 69 67 70 73 71 66 72 68 73 69 74 70 75
REMARK SMILES IDX 71 76 48 77 49 78 57 79 50 80 52 81 58 82 51 83 53 84 54 85
REMARK SMILES IDX 55 86 56 87
REMARK H PARENT 78 40 46 51
REMARK Flexibility Score: inf
ROOT
ATOM      1  C   UNL     1       1.833  -3.668   4.230  1.00  0.00     0.275 C 
ENDROOT
BRANCH   1   2
ATOM      2  C   UNL     1       0.338  -3.969   4.239  1.00  0.00     0.275 C 
BRANCH   2   3
ATOM      3  O   UNL     1      -0.121  -4.227   2.890  1.00  0.00    -0.458 OA
BRANCH   3   4
ATOM      4  C   UNL     1      -1.098  -3.400   2.435  1.00  0.00     0.340 C 
ATOM      5  O   UNL     1      -1.672  -2.548   3.090  1.00  0.00    -0.246 OA
BRANCH   4   6
ATOM      6  C   UNL     1      -1.471  -3.756   1.051  1.00  0.00     0.086 A 
ATOM      7  C   UNL     1      -1.318  -2.905  -0.065  1.00  0.00     0.088 A 
ATOM      8  N   UNL     1      -1.807  -3.244  -1.285  1.00  0.00    -0.255 NA
ATOM      9  C   UNL     1      -2.497  -4.408  -1.380  1.00  0.00     0.112 A 
ATOM     10  C   UNL     1      -2.152  -4.968   0.904  1.00  0.00     0.019 A 
ATOM     11  C   UNL     1      -2.689  -5.295  -0.331  1.00  0.00     0.021 A 
BRANCH   7  12
ATOM     12  C   UNL     1      -0.724  -1.558   0.026  1.00  0.00     0.037 A 
ATOM     13  C   UNL     1       3.315   1.088   0.558  1.00  0.00     0.044 C 
ATOM     14  C   UNL     1       1.927   0.352   0.524  1.00  0.00    -0.050 A 
ATOM     15  C   UNL     1       0.914   1.354   1.645  1.00  0.00     0.006 A 
ATOM     16  C   UNL     1       1.013  -1.216  -0.387  1.00  0.00     0.016 A 
ATOM     17  C   UNL     1      -0.770   0.944   1.878  1.00  0.00     0.040 A 
ATOM     18  C   UNL     1      -1.541  -0.435   1.106  1.00  0.00     0.132 A 
ATOM     19  F   UNL     1      -2.831  -0.666   1.403  1.00  0.00    -0.206 F 
ENDBRANCH   7  12
ENDBRANCH   4   6
ENDBRANCH   3   4
ENDBRANCH   2   3
ENDBRANCH   1   2
BRANCH   1  20
ATOM     20  O   UNL     1       2.041  -2.512   3.407  1.00  0.00    -0.458 OA
BRANCH  20  21
ATOM     21  C   UNL     1       2.518  -2.784   2.176  1.00  0.00     0.338 C 
ATOM     22  O   UNL     1       3.020  -3.820   1.776  1.00  0.00    -0.246 OA
BRANCH  21  23
ATOM     23  C   UNL     1       2.227  -1.660   1.296  1.00  0.00     0.060 A 
ATOM     24  C   UNL     1       0.678  -0.760   1.412  1.00  0.00     0.016 A 
ATOM     25  C   UNL     1       3.201  -1.458  -0.144  1.00  0.00     0.016 A 
ATOM     26  C   UNL     1       0.146   0.425  -0.141  1.00  0.00     0.010 A 
ATOM     27  C   UNL     1       2.759  -0.358  -1.476  1.00  0.00     0.010 A 
ATOM     28  C   UNL     1       1.279   0.618  -1.538  1.00  0.00    -0.014 A 
BRANCH  28  29
ATOM     29  C   UNL     1       1.143   1.756  -2.564  1.00  0.00     0.031 A 
ATOM     30  C   UNL     1       1.835   1.705  -3.926  1.00  0.00     0.074 A 
ATOM     31  C   UNL     1       0.538   2.936  -2.262  1.00  0.00     0.049 A 
ATOM     32  N   UNL     1       2.108   2.687  -4.759  1.00  0.00    -0.248 NA
ATOM     33  C   UNL     1       2.352   0.409  -4.384  1.00  0.00     0.031 C 
ATOM     34  C   UNL     1      -0.050   3.292  -0.982  1.00  0.00     0.029 A 
ATOM     35  N   UNL     1       0.333   4.091  -2.999  1.00  0.00    -0.354 N 
ATOM     36  C   UNL     1       2.926   2.150  -5.755  1.00  0.00     0.074 A 
ATOM     37  C   UNL     1       3.132   0.762  -5.399  1.00  0.00     0.031 C 
ATOM     38  C   UNL     1      -0.643   4.484  -1.030  1.00  0.00     0.029 A 
ATOM     39  C   UNL     1      -0.353   5.080  -2.313  1.00  0.00     0.049 A 
ATOM     40  H   UNL     1       0.646   4.199  -3.926  1.00  0.00     0.167 HD
ATOM     41  C   UNL     1       3.421   2.727  -6.883  1.00  0.00     0.034 A 
ATOM     42  C   UNL     1      -0.683   6.353  -2.608  1.00  0.00     0.034 A 
ATOM     43  C   UNL     1       3.065   4.048  -7.345  1.00  0.00     0.049 A 
ATOM     44  C   UNL     1      -0.250   6.921  -3.918  1.00  0.00     0.074 A 
ATOM     45  C   UNL     1       3.401   4.662  -8.542  1.00  0.00     0.029 A 
ATOM     46  N   UNL     1       2.252   4.940  -6.662  1.00  0.00    -0.354 N 
ATOM     47  N   UNL     1       0.479   6.361  -4.848  1.00  0.00    -0.248 NA
ATOM     48  C   UNL     1      -0.693   8.286  -4.230  1.00  0.00     0.031 C 
ATOM     49  C   UNL     1       2.785   5.917  -8.587  1.00  0.00     0.029 A 
ATOM     50  C   UNL     1       2.053   6.082  -7.425  1.00  0.00     0.049 A 
ATOM     51  H   UNL     1       1.871   4.786  -5.768  1.00  0.00     0.167 HD
ATOM     52  C   UNL     1       0.558   7.291  -5.871  1.00  0.00     0.074 A 
ATOM     53  C   UNL     1      -0.219   8.442  -5.458  1.00  0.00     0.031 C 
ATOM     54  C   UNL     1       1.234   7.201  -7.039  1.00  0.00     0.034 A 
BRANCH  41  55
ATOM     55  C   UNL     1       4.332   1.902  -7.775  1.00  0.00     0.023 A 
ATOM     56  C   UNL     1       3.806   0.798  -8.478  1.00  0.00     0.012 A 
ATOM     57  C   UNL     1       5.683   2.259  -7.981  1.00  0.00     0.148 A 
ATOM     58  C   UNL     1       4.616   0.024  -9.310  1.00  0.00     0.002 A 
ATOM     59  C   UNL     1       6.472   1.514  -8.856  1.00  0.00     0.091 A 
ATOM     60  F   UNL     1       6.173   3.320  -7.325  1.00  0.00    -0.205 F 
ATOM     61  C   UNL     1       5.945   0.385  -9.504  1.00  0.00     0.022 A 
BRANCH  59  62
ATOM     62  S   UNL     1       8.173   1.941  -9.256  1.00  0.00     0.127 S 
ATOM     63  O   UNL     1       8.907   0.823  -8.664  1.00  0.00    -0.237 OA
ATOM     64  O   UNL     1       8.152   1.947 -10.719  1.00  0.00    -0.237 OA
ATOM     65  O   UNL     1       8.420   3.239  -8.645  1.00  0.00    -0.744 OA
ENDBRANCH  59  62
ENDBRANCH  41  55
BRANCH  42  66
ATOM     66  C   UNL     1      -1.509   7.161  -1.656  1.00  0.00     0.023 A 
ATOM     67  C   UNL     1      -2.840   7.470  -1.999  1.00  0.00     0.012 A 
ATOM     68  C   UNL     1      -1.016   7.576  -0.402  1.00  0.00     0.148 A 
ATOM     69  C   UNL     1      -3.651   8.203  -1.131  1.00  0.00     0.002 A 
ATOM     70  C   UNL     1      -1.851   8.245   0.487  1.00  0.00     0.091 A 
ATOM     71  F   UNL     1       0.255   7.284  -0.088  1.00  0.00    -0.205 F 
ATOM     72  C   UNL     1      -3.162   8.578   0.117  1.00  0.00     0.022 A 
BRANCH  70  73
ATOM     73  S   UNL     1      -1.351   8.613   2.174  1.00  0.00     0.127 S 
ATOM     74  O   UNL     1      -1.049  10.040   2.094  1.00  0.00    -0.237 OA
ATOM     75  O   UNL     1      -2.557   8.281   2.934  1.00  0.00    -0.237 OA
ATOM     76  O   UNL     1      -0.220   7.734   2.442  1.00  0.00    -0.744 OA
ENDBRANCH  70  73
ENDBRANCH  42  66
BRANCH  54  77
ATOM     77  C   UNL     1       1.108   8.358  -7.989  1.00  0.00     0.023 A 
ATOM     78  C   UNL     1       1.766   9.572  -7.712  1.00  0.00     0.012 A 
ATOM     79  C   UNL     1       0.353   8.228  -9.169  1.00  0.00     0.148 A 
ATOM     80  C   UNL     1       1.646  10.654  -8.583  1.00  0.00     0.002 A 
ATOM     81  C   UNL     1       0.280   9.293 -10.057  1.00  0.00     0.091 A 
ATOM     82  F   UNL     1      -0.289   7.073  -9.394  1.00  0.00    -0.205 F 
ATOM     83  C   UNL     1       0.913  10.511  -9.760  1.00  0.00     0.022 A 
BRANCH  81  84
ATOM     84  S   UNL     1      -0.565   9.170 -11.636  1.00  0.00     0.127 S 
ATOM     85  O   UNL     1      -1.730  10.026 -11.419  1.00  0.00    -0.237 OA
ATOM     86  O   UNL     1       0.430   9.717 -12.560  1.00  0.00    -0.237 OA
ATOM     87  O   UNL     1      -0.856   7.756 -11.829  1.00  0.00    -0.744 OA
ENDBRANCH  81  84
ENDBRANCH  54  77
ENDBRANCH  28  29
ENDBRANCH  21  23
ENDBRANCH  20  21
ENDBRANCH   1  20
TORSDOF 15
