REMARK SMILES COc1ccc2c(c1)C=C(C(=O)OCCOC(=O)c1ccc(-c3c4nc(c(-c5cccc(S(=O)(=O)[O-])c5F)c5ccc([nH]5)c(-c5cccc(S(=O)(=O)[O-])c5F)c5nc(c(-c6cccc(S(=O)(=O)[O-])c6F)c6ccc3[nH]6)C=C5)C=C4)cc1)[C@H](C(F)(F)F)O2
REMARK SMILES IDX 15 1 14 2 13 3 11 4 12 5 10 6 3 7 4 8 8 9 5 10 7 11 6 12
REMARK SMILES IDX 9 13 87 14 82 15 2 16 1 17 83 18 84 19 85 20 86 21 16 22
REMARK SMILES IDX 17 23 18 24 19 25 20 26 81 27 21 28 80 29 22 30 23 31 24 32
REMARK SMILES IDX 74 33 25 34 79 35 73 36 75 37 26 38 78 39 72 40 71 41 27 43
REMARK SMILES IDX 59 44 39 45 58 46 40 47 43 48 57 49 76 50 41 51 42 52 56 54
REMARK SMILES IDX 77 55 44 56 28 57 29 58 37 59 30 60 32 61 38 62 31 63 33 64
REMARK SMILES IDX 34 65 35 66 36 67 60 68 61 69 69 70 62 71 64 72 70 73 63 74
REMARK SMILES IDX 65 75 66 76 67 77 68 78 45 79 46 80 54 81 47 82 49 83 55 84
REMARK SMILES IDX 48 85 50 86 51 87 52 88 53 89
REMARK H PARENT 75 42 43 53
REMARK Flexibility Score: inf
ROOT
ATOM      1  C   UNL     1      -3.576   8.600  -4.347  1.00  0.00     0.275 C 
ENDROOT
BRANCH   1   2
ATOM      2  C   UNL     1      -3.140   7.452  -5.262  1.00  0.00     0.275 C 
BRANCH   2   3
ATOM      3  O   UNL     1      -2.215   6.561  -4.603  1.00  0.00    -0.459 OA
BRANCH   3   4
ATOM      4  C   UNL     1      -0.937   6.581  -5.071  1.00  0.00     0.338 C 
ATOM      5  O   UNL     1      -0.537   7.276  -5.982  1.00  0.00    -0.246 OA
BRANCH   4   6
ATOM      6  C   UNL     1      -0.059   5.652  -4.320  1.00  0.00     0.087 C 
ATOM      7  C   UNL     1       0.776   1.656  -1.728  1.00  0.00     0.119 A 
ATOM      8  C   UNL     1       2.143   1.937  -1.752  1.00  0.00     0.050 A 
ATOM      9  C   UNL     1      -0.118   2.488  -2.415  1.00  0.00     0.058 A 
ATOM     10  C   UNL     1       2.614   3.035  -2.472  1.00  0.00     0.051 A 
ATOM     11  C   UNL     1       0.345   3.609  -3.112  1.00  0.00     0.021 A 
ATOM     12  C   UNL     1       1.718   3.859  -3.147  1.00  0.00     0.128 A 
ATOM     13  C   UNL     1      -0.557   4.496  -3.843  1.00  0.00     0.027 C 
ATOM     14  O   UNL     1       2.255   4.859  -3.906  1.00  0.00    -0.475 OA
ATOM     15  C   UNL     1       1.402   6.022  -4.101  1.00  0.00     0.316 C 
BRANCH   7  16
ATOM     16  O   UNL     1       0.213   0.562  -1.126  1.00  0.00    -0.497 OA
ATOM     17  C   UNL     1       0.882   0.082   0.035  1.00  0.00     0.278 C 
ENDBRANCH   7  16
BRANCH  15  18
ATOM     18  C   UNL     1       2.103   6.931  -5.130  1.00  0.00     0.430 C 
ATOM     19  F   UNL     1       1.619   8.191  -5.106  1.00  0.00    -0.167 F 
ATOM     20  F   UNL     1       3.425   7.037  -4.828  1.00  0.00    -0.167 F 
ATOM     21  F   UNL     1       2.022   6.446  -6.387  1.00  0.00    -0.167 F 
ENDBRANCH  15  18
ENDBRANCH   4   6
ENDBRANCH   3   4
ENDBRANCH   2   3
ENDBRANCH   1   2
BRANCH   1  22
ATOM     22  O   UNL     1      -2.462   9.426  -3.966  1.00  0.00    -0.458 OA
BRANCH  22  23
ATOM     23  C   UNL     1      -1.895   9.102  -2.779  1.00  0.00     0.338 C 
ATOM     24  O   UNL     1      -2.276   8.242  -1.999  1.00  0.00    -0.246 OA
BRANCH  23  25
ATOM     25  C   UNL     1      -0.601   9.795  -2.631  1.00  0.00     0.060 A 
ATOM     26  C   UNL     1       0.488   9.007  -2.252  1.00  0.00     0.016 A 
ATOM     27  C   UNL     1      -0.437  11.167  -2.834  1.00  0.00     0.016 A 
ATOM     28  C   UNL     1       1.761   9.562  -2.145  1.00  0.00     0.010 A 
ATOM     29  C   UNL     1       0.833  11.738  -2.671  1.00  0.00     0.010 A 
ATOM     30  C   UNL     1       1.939  10.935  -2.337  1.00  0.00    -0.014 A 
BRANCH  30  31
ATOM     31  C   UNL     1       3.267  11.534  -2.063  1.00  0.00     0.031 A 
ATOM     32  C   UNL     1       3.579  12.005  -0.672  1.00  0.00     0.074 A 
ATOM     33  C   UNL     1       4.197  11.627  -3.030  1.00  0.00     0.049 A 
ATOM     34  N   UNL     1       4.669  12.558  -0.210  1.00  0.00    -0.248 NA
ATOM     35  C   UNL     1       2.523  11.813   0.336  1.00  0.00     0.031 C 
ATOM     36  C   UNL     1       4.037  11.159  -4.406  1.00  0.00     0.029 A 
ATOM     37  N   UNL     1       5.460  12.167  -3.001  1.00  0.00    -0.354 N 
ATOM     38  C   UNL     1       4.427  12.801   1.136  1.00  0.00     0.074 A 
ATOM     39  C   UNL     1       3.087  12.331   1.417  1.00  0.00     0.031 C 
ATOM     40  C   UNL     1       5.147  11.467  -5.101  1.00  0.00     0.029 A 
ATOM     41  C   UNL     1       6.082  12.175  -4.228  1.00  0.00     0.049 A 
ATOM     42  H   UNL     1       5.879  12.515  -2.181  1.00  0.00     0.167 HD
ATOM     43  C   UNL     1       5.246  13.362   2.056  1.00  0.00     0.034 A 
ATOM     44  C   UNL     1       7.258  12.718  -4.605  1.00  0.00     0.034 A 
ATOM     45  C   UNL     1       6.570  13.846   1.774  1.00  0.00     0.049 A 
ATOM     46  C   UNL     1       8.120  13.406  -3.575  1.00  0.00     0.074 A 
ATOM     47  C   UNL     1       7.478  14.423   2.646  1.00  0.00     0.029 A 
ATOM     48  N   UNL     1       7.169  13.837   0.524  1.00  0.00    -0.354 N 
ATOM     49  N   UNL     1       7.921  13.543  -2.286  1.00  0.00    -0.248 NA
ATOM     50  C   UNL     1       9.385  13.990  -4.048  1.00  0.00     0.031 C 
ATOM     51  C   UNL     1       8.608  14.799   1.914  1.00  0.00     0.029 A 
ATOM     52  C   UNL     1       8.425  14.414   0.596  1.00  0.00     0.049 A 
ATOM     53  H   UNL     1       6.760  13.473  -0.295  1.00  0.00     0.167 HD
ATOM     54  C   UNL     1       9.051  14.187  -1.790  1.00  0.00     0.074 A 
ATOM     55  C   UNL     1       9.937  14.401  -2.914  1.00  0.00     0.031 C 
ATOM     56  C   UNL     1       9.325  14.574  -0.519  1.00  0.00     0.034 A 
BRANCH  43  57
ATOM     57  C   UNL     1       4.720  13.495   3.459  1.00  0.00     0.023 A 
ATOM     58  C   UNL     1       4.587  12.350   4.271  1.00  0.00     0.012 A 
ATOM     59  C   UNL     1       4.389  14.759   3.984  1.00  0.00     0.148 A 
ATOM     60  C   UNL     1       4.098  12.458   5.573  1.00  0.00     0.002 A 
ATOM     61  C   UNL     1       3.946  14.864   5.296  1.00  0.00     0.091 A 
ATOM     62  F   UNL     1       4.501  15.831   3.187  1.00  0.00    -0.205 F 
ATOM     63  C   UNL     1       3.787  13.714   6.087  1.00  0.00     0.022 A 
BRANCH  61  64
ATOM     64  S   UNL     1       3.591  16.443   6.073  1.00  0.00     0.127 S 
ATOM     65  O   UNL     1       2.136  16.384   6.209  1.00  0.00    -0.237 OA
ATOM     66  O   UNL     1       4.326  16.336   7.334  1.00  0.00    -0.237 OA
ATOM     67  O   UNL     1       4.091  17.463   5.162  1.00  0.00    -0.744 OA
ENDBRANCH  61  64
ENDBRANCH  43  57
BRANCH  44  68
ATOM     68  C   UNL     1       7.704  12.632  -6.026  1.00  0.00     0.023 A 
ATOM     69  C   UNL     1       8.835  11.861  -6.358  1.00  0.00     0.012 A 
ATOM     70  C   UNL     1       7.024  13.327  -7.045  1.00  0.00     0.148 A 
ATOM     71  C   UNL     1       9.302  11.813  -7.672  1.00  0.00     0.002 A 
ATOM     72  C   UNL     1       7.463  13.232  -8.361  1.00  0.00     0.091 A 
ATOM     73  F   UNL     1       5.961  14.071  -6.707  1.00  0.00    -0.205 F 
ATOM     74  C   UNL     1       8.613  12.491  -8.674  1.00  0.00     0.022 A 
BRANCH  72  75
ATOM     75  S   UNL     1       6.581  13.985  -9.732  1.00  0.00     0.127 S 
ATOM     76  O   UNL     1       7.529  15.005 -10.174  1.00  0.00    -0.237 OA
ATOM     77  O   UNL     1       6.424  12.853 -10.646  1.00  0.00    -0.237 OA
ATOM     78  O   UNL     1       5.333  14.488  -9.174  1.00  0.00    -0.744 OA
ENDBRANCH  72  75
ENDBRANCH  44  68
BRANCH  56  79
ATOM     79  C   UNL     1      10.660  15.223  -0.247  1.00  0.00     0.023 A 
ATOM     80  C   UNL     1      10.920  16.530  -0.705  1.00  0.00     0.012 A 
ATOM     81  C   UNL     1      11.628  14.564   0.539  1.00  0.00     0.148 A 
ATOM     82  C   UNL     1      12.132  17.157  -0.413  1.00  0.00     0.002 A 
ATOM     83  C   UNL     1      12.810  15.214   0.871  1.00  0.00     0.091 A 
ATOM     84  F   UNL     1      11.371  13.315   0.953  1.00  0.00    -0.205 F 
ATOM     85  C   UNL     1      13.070  16.505   0.384  1.00  0.00     0.022 A 
BRANCH  83  86
ATOM     86  S   UNL     1      14.030  14.495   1.977  1.00  0.00     0.127 S 
ATOM     87  O   UNL     1      15.127  14.197   1.057  1.00  0.00    -0.237 OA
ATOM     88  O   UNL     1      14.294  15.595   2.905  1.00  0.00    -0.237 OA
ATOM     89  O   UNL     1      13.392  13.334   2.582  1.00  0.00    -0.744 OA
ENDBRANCH  83  86
ENDBRANCH  56  79
ENDBRANCH  30  31
ENDBRANCH  23  25
ENDBRANCH  22  23
ENDBRANCH   1  22
TORSDOF 16
