REMARK SMILES O=C(OCCOC(=O)[C@H]1C=C[C@@H](NS(=O)(=O)c2ccc(Br)cc2)C1)c1ccc(-c2c3nc(c(-c4cccc(S(=O)(=O)[O-])c4F)c4ccc([nH]4)c(-c4cccc(S(=O)(=O)[O-])c4F)c4nc(c(-c5cccc(S(=O)(=O)[O-])c5F)c5ccc2[nH]5)C=C4)C=C3)cc1
REMARK SMILES IDX 4 1 3 2 2 3 1 4 25 5 26 6 87 7 27 8 86 9 28 10 29 11 30 12
REMARK SMILES IDX 80 13 31 14 85 15 79 16 81 17 32 18 84 19 78 20 77 21 33 23
REMARK SMILES IDX 65 24 45 25 64 26 46 27 49 28 63 29 82 30 47 31 48 32 62 34
REMARK SMILES IDX 83 35 50 36 34 37 35 38 43 39 36 40 38 41 44 42 37 43 39 44
REMARK SMILES IDX 40 45 41 46 42 47 66 48 67 49 75 50 68 51 70 52 76 53 69 54
REMARK SMILES IDX 71 55 72 56 73 57 74 58 51 59 52 60 60 61 53 62 55 63 61 64
REMARK SMILES IDX 54 65 56 66 57 67 58 68 59 69 5 70 6 71 7 72 8 73 9 74 10 75
REMARK SMILES IDX 24 76 11 77 12 78 13 79 14 81 15 82 16 83 17 84 18 85 23 86
REMARK SMILES IDX 19 87 22 88 20 89 21 90
REMARK H PARENT 81 22 49 33 13 80
REMARK Flexibility Score: inf
ROOT
ATOM      1  C   UNL     1       4.131  -0.834  -1.379  1.00  0.00     0.275 C 
ENDROOT
BRANCH   1   2
ATOM      2  O   UNL     1       3.065  -1.073  -0.448  1.00  0.00    -0.458 OA
BRANCH   2   3
ATOM      3  C   UNL     1       3.027  -0.809   0.880  1.00  0.00     0.338 C 
ATOM      4  O   UNL     1       2.164  -1.359   1.563  1.00  0.00    -0.246 OA
BRANCH   3   5
ATOM      5  C   UNL     1       3.867   0.244   1.534  1.00  0.00     0.060 A 
ATOM      6  C   UNL     1       5.193   0.558   1.226  1.00  0.00     0.016 A 
ATOM      7  C   UNL     1       3.245   0.967   2.570  1.00  0.00     0.016 A 
ATOM      8  C   UNL     1       5.858   1.606   1.881  1.00  0.00     0.010 A 
ATOM      9  C   UNL     1       3.889   2.042   3.191  1.00  0.00     0.010 A 
ATOM     10  C   UNL     1       5.212   2.361   2.863  1.00  0.00    -0.014 A 
BRANCH  10  11
ATOM     11  C   UNL     1       5.956   3.373   3.655  1.00  0.00     0.031 A 
ATOM     12  C   UNL     1       6.252   3.072   5.101  1.00  0.00     0.074 A 
ATOM     13  C   UNL     1       6.363   4.538   3.110  1.00  0.00     0.049 A 
ATOM     14  N   UNL     1       6.913   3.785   5.974  1.00  0.00    -0.248 NA
ATOM     15  C   UNL     1       5.758   1.787   5.631  1.00  0.00     0.031 C 
ATOM     16  C   UNL     1       6.169   4.946   1.718  1.00  0.00     0.029 A 
ATOM     17  N   UNL     1       6.987   5.619   3.684  1.00  0.00    -0.354 N 
ATOM     18  C   UNL     1       6.944   3.024   7.135  1.00  0.00     0.074 A 
ATOM     19  C   UNL     1       6.153   1.840   6.893  1.00  0.00     0.031 C 
ATOM     20  C   UNL     1       6.597   6.215   1.567  1.00  0.00     0.029 A 
ATOM     21  C   UNL     1       7.071   6.713   2.850  1.00  0.00     0.049 A 
ATOM     22  H   UNL     1       7.340   5.613   4.603  1.00  0.00     0.167 HD
ATOM     23  C   UNL     1       7.640   3.245   8.274  1.00  0.00     0.034 A 
ATOM     24  C   UNL     1       7.466   7.976   3.107  1.00  0.00     0.034 A 
ATOM     25  C   UNL     1       8.443   4.410   8.500  1.00  0.00     0.049 A 
ATOM     26  C   UNL     1       8.102   8.264   4.441  1.00  0.00     0.074 A 
ATOM     27  C   UNL     1       9.266   4.702   9.572  1.00  0.00     0.029 A 
ATOM     28  N   UNL     1       8.510   5.490   7.633  1.00  0.00    -0.354 N 
ATOM     29  N   UNL     1       8.283   7.459   5.460  1.00  0.00    -0.248 NA
ATOM     30  C   UNL     1       8.691   9.600   4.617  1.00  0.00     0.031 C 
ATOM     31  C   UNL     1       9.823   5.968   9.355  1.00  0.00     0.029 A 
ATOM     32  C   UNL     1       9.354   6.456   8.145  1.00  0.00     0.049 A 
ATOM     33  H   UNL     1       8.027   5.558   6.777  1.00  0.00     0.167 HD
ATOM     34  C   UNL     1       9.101   8.149   6.347  1.00  0.00     0.074 A 
ATOM     35  C   UNL     1       9.333   9.458   5.770  1.00  0.00     0.031 C 
ATOM     36  C   UNL     1       9.639   7.720   7.514  1.00  0.00     0.034 A 
BRANCH  23  37
ATOM     37  C   UNL     1       7.625   2.142   9.296  1.00  0.00     0.023 A 
ATOM     38  C   UNL     1       8.350   0.960   9.027  1.00  0.00     0.012 A 
ATOM     39  C   UNL     1       6.884   2.243  10.486  1.00  0.00     0.148 A 
ATOM     40  C   UNL     1       8.297  -0.123   9.901  1.00  0.00     0.002 A 
ATOM     41  C   UNL     1       6.862   1.169  11.370  1.00  0.00     0.091 A 
ATOM     42  F   UNL     1       6.183   3.362  10.713  1.00  0.00    -0.205 F 
ATOM     43  C   UNL     1       7.556  -0.018  11.073  1.00  0.00     0.022 A 
BRANCH  41  44
ATOM     44  S   UNL     1       5.970   1.216  12.928  1.00  0.00     0.127 S 
ATOM     45  O   UNL     1       4.825   0.354  12.638  1.00  0.00    -0.237 OA
ATOM     46  O   UNL     1       6.942   0.644  13.860  1.00  0.00    -0.237 OA
ATOM     47  O   UNL     1       5.656   2.618  13.165  1.00  0.00    -0.744 OA
ENDBRANCH  41  44
ENDBRANCH  23  37
BRANCH  24  48
ATOM     48  C   UNL     1       7.438   9.037   2.059  1.00  0.00     0.023 A 
ATOM     49  C   UNL     1       8.590   9.231   1.272  1.00  0.00     0.012 A 
ATOM     50  C   UNL     1       6.341   9.909   1.901  1.00  0.00     0.148 A 
ATOM     51  C   UNL     1       8.661  10.285   0.361  1.00  0.00     0.002 A 
ATOM     52  C   UNL     1       6.416  10.959   0.985  1.00  0.00     0.091 A 
ATOM     53  F   UNL     1       5.252   9.710   2.659  1.00  0.00    -0.205 F 
ATOM     54  C   UNL     1       7.579  11.150   0.221  1.00  0.00     0.022 A 
BRANCH  52  55
ATOM     55  S   UNL     1       5.109  12.182   0.784  1.00  0.00     0.127 S 
ATOM     56  O   UNL     1       5.858  13.439   0.756  1.00  0.00    -0.237 OA
ATOM     57  O   UNL     1       4.512  11.808  -0.497  1.00  0.00    -0.237 OA
ATOM     58  O   UNL     1       4.241  12.028   1.944  1.00  0.00    -0.744 OA
ENDBRANCH  52  55
ENDBRANCH  24  48
BRANCH  36  59
ATOM     59  C   UNL     1      10.625   8.620   8.203  1.00  0.00     0.023 A 
ATOM     60  C   UNL     1      10.178   9.747   8.916  1.00  0.00     0.012 A 
ATOM     61  C   UNL     1      11.992   8.280   8.222  1.00  0.00     0.148 A 
ATOM     62  C   UNL     1      11.085  10.534   9.627  1.00  0.00     0.002 A 
ATOM     63  C   UNL     1      12.880   9.039   8.973  1.00  0.00     0.091 A 
ATOM     64  F   UNL     1      12.401   7.220   7.509  1.00  0.00    -0.205 F 
ATOM     65  C   UNL     1      12.430  10.171   9.669  1.00  0.00     0.022 A 
BRANCH  63  66
ATOM     66  S   UNL     1      14.602   8.561   9.165  1.00  0.00     0.127 S 
ATOM     67  O   UNL     1      15.266   9.428   8.194  1.00  0.00    -0.237 OA
ATOM     68  O   UNL     1      14.869   8.896  10.565  1.00  0.00    -0.237 OA
ATOM     69  O   UNL     1      14.648   7.133   8.875  1.00  0.00    -0.744 OA
ENDBRANCH  63  66
ENDBRANCH  36  59
ENDBRANCH  10  11
ENDBRANCH   3   5
ENDBRANCH   2   3
ENDBRANCH   1   2
BRANCH   1  70
ATOM     70  C   UNL     1       4.059   0.512  -2.102  1.00  0.00     0.274 C 
BRANCH  70  71
ATOM     71  O   UNL     1       3.336   1.504  -1.358  1.00  0.00    -0.462 OA
BRANCH  71  72
ATOM     72  C   UNL     1       2.290   2.103  -1.996  1.00  0.00     0.312 C 
ATOM     73  O   UNL     1       1.948   1.859  -3.149  1.00  0.00    -0.252 OA
BRANCH  72  74
ATOM     74  C   UNL     1       1.560   3.134  -1.136  1.00  0.00     0.123 C 
ATOM     75  C   UNL     1       2.026   3.235   0.272  1.00  0.00    -0.015 C 
ATOM     76  C   UNL     1       1.790   4.566  -1.639  1.00  0.00     0.043 C 
ATOM     77  C   UNL     1       2.217   4.494   0.666  1.00  0.00    -0.011 C 
ATOM     78  C   UNL     1       1.832   5.470  -0.387  1.00  0.00     0.093 C 
BRANCH  78  79
ATOM     79  N   UNL     1       2.791   6.531  -0.569  1.00  0.00    -0.204 NA
ATOM     80  H   UNL     1       2.389   7.136  -1.285  1.00  0.00     0.142 HD
BRANCH  79  81
ATOM     81  S   UNL     1       3.340   7.566   0.624  1.00  0.00     0.241 S 
ATOM     82  O   UNL     1       3.746   6.765   1.757  1.00  0.00    -0.207 OA
ATOM     83  O   UNL     1       4.265   8.417  -0.080  1.00  0.00    -0.207 OA
BRANCH  81  84
ATOM     84  C   UNL     1       1.933   8.491   1.170  1.00  0.00     0.082 A 
ATOM     85  C   UNL     1       1.056   7.878   2.078  1.00  0.00     0.023 A 
ATOM     86  C   UNL     1       1.844   9.860   0.926  1.00  0.00     0.023 A 
ATOM     87  C   UNL     1       0.089   8.634   2.739  1.00  0.00     0.017 A 
ATOM     88  C   UNL     1       0.883  10.620   1.603  1.00  0.00     0.017 A 
ATOM     89  C   UNL     1       0.015  10.006   2.506  1.00  0.00     0.018 A 
ATOM     90  Br  UNL     1      -1.237  11.042   3.474  1.00  0.00    -0.051 Br
ENDBRANCH  81  84
ENDBRANCH  79  81
ENDBRANCH  78  79
ENDBRANCH  72  74
ENDBRANCH  71  72
ENDBRANCH  70  71
ENDBRANCH   1  70
TORSDOF 17
