REMARK SMILES Cc1cc(/C=C2/C(=O)NC(=S)N=C2OCCOC(=O)c2ccc(-c3c4nc(c(-c5cccc(S(=O)(=O)[O-])c5F)c5ccc([nH]5)c(-c5cccc(S(=O)(=O)[O-])c5F)c5nc(c(-c6cccc(S(=O)(=O)[O-])c6F)c6ccc3[nH]6)C=C5)C=C4)cc2)c(C)n1-c1cccc(C(=O)[O-])c1
REMARK SMILES IDX 16 1 15 2 14 3 13 4 5 5 6 6 7 7 8 8 9 9 12 10 10 11 11 13
REMARK SMILES IDX 4 14 1 15 2 16 3 17 85 18 83 19 84 20 86 21 87 22 94 23
REMARK SMILES IDX 88 24 90 25 89 26 91 27 92 28 93 29 17 30 18 31 19 32 20 33
REMARK SMILES IDX 21 34 82 35 22 36 81 37 23 38 24 39 25 40 75 41 26 42 80 43
REMARK SMILES IDX 74 44 76 45 27 46 79 47 73 48 72 49 28 51 60 52 40 53 59 54
REMARK SMILES IDX 41 55 44 56 58 57 77 58 42 59 43 60 57 62 78 63 45 64 29 65
REMARK SMILES IDX 30 66 38 67 31 68 33 69 39 70 32 71 34 72 35 73 36 74 37 75
REMARK SMILES IDX 61 76 62 77 70 78 63 79 65 80 71 81 64 82 66 83 67 84 68 85
REMARK SMILES IDX 69 86 46 87 47 88 55 89 48 90 50 91 56 92 49 93 51 94 52 95
REMARK SMILES IDX 53 96 54 97
REMARK H PARENT 9 12 76 50 44 61
REMARK Flexibility Score: inf
ROOT
ATOM      1  C   UNL     1       1.946   3.663  -7.736  1.00  0.00     0.274 C 
ENDROOT
BRANCH   1   2
ATOM      2  C   UNL     1       1.028   3.914  -6.463  1.00  0.00     0.273 C 
BRANCH   2   3
ATOM      3  O   UNL     1       0.580   2.712  -5.764  1.00  0.00    -0.473 OA
BRANCH   3   4
ATOM      4  C   UNL     1      -0.569   2.203  -6.245  1.00  0.00     0.229 C 
ATOM      5  C   UNL     1      -0.815   0.175  -4.628  1.00  0.00     0.029 C 
ATOM      6  C   UNL     1      -0.909   0.834  -5.810  1.00  0.00     0.103 C 
ATOM      7  C   UNL     1      -1.617   0.089  -6.901  1.00  0.00     0.262 C 
ATOM      8  O   UNL     1      -1.819  -1.121  -6.889  1.00  0.00    -0.269 OA
ATOM      9  N   UNL     1      -2.131   0.884  -7.895  1.00  0.00    -0.297 N 
ATOM     10  N   UNL     1      -1.202   2.883  -7.135  1.00  0.00    -0.184 NA
ATOM     11  C   UNL     1      -2.057   2.247  -7.966  1.00  0.00     0.203 C 
ATOM     12  H   UNL     1      -2.599   0.427  -8.630  1.00  0.00     0.172 HD
ATOM     13  S   UNL     1      -2.920   3.049  -9.156  1.00  0.00    -0.038 S 
BRANCH   5  14
ATOM     14  C   UNL     1      -0.373   0.522  -3.298  1.00  0.00    -0.003 A 
ATOM     15  C   UNL     1       0.968  -0.319   0.104  1.00  0.00     0.065 C 
ATOM     16  C   UNL     1       0.461   0.242  -1.187  1.00  0.00     0.020 A 
ATOM     17  C   UNL     1       0.075  -0.430  -2.334  1.00  0.00     0.031 A 
ATOM     18  N   UNL     1       0.276   1.598  -1.425  1.00  0.00    -0.318 N 
ATOM     19  C   UNL     1      -0.417   1.742  -2.640  1.00  0.00     0.027 A 
ATOM     20  C   UNL     1      -0.952   3.047  -3.120  1.00  0.00     0.065 C 
BRANCH  18  21
ATOM     21  C   UNL     1       0.857   2.671  -0.682  1.00  0.00     0.046 A 
ATOM     22  C   UNL     1       0.115   3.825  -0.411  1.00  0.00     0.026 A 
ATOM     23  C   UNL     1       2.235   2.651  -0.418  1.00  0.00     0.036 A 
ATOM     24  C   UNL     1       0.758   5.008  -0.056  1.00  0.00     0.003 A 
ATOM     25  C   UNL     1       2.875   3.833  -0.013  1.00  0.00    -0.001 A 
ATOM     26  C   UNL     1       2.138   5.019   0.114  1.00  0.00     0.010 A 
BRANCH  25  27
ATOM     27  C   UNL     1       4.327   3.896   0.249  1.00  0.00     0.072 C 
ATOM     28  O   UNL     1       4.954   4.910   0.558  1.00  0.00    -0.545 OA
ATOM     29  O   UNL     1       4.939   2.708   0.163  1.00  0.00    -0.545 OA
ENDBRANCH  25  27
ENDBRANCH  18  21
ENDBRANCH   5  14
ENDBRANCH   3   4
ENDBRANCH   2   3
ENDBRANCH   1   2
BRANCH   1  30
ATOM     30  O   UNL     1       1.498   3.526  -9.203  1.00  0.00    -0.458 OA
BRANCH  30  31
ATOM     31  C   UNL     1       1.235   2.317  -9.878  1.00  0.00     0.338 C 
ATOM     32  O   UNL     1       0.895   1.328  -9.233  1.00  0.00    -0.246 OA
BRANCH  31  33
ATOM     33  C   UNL     1       1.400   2.224 -11.516  1.00  0.00     0.060 A 
ATOM     34  C   UNL     1       0.721   1.436 -12.525  1.00  0.00     0.016 A 
ATOM     35  C   UNL     1       2.366   2.905 -12.169  1.00  0.00     0.016 A 
ATOM     36  C   UNL     1       0.946   1.392 -14.168  1.00  0.00     0.010 A 
ATOM     37  C   UNL     1       2.499   2.831 -13.690  1.00  0.00     0.010 A 
ATOM     38  C   UNL     1       1.902   2.128 -14.949  1.00  0.00    -0.014 A 
BRANCH  38  39
ATOM     39  C   UNL     1       1.668   2.885 -16.716  1.00  0.00     0.031 A 
ATOM     40  C   UNL     1       0.460   3.670 -16.311  1.00  0.00     0.074 A 
ATOM     41  C   UNL     1       2.233   3.428 -18.140  1.00  0.00     0.049 A 
ATOM     42  N   UNL     1       0.561   3.995 -15.035  1.00  0.00    -0.248 NA
ATOM     43  C   UNL     1      -0.113   4.796 -17.014  1.00  0.00     0.031 C 
ATOM     44  C   UNL     1       3.562   3.217 -18.820  1.00  0.00     0.029 A 
ATOM     45  N   UNL     1       1.734   4.465 -19.390  1.00  0.00    -0.354 N 
ATOM     46  C   UNL     1       1.401   5.063 -15.236  1.00  0.00     0.074 A 
ATOM     47  C   UNL     1       0.375   5.704 -16.133  1.00  0.00     0.031 C 
ATOM     48  C   UNL     1       3.914   4.021 -19.891  1.00  0.00     0.029 A 
ATOM     49  C   UNL     1       2.904   5.026 -20.393  1.00  0.00     0.049 A 
ATOM     50  H   UNL     1       0.789   4.716 -19.507  1.00  0.00     0.167 HD
ATOM     51  C   UNL     1       2.846   5.128 -15.339  1.00  0.00     0.034 A 
ATOM     52  C   UNL     1       3.279   6.037 -21.521  1.00  0.00     0.034 A 
ATOM     53  C   UNL     1       3.208   6.484 -15.636  1.00  0.00     0.049 A 
ATOM     54  C   UNL     1       4.157   6.859 -20.647  1.00  0.00     0.074 A 
ATOM     55  C   UNL     1       2.548   7.373 -16.457  1.00  0.00     0.029 A 
ATOM     56  N   UNL     1       4.520   6.722 -15.989  1.00  0.00    -0.354 N 
ATOM     57  N   UNL     1       5.431   6.799 -20.431  1.00  0.00    -0.248 NA
ATOM     58  C   UNL     1       3.437   7.973 -19.995  1.00  0.00     0.031 C 
ATOM     59  C   UNL     1       3.087   6.773 -17.602  1.00  0.00     0.029 A 
ATOM     60  C   UNL     1       4.462   6.660 -17.349  1.00  0.00     0.049 A 
ATOM     61  H   UNL     1       5.297   6.891 -15.409  1.00  0.00     0.167 HD
ATOM     62  C   UNL     1       5.493   7.492 -19.230  1.00  0.00     0.074 A 
ATOM     63  C   UNL     1       4.419   8.482 -19.258  1.00  0.00     0.031 C 
ATOM     64  C   UNL     1       5.646   6.669 -18.146  1.00  0.00     0.034 A 
BRANCH  51  65
ATOM     65  C   UNL     1       4.262   4.019 -15.256  1.00  0.00     0.023 A 
ATOM     66  C   UNL     1       4.385   2.650 -15.716  1.00  0.00     0.012 A 
ATOM     67  C   UNL     1       5.326   4.327 -14.361  1.00  0.00     0.148 A 
ATOM     68  C   UNL     1       5.192   1.640 -15.125  1.00  0.00     0.002 A 
ATOM     69  C   UNL     1       6.226   3.344 -13.864  1.00  0.00     0.091 A 
ATOM     70  F   UNL     1       5.404   5.577 -13.889  1.00  0.00    -0.205 F 
ATOM     71  C   UNL     1       6.088   1.987 -14.153  1.00  0.00     0.022 A 
BRANCH  69  72
ATOM     72  S   UNL     1       7.622   3.761 -12.818  1.00  0.00     0.127 S 
ATOM     73  O   UNL     1       7.144   3.352 -11.497  1.00  0.00    -0.237 OA
ATOM     74  O   UNL     1       8.705   2.937 -13.351  1.00  0.00    -0.237 OA
ATOM     75  O   UNL     1       7.811   5.196 -12.999  1.00  0.00    -0.744 OA
ENDBRANCH  69  72
ENDBRANCH  51  65
BRANCH  52  76
ATOM     76  C   UNL     1       3.260   7.317 -22.822  1.00  0.00     0.023 A 
ATOM     77  C   UNL     1       3.563   7.012 -24.188  1.00  0.00     0.012 A 
ATOM     78  C   UNL     1       3.389   8.826 -22.712  1.00  0.00     0.148 A 
ATOM     79  C   UNL     1       3.762   8.021 -25.256  1.00  0.00     0.002 A 
ATOM     80  C   UNL     1       3.467   9.805 -23.763  1.00  0.00     0.091 A 
ATOM     81  F   UNL     1       3.705   9.422 -21.569  1.00  0.00    -0.205 F 
ATOM     82  C   UNL     1       3.657   9.400 -25.059  1.00  0.00     0.022 A 
BRANCH  80  83
ATOM     83  S   UNL     1       3.411  11.634 -23.447  1.00  0.00     0.127 S 
ATOM     84  O   UNL     1       4.360  12.182 -24.419  1.00  0.00    -0.237 OA
ATOM     85  O   UNL     1       2.011  11.936 -23.747  1.00  0.00    -0.237 OA
ATOM     86  O   UNL     1       3.799  11.838 -22.057  1.00  0.00    -0.744 OA
ENDBRANCH  80  83
ENDBRANCH  52  76
BRANCH  64  87
ATOM     87  C   UNL     1       6.793   5.694 -18.245  1.00  0.00     0.023 A 
ATOM     88  C   UNL     1       8.021   6.241 -18.653  1.00  0.00     0.012 A 
ATOM     89  C   UNL     1       6.749   4.294 -18.107  1.00  0.00     0.148 A 
ATOM     90  C   UNL     1       9.120   5.439 -18.958  1.00  0.00     0.002 A 
ATOM     91  C   UNL     1       7.807   3.473 -18.511  1.00  0.00     0.091 A 
ATOM     92  F   UNL     1       5.681   3.751 -17.550  1.00  0.00    -0.205 F 
ATOM     93  C   UNL     1       9.005   4.056 -18.918  1.00  0.00     0.022 A 
BRANCH  91  94
ATOM     94  S   UNL     1       7.642   1.685 -18.786  1.00  0.00     0.127 S 
ATOM     95  O   UNL     1       8.350   1.496 -20.057  1.00  0.00    -0.237 OA
ATOM     96  O   UNL     1       8.312   1.093 -17.635  1.00  0.00    -0.237 OA
ATOM     97  O   UNL     1       6.213   1.411 -18.888  1.00  0.00    -0.744 OA
ENDBRANCH  91  94
ENDBRANCH  64  87
ENDBRANCH  38  39
ENDBRANCH  31  33
ENDBRANCH  30  31
ENDBRANCH   1  30
TORSDOF 16
