REMARK SMILES COc1ccc(CCn2cc(C(=O)OCCOC(=O)c3ccc(-c4c5nc(c(-c6cccc(S(=O)(=O)[O-])c6F)c6ccc([nH]6)c(-c6cccc(S(=O)(=O)[O-])c6F)c6nc(c(-c7cccc(S(=O)(=O)[O-])c7F)c7ccc4[nH]7)C=C6)C=C5)cc3)ccc2=O)cc1OC
REMARK SMILES IDX 15 1 14 2 12 3 13 4 11 5 9 6 10 7 85 8 84 9 86 10 83 11 8 12
REMARK SMILES IDX 7 13 6 14 3 15 4 16 88 17 5 18 87 19 2 20 1 21 89 22 90 23
REMARK SMILES IDX 16 24 17 25 18 26 19 27 20 28 21 29 82 30 22 31 81 32 23 33
REMARK SMILES IDX 24 34 25 35 75 36 26 37 80 38 74 39 76 40 27 41 79 42 73 43
REMARK SMILES IDX 72 44 28 46 60 47 40 48 59 49 41 50 44 51 58 52 77 53 42 54
REMARK SMILES IDX 43 55 57 57 78 58 45 59 29 60 30 61 38 62 31 63 33 64 39 65
REMARK SMILES IDX 32 66 34 67 35 68 36 69 37 70 61 71 62 72 70 73 63 74 65 75
REMARK SMILES IDX 71 76 64 77 66 78 67 79 68 80 69 81 46 82 47 83 55 84 48 85
REMARK SMILES IDX 50 86 56 87 49 88 51 89 52 90 53 91 54 92
REMARK H PARENT 76 45 44 56
REMARK Flexibility Score: inf
ROOT
ATOM      1  C   UNL     1      -1.857   2.788  -2.854  1.00  0.00     0.275 C 
ENDROOT
BRANCH   1   2
ATOM      2  O   UNL     1      -1.305   4.003  -2.303  1.00  0.00    -0.458 OA
BRANCH   2   3
ATOM      3  C   UNL     1      -1.226   5.077  -3.138  1.00  0.00     0.339 C 
ATOM      4  O   UNL     1      -1.616   5.132  -4.284  1.00  0.00    -0.246 OA
BRANCH   3   5
ATOM      5  C   UNL     1      -0.633   6.235  -2.417  1.00  0.00     0.076 A 
ATOM      6  N   UNL     1       1.212   7.146  -1.225  1.00  0.00    -0.314 N 
ATOM      7  C   UNL     1       0.624   6.128  -1.966  1.00  0.00     0.104 A 
ATOM      8  C   UNL     1       0.561   8.350  -0.957  1.00  0.00     0.250 A 
ATOM      9  C   UNL     1      -0.807   8.482  -1.516  1.00  0.00     0.072 A 
ATOM     10  O   UNL     1       1.032   9.267  -0.289  1.00  0.00    -0.269 OA
ATOM     11  C   UNL     1      -1.352   7.470  -2.203  1.00  0.00     0.023 A 
BRANCH   6  12
ATOM     12  C   UNL     1       2.500   6.901  -0.578  1.00  0.00     0.130 C 
BRANCH  12  13
ATOM     13  C   UNL     1       2.329   6.200   0.785  1.00  0.00     0.057 C 
BRANCH  13  14
ATOM     14  C   UNL     1       1.971   4.737   0.627  1.00  0.00    -0.042 A 
ATOM     15  C   UNL     1       1.297   2.089  -0.045  1.00  0.00     0.160 A 
ATOM     16  C   UNL     1       0.306   2.991   0.361  1.00  0.00     0.051 A 
ATOM     17  C   UNL     1       2.637   2.499  -0.068  1.00  0.00     0.160 A 
ATOM     18  C   UNL     1       0.644   4.301   0.714  1.00  0.00     0.008 A 
ATOM     19  C   UNL     1       2.961   3.820   0.255  1.00  0.00     0.054 A 
BRANCH  15  20
ATOM     20  O   UNL     1       0.974   0.859  -0.552  1.00  0.00    -0.493 OA
ATOM     21  C   UNL     1       0.061   0.108   0.241  1.00  0.00     0.278 C 
ENDBRANCH  15  20
BRANCH  17  22
ATOM     22  O   UNL     1       3.718   1.741  -0.439  1.00  0.00    -0.493 OA
ATOM     23  C   UNL     1       3.642   0.360  -0.105  1.00  0.00     0.278 C 
ENDBRANCH  17  22
ENDBRANCH  13  14
ENDBRANCH  12  13
ENDBRANCH   6  12
ENDBRANCH   3   5
ENDBRANCH   2   3
ENDBRANCH   1   2
BRANCH   1  24
ATOM     24  C   UNL     1      -3.185   2.438  -2.182  1.00  0.00     0.275 C 
BRANCH  24  25
ATOM     25  O   UNL     1      -4.185   3.397  -2.565  1.00  0.00    -0.458 OA
BRANCH  25  26
ATOM     26  C   UNL     1      -4.551   4.274  -1.605  1.00  0.00     0.338 C 
ATOM     27  O   UNL     1      -4.208   4.284  -0.434  1.00  0.00    -0.246 OA
BRANCH  26  28
ATOM     28  C   UNL     1      -5.347   5.346  -2.216  1.00  0.00     0.060 A 
ATOM     29  C   UNL     1      -4.669   6.294  -2.973  1.00  0.00     0.016 A 
ATOM     30  C   UNL     1      -6.701   5.508  -1.944  1.00  0.00     0.016 A 
ATOM     31  C   UNL     1      -5.296   7.475  -3.345  1.00  0.00     0.010 A 
ATOM     32  C   UNL     1      -7.369   6.634  -2.446  1.00  0.00     0.010 A 
ATOM     33  C   UNL     1      -6.667   7.653  -3.119  1.00  0.00    -0.014 A 
BRANCH  33  34
ATOM     34  C   UNL     1      -7.343   8.893  -3.600  1.00  0.00     0.031 A 
ATOM     35  C   UNL     1      -8.132   9.758  -2.651  1.00  0.00     0.074 A 
ATOM     36  C   UNL     1      -7.245   9.251  -4.899  1.00  0.00     0.049 A 
ATOM     37  N   UNL     1      -8.904  10.781  -2.916  1.00  0.00    -0.248 NA
ATOM     38  C   UNL     1      -8.060   9.422  -1.220  1.00  0.00     0.031 C 
ATOM     39  C   UNL     1      -6.505   8.514  -5.927  1.00  0.00     0.029 A 
ATOM     40  N   UNL     1      -7.769  10.323  -5.581  1.00  0.00    -0.354 N 
ATOM     41  C   UNL     1      -9.472  11.157  -1.704  1.00  0.00     0.074 A 
ATOM     42  C   UNL     1      -8.944  10.261  -0.697  1.00  0.00     0.031 C 
ATOM     43  C   UNL     1      -6.585   9.172  -7.091  1.00  0.00     0.029 A 
ATOM     44  C   UNL     1      -7.466  10.319  -6.924  1.00  0.00     0.049 A 
ATOM     45  H   UNL     1      -8.308  11.025  -5.151  1.00  0.00     0.167 HD
ATOM     46  C   UNL     1     -10.348  12.160  -1.451  1.00  0.00     0.034 A 
ATOM     47  C   UNL     1      -7.887  11.112  -7.928  1.00  0.00     0.034 A 
ATOM     48  C   UNL     1     -10.809  13.097  -2.442  1.00  0.00     0.049 A 
ATOM     49  C   UNL     1      -8.851  12.220  -7.621  1.00  0.00     0.074 A 
ATOM     50  C   UNL     1     -11.653  14.181  -2.274  1.00  0.00     0.029 A 
ATOM     51  N   UNL     1     -10.459  13.069  -3.784  1.00  0.00    -0.354 N 
ATOM     52  N   UNL     1      -9.341  12.585  -6.461  1.00  0.00    -0.248 NA
ATOM     53  C   UNL     1      -9.320  13.025  -8.756  1.00  0.00     0.031 C 
ATOM     54  C   UNL     1     -11.828  14.797  -3.518  1.00  0.00     0.029 A 
ATOM     55  C   UNL     1     -11.078  14.109  -4.458  1.00  0.00     0.049 A 
ATOM     56  H   UNL     1      -9.858  12.407  -4.197  1.00  0.00     0.167 HD
ATOM     57  C   UNL     1     -10.171  13.667  -6.724  1.00  0.00     0.074 A 
ATOM     58  C   UNL     1     -10.087  13.921  -8.149  1.00  0.00     0.031 C 
ATOM     59  C   UNL     1     -10.954  14.370  -5.869  1.00  0.00     0.034 A 
BRANCH  46  60
ATOM     60  C   UNL     1     -10.858  12.310  -0.041  1.00  0.00     0.023 A 
ATOM     61  C   UNL     1     -10.018  12.833   0.962  1.00  0.00     0.012 A 
ATOM     62  C   UNL     1     -12.191  11.979   0.280  1.00  0.00     0.148 A 
ATOM     63  C   UNL     1     -10.484  12.995   2.267  1.00  0.00     0.002 A 
ATOM     64  C   UNL     1     -12.661  12.181   1.573  1.00  0.00     0.091 A 
ATOM     65  F   UNL     1     -12.971  11.461  -0.680  1.00  0.00    -0.205 F 
ATOM     66  C   UNL     1     -11.806  12.679   2.570  1.00  0.00     0.022 A 
BRANCH  64  67
ATOM     67  S   UNL     1     -14.369  11.873   2.040  1.00  0.00     0.127 S 
ATOM     68  O   UNL     1     -14.246  10.635   2.809  1.00  0.00    -0.237 OA
ATOM     69  O   UNL     1     -14.692  13.056   2.838  1.00  0.00    -0.237 OA
ATOM     70  O   UNL     1     -15.110  11.765   0.791  1.00  0.00    -0.744 OA
ENDBRANCH  64  67
ENDBRANCH  46  60
BRANCH  47  71
ATOM     71  C   UNL     1      -7.394  10.873  -9.316  1.00  0.00     0.023 A 
ATOM     72  C   UNL     1      -6.531  11.809  -9.916  1.00  0.00     0.012 A 
ATOM     73  C   UNL     1      -7.722   9.694 -10.016  1.00  0.00     0.148 A 
ATOM     74  C   UNL     1      -6.011  11.580 -11.191  1.00  0.00     0.002 A 
ATOM     75  C   UNL     1      -7.149   9.442 -11.256  1.00  0.00     0.091 A 
ATOM     76  F   UNL     1      -8.567   8.827  -9.440  1.00  0.00    -0.205 F 
ATOM     77  C   UNL     1      -6.306  10.390 -11.853  1.00  0.00     0.022 A 
BRANCH  75  78
ATOM     78  S   UNL     1      -7.351   7.867 -12.099  1.00  0.00     0.127 S 
ATOM     79  O   UNL     1      -8.271   8.220 -13.177  1.00  0.00    -0.237 OA
ATOM     80  O   UNL     1      -5.983   7.573 -12.527  1.00  0.00    -0.237 OA
ATOM     81  O   UNL     1      -7.870   6.951 -11.093  1.00  0.00    -0.744 OA
ENDBRANCH  75  78
ENDBRANCH  47  71
BRANCH  59  82
ATOM     82  C   UNL     1     -11.779  15.485  -6.452  1.00  0.00     0.023 A 
ATOM     83  C   UNL     1     -12.920  15.176  -7.218  1.00  0.00     0.012 A 
ATOM     84  C   UNL     1     -11.459  16.832  -6.195  1.00  0.00     0.148 A 
ATOM     85  C   UNL     1     -13.715  16.193  -7.745  1.00  0.00     0.002 A 
ATOM     86  C   UNL     1     -12.281  17.839  -6.687  1.00  0.00     0.091 A 
ATOM     87  F   UNL     1     -10.356  17.104  -5.482  1.00  0.00    -0.205 F 
ATOM     88  C   UNL     1     -13.402  17.522  -7.471  1.00  0.00     0.022 A 
BRANCH  86  89
ATOM     89  S   UNL     1     -12.005  19.574  -6.312  1.00  0.00     0.127 S 
ATOM     90  O   UNL     1     -11.502  20.078  -7.588  1.00  0.00    -0.237 OA
ATOM     91  O   UNL     1     -13.350  20.034  -5.961  1.00  0.00    -0.237 OA
ATOM     92  O   UNL     1     -11.054  19.598  -5.209  1.00  0.00    -0.744 OA
ENDBRANCH  86  89
ENDBRANCH  59  82
ENDBRANCH  33  34
ENDBRANCH  26  28
ENDBRANCH  25  26
ENDBRANCH  24  25
ENDBRANCH   1  24
TORSDOF 19
