REMARK SMILES O=C(OCCOC(=O)[C@H]1[C@@H](C(=O)NN2CCOCC2)[C@H]2C=C[C@@H]1CC2)c1ccc(-c2c3nc(c(-c4cccc(S(=O)(=O)[O-])c4F)c4ccc([nH]4)c(-c4cccc(S(=O)(=O)[O-])c4F)c4nc(c(-c5cccc(S(=O)(=O)[O-])c5F)c5ccc2[nH]5)C=C4)C=C3)cc1
REMARK SMILES IDX 4 1 3 2 2 3 1 4 26 5 27 6 88 7 28 8 87 9 29 10 30 11 31 12
REMARK SMILES IDX 81 13 32 14 86 15 80 16 82 17 33 18 85 19 79 20 78 21 34 23
REMARK SMILES IDX 66 24 46 25 65 26 47 27 50 28 64 29 83 30 48 31 49 32 63 34
REMARK SMILES IDX 84 35 51 36 35 37 36 38 44 39 37 40 39 41 45 42 38 43 40 44
REMARK SMILES IDX 41 45 42 46 43 47 67 48 68 49 76 50 69 51 71 52 77 53 70 54
REMARK SMILES IDX 72 55 73 56 74 57 75 58 52 59 53 60 61 61 54 62 56 63 62 64
REMARK SMILES IDX 55 65 57 66 58 67 59 68 60 69 5 70 6 71 7 72 8 73 9 74 10 75
REMARK SMILES IDX 23 76 20 77 22 78 24 79 21 80 25 81 11 82 12 83 13 84 14 86
REMARK SMILES IDX 15 87 19 88 16 89 18 90 17 91
REMARK H PARENT 82 22 50 33 13 85
REMARK Flexibility Score: inf
ROOT
ATOM      1  C   UNL     1       3.604  -2.630  -6.976  1.00  0.00     0.275 C 
ENDROOT
BRANCH   1   2
ATOM      2  O   UNL     1       4.621  -1.613  -6.966  1.00  0.00    -0.458 OA
BRANCH   2   3
ATOM      3  C   UNL     1       4.490  -0.276  -6.808  1.00  0.00     0.338 C 
ATOM      4  O   UNL     1       5.498   0.401  -6.611  1.00  0.00    -0.246 OA
BRANCH   3   5
ATOM      5  C   UNL     1       3.161   0.392  -6.691  1.00  0.00     0.060 A 
ATOM      6  C   UNL     1       1.971  -0.257  -6.585  1.00  0.00     0.016 A 
ATOM      7  C   UNL     1       3.158   1.686  -6.240  1.00  0.00     0.016 A 
ATOM      8  C   UNL     1       1.185   0.007  -5.451  1.00  0.00     0.010 A 
ATOM      9  C   UNL     1       2.226   2.076  -5.243  1.00  0.00     0.010 A 
ATOM     10  C   UNL     1       1.222   1.199  -4.360  1.00  0.00    -0.014 A 
BRANCH  10  11
ATOM     11  C   UNL     1      -0.406   1.751  -3.039  1.00  0.00     0.031 A 
ATOM     12  C   UNL     1      -1.718   3.043  -3.521  1.00  0.00     0.074 A 
ATOM     13  C   UNL     1      -1.508   1.147  -2.190  1.00  0.00     0.049 A 
ATOM     14  N   UNL     1      -2.272   4.068  -2.876  1.00  0.00    -0.248 NA
ATOM     15  C   UNL     1      -2.239   3.089  -4.977  1.00  0.00     0.031 C 
ATOM     16  C   UNL     1      -1.721  -0.274  -1.726  1.00  0.00     0.029 A 
ATOM     17  N   UNL     1      -2.499   1.773  -1.372  1.00  0.00    -0.354 N 
ATOM     18  C   UNL     1      -2.746   4.936  -3.904  1.00  0.00     0.074 A 
ATOM     19  C   UNL     1      -2.224   4.405  -5.120  1.00  0.00     0.031 C 
ATOM     20  C   UNL     1      -2.416  -0.313  -0.583  1.00  0.00     0.029 A 
ATOM     21  C   UNL     1      -2.963   0.994  -0.313  1.00  0.00     0.049 A 
ATOM     22  H   UNL     1      -2.829   2.685  -1.543  1.00  0.00     0.167 HD
ATOM     23  C   UNL     1      -3.752   5.843  -4.080  1.00  0.00     0.034 A 
ATOM     24  C   UNL     1      -3.776   1.174   0.757  1.00  0.00     0.034 A 
ATOM     25  C   UNL     1      -4.897   5.941  -3.236  1.00  0.00     0.049 A 
ATOM     26  C   UNL     1      -4.809   2.253   0.762  1.00  0.00     0.074 A 
ATOM     27  C   UNL     1      -6.021   6.736  -3.392  1.00  0.00     0.029 A 
ATOM     28  N   UNL     1      -5.129   5.110  -2.167  1.00  0.00    -0.354 N 
ATOM     29  N   UNL     1      -5.016   3.175  -0.138  1.00  0.00    -0.248 NA
ATOM     30  C   UNL     1      -5.825   2.216   1.830  1.00  0.00     0.031 C 
ATOM     31  C   UNL     1      -6.905   6.438  -2.355  1.00  0.00     0.029 A 
ATOM     32  C   UNL     1      -6.350   5.417  -1.605  1.00  0.00     0.049 A 
ATOM     33  H   UNL     1      -4.519   4.404  -1.852  1.00  0.00     0.167 HD
ATOM     34  C   UNL     1      -6.219   3.774   0.209  1.00  0.00     0.074 A 
ATOM     35  C   UNL     1      -6.694   3.127   1.409  1.00  0.00     0.031 C 
ATOM     36  C   UNL     1      -6.872   4.759  -0.446  1.00  0.00     0.034 A 
BRANCH  23  37
ATOM     37  C   UNL     1      -3.728   6.766  -5.313  1.00  0.00     0.023 A 
ATOM     38  C   UNL     1      -3.925   6.321  -6.643  1.00  0.00     0.012 A 
ATOM     39  C   UNL     1      -3.501   8.142  -5.104  1.00  0.00     0.148 A 
ATOM     40  C   UNL     1      -3.734   7.183  -7.730  1.00  0.00     0.002 A 
ATOM     41  C   UNL     1      -3.403   9.012  -6.186  1.00  0.00     0.091 A 
ATOM     42  F   UNL     1      -3.376   8.579  -3.844  1.00  0.00    -0.205 F 
ATOM     43  C   UNL     1      -3.475   8.529  -7.501  1.00  0.00     0.022 A 
BRANCH  41  44
ATOM     44  S   UNL     1      -3.214  10.785  -5.980  1.00  0.00     0.127 S 
ATOM     45  O   UNL     1      -1.835  10.988  -6.423  1.00  0.00    -0.237 OA
ATOM     46  O   UNL     1      -4.230  11.310  -6.893  1.00  0.00    -0.237 OA
ATOM     47  O   UNL     1      -3.467  11.056  -4.572  1.00  0.00    -0.744 OA
ENDBRANCH  41  44
ENDBRANCH  23  37
BRANCH  24  48
ATOM     48  C   UNL     1      -3.703   0.194   1.897  1.00  0.00     0.023 A 
ATOM     49  C   UNL     1      -4.665  -0.819   2.083  1.00  0.00     0.012 A 
ATOM     50  C   UNL     1      -2.591   0.247   2.766  1.00  0.00     0.148 A 
ATOM     51  C   UNL     1      -4.518  -1.758   3.111  1.00  0.00     0.002 A 
ATOM     52  C   UNL     1      -2.432  -0.711   3.761  1.00  0.00     0.091 A 
ATOM     53  F   UNL     1      -1.700   1.233   2.588  1.00  0.00    -0.205 F 
ATOM     54  C   UNL     1      -3.398  -1.712   3.941  1.00  0.00     0.022 A 
BRANCH  52  55
ATOM     55  S   UNL     1      -0.970  -0.791   4.804  1.00  0.00     0.127 S 
ATOM     56  O   UNL     1      -1.528  -0.509   6.125  1.00  0.00    -0.237 OA
ATOM     57  O   UNL     1      -0.535  -2.173   4.601  1.00  0.00    -0.237 OA
ATOM     58  O   UNL     1      -0.054   0.214   4.282  1.00  0.00    -0.744 OA
ENDBRANCH  52  55
ENDBRANCH  24  48
BRANCH  36  59
ATOM     59  C   UNL     1      -8.202   5.214   0.060  1.00  0.00     0.023 A 
ATOM     60  C   UNL     1      -8.271   6.010   1.216  1.00  0.00     0.012 A 
ATOM     61  C   UNL     1      -9.360   4.981  -0.707  1.00  0.00     0.148 A 
ATOM     62  C   UNL     1      -9.486   6.562   1.612  1.00  0.00     0.002 A 
ATOM     63  C   UNL     1     -10.554   5.581  -0.338  1.00  0.00     0.091 A 
ATOM     64  F   UNL     1      -9.260   4.208  -1.798  1.00  0.00    -0.205 F 
ATOM     65  C   UNL     1     -10.621   6.363   0.827  1.00  0.00     0.022 A 
BRANCH  63  66
ATOM     66  S   UNL     1     -12.032   5.479  -1.351  1.00  0.00     0.127 S 
ATOM     67  O   UNL     1     -12.931   4.715  -0.487  1.00  0.00    -0.237 OA
ATOM     68  O   UNL     1     -12.390   6.888  -1.512  1.00  0.00    -0.237 OA
ATOM     69  O   UNL     1     -11.637   4.806  -2.581  1.00  0.00    -0.744 OA
ENDBRANCH  63  66
ENDBRANCH  36  59
ENDBRANCH  10  11
ENDBRANCH   3   5
ENDBRANCH   2   3
ENDBRANCH   1   2
BRANCH   1  70
ATOM     70  C   UNL     1       3.116  -3.089  -5.577  1.00  0.00     0.274 C 
BRANCH  70  71
ATOM     71  O   UNL     1       2.422  -2.132  -4.722  1.00  0.00    -0.462 OA
BRANCH  71  72
ATOM     72  C   UNL     1       3.142  -1.265  -3.942  1.00  0.00     0.310 C 
ATOM     73  O   UNL     1       4.359  -1.356  -3.832  1.00  0.00    -0.252 OA
BRANCH  72  74
ATOM     74  C   UNL     1       2.282  -0.228  -3.125  1.00  0.00     0.119 C 
ATOM     75  C   UNL     1       2.863   1.517  -2.910  1.00  0.00     0.101 C 
ATOM     76  C   UNL     1       0.374  -0.129  -3.230  1.00  0.00     0.026 C 
ATOM     77  C   UNL     1       1.446   2.840  -3.138  1.00  0.00     0.025 C 
ATOM     78  C   UNL     1      -0.607   1.009  -4.716  1.00  0.00    -0.027 C 
ATOM     79  C   UNL     1       0.802   0.676  -1.507  1.00  0.00     0.009 C 
ATOM     80  C   UNL     1       0.100   2.640  -4.687  1.00  0.00    -0.027 C 
ATOM     81  C   UNL     1       1.077   2.393  -1.546  1.00  0.00     0.009 C 
BRANCH  75  82
ATOM     82  C   UNL     1       4.229   2.020  -3.458  1.00  0.00     0.238 C 
ATOM     83  O   UNL     1       4.367   3.120  -3.998  1.00  0.00    -0.273 OA
ATOM     84  N   UNL     1       5.341   1.266  -3.162  1.00  0.00    -0.288 N 
ATOM     85  H   UNL     1       5.497   0.412  -3.626  1.00  0.00     0.185 HD
BRANCH  84  86
ATOM     86  N   UNL     1       6.274   1.727  -2.173  1.00  0.00    -0.217 NA
ATOM     87  C   UNL     1       5.768   1.588  -0.796  1.00  0.00     0.136 C 
ATOM     88  C   UNL     1       6.836   3.080  -2.404  1.00  0.00     0.136 C 
ATOM     89  C   UNL     1       4.991   2.811  -0.284  1.00  0.00     0.177 C 
ATOM     90  C   UNL     1       6.044   4.250  -1.787  1.00  0.00     0.177 C 
ATOM     91  O   UNL     1       5.778   4.002  -0.399  1.00  0.00    -0.379 OA
ENDBRANCH  84  86
ENDBRANCH  75  82
ENDBRANCH  72  74
ENDBRANCH  71  72
ENDBRANCH  70  71
ENDBRANCH   1  70
TORSDOF 16
