REMARK SMILES CCc1cc(OC(F)(F)F)cc2c1O[C@@H](C(F)(F)F)C(C(=O)OCCOC(=O)c1ccc(-c3c4nc(c(-c5cccc(S(=O)(=O)[O-])c5F)c5ccc([nH]5)c(-c5cccc(S(=O)(=O)[O-])c5F)c5nc(c(-c6cccc(S(=O)(=O)[O-])c6F)c6ccc3[nH]6)C=C5)C=C4)cc1)=C2
REMARK SMILES IDX 25 1 24 2 23 3 21 4 22 5 20 6 3 7 4 8 13 9 5 10 12 11 14 12
REMARK SMILES IDX 11 13 92 14 15 15 2 16 1 17 6 18 7 19 8 20 9 21 10 22 16 23
REMARK SMILES IDX 17 24 18 25 19 26 26 27 27 28 28 29 29 30 30 31 91 32 31 33
REMARK SMILES IDX 90 34 32 35 33 36 34 37 84 38 35 39 89 40 83 41 85 42 36 43
REMARK SMILES IDX 88 44 82 45 81 46 37 48 69 49 49 50 68 51 50 52 53 53 67 54
REMARK SMILES IDX 86 55 51 56 52 57 66 59 87 60 54 61 38 62 39 63 47 64 40 65
REMARK SMILES IDX 42 66 48 67 41 68 43 69 44 70 45 71 46 72 70 73 71 74 79 75
REMARK SMILES IDX 72 76 74 77 80 78 73 79 75 80 76 81 77 82 78 83 55 84 56 85
REMARK SMILES IDX 64 86 57 87 59 88 65 89 58 90 60 91 61 92 62 93 63 94
REMARK H PARENT 85 47 53 58
REMARK Flexibility Score: inf
ROOT
ATOM      1  C   UNL     1       4.137   0.860  -9.872  1.00  0.00     0.275 C 
ENDROOT
BRANCH   1   2
ATOM      2  C   UNL     1       4.933   0.088  -8.815  1.00  0.00     0.275 C 
BRANCH   2   3
ATOM      3  O   UNL     1       4.118  -0.270  -7.678  1.00  0.00    -0.459 OA
BRANCH   3   4
ATOM      4  C   UNL     1       4.404   0.386  -6.524  1.00  0.00     0.338 C 
ATOM      5  O   UNL     1       5.282   1.222  -6.390  1.00  0.00    -0.246 OA
BRANCH   4   6
ATOM      6  C   UNL     1       3.498  -0.009  -5.421  1.00  0.00     0.087 C 
ATOM      7  C   UNL     1       0.991  -0.911  -2.200  1.00  0.00    -0.002 A 
ATOM      8  C   UNL     1       0.396  -2.180  -2.122  1.00  0.00     0.054 A 
ATOM      9  C   UNL     1       1.920  -0.667  -3.219  1.00  0.00     0.131 A 
ATOM     10  C   UNL     1       0.719  -3.178  -3.044  1.00  0.00     0.130 A 
ATOM     11  C   UNL     1       2.186  -1.623  -4.205  1.00  0.00     0.021 A 
ATOM     12  O   UNL     1       2.620   0.505  -3.167  1.00  0.00    -0.475 OA
ATOM     13  C   UNL     1       1.583  -2.881  -4.107  1.00  0.00     0.058 A 
ATOM     14  C   UNL     1       3.102  -1.288  -5.297  1.00  0.00     0.027 C 
ATOM     15  C   UNL     1       3.030   1.057  -4.444  1.00  0.00     0.316 C 
BRANCH   7  16
ATOM     16  C   UNL     1       0.587   0.167  -1.220  1.00  0.00     0.036 C 
ATOM     17  C   UNL     1       1.135  -0.063   0.178  1.00  0.00     0.009 C 
ENDBRANCH   7  16
BRANCH  10  18
ATOM     18  O   UNL     1       0.245  -4.460  -3.026  1.00  0.00    -0.406 OA
BRANCH  18  19
ATOM     19  C   UNL     1      -0.318  -4.922  -1.806  1.00  0.00     0.573 C 
ATOM     20  F   UNL     1       0.506  -4.698  -0.759  1.00  0.00    -0.132 F 
ATOM     21  F   UNL     1      -1.514  -4.342  -1.573  1.00  0.00    -0.132 F 
ATOM     22  F   UNL     1      -0.513  -6.258  -1.899  1.00  0.00    -0.132 F 
ENDBRANCH  18  19
ENDBRANCH  10  18
BRANCH  15  23
ATOM     23  C   UNL     1       3.962   2.247  -4.147  1.00  0.00     0.430 C 
ATOM     24  F   UNL     1       4.058   3.082  -5.206  1.00  0.00    -0.167 F 
ATOM     25  F   UNL     1       3.458   2.993  -3.130  1.00  0.00    -0.167 F 
ATOM     26  F   UNL     1       5.199   1.855  -3.775  1.00  0.00    -0.167 F 
ENDBRANCH  15  23
ENDBRANCH   4   6
ENDBRANCH   3   4
ENDBRANCH   2   3
ENDBRANCH   1   2
BRANCH   1  27
ATOM     27  O   UNL     1       3.571   2.068  -9.334  1.00  0.00    -0.458 OA
BRANCH  27  28
ATOM     28  C   UNL     1       2.279   1.959  -8.938  1.00  0.00     0.338 C 
ATOM     29  O   UNL     1       1.562   0.977  -9.059  1.00  0.00    -0.246 OA
BRANCH  28  30
ATOM     30  C   UNL     1       1.884   3.138  -8.140  1.00  0.00     0.060 A 
ATOM     31  C   UNL     1       1.202   2.881  -6.948  1.00  0.00     0.016 A 
ATOM     32  C   UNL     1       2.150   4.454  -8.526  1.00  0.00     0.016 A 
ATOM     33  C   UNL     1       0.845   3.928  -6.101  1.00  0.00     0.010 A 
ATOM     34  C   UNL     1       1.746   5.511  -7.696  1.00  0.00     0.010 A 
ATOM     35  C   UNL     1       1.104   5.252  -6.473  1.00  0.00    -0.014 A 
BRANCH  35  36
ATOM     36  C   UNL     1       0.622   6.341  -5.589  1.00  0.00     0.031 A 
ATOM     37  C   UNL     1      -0.768   6.878  -5.766  1.00  0.00     0.074 A 
ATOM     38  C   UNL     1       1.396   6.802  -4.589  1.00  0.00     0.049 A 
ATOM     39  N   UNL     1      -1.419   7.745  -5.035  1.00  0.00    -0.248 NA
ATOM     40  C   UNL     1      -1.531   6.358  -6.911  1.00  0.00     0.031 C 
ATOM     41  C   UNL     1       2.755   6.351  -4.296  1.00  0.00     0.029 A 
ATOM     42  N   UNL     1       1.144   7.758  -3.637  1.00  0.00    -0.354 N 
ATOM     43  C   UNL     1      -2.666   7.882  -5.629  1.00  0.00     0.074 A 
ATOM     44  C   UNL     1      -2.677   7.014  -6.789  1.00  0.00     0.031 C 
ATOM     45  C   UNL     1       3.227   7.047  -3.247  1.00  0.00     0.029 A 
ATOM     46  C   UNL     1       2.210   7.999  -2.803  1.00  0.00     0.049 A 
ATOM     47  H   UNL     1       0.282   8.227  -3.558  1.00  0.00     0.167 HD
ATOM     48  C   UNL     1      -3.712   8.650  -5.240  1.00  0.00     0.034 A 
ATOM     49  C   UNL     1       2.353   8.893  -1.804  1.00  0.00     0.034 A 
ATOM     50  C   UNL     1      -3.698   9.531  -4.102  1.00  0.00     0.049 A 
ATOM     51  C   UNL     1       1.188   9.774  -1.425  1.00  0.00     0.074 A 
ATOM     52  C   UNL     1      -4.720  10.334  -3.623  1.00  0.00     0.029 A 
ATOM     53  N   UNL     1      -2.604   9.751  -3.280  1.00  0.00    -0.354 N 
ATOM     54  N   UNL     1      -0.029   9.797  -1.914  1.00  0.00    -0.248 NA
ATOM     55  C   UNL     1       1.407  10.725  -0.325  1.00  0.00     0.031 C 
ATOM     56  C   UNL     1      -4.232  11.065  -2.534  1.00  0.00     0.029 A 
ATOM     57  C   UNL     1      -2.918  10.688  -2.308  1.00  0.00     0.049 A 
ATOM     58  H   UNL     1      -1.731   9.306  -3.372  1.00  0.00     0.167 HD
ATOM     59  C   UNL     1      -0.727  10.735  -1.160  1.00  0.00     0.074 A 
ATOM     60  C   UNL     1       0.195  11.236  -0.162  1.00  0.00     0.031 C 
ATOM     61  C   UNL     1      -2.011  11.155  -1.290  1.00  0.00     0.034 A 
BRANCH  48  62
ATOM     62  C   UNL     1      -4.972   8.566  -6.060  1.00  0.00     0.023 A 
ATOM     63  C   UNL     1      -5.783   7.415  -5.977  1.00  0.00     0.012 A 
ATOM     64  C   UNL     1      -5.376   9.640  -6.875  1.00  0.00     0.148 A 
ATOM     65  C   UNL     1      -6.961   7.323  -6.717  1.00  0.00     0.002 A 
ATOM     66  C   UNL     1      -6.573   9.559  -7.577  1.00  0.00     0.091 A 
ATOM     67  F   UNL     1      -4.579  10.715  -6.957  1.00  0.00    -0.205 F 
ATOM     68  C   UNL     1      -7.360   8.397  -7.508  1.00  0.00     0.022 A 
BRANCH  66  69
ATOM     69  S   UNL     1      -7.210  10.916  -8.565  1.00  0.00     0.127 S 
ATOM     70  O   UNL     1      -7.056  10.390  -9.921  1.00  0.00    -0.237 OA
ATOM     71  O   UNL     1      -8.595  11.009  -8.101  1.00  0.00    -0.237 OA
ATOM     72  O   UNL     1      -6.382  12.070  -8.245  1.00  0.00    -0.744 OA
ENDBRANCH  66  69
ENDBRANCH  48  62
BRANCH  49  73
ATOM     73  C   UNL     1       3.643   8.992  -1.064  1.00  0.00     0.023 A 
ATOM     74  C   UNL     1       3.703   8.617   0.293  1.00  0.00     0.012 A 
ATOM     75  C   UNL     1       4.806   9.478  -1.694  1.00  0.00     0.148 A 
ATOM     76  C   UNL     1       4.886   8.761   1.018  1.00  0.00     0.002 A 
ATOM     77  C   UNL     1       5.994   9.568  -0.980  1.00  0.00     0.091 A 
ATOM     78  F   UNL     1       4.723   9.849  -2.979  1.00  0.00    -0.205 F 
ATOM     79  C   UNL     1       6.033   9.228   0.381  1.00  0.00     0.022 A 
BRANCH  77  80
ATOM     80  S   UNL     1       7.545  10.056  -1.744  1.00  0.00     0.127 S 
ATOM     81  O   UNL     1       7.792  11.351  -1.116  1.00  0.00    -0.237 OA
ATOM     82  O   UNL     1       8.442   8.982  -1.316  1.00  0.00    -0.237 OA
ATOM     83  O   UNL     1       7.286  10.090  -3.177  1.00  0.00    -0.744 OA
ENDBRANCH  77  80
ENDBRANCH  49  73
BRANCH  61  84
ATOM     84  C   UNL     1      -2.511  12.189  -0.309  1.00  0.00     0.023 A 
ATOM     85  C   UNL     1      -2.014  13.507  -0.357  1.00  0.00     0.012 A 
ATOM     86  C   UNL     1      -3.503  11.865   0.640  1.00  0.00     0.148 A 
ATOM     87  C   UNL     1      -2.453  14.469   0.553  1.00  0.00     0.002 A 
ATOM     88  C   UNL     1      -3.976  12.842   1.509  1.00  0.00     0.091 A 
ATOM     89  F   UNL     1      -3.957  10.604   0.688  1.00  0.00    -0.205 F 
ATOM     90  C   UNL     1      -3.440  14.140   1.479  1.00  0.00     0.022 A 
BRANCH  88  91
ATOM     91  S   UNL     1      -5.316  12.532   2.665  1.00  0.00     0.127 S 
ATOM     92  O   UNL     1      -4.596  12.413   3.932  1.00  0.00    -0.237 OA
ATOM     93  O   UNL     1      -6.127  13.743   2.537  1.00  0.00    -0.237 OA
ATOM     94  O   UNL     1      -5.971  11.318   2.197  1.00  0.00    -0.744 OA
ENDBRANCH  88  91
ENDBRANCH  61  84
ENDBRANCH  35  36
ENDBRANCH  28  30
ENDBRANCH  27  28
ENDBRANCH   1  27
TORSDOF 18
