REMARK SMILES CCS(=O)(=O)c1ccccc1NC[C@H]1CC[C@H](C(=O)OCCOC(=O)c2ccc(-c3c4nc(c(-c5cccc(S(=O)(=O)[O-])c5F)c5ccc([nH]5)c(-c5cccc(S(=O)(=O)[O-])c5F)c5nc(c(-c6cccc(S(=O)(=O)[O-])c6F)c6ccc3[nH]6)C=C5)C=C4)cc2)O1
REMARK SMILES IDX 21 1 20 2 18 3 19 4 17 5 14 6 15 7 89 8 16 9 13 10 12 11
REMARK SMILES IDX 11 13 6 14 7 15 8 16 10 17 9 18 3 19 4 20 5 21 2 22 1 23
REMARK SMILES IDX 22 24 23 25 24 26 25 27 26 28 27 29 88 30 28 31 87 32 29 33
REMARK SMILES IDX 30 34 31 35 81 36 32 37 86 38 80 39 82 40 33 41 85 42 79 43
REMARK SMILES IDX 78 44 34 46 66 47 46 48 65 49 47 50 50 51 64 52 83 53 48 54
REMARK SMILES IDX 49 55 63 57 84 58 51 59 35 60 36 61 44 62 37 63 39 64 45 65
REMARK SMILES IDX 38 66 40 67 41 68 42 69 43 70 67 71 68 72 76 73 69 74 71 75
REMARK SMILES IDX 77 76 70 77 72 78 73 79 74 80 75 81 52 82 53 83 61 84 54 85
REMARK SMILES IDX 56 86 62 87 55 88 57 89 58 90 59 91 60 92
REMARK H PARENT 12 12 82 45 50 56
REMARK Flexibility Score: inf
ROOT
ATOM      1  C   UNL     1       5.139   9.173  -1.461  1.00  0.00     0.274 C 
ENDROOT
BRANCH   1   2
ATOM      2  O   UNL     1       4.735   8.119  -2.354  1.00  0.00    -0.460 OA
BRANCH   2   3
ATOM      3  C   UNL     1       3.419   8.107  -2.703  1.00  0.00     0.335 C 
ATOM      4  O   UNL     1       2.571   8.868  -2.250  1.00  0.00    -0.249 OA
BRANCH   3   5
ATOM      5  C   UNL     1       3.093   7.028  -3.739  1.00  0.00     0.228 C 
ATOM      6  C   UNL     1       3.310   4.716  -3.942  1.00  0.00     0.138 C 
ATOM      7  C   UNL     1       4.625   5.335  -4.383  1.00  0.00     0.037 C 
ATOM      8  O   UNL     1       2.716   5.767  -3.148  1.00  0.00    -0.361 OA
ATOM      9  C   UNL     1       4.210   6.741  -4.741  1.00  0.00     0.047 C 
BRANCH   6  10
ATOM     10  C   UNL     1       2.329   4.340  -5.081  1.00  0.00     0.145 C 
BRANCH  10  11
ATOM     11  N   UNL     1       2.990   3.761  -6.242  1.00  0.00    -0.381 N 
ATOM     12  H   UNL     1       3.192   4.370  -6.989  1.00  0.00     0.160 HD
BRANCH  11  13
ATOM     13  C   UNL     1       3.363   2.437  -6.398  1.00  0.00     0.053 A 
ATOM     14  C   UNL     1       4.123   2.010  -7.508  1.00  0.00     0.090 A 
ATOM     15  C   UNL     1       4.483   0.664  -7.686  1.00  0.00     0.022 A 
ATOM     16  C   UNL     1       4.049  -0.296  -6.780  1.00  0.00     0.001 A 
ATOM     17  C   UNL     1       2.923   1.436  -5.519  1.00  0.00     0.027 A 
ATOM     18  C   UNL     1       3.263   0.089  -5.701  1.00  0.00     0.002 A 
BRANCH  14  19
ATOM     19  S   UNL     1       4.704   3.184  -8.721  1.00  0.00     0.180 S 
ATOM     20  O   UNL     1       5.693   2.518  -9.552  1.00  0.00    -0.224 OA
ATOM     21  O   UNL     1       5.059   4.398  -8.005  1.00  0.00    -0.224 OA
BRANCH  19  22
ATOM     22  C   UNL     1       3.281   3.547  -9.726  1.00  0.00     0.139 C 
ATOM     23  C   UNL     1       2.749   2.346 -10.477  1.00  0.00     0.021 C 
ENDBRANCH  19  22
ENDBRANCH  14  19
ENDBRANCH  11  13
ENDBRANCH  10  11
ENDBRANCH   6  10
ENDBRANCH   3   5
ENDBRANCH   2   3
ENDBRANCH   1   2
BRANCH   1  24
ATOM     24  C   UNL     1       5.782  10.337  -2.220  1.00  0.00     0.275 C 
BRANCH  24  25
ATOM     25  O   UNL     1       4.827  11.036  -3.039  1.00  0.00    -0.458 OA
BRANCH  25  26
ATOM     26  C   UNL     1       4.810  10.682  -4.346  1.00  0.00     0.338 C 
ATOM     27  O   UNL     1       5.520   9.860  -4.898  1.00  0.00    -0.246 OA
BRANCH  26  28
ATOM     28  C   UNL     1       3.695  11.357  -5.027  1.00  0.00     0.060 A 
ATOM     29  C   UNL     1       2.629  10.577  -5.484  1.00  0.00     0.016 A 
ATOM     30  C   UNL     1       3.733  12.729  -5.276  1.00  0.00     0.016 A 
ATOM     31  C   UNL     1       1.584  11.172  -6.188  1.00  0.00     0.010 A 
ATOM     32  C   UNL     1       2.682  13.324  -5.980  1.00  0.00     0.010 A 
ATOM     33  C   UNL     1       1.603  12.550  -6.443  1.00  0.00    -0.014 A 
BRANCH  33  34
ATOM     34  C   UNL     1       0.490  13.186  -7.186  1.00  0.00     0.031 A 
ATOM     35  C   UNL     1       0.690  13.651  -8.600  1.00  0.00     0.074 A 
ATOM     36  C   UNL     1      -0.692  13.375  -6.570  1.00  0.00     0.049 A 
ATOM     37  N   UNL     1      -0.137  14.300  -9.378  1.00  0.00    -0.248 NA
ATOM     38  C   UNL     1       1.990  13.350  -9.219  1.00  0.00     0.031 C 
ATOM     39  C   UNL     1      -1.000  12.969  -5.198  1.00  0.00     0.029 A 
ATOM     40  N   UNL     1      -1.843  13.982  -7.007  1.00  0.00    -0.354 N 
ATOM     41  C   UNL     1       0.551  14.518 -10.565  1.00  0.00     0.074 A 
ATOM     42  C   UNL     1       1.865  13.931 -10.405  1.00  0.00     0.031 C 
ATOM     43  C   UNL     1      -2.249  13.358  -4.897  1.00  0.00     0.029 A 
ATOM     44  C   UNL     1      -2.816  14.071  -6.039  1.00  0.00     0.049 A 
ATOM     45  H   UNL     1      -1.960  14.321  -7.924  1.00  0.00     0.167 HD
ATOM     46  C   UNL     1       0.121  15.139 -11.689  1.00  0.00     0.034 A 
ATOM     47  C   UNL     1      -4.016  14.683  -6.059  1.00  0.00     0.034 A 
ATOM     48  C   UNL     1      -1.197  15.693 -11.854  1.00  0.00     0.049 A 
ATOM     49  C   UNL     1      -4.460  15.382  -7.315  1.00  0.00     0.074 A 
ATOM     50  C   UNL     1      -1.745  16.289 -12.977  1.00  0.00     0.029 A 
ATOM     51  N   UNL     1      -2.171  15.728 -10.868  1.00  0.00    -0.354 N 
ATOM     52  N   UNL     1      -3.843  15.477  -8.468  1.00  0.00    -0.248 NA
ATOM     53  C   UNL     1      -5.774  16.041  -7.280  1.00  0.00     0.031 C 
ATOM     54  C   UNL     1      -3.046  16.699 -12.663  1.00  0.00     0.029 A 
ATOM     55  C   UNL     1      -3.311  16.348 -11.349  1.00  0.00     0.049 A 
ATOM     56  H   UNL     1      -2.066  15.365  -9.959  1.00  0.00     0.167 HD
ATOM     57  C   UNL     1      -4.699  16.188  -9.301  1.00  0.00     0.074 A 
ATOM     58  C   UNL     1      -5.891  16.474  -8.528  1.00  0.00     0.031 C 
ATOM     59  C   UNL     1      -4.508  16.586 -10.583  1.00  0.00     0.034 A 
BRANCH  46  60
ATOM     60  C   UNL     1       1.075  15.224 -12.850  1.00  0.00     0.023 A 
ATOM     61  C   UNL     1       1.311  14.079 -13.637  1.00  0.00     0.012 A 
ATOM     62  C   UNL     1       1.686  16.443 -13.201  1.00  0.00     0.148 A 
ATOM     63  C   UNL     1       2.160  14.139 -14.742  1.00  0.00     0.002 A 
ATOM     64  C   UNL     1       2.504  16.504 -14.325  1.00  0.00     0.091 A 
ATOM     65  F   UNL     1       1.468  17.515 -12.426  1.00  0.00    -0.205 F 
ATOM     66  C   UNL     1       2.747  15.353 -15.091  1.00  0.00     0.022 A 
BRANCH  64  67
ATOM     67  S   UNL     1       3.252  18.037 -14.891  1.00  0.00     0.127 S 
ATOM     68  O   UNL     1       4.645  17.851 -14.489  1.00  0.00    -0.237 OA
ATOM     69  O   UNL     1       3.022  17.980 -16.335  1.00  0.00    -0.237 OA
ATOM     70  O   UNL     1       2.537  19.105 -14.207  1.00  0.00    -0.744 OA
ENDBRANCH  64  67
ENDBRANCH  46  60
BRANCH  47  71
ATOM     71  C   UNL     1      -4.891  14.633  -4.855  1.00  0.00     0.023 A 
ATOM     72  C   UNL     1      -6.068  13.861  -4.888  1.00  0.00     0.012 A 
ATOM     73  C   UNL     1      -4.545  15.308  -3.668  1.00  0.00     0.148 A 
ATOM     74  C   UNL     1      -6.894  13.776  -3.766  1.00  0.00     0.002 A 
ATOM     75  C   UNL     1      -5.344  15.176  -2.538  1.00  0.00     0.091 A 
ATOM     76  F   UNL     1      -3.435  16.060  -3.664  1.00  0.00    -0.205 F 
ATOM     77  C   UNL     1      -6.526  14.422  -2.589  1.00  0.00     0.022 A 
BRANCH  75  78
ATOM     78  S   UNL     1      -4.870  15.867  -0.948  1.00  0.00     0.127 S 
ATOM     79  O   UNL     1      -5.743  17.033  -0.856  1.00  0.00    -0.237 OA
ATOM     80  O   UNL     1      -5.199  14.776  -0.029  1.00  0.00    -0.237 OA
ATOM     81  O   UNL     1      -3.443  16.144  -1.057  1.00  0.00    -0.744 OA
ENDBRANCH  75  78
ENDBRANCH  47  71
BRANCH  59  82
ATOM     82  C   UNL     1      -5.612  17.371 -11.239  1.00  0.00     0.023 A 
ATOM     83  C   UNL     1      -5.803  18.722 -10.888  1.00  0.00     0.012 A 
ATOM     84  C   UNL     1      -6.408  16.799 -12.251  1.00  0.00     0.148 A 
ATOM     85  C   UNL     1      -6.785  19.485 -11.516  1.00  0.00     0.002 A 
ATOM     86  C   UNL     1      -7.358  17.578 -12.902  1.00  0.00     0.091 A 
ATOM     87  F   UNL     1      -6.225  15.506 -12.556  1.00  0.00    -0.205 F 
ATOM     88  C   UNL     1      -7.554  18.918 -12.530  1.00  0.00     0.022 A 
BRANCH  86  89
ATOM     89  S   UNL     1      -8.332  16.955 -14.277  1.00  0.00     0.127 S 
ATOM     90  O   UNL     1      -9.636  16.748 -13.650  1.00  0.00    -0.237 OA
ATOM     91  O   UNL     1      -8.282  18.068 -15.227  1.00  0.00    -0.237 OA
ATOM     92  O   UNL     1      -7.654  15.748 -14.730  1.00  0.00    -0.744 OA
ENDBRANCH  86  89
ENDBRANCH  59  82
ENDBRANCH  33  34
ENDBRANCH  26  28
ENDBRANCH  25  26
ENDBRANCH  24  25
ENDBRANCH   1  24
TORSDOF 19
