REMARK SMILES Cc1ccc(-c2cc3cccnc3n2CCC(=O)OCCOC(=O)c2ccc(-c3c4nc(c(-c5cccc(S(=O)(=O)[O-])c5F)c5ccc([nH]5)c(-c5cccc(S(=O)(=O)[O-])c5F)c5nc(c(-c6cccc(S(=O)(=O)[O-])c6F)c6ccc3[nH]6)C=C5)C=C4)cc2)cn1
REMARK SMILES IDX 20 1 19 2 17 3 18 4 16 5 15 6 14 7 6 8 7 9 8 10 13 11 9 12
REMARK SMILES IDX 12 13 10 14 11 15 5 16 1 17 2 18 3 19 89 20 4 21 88 22 21 23
REMARK SMILES IDX 22 24 23 25 24 26 25 27 26 28 87 29 27 30 86 31 28 32 29 33
REMARK SMILES IDX 30 34 80 35 31 36 85 37 79 38 81 39 32 40 84 41 78 42 77 43
REMARK SMILES IDX 33 45 65 46 45 47 64 48 46 49 49 50 63 51 82 52 47 53 48 54
REMARK SMILES IDX 62 56 83 57 50 58 34 59 35 60 43 61 36 62 38 63 44 64 37 65
REMARK SMILES IDX 39 66 40 67 41 68 42 69 66 70 67 71 75 72 68 73 70 74 76 75
REMARK SMILES IDX 69 76 71 77 72 78 73 79 74 80 51 81 52 82 60 83 53 84 55 85
REMARK SMILES IDX 61 86 54 87 56 88 57 89 58 90 59 91
REMARK H PARENT 81 44 49 55
REMARK Flexibility Score: inf
ROOT
ATOM      1  C   UNL     1      -1.437  -1.805  -1.743  1.00  0.00     0.274 C 
ENDROOT
BRANCH   1   2
ATOM      2  O   UNL     1      -2.804  -1.961  -1.262  1.00  0.00    -0.462 OA
BRANCH   2   3
ATOM      3  C   UNL     1      -3.105  -3.117  -0.610  1.00  0.00     0.307 C 
ATOM      4  O   UNL     1      -2.500  -4.171  -0.786  1.00  0.00    -0.252 OA
BRANCH   3   5
ATOM      5  C   UNL     1      -4.235  -3.004   0.413  1.00  0.00     0.144 C 
BRANCH   5   6
ATOM      6  C   UNL     1      -4.271  -1.808   1.372  1.00  0.00     0.136 C 
BRANCH   6   7
ATOM      7  N   UNL     1      -4.493  -0.550   0.697  1.00  0.00    -0.325 N 
ATOM      8  C   UNL     1      -3.530   0.274   0.160  1.00  0.00     0.052 A 
ATOM      9  C   UNL     1      -4.207   1.218  -0.602  1.00  0.00     0.039 A 
ATOM     10  C   UNL     1      -5.591   0.977  -0.503  1.00  0.00     0.020 A 
ATOM     11  C   UNL     1      -5.748  -0.089   0.371  1.00  0.00     0.140 A 
ATOM     12  C   UNL     1      -6.738   1.532  -1.084  1.00  0.00     0.013 A 
ATOM     13  N   UNL     1      -6.915  -0.635   0.773  1.00  0.00    -0.238 NA
ATOM     14  C   UNL     1      -7.967   1.012  -0.691  1.00  0.00     0.021 A 
ATOM     15  C   UNL     1      -7.994  -0.023   0.235  1.00  0.00     0.113 A 
BRANCH   8  16
ATOM     16  C   UNL     1      -2.080   0.091   0.189  1.00  0.00     0.017 A 
ATOM     17  C   UNL     1       2.966  -0.119  -0.310  1.00  0.00     0.066 C 
ATOM     18  C   UNL     1       1.476  -0.118  -0.198  1.00  0.00     0.037 A 
ATOM     19  C   UNL     1       0.607  -1.538   0.444  1.00  0.00     0.024 A 
ATOM     20  N   UNL     1       0.635   1.350  -0.657  1.00  0.00    -0.261 NA
ATOM     21  C   UNL     1      -1.177  -1.424   0.693  1.00  0.00     0.014 A 
ATOM     22  C   UNL     1      -1.107   1.476  -0.443  1.00  0.00     0.121 A 
ENDBRANCH   8  16
ENDBRANCH   6   7
ENDBRANCH   5   6
ENDBRANCH   3   5
ENDBRANCH   2   3
ENDBRANCH   1   2
BRANCH   1  23
ATOM     23  C   UNL     1      -0.524  -0.477  -1.244  1.00  0.00     0.275 C 
BRANCH  23  24
ATOM     24  O   UNL     1      -0.204   0.193   0.641  1.00  0.00    -0.458 OA
BRANCH  24  25
ATOM     25  C   UNL     1      -0.438   0.857   1.851  1.00  0.00     0.338 C 
ATOM     26  O   UNL     1      -1.355   1.619   2.157  1.00  0.00    -0.246 OA
BRANCH  25  27
ATOM     27  C   UNL     1       0.410   0.352   2.909  1.00  0.00     0.060 A 
ATOM     28  C   UNL     1      -0.240  -0.259   3.994  1.00  0.00     0.016 A 
ATOM     29  C   UNL     1       1.680   0.908   2.973  1.00  0.00     0.016 A 
ATOM     30  C   UNL     1       0.313  -0.102   5.240  1.00  0.00     0.010 A 
ATOM     31  C   UNL     1       2.243   1.036   4.210  1.00  0.00     0.010 A 
ATOM     32  C   UNL     1       1.485   0.647   5.323  1.00  0.00    -0.014 A 
BRANCH  32  33
ATOM     33  C   UNL     1       1.842   1.216   6.604  1.00  0.00     0.031 A 
ATOM     34  C   UNL     1       2.619   0.330   7.486  1.00  0.00     0.074 A 
ATOM     35  C   UNL     1       1.647   2.534   6.809  1.00  0.00     0.049 A 
ATOM     36  N   UNL     1       2.360  -0.011   8.705  1.00  0.00    -0.248 NA
ATOM     37  C   UNL     1       3.783  -0.347   6.893  1.00  0.00     0.031 C 
ATOM     38  C   UNL     1       1.160   3.522   5.834  1.00  0.00     0.029 A 
ATOM     39  N   UNL     1       2.046   3.304   7.857  1.00  0.00    -0.354 N 
ATOM     40  C   UNL     1       3.450  -0.775   9.097  1.00  0.00     0.074 A 
ATOM     41  C   UNL     1       4.197  -1.099   7.908  1.00  0.00     0.031 C 
ATOM     42  C   UNL     1       1.564   4.751   6.220  1.00  0.00     0.029 A 
ATOM     43  C   UNL     1       2.222   4.641   7.509  1.00  0.00     0.049 A 
ATOM     44  H   UNL     1       2.194   2.953   8.765  1.00  0.00     0.167 HD
ATOM     45  C   UNL     1       3.837  -0.882  10.393  1.00  0.00     0.034 A 
ATOM     46  C   UNL     1       2.962   5.550   8.187  1.00  0.00     0.034 A 
ATOM     47  C   UNL     1       2.847  -0.433  11.322  1.00  0.00     0.049 A 
ATOM     48  C   UNL     1       3.168   5.002   9.552  1.00  0.00     0.074 A 
ATOM     49  C   UNL     1       1.554  -0.804  11.623  1.00  0.00     0.029 A 
ATOM     50  N   UNL     1       3.033   0.813  11.869  1.00  0.00    -0.354 N 
ATOM     51  N   UNL     1       2.220   4.841  10.432  1.00  0.00    -0.248 NA
ATOM     52  C   UNL     1       4.405   4.287   9.832  1.00  0.00     0.031 C 
ATOM     53  C   UNL     1       0.892   0.405  11.981  1.00  0.00     0.029 A 
ATOM     54  C   UNL     1       1.818   1.446  11.882  1.00  0.00     0.049 A 
ATOM     55  H   UNL     1       3.886   1.184  12.193  1.00  0.00     0.167 HD
ATOM     56  C   UNL     1       2.581   3.699  11.136  1.00  0.00     0.074 A 
ATOM     57  C   UNL     1       3.990   3.494  10.823  1.00  0.00     0.031 C 
ATOM     58  C   UNL     1       1.636   2.866  11.663  1.00  0.00     0.034 A 
BRANCH  45  59
ATOM     59  C   UNL     1       5.268  -1.087  10.769  1.00  0.00     0.023 A 
ATOM     60  C   UNL     1       5.572  -1.723  11.983  1.00  0.00     0.012 A 
ATOM     61  C   UNL     1       6.331  -0.504  10.043  1.00  0.00     0.148 A 
ATOM     62  C   UNL     1       6.894  -1.808  12.434  1.00  0.00     0.002 A 
ATOM     63  C   UNL     1       7.645  -0.678  10.443  1.00  0.00     0.091 A 
ATOM     64  F   UNL     1       6.062   0.312   9.013  1.00  0.00    -0.205 F 
ATOM     65  C   UNL     1       7.934  -1.314  11.650  1.00  0.00     0.022 A 
BRANCH  63  66
ATOM     66  S   UNL     1       8.987  -0.155   9.373  1.00  0.00     0.127 S 
ATOM     67  O   UNL     1       9.239   1.200   9.849  1.00  0.00    -0.237 OA
ATOM     68  O   UNL     1      10.034  -1.129   9.685  1.00  0.00    -0.237 OA
ATOM     69  O   UNL     1       8.443  -0.286   8.025  1.00  0.00    -0.744 OA
ENDBRANCH  63  66
ENDBRANCH  45  59
BRANCH  46  70
ATOM     70  C   UNL     1       3.690   6.751   7.703  1.00  0.00     0.023 A 
ATOM     71  C   UNL     1       4.123   7.702   8.649  1.00  0.00     0.012 A 
ATOM     72  C   UNL     1       4.174   6.875   6.380  1.00  0.00     0.148 A 
ATOM     73  C   UNL     1       5.031   8.711   8.307  1.00  0.00     0.002 A 
ATOM     74  C   UNL     1       5.054   7.901   6.036  1.00  0.00     0.091 A 
ATOM     75  F   UNL     1       3.859   5.941   5.473  1.00  0.00    -0.205 F 
ATOM     76  C   UNL     1       5.498   8.810   7.001  1.00  0.00     0.022 A 
BRANCH  74  77
ATOM     77  S   UNL     1       5.670   8.089   4.355  1.00  0.00     0.127 S 
ATOM     78  O   UNL     1       5.770   9.544   4.216  1.00  0.00    -0.237 OA
ATOM     79  O   UNL     1       6.952   7.394   4.417  1.00  0.00    -0.237 OA
ATOM     80  O   UNL     1       4.652   7.484   3.505  1.00  0.00    -0.744 OA
ENDBRANCH  74  77
ENDBRANCH  46  70
BRANCH  58  81
ATOM     81  C   UNL     1       0.210   3.357  11.717  1.00  0.00     0.023 A 
ATOM     82  C   UNL     1      -0.538   3.568  10.541  1.00  0.00     0.012 A 
ATOM     83  C   UNL     1      -0.446   3.396  12.959  1.00  0.00     0.148 A 
ATOM     84  C   UNL     1      -1.909   3.826  10.600  1.00  0.00     0.002 A 
ATOM     85  C   UNL     1      -1.819   3.611  13.012  1.00  0.00     0.091 A 
ATOM     86  F   UNL     1       0.279   3.174  14.066  1.00  0.00    -0.205 F 
ATOM     87  C   UNL     1      -2.552   3.833  11.835  1.00  0.00     0.022 A 
BRANCH  85  88
ATOM     88  S   UNL     1      -2.740   3.504  14.550  1.00  0.00     0.127 S 
ATOM     89  O   UNL     1      -3.119   4.896  14.779  1.00  0.00    -0.237 OA
ATOM     90  O   UNL     1      -3.851   2.620  14.187  1.00  0.00    -0.237 OA
ATOM     91  O   UNL     1      -1.824   2.937  15.532  1.00  0.00    -0.744 OA
ENDBRANCH  85  88
ENDBRANCH  58  81
ENDBRANCH  32  33
ENDBRANCH  25  27
ENDBRANCH  24  25
ENDBRANCH  23  24
ENDBRANCH   1  23
TORSDOF 17
