REMARK SMILES CCCc1c(C(=O)OCCOC(=O)c2ccc(-c3c4nc(c(-c5cccc(S(=O)(=O)[O-])c5F)c5ccc([nH]5)c(-c5cccc(S(=O)(=O)[O-])c5F)c5nc(c(-c6cccc(S(=O)(=O)[O-])c6F)c6ccc3[nH]6)C=C5)C=C4)cc2)nnn1-c1cccc(C(F)(F)F)c1
REMARK SMILES IDX 10 1 9 2 8 3 6 4 7 5 5 6 4 7 79 8 77 9 78 10 3 11 2 12 1 13
REMARK SMILES IDX 80 14 81 15 89 16 82 17 84 18 83 19 85 20 86 21 87 22 88 23
REMARK SMILES IDX 11 24 12 25 13 26 14 27 15 28 76 29 16 30 75 31 17 32 18 33
REMARK SMILES IDX 19 34 69 35 20 36 74 37 68 38 70 39 21 40 73 41 67 42 66 43
REMARK SMILES IDX 22 45 54 46 34 47 53 48 35 49 38 50 52 51 71 52 36 53 37 54
REMARK SMILES IDX 51 56 72 57 39 58 23 59 24 60 32 61 25 62 27 63 33 64 26 65
REMARK SMILES IDX 28 66 29 67 30 68 31 69 55 70 56 71 64 72 57 73 59 74 65 75
REMARK SMILES IDX 58 76 60 77 61 78 62 79 63 80 40 81 41 82 49 83 42 84 44 85
REMARK SMILES IDX 50 86 43 87 45 88 46 89 47 90 48 91
REMARK H PARENT 70 44 38 55
REMARK Flexibility Score: inf
ROOT
ATOM      1  C   UNL     1       4.042  -2.204   0.632  1.00  0.00     0.275 C 
ENDROOT
BRANCH   1   2
ATOM      2  C   UNL     1       4.478  -1.620  -0.705  1.00  0.00     0.275 C 
BRANCH   2   3
ATOM      3  O   UNL     1       3.341  -1.237  -1.492  1.00  0.00    -0.457 OA
BRANCH   3   4
ATOM      4  C   UNL     1       2.817  -2.200  -2.315  1.00  0.00     0.360 C 
ATOM      5  O   UNL     1       3.407  -3.240  -2.599  1.00  0.00    -0.244 OA
BRANCH   4   6
ATOM      6  C   UNL     1       1.474  -1.882  -2.777  1.00  0.00     0.194 A 
ATOM      7  C   UNL     1       0.803  -0.663  -2.821  1.00  0.00     0.079 A 
ATOM      8  N   UNL     1      -0.432  -0.996  -3.356  1.00  0.00    -0.217 N 
ATOM      9  N   UNL     1       0.615  -2.877  -3.188  1.00  0.00    -0.122 NA
ATOM     10  N   UNL     1      -0.567  -2.335  -3.433  1.00  0.00    -0.061 NA
BRANCH   7  11
ATOM     11  C   UNL     1       1.189   0.708  -2.364  1.00  0.00     0.059 C 
BRANCH  11  12
ATOM     12  C   UNL     1       0.455   1.179  -1.101  1.00  0.00     0.003 C 
ATOM     13  C   UNL     1       0.816   0.407   0.158  1.00  0.00     0.004 C 
ENDBRANCH  11  12
ENDBRANCH   7  11
BRANCH   8  14
ATOM     14  C   UNL     1      -1.409  -0.168  -3.947  1.00  0.00     0.067 A 
ATOM     15  C   UNL     1      -2.764  -0.437  -3.735  1.00  0.00     0.028 A 
ATOM     16  C   UNL     1      -1.017   0.843  -4.833  1.00  0.00     0.041 A 
ATOM     17  C   UNL     1      -3.728   0.356  -4.358  1.00  0.00     0.003 A 
ATOM     18  C   UNL     1      -1.982   1.605  -5.507  1.00  0.00     0.058 A 
ATOM     19  C   UNL     1      -3.341   1.369  -5.239  1.00  0.00     0.013 A 
BRANCH  18  20
ATOM     20  C   UNL     1      -1.576   2.633  -6.532  1.00  0.00     0.416 C 
ATOM     21  F   UNL     1      -2.163   2.427  -7.744  1.00  0.00    -0.166 F 
ATOM     22  F   UNL     1      -1.911   3.901  -6.165  1.00  0.00    -0.166 F 
ATOM     23  F   UNL     1      -0.234   2.660  -6.773  1.00  0.00    -0.166 F 
ENDBRANCH  18  20
ENDBRANCH   8  14
ENDBRANCH   4   6
ENDBRANCH   3   4
ENDBRANCH   2   3
ENDBRANCH   1   2
BRANCH   1  24
ATOM     24  O   UNL     1       3.536  -3.531   0.490  1.00  0.00    -0.458 OA
BRANCH  24  25
ATOM     25  C   UNL     1       2.189  -3.610   0.415  1.00  0.00     0.338 C 
ATOM     26  O   UNL     1       1.430  -2.738   0.029  1.00  0.00    -0.246 OA
BRANCH  25  27
ATOM     27  C   UNL     1       1.717  -4.802   1.117  1.00  0.00     0.060 A 
ATOM     28  C   UNL     1       0.355  -5.111   1.026  1.00  0.00     0.016 A 
ATOM     29  C   UNL     1       2.560  -5.427   2.044  1.00  0.00     0.016 A 
ATOM     30  C   UNL     1      -0.188  -5.988   1.942  1.00  0.00     0.010 A 
ATOM     31  C   UNL     1       2.014  -6.285   2.968  1.00  0.00     0.010 A 
ATOM     32  C   UNL     1       0.641  -6.524   2.932  1.00  0.00    -0.014 A 
BRANCH  32  33
ATOM     33  C   UNL     1       0.074  -7.485   3.855  1.00  0.00     0.031 A 
ATOM     34  C   UNL     1      -0.158  -8.814   3.243  1.00  0.00     0.074 A 
ATOM     35  C   UNL     1      -0.035  -7.237   5.173  1.00  0.00     0.049 A 
ATOM     36  N   UNL     1      -1.283  -9.428   3.076  1.00  0.00    -0.248 NA
ATOM     37  C   UNL     1       0.987  -9.467   2.587  1.00  0.00     0.031 C 
ATOM     38  C   UNL     1       0.489  -6.073   5.894  1.00  0.00     0.029 A 
ATOM     39  N   UNL     1      -0.481  -8.053   6.168  1.00  0.00    -0.354 N 
ATOM     40  C   UNL     1      -0.940 -10.660   2.520  1.00  0.00     0.074 A 
ATOM     41  C   UNL     1       0.401 -10.523   2.028  1.00  0.00     0.031 C 
ATOM     42  C   UNL     1       0.564  -6.372   7.209  1.00  0.00     0.029 A 
ATOM     43  C   UNL     1      -0.011  -7.688   7.425  1.00  0.00     0.049 A 
ATOM     44  H   UNL     1      -1.075  -8.822   6.013  1.00  0.00     0.167 HD
ATOM     45  C   UNL     1      -1.663 -11.777   2.804  1.00  0.00     0.034 A 
ATOM     46  C   UNL     1      -0.005  -8.462   8.536  1.00  0.00     0.034 A 
ATOM     47  C   UNL     1      -2.969 -11.434   3.316  1.00  0.00     0.049 A 
ATOM     48  C   UNL     1      -0.979  -9.557   8.325  1.00  0.00     0.074 A 
ATOM     49  C   UNL     1      -4.045 -10.696   2.869  1.00  0.00     0.029 A 
ATOM     50  N   UNL     1      -3.155 -11.609   4.665  1.00  0.00    -0.354 N 
ATOM     51  N   UNL     1      -2.269  -9.382   8.254  1.00  0.00    -0.248 NA
ATOM     52  C   UNL     1      -0.494 -10.837   7.834  1.00  0.00     0.031 C 
ATOM     53  C   UNL     1      -4.622 -10.123   4.041  1.00  0.00     0.029 A 
ATOM     54  C   UNL     1      -3.893 -10.567   5.146  1.00  0.00     0.049 A 
ATOM     55  H   UNL     1      -2.812 -12.363   5.197  1.00  0.00     0.167 HD
ATOM     56  C   UNL     1      -2.691 -10.311   7.313  1.00  0.00     0.074 A 
ATOM     57  C   UNL     1      -1.596 -11.271   7.218  1.00  0.00     0.031 C 
ATOM     58  C   UNL     1      -3.745 -10.040   6.487  1.00  0.00     0.034 A 
BRANCH  45  59
ATOM     59  C   UNL     1      -1.051 -13.145   3.080  1.00  0.00     0.023 A 
ATOM     60  C   UNL     1      -1.959 -14.190   3.373  1.00  0.00     0.012 A 
ATOM     61  C   UNL     1       0.309 -13.385   3.393  1.00  0.00     0.148 A 
ATOM     62  C   UNL     1      -1.562 -15.343   4.057  1.00  0.00     0.002 A 
ATOM     63  C   UNL     1       0.711 -14.563   4.014  1.00  0.00     0.091 A 
ATOM     64  F   UNL     1       1.230 -12.441   3.207  1.00  0.00    -0.205 F 
ATOM     65  C   UNL     1      -0.226 -15.526   4.387  1.00  0.00     0.022 A 
BRANCH  63  66
ATOM     66  S   UNL     1       2.434 -14.862   4.436  1.00  0.00     0.127 S 
ATOM     67  O   UNL     1       2.413 -14.667   5.882  1.00  0.00    -0.237 OA
ATOM     68  O   UNL     1       2.611 -16.247   3.997  1.00  0.00    -0.237 OA
ATOM     69  O   UNL     1       3.204 -13.891   3.668  1.00  0.00    -0.744 OA
ENDBRANCH  63  66
ENDBRANCH  45  59
BRANCH  46  70
ATOM     70  C   UNL     1       0.933  -8.460   9.682  1.00  0.00     0.023 A 
ATOM     71  C   UNL     1       0.536  -9.048  10.900  1.00  0.00     0.012 A 
ATOM     72  C   UNL     1       2.295  -8.119   9.521  1.00  0.00     0.148 A 
ATOM     73  C   UNL     1       1.468  -9.318  11.908  1.00  0.00     0.002 A 
ATOM     74  C   UNL     1       3.215  -8.373  10.533  1.00  0.00     0.091 A 
ATOM     75  F   UNL     1       2.706  -7.632   8.343  1.00  0.00    -0.205 F 
ATOM     76  C   UNL     1       2.808  -8.986  11.724  1.00  0.00     0.022 A 
BRANCH  74  77
ATOM     77  S   UNL     1       4.959  -7.967  10.365  1.00  0.00     0.127 S 
ATOM     78  O   UNL     1       5.243  -7.307  11.640  1.00  0.00    -0.237 OA
ATOM     79  O   UNL     1       5.566  -9.286  10.211  1.00  0.00    -0.237 OA
ATOM     80  O   UNL     1       5.052  -7.086   9.207  1.00  0.00    -0.744 OA
ENDBRANCH  74  77
ENDBRANCH  46  70
BRANCH  58  81
ATOM     81  C   UNL     1      -4.672  -8.915   6.865  1.00  0.00     0.023 A 
ATOM     82  C   UNL     1      -4.239  -7.576   6.953  1.00  0.00     0.012 A 
ATOM     83  C   UNL     1      -6.045  -9.195   6.977  1.00  0.00     0.148 A 
ATOM     84  C   UNL     1      -5.152  -6.544   7.178  1.00  0.00     0.002 A 
ATOM     85  C   UNL     1      -6.956  -8.160   7.150  1.00  0.00     0.091 A 
ATOM     86  F   UNL     1      -6.443 -10.474   6.888  1.00  0.00    -0.205 F 
ATOM     87  C   UNL     1      -6.512  -6.834   7.263  1.00  0.00     0.022 A 
BRANCH  85  88
ATOM     88  S   UNL     1      -8.725  -8.459   7.132  1.00  0.00     0.127 S 
ATOM     89  O   UNL     1      -9.060  -8.399   8.553  1.00  0.00    -0.237 OA
ATOM     90  O   UNL     1      -9.228  -7.337   6.337  1.00  0.00    -0.237 OA
ATOM     91  O   UNL     1      -8.902  -9.760   6.497  1.00  0.00    -0.744 OA
ENDBRANCH  85  88
ENDBRANCH  58  81
ENDBRANCH  32  33
ENDBRANCH  25  27
ENDBRANCH  24  25
ENDBRANCH   1  24
TORSDOF 18
