REMARK SMILES O=C(NC1(C(=O)OCCOC(=O)c2ccc(-c3c4nc(c(-c5cccc(S(=O)(=O)[O-])c5F)c5ccc([nH]5)c(-c5cccc(S(=O)(=O)[O-])c5F)c5nc(c(-c6cccc(S(=O)(=O)[O-])c6F)c6ccc3[nH]6)C=C5)C=C4)cc2)Cc2ccccc2C1)OCC1c2ccccc2-c2ccccc21
REMARK SMILES IDX 8 1 7 2 5 3 6 4 4 5 76 6 83 7 77 8 82 9 78 10 81 11 79 12
REMARK SMILES IDX 80 13 3 14 1 15 2 16 84 18 85 19 86 20 87 21 98 22 88 23
REMARK SMILES IDX 92 24 93 25 97 26 89 27 91 28 94 29 96 30 90 31 95 32 9 33
REMARK SMILES IDX 10 34 11 35 12 36 13 37 14 38 75 39 15 40 74 41 16 42 17 43
REMARK SMILES IDX 18 44 68 45 19 46 73 47 67 48 69 49 20 50 72 51 66 52 65 53
REMARK SMILES IDX 21 55 53 56 33 57 52 58 34 59 37 60 51 61 70 62 35 63 36 64
REMARK SMILES IDX 50 66 71 67 38 68 22 69 23 70 31 71 24 72 26 73 32 74 25 75
REMARK SMILES IDX 27 76 28 77 29 78 30 79 54 80 55 81 63 82 56 83 58 84 64 85
REMARK SMILES IDX 57 86 59 87 60 88 61 89 62 90 39 91 40 92 48 93 41 94 43 95
REMARK SMILES IDX 49 96 42 97 44 98 45 99 46 100 47 101
REMARK H PARENT 3 17 69 54 37 65
REMARK Flexibility Score: inf
ROOT
ATOM      1  C   UNL     1       6.352  -0.670  -2.146  1.00  0.00     0.274 C 
ENDROOT
BRANCH   1   2
ATOM      2  O   UNL     1       6.003  -1.194  -0.835  1.00  0.00    -0.460 OA
BRANCH   2   3
ATOM      3  C   UNL     1       4.771  -0.821  -0.397  1.00  0.00     0.332 C 
ATOM      4  O   UNL     1       3.982  -0.260  -1.157  1.00  0.00    -0.249 OA
BRANCH   3   5
ATOM      5  C   UNL     1       4.386  -1.197   1.089  1.00  0.00     0.149 C 
ATOM      6  C   UNL     1       5.063  -0.576   2.345  1.00  0.00     0.076 C 
ATOM      7  C   UNL     1       4.699  -2.715   1.252  1.00  0.00     0.076 C 
ATOM      8  C   UNL     1       6.211  -1.468   2.614  1.00  0.00    -0.042 A 
ATOM      9  C   UNL     1       6.055  -2.668   1.928  1.00  0.00    -0.042 A 
ATOM     10  C   UNL     1       7.332  -1.155   3.365  1.00  0.00     0.004 A 
ATOM     11  C   UNL     1       7.098  -3.572   1.920  1.00  0.00     0.004 A 
ATOM     12  C   UNL     1       8.381  -2.060   3.360  1.00  0.00     0.000 A 
ATOM     13  C   UNL     1       8.270  -3.253   2.627  1.00  0.00     0.000 A 
BRANCH   5  14
ATOM     14  N   UNL     1       2.967  -0.772   1.151  1.00  0.00    -0.305 N 
ATOM     15  O   UNL     1       1.483   0.947   0.835  1.00  0.00    -0.225 OA
ATOM     16  C   UNL     1       2.619   0.570   1.064  1.00  0.00     0.408 C 
ATOM     17  H   UNL     1       2.261  -1.451   1.256  1.00  0.00     0.168 HD
BRANCH  16  18
ATOM     18  O   UNL     1       3.650   1.399   1.375  1.00  0.00    -0.449 OA
BRANCH  18  19
ATOM     19  C   UNL     1       4.251   2.269   0.379  1.00  0.00     0.248 C 
BRANCH  19  20
ATOM     20  C   UNL     1       5.494   2.928   1.026  1.00  0.00     0.088 C 
ATOM     21  C   UNL     1       6.913   2.445   0.639  1.00  0.00    -0.029 A 
ATOM     22  C   UNL     1       5.591   4.404   0.676  1.00  0.00    -0.029 A 
ATOM     23  C   UNL     1       7.499   1.190   0.686  1.00  0.00     0.005 A 
ATOM     24  C   UNL     1       7.721   3.547   0.301  1.00  0.00    -0.014 A 
ATOM     25  C   UNL     1       6.891   4.726   0.237  1.00  0.00    -0.014 A 
ATOM     26  C   UNL     1       4.588   5.357   0.729  1.00  0.00     0.005 A 
ATOM     27  C   UNL     1       8.875   1.036   0.493  1.00  0.00     0.000 A 
ATOM     28  C   UNL     1       9.095   3.410   0.113  1.00  0.00     0.009 A 
ATOM     29  C   UNL     1       7.178   5.994  -0.231  1.00  0.00     0.009 A 
ATOM     30  C   UNL     1       4.877   6.634   0.257  1.00  0.00     0.000 A 
ATOM     31  C   UNL     1       9.676   2.146   0.232  1.00  0.00     0.001 A 
ATOM     32  C   UNL     1       6.156   6.945  -0.233  1.00  0.00     0.001 A 
ENDBRANCH  19  20
ENDBRANCH  18  19
ENDBRANCH  16  18
ENDBRANCH   5  14
ENDBRANCH   3   5
ENDBRANCH   2   3
ENDBRANCH   1   2
BRANCH   1  33
ATOM     33  C   UNL     1       5.912  -1.526  -3.351  1.00  0.00     0.275 C 
BRANCH  33  34
ATOM     34  O   UNL     1       4.487  -1.534  -3.555  1.00  0.00    -0.458 OA
BRANCH  34  35
ATOM     35  C   UNL     1       3.828  -2.555  -2.955  1.00  0.00     0.338 C 
ATOM     36  O   UNL     1       4.343  -3.511  -2.393  1.00  0.00    -0.246 OA
BRANCH  35  37
ATOM     37  C   UNL     1       2.387  -2.241  -2.835  1.00  0.00     0.060 A 
ATOM     38  C   UNL     1       1.817  -2.431  -1.570  1.00  0.00     0.016 A 
ATOM     39  C   UNL     1       1.607  -1.758  -3.888  1.00  0.00     0.016 A 
ATOM     40  C   UNL     1       0.490  -2.092  -1.329  1.00  0.00     0.010 A 
ATOM     41  C   UNL     1       0.251  -1.480  -3.663  1.00  0.00     0.010 A 
ATOM     42  C   UNL     1      -0.310  -1.648  -2.384  1.00  0.00    -0.014 A 
BRANCH  42  43
ATOM     43  C   UNL     1      -1.772  -1.558  -2.171  1.00  0.00     0.031 A 
ATOM     44  C   UNL     1      -2.586  -2.811  -2.329  1.00  0.00     0.074 A 
ATOM     45  C   UNL     1      -2.361  -0.404  -1.813  1.00  0.00     0.049 A 
ATOM     46  N   UNL     1      -3.874  -2.987  -2.198  1.00  0.00    -0.248 NA
ATOM     47  C   UNL     1      -1.841  -4.037  -2.666  1.00  0.00     0.031 C 
ATOM     48  C   UNL     1      -1.671   0.859  -1.565  1.00  0.00     0.029 A 
ATOM     49  N   UNL     1      -3.688  -0.109  -1.616  1.00  0.00    -0.354 N 
ATOM     50  C   UNL     1      -4.097  -4.334  -2.450  1.00  0.00     0.074 A 
ATOM     51  C   UNL     1      -2.813  -4.934  -2.736  1.00  0.00     0.031 C 
ATOM     52  C   UNL     1      -2.586   1.809  -1.296  1.00  0.00     0.029 A 
ATOM     53  C   UNL     1      -3.923   1.223  -1.369  1.00  0.00     0.049 A 
ATOM     54  H   UNL     1      -4.402  -0.787  -1.647  1.00  0.00     0.167 HD
ATOM     55  C   UNL     1      -5.266  -5.013  -2.442  1.00  0.00     0.034 A 
ATOM     56  C   UNL     1      -5.088   1.889  -1.242  1.00  0.00     0.034 A 
ATOM     57  C   UNL     1      -6.543  -4.413  -2.180  1.00  0.00     0.049 A 
ATOM     58  C   UNL     1      -6.386   1.121  -1.317  1.00  0.00     0.074 A 
ATOM     59  C   UNL     1      -7.787  -5.016  -2.150  1.00  0.00     0.029 A 
ATOM     60  N   UNL     1      -6.744  -3.064  -1.929  1.00  0.00    -0.354 N 
ATOM     61  N   UNL     1      -6.578  -0.170  -1.453  1.00  0.00    -0.248 NA
ATOM     62  C   UNL     1      -7.628   1.897  -1.190  1.00  0.00     0.031 C 
ATOM     63  C   UNL     1      -8.745  -4.025  -1.911  1.00  0.00     0.029 A 
ATOM     64  C   UNL     1      -8.094  -2.811  -1.760  1.00  0.00     0.049 A 
ATOM     65  H   UNL     1      -6.032  -2.387  -1.878  1.00  0.00     0.167 HD
ATOM     66  C   UNL     1      -7.954  -0.363  -1.388  1.00  0.00     0.074 A 
ATOM     67  C   UNL     1      -8.548   0.942  -1.184  1.00  0.00     0.031 C 
ATOM     68  C   UNL     1      -8.664  -1.514  -1.499  1.00  0.00     0.034 A 
BRANCH  55  69
ATOM     69  C   UNL     1      -5.208  -6.486  -2.737  1.00  0.00     0.023 A 
ATOM     70  C   UNL     1      -4.713  -7.375  -1.761  1.00  0.00     0.012 A 
ATOM     71  C   UNL     1      -5.665  -6.992  -3.969  1.00  0.00     0.148 A 
ATOM     72  C   UNL     1      -4.646  -8.743  -2.018  1.00  0.00     0.002 A 
ATOM     73  C   UNL     1      -5.633  -8.361  -4.202  1.00  0.00     0.091 A 
ATOM     74  F   UNL     1      -6.103  -6.125  -4.893  1.00  0.00    -0.205 F 
ATOM     75  C   UNL     1      -5.114  -9.236  -3.233  1.00  0.00     0.022 A 
BRANCH  73  76
ATOM     76  S   UNL     1      -6.271  -9.099  -5.709  1.00  0.00     0.127 S 
ATOM     77  O   UNL     1      -5.041  -9.532  -6.370  1.00  0.00    -0.237 OA
ATOM     78  O   UNL     1      -7.101 -10.187  -5.191  1.00  0.00    -0.237 OA
ATOM     79  O   UNL     1      -7.009  -8.045  -6.392  1.00  0.00    -0.744 OA
ENDBRANCH  73  76
ENDBRANCH  55  69
BRANCH  56  80
ATOM     80  C   UNL     1      -5.093   3.364  -1.015  1.00  0.00     0.023 A 
ATOM     81  C   UNL     1      -5.543   3.877   0.217  1.00  0.00     0.012 A 
ATOM     82  C   UNL     1      -4.669   4.260  -2.017  1.00  0.00     0.148 A 
ATOM     83  C   UNL     1      -5.605   5.254   0.435  1.00  0.00     0.002 A 
ATOM     84  C   UNL     1      -4.684   5.629  -1.774  1.00  0.00     0.091 A 
ATOM     85  F   UNL     1      -4.265   3.756  -3.191  1.00  0.00    -0.205 F 
ATOM     86  C   UNL     1      -5.168   6.129  -0.555  1.00  0.00     0.022 A 
BRANCH  84  87
ATOM     87  S   UNL     1      -4.046   6.827  -2.951  1.00  0.00     0.127 S 
ATOM     88  O   UNL     1      -5.268   7.496  -3.391  1.00  0.00    -0.237 OA
ATOM     89  O   UNL     1      -3.169   7.642  -2.108  1.00  0.00    -0.237 OA
ATOM     90  O   UNL     1      -3.351   6.051  -3.969  1.00  0.00    -0.744 OA
ENDBRANCH  84  87
ENDBRANCH  56  80
BRANCH  68  91
ATOM     91  C   UNL     1     -10.164  -1.434  -1.366  1.00  0.00     0.023 A 
ATOM     92  C   UNL     1     -10.932  -0.875  -2.406  1.00  0.00     0.012 A 
ATOM     93  C   UNL     1     -10.816  -2.002  -0.252  1.00  0.00     0.148 A 
ATOM     94  C   UNL     1     -12.325  -0.856  -2.326  1.00  0.00     0.002 A 
ATOM     95  C   UNL     1     -12.205  -2.024  -0.203  1.00  0.00     0.091 A 
ATOM     96  F   UNL     1     -10.067  -2.515   0.735  1.00  0.00    -0.205 F 
ATOM     97  C   UNL     1     -12.960  -1.441  -1.233  1.00  0.00     0.022 A 
BRANCH  95  98
ATOM     98  S   UNL     1     -13.108  -2.847   1.114  1.00  0.00     0.127 S 
ATOM     99  O   UNL     1     -13.631  -1.712   1.872  1.00  0.00    -0.237 OA
ATOM    100  O   UNL     1     -14.119  -3.603   0.373  1.00  0.00    -0.237 OA
ATOM    101  O   UNL     1     -12.134  -3.672   1.814  1.00  0.00    -0.744 OA
ENDBRANCH  95  98
ENDBRANCH  68  91
ENDBRANCH  42  43
ENDBRANCH  35  37
ENDBRANCH  34  35
ENDBRANCH  33  34
ENDBRANCH   1  33
TORSDOF 18
