REMARK SMILES COc1ccc(-c2cnc(N)c(C(=O)OCCOC(=O)c3ccc(-c4c5nc(c(-c6cccc(S(=O)(=O)[O-])c6F)c6ccc([nH]6)c(-c6cccc(S(=O)(=O)[O-])c6F)c6nc(c(-c7cccc(S(=O)(=O)[O-])c7F)c7ccc4[nH]7)C=C6)C=C5)cc3)c2)c(C)c1
REMARK SMILES IDX 17 1 16 2 15 3 13 4 14 5 12 6 7 7 8 8 84 9 9 10 10 11 6 12
REMARK SMILES IDX 3 13 4 14 87 15 5 16 85 17 86 18 2 19 1 20 11 21 18 24 19 25
REMARK SMILES IDX 20 26 21 27 22 28 83 29 23 30 82 31 24 32 25 33 26 34 76 35
REMARK SMILES IDX 27 36 81 37 75 38 77 39 28 40 80 41 74 42 73 43 29 45 61 46
REMARK SMILES IDX 41 47 60 48 42 49 45 50 59 51 78 52 43 53 44 54 58 56 79 57
REMARK SMILES IDX 46 58 30 59 31 60 39 61 32 62 34 63 40 64 33 65 35 66 36 67
REMARK SMILES IDX 37 68 38 69 62 70 63 71 71 72 64 73 66 74 72 75 65 76 67 77
REMARK SMILES IDX 68 78 69 79 70 80 47 81 48 82 56 83 49 84 51 85 57 86 50 87
REMARK SMILES IDX 52 88 53 89 54 90 55 91
REMARK H PARENT 11 22 11 23 77 44 45 55
REMARK Flexibility Score: inf
ROOT
ATOM      1  C   UNL     1      -0.550  10.803  -6.130  1.00  0.00     0.275 C 
ENDROOT
BRANCH   1   2
ATOM      2  C   UNL     1       0.974  10.600  -6.280  1.00  0.00     0.275 C 
BRANCH   2   3
ATOM      3  O   UNL     1       1.570   9.402  -5.786  1.00  0.00    -0.458 OA
BRANCH   3   4
ATOM      4  C   UNL     1       1.170   8.237  -6.342  1.00  0.00     0.342 C 
ATOM      5  O   UNL     1       0.264   8.091  -7.143  1.00  0.00    -0.246 OA
BRANCH   4   6
ATOM      6  C   UNL     1       2.000   7.143  -5.815  1.00  0.00     0.102 A 
ATOM      7  C   UNL     1       2.135   4.956  -4.732  1.00  0.00     0.001 A 
ATOM      8  C   UNL     1       3.486   5.020  -5.109  1.00  0.00     0.122 A 
ATOM      9  C   UNL     1       1.387   6.062  -5.153  1.00  0.00     0.030 A 
ATOM     10  N   UNL     1       4.114   6.061  -5.721  1.00  0.00    -0.238 NA
ATOM     11  C   UNL     1       3.375   7.139  -6.013  1.00  0.00     0.138 A 
BRANCH   7  12
ATOM     12  C   UNL     1       1.622   3.801  -3.923  1.00  0.00    -0.014 A 
ATOM     13  C   UNL     1       0.922   1.545  -2.291  1.00  0.00     0.119 A 
ATOM     14  C   UNL     1       2.219   2.020  -2.292  1.00  0.00     0.047 A 
ATOM     15  C   UNL     1      -0.026   2.179  -3.087  1.00  0.00     0.050 A 
ATOM     16  C   UNL     1       2.546   3.134  -3.074  1.00  0.00     0.013 A 
ATOM     17  C   UNL     1       0.294   3.300  -3.900  1.00  0.00    -0.040 A 
ATOM     18  C   UNL     1      -0.880   3.937  -4.592  1.00  0.00     0.045 C 
BRANCH  13  19
ATOM     19  O   UNL     1       0.504   0.456  -1.575  1.00  0.00    -0.497 OA
ATOM     20  C   UNL     1       1.008   0.437  -0.239  1.00  0.00     0.278 C 
ENDBRANCH  13  19
ENDBRANCH   7  12
BRANCH  11  21
ATOM     21  N   UNL     1       4.087   8.198  -6.551  1.00  0.00    -0.383 N 
ATOM     22  H   UNL     1       5.062   8.130  -6.664  1.00  0.00     0.158 HD
ATOM     23  H   UNL     1       3.617   9.021  -6.820  1.00  0.00     0.158 HD
ENDBRANCH  11  21
ENDBRANCH   4   6
ENDBRANCH   3   4
ENDBRANCH   2   3
ENDBRANCH   1   2
BRANCH   1  24
ATOM     24  O   UNL     1      -1.409   9.811  -5.517  1.00  0.00    -0.458 OA
BRANCH  24  25
ATOM     25  C   UNL     1      -1.399   9.276  -4.254  1.00  0.00     0.338 C 
ATOM     26  O   UNL     1      -2.297   8.579  -3.837  1.00  0.00    -0.246 OA
BRANCH  25  27
ATOM     27  C   UNL     1      -0.202   9.528  -3.459  1.00  0.00     0.060 A 
ATOM     28  C   UNL     1       0.527   8.447  -2.934  1.00  0.00     0.016 A 
ATOM     29  C   UNL     1       0.245  10.834  -3.327  1.00  0.00     0.016 A 
ATOM     30  C   UNL     1       1.772   8.667  -2.350  1.00  0.00     0.010 A 
ATOM     31  C   UNL     1       1.527  11.045  -2.887  1.00  0.00     0.010 A 
ATOM     32  C   UNL     1       2.253   9.975  -2.327  1.00  0.00    -0.014 A 
BRANCH  32  33
ATOM     33  C   UNL     1       3.224  10.441  -1.351  1.00  0.00     0.031 A 
ATOM     34  C   UNL     1       4.676  10.385  -1.520  1.00  0.00     0.074 A 
ATOM     35  C   UNL     1       2.617  11.135  -0.361  1.00  0.00     0.049 A 
ATOM     36  N   UNL     1       5.490  10.621  -0.551  1.00  0.00    -0.248 NA
ATOM     37  C   UNL     1       5.343  10.014  -2.761  1.00  0.00     0.031 C 
ATOM     38  C   UNL     1       3.127  12.153   0.530  1.00  0.00     0.029 A 
ATOM     39  N   UNL     1       1.294  10.936   0.066  1.00  0.00    -0.354 N 
ATOM     40  C   UNL     1       6.753  10.733  -1.088  1.00  0.00     0.074 A 
ATOM     41  C   UNL     1       6.628  10.199  -2.423  1.00  0.00     0.031 C 
ATOM     42  C   UNL     1       2.241  12.313   1.533  1.00  0.00     0.029 A 
ATOM     43  C   UNL     1       1.255  11.241   1.419  1.00  0.00     0.049 A 
ATOM     44  H   UNL     1       0.538  10.636  -0.490  1.00  0.00     0.167 HD
ATOM     45  C   UNL     1       7.690  11.421  -0.375  1.00  0.00     0.034 A 
ATOM     46  C   UNL     1       0.974  10.280   2.350  1.00  0.00     0.034 A 
ATOM     47  C   UNL     1       7.170  11.739   0.969  1.00  0.00     0.049 A 
ATOM     48  C   UNL     1       2.140  10.093   3.296  1.00  0.00     0.074 A 
ATOM     49  C   UNL     1       6.606  12.888   1.495  1.00  0.00     0.029 A 
ATOM     50  N   UNL     1       6.899  10.716   1.877  1.00  0.00    -0.354 N 
ATOM     51  N   UNL     1       3.335  10.561   3.074  1.00  0.00    -0.248 NA
ATOM     52  C   UNL     1       2.062   9.322   4.531  1.00  0.00     0.031 C 
ATOM     53  C   UNL     1       5.870  12.518   2.655  1.00  0.00     0.029 A 
ATOM     54  C   UNL     1       6.036  11.159   2.871  1.00  0.00     0.049 A 
ATOM     55  H   UNL     1       7.268   9.806   1.821  1.00  0.00     0.167 HD
ATOM     56  C   UNL     1       4.199  10.078   4.009  1.00  0.00     0.074 A 
ATOM     57  C   UNL     1       3.341   9.366   4.944  1.00  0.00     0.031 C 
ATOM     58  C   UNL     1       5.551  10.239   3.898  1.00  0.00     0.034 A 
BRANCH  45  59
ATOM     59  C   UNL     1       8.963  12.070  -0.914  1.00  0.00     0.023 A 
ATOM     60  C   UNL     1       9.700  12.869  -0.006  1.00  0.00     0.012 A 
ATOM     61  C   UNL     1       9.440  12.068  -2.249  1.00  0.00     0.148 A 
ATOM     62  C   UNL     1      10.792  13.655  -0.398  1.00  0.00     0.002 A 
ATOM     63  C   UNL     1      10.552  12.827  -2.636  1.00  0.00     0.091 A 
ATOM     64  F   UNL     1       8.802  11.374  -3.190  1.00  0.00    -0.205 F 
ATOM     65  C   UNL     1      11.220  13.637  -1.716  1.00  0.00     0.022 A 
BRANCH  63  66
ATOM     66  S   UNL     1      11.186  12.836  -4.327  1.00  0.00     0.127 S 
ATOM     67  O   UNL     1      10.911  14.209  -4.750  1.00  0.00    -0.237 OA
ATOM     68  O   UNL     1      12.603  12.531  -4.132  1.00  0.00    -0.237 OA
ATOM     69  O   UNL     1      10.442  11.812  -5.051  1.00  0.00    -0.744 OA
ENDBRANCH  63  66
ENDBRANCH  45  59
BRANCH  46  70
ATOM     70  C   UNL     1       0.120   9.144   1.843  1.00  0.00     0.023 A 
ATOM     71  C   UNL     1      -1.141   9.461   1.275  1.00  0.00     0.012 A 
ATOM     72  C   UNL     1       0.666   7.874   1.580  1.00  0.00     0.148 A 
ATOM     73  C   UNL     1      -1.776   8.590   0.383  1.00  0.00     0.002 A 
ATOM     74  C   UNL     1       0.032   7.015   0.681  1.00  0.00     0.091 A 
ATOM     75  F   UNL     1       1.830   7.533   2.149  1.00  0.00    -0.205 F 
ATOM     76  C   UNL     1      -1.176   7.377   0.068  1.00  0.00     0.022 A 
BRANCH  74  77
ATOM     77  S   UNL     1       0.858   5.519   0.118  1.00  0.00     0.127 S 
ATOM     78  O   UNL     1       0.229   5.290  -1.181  1.00  0.00    -0.237 OA
ATOM     79  O   UNL     1       2.262   5.900   0.033  1.00  0.00    -0.237 OA
ATOM     80  O   UNL     1       0.501   4.561   1.160  1.00  0.00    -0.744 OA
ENDBRANCH  74  77
ENDBRANCH  46  70
BRANCH  58  81
ATOM     81  C   UNL     1       6.537   9.519   4.776  1.00  0.00     0.023 A 
ATOM     82  C   UNL     1       6.271   8.237   5.295  1.00  0.00     0.012 A 
ATOM     83  C   UNL     1       7.829  10.052   4.986  1.00  0.00     0.148 A 
ATOM     84  C   UNL     1       7.211   7.551   6.067  1.00  0.00     0.002 A 
ATOM     85  C   UNL     1       8.798   9.316   5.658  1.00  0.00     0.091 A 
ATOM     86  F   UNL     1       8.121  11.285   4.546  1.00  0.00    -0.205 F 
ATOM     87  C   UNL     1       8.482   8.082   6.234  1.00  0.00     0.022 A 
BRANCH  85  88
ATOM     88  S   UNL     1      10.508   9.862   5.669  1.00  0.00     0.127 S 
ATOM     89  O   UNL     1      10.559  10.686   6.874  1.00  0.00    -0.237 OA
ATOM     90  O   UNL     1      11.246   8.601   5.763  1.00  0.00    -0.237 OA
ATOM     91  O   UNL     1      10.686  10.560   4.402  1.00  0.00    -0.744 OA
ENDBRANCH  85  88
ENDBRANCH  58  81
ENDBRANCH  32  33
ENDBRANCH  25  27
ENDBRANCH  24  25
ENDBRANCH   1  24
TORSDOF 17
