REMARK SMILES CCCCCCNC(=O)Oc1cccc(-c2ccc(CC(=O)OCCOC(=O)c3ccc(-c4c5nc(c(-c6cccc(S(=O)(=O)[O-])c6F)c6ccc([nH]6)c(-c6cccc(S(=O)(=O)[O-])c6F)c6nc(c(-c7cccc(S(=O)(=O)[O-])c7F)c7ccc4[nH]7)C=C6)C=C5)cc3)cc2F)c1
REMARK SMILES IDX 20 1 19 2 16 3 17 4 93 5 18 6 92 7 94 8 15 9 11 10 12 11
REMARK SMILES IDX 95 12 13 13 14 14 10 15 8 16 7 17 9 19 6 20 5 21 4 22 3 23
REMARK SMILES IDX 2 24 1 25 21 26 22 27 23 28 24 29 25 30 26 31 27 32 28 33
REMARK SMILES IDX 29 34 30 35 91 36 31 37 90 38 32 39 33 40 34 41 84 42 35 43
REMARK SMILES IDX 89 44 83 45 85 46 36 47 88 48 82 49 81 50 37 52 69 53 49 54
REMARK SMILES IDX 68 55 50 56 53 57 67 58 86 59 51 60 52 61 66 63 87 64 54 65
REMARK SMILES IDX 38 66 39 67 47 68 40 69 42 70 48 71 41 72 43 73 44 74 45 75
REMARK SMILES IDX 46 76 70 77 71 78 79 79 72 80 74 81 80 82 73 83 75 84 76 85
REMARK SMILES IDX 77 86 78 87 55 88 56 89 64 90 57 91 59 92 65 93 58 94 60 95
REMARK SMILES IDX 61 96 62 97 63 98
REMARK H PARENT 7 18 85 51 53 62
REMARK Flexibility Score: inf
ROOT
ATOM      1  C   UNL     1      -4.880  10.340   8.424  1.00  0.00     0.158 C 
ENDROOT
BRANCH   1   2
ATOM      2  C   UNL     1      -5.004   8.855   8.185  1.00  0.00    -0.034 A 
ATOM      3  C   UNL     1      -5.164   6.064   7.699  1.00  0.00     0.018 A 
ATOM      4  C   UNL     1      -5.104   6.563   9.007  1.00  0.00     0.012 A 
ATOM      5  C   UNL     1      -5.141   6.991   6.648  1.00  0.00     0.131 A 
ATOM      6  C   UNL     1      -5.019   7.940   9.246  1.00  0.00     0.005 A 
ATOM      7  C   UNL     1      -5.067   8.362   6.878  1.00  0.00     0.044 A 
ATOM      8  F   UNL     1      -5.196   6.570   5.374  1.00  0.00    -0.206 F 
BRANCH   3   9
ATOM      9  C   UNL     1      -5.247   4.623   7.436  1.00  0.00    -0.012 A 
ATOM     10  C   UNL     1      -4.362   2.617   6.402  1.00  0.00     0.133 A 
ATOM     11  C   UNL     1      -5.465   1.880   6.826  1.00  0.00     0.047 A 
ATOM     12  C   UNL     1      -4.252   3.977   6.689  1.00  0.00     0.056 A 
ATOM     13  C   UNL     1      -6.452   2.507   7.584  1.00  0.00     0.004 A 
ATOM     14  C   UNL     1      -6.341   3.867   7.890  1.00  0.00     0.009 A 
BRANCH  10  15
ATOM     15  O   UNL     1      -3.442   1.974   5.561  1.00  0.00    -0.410 OA
BRANCH  15  16
ATOM     16  C   UNL     1      -2.100   2.039   5.907  1.00  0.00     0.412 C 
ATOM     17  N   UNL     1      -1.276   1.496   4.959  1.00  0.00    -0.321 N 
ATOM     18  H   UNL     1      -0.312   1.496   5.162  1.00  0.00     0.167 HD
ATOM     19  O   UNL     1      -1.640   2.512   6.938  1.00  0.00    -0.224 OA
BRANCH  17  20
ATOM     20  C   UNL     1      -1.671   0.923   3.690  1.00  0.00     0.119 C 
BRANCH  20  21
ATOM     21  C   UNL     1      -1.063   1.676   2.506  1.00  0.00     0.021 C 
BRANCH  21  22
ATOM     22  C   UNL     1       0.467   1.618   2.421  1.00  0.00     0.002 C 
BRANCH  22  23
ATOM     23  C   UNL     1       1.074   0.213   2.342  1.00  0.00    -0.000 C 
BRANCH  23  24
ATOM     24  C   UNL     1       0.593  -0.647   1.171  1.00  0.00    -0.003 C 
ATOM     25  C   UNL     1       0.954  -0.070  -0.189  1.00  0.00     0.004 C 
ENDBRANCH  23  24
ENDBRANCH  22  23
ENDBRANCH  21  22
ENDBRANCH  20  21
ENDBRANCH  17  20
ENDBRANCH  15  16
ENDBRANCH  10  15
ENDBRANCH   3   9
ENDBRANCH   1   2
BRANCH   1  26
ATOM     26  C   UNL     1      -6.068  11.044   9.036  1.00  0.00     0.310 C 
ATOM     27  O   UNL     1      -5.961  12.148   9.559  1.00  0.00    -0.252 OA
BRANCH  26  28
ATOM     28  O   UNL     1      -7.239  10.369   8.894  1.00  0.00    -0.462 OA
BRANCH  28  29
ATOM     29  C   UNL     1      -8.399  11.000   9.471  1.00  0.00     0.274 C 
BRANCH  29  30
ATOM     30  C   UNL     1      -8.727  10.402  10.837  1.00  0.00     0.275 C 
BRANCH  30  31
ATOM     31  O   UNL     1      -7.626  10.594  11.742  1.00  0.00    -0.458 OA
BRANCH  31  32
ATOM     32  C   UNL     1      -7.028   9.465  12.180  1.00  0.00     0.338 C 
ATOM     33  O   UNL     1      -7.334   8.311  11.930  1.00  0.00    -0.246 OA
BRANCH  32  34
ATOM     34  C   UNL     1      -5.875   9.815  13.020  1.00  0.00     0.060 A 
ATOM     35  C   UNL     1      -4.684  10.230  12.421  1.00  0.00     0.016 A 
ATOM     36  C   UNL     1      -5.944   9.607  14.396  1.00  0.00     0.016 A 
ATOM     37  C   UNL     1      -3.536  10.387  13.193  1.00  0.00     0.010 A 
ATOM     38  C   UNL     1      -4.807   9.824  15.177  1.00  0.00     0.010 A 
ATOM     39  C   UNL     1      -3.587  10.187  14.579  1.00  0.00    -0.014 A 
BRANCH  39  40
ATOM     40  C   UNL     1      -2.367  10.341  15.412  1.00  0.00     0.031 A 
ATOM     41  C   UNL     1      -1.784   9.151  16.123  1.00  0.00     0.074 A 
ATOM     42  C   UNL     1      -1.814  11.559  15.566  1.00  0.00     0.049 A 
ATOM     43  N   UNL     1      -0.812   9.106  16.997  1.00  0.00    -0.248 NA
ATOM     44  C   UNL     1      -2.380   7.839  15.821  1.00  0.00     0.031 C 
ATOM     45  C   UNL     1      -2.291  12.789  14.932  1.00  0.00     0.029 A 
ATOM     46  N   UNL     1      -0.748  11.967  16.328  1.00  0.00    -0.354 N 
ATOM     47  C   UNL     1      -0.713   7.777  17.388  1.00  0.00     0.074 A 
ATOM     48  C   UNL     1      -1.724   7.044  16.655  1.00  0.00     0.031 C 
ATOM     49  C   UNL     1      -1.533  13.817  15.345  1.00  0.00     0.029 A 
ATOM     50  C   UNL     1      -0.549  13.328  16.305  1.00  0.00     0.049 A 
ATOM     51  H   UNL     1      -0.182  11.347  16.841  1.00  0.00     0.167 HD
ATOM     52  C   UNL     1       0.151   7.215  18.267  1.00  0.00     0.034 A 
ATOM     53  C   UNL     1       0.306  14.100  17.003  1.00  0.00     0.034 A 
ATOM     54  C   UNL     1       1.187   7.938  18.956  1.00  0.00     0.049 A 
ATOM     55  C   UNL     1       1.258  13.449  17.968  1.00  0.00     0.074 A 
ATOM     56  C   UNL     1       2.147   7.448  19.825  1.00  0.00     0.029 A 
ATOM     57  N   UNL     1       1.401   9.304  18.854  1.00  0.00    -0.354 N 
ATOM     58  N   UNL     1       1.403  12.177  18.253  1.00  0.00    -0.248 NA
ATOM     59  C   UNL     1       2.182  14.335  18.690  1.00  0.00     0.031 C 
ATOM     60  C   UNL     1       2.934   8.521  20.257  1.00  0.00     0.029 A 
ATOM     61  C   UNL     1       2.474   9.676  19.646  1.00  0.00     0.049 A 
ATOM     62  H   UNL     1       0.869   9.919  18.299  1.00  0.00     0.167 HD
ATOM     63  C   UNL     1       2.450  12.108  19.164  1.00  0.00     0.074 A 
ATOM     64  C   UNL     1       2.919  13.464  19.365  1.00  0.00     0.031 C 
ATOM     65  C   UNL     1       2.965  11.022  19.793  1.00  0.00     0.034 A 
BRANCH  52  66
ATOM     66  C   UNL     1       0.039   5.733  18.511  1.00  0.00     0.023 A 
ATOM     67  C   UNL     1       0.500   4.831  17.531  1.00  0.00     0.012 A 
ATOM     68  C   UNL     1      -0.463   5.234  19.729  1.00  0.00     0.148 A 
ATOM     69  C   UNL     1       0.439   3.454  17.748  1.00  0.00     0.002 A 
ATOM     70  C   UNL     1      -0.486   3.861  19.954  1.00  0.00     0.091 A 
ATOM     71  F   UNL     1      -0.920   6.106  20.639  1.00  0.00    -0.205 F 
ATOM     72  C   UNL     1      -0.044   2.971  18.962  1.00  0.00     0.022 A 
BRANCH  70  73
ATOM     73  S   UNL     1      -1.022   3.148  21.513  1.00  0.00     0.127 S 
ATOM     74  O   UNL     1      -2.334   2.611  21.158  1.00  0.00    -0.237 OA
ATOM     75  O   UNL     1       0.004   2.134  21.760  1.00  0.00    -0.237 OA
ATOM     76  O   UNL     1      -1.029   4.244  22.472  1.00  0.00    -0.744 OA
ENDBRANCH  70  73
ENDBRANCH  52  66
BRANCH  53  77
ATOM     77  C   UNL     1       0.319  15.573  16.784  1.00  0.00     0.023 A 
ATOM     78  C   UNL     1       1.415  16.163  16.128  1.00  0.00     0.012 A 
ATOM     79  C   UNL     1      -0.763  16.384  17.180  1.00  0.00     0.148 A 
ATOM     80  C   UNL     1       1.445  17.537  15.889  1.00  0.00     0.002 A 
ATOM     81  C   UNL     1      -0.753  17.743  16.889  1.00  0.00     0.091 A 
ATOM     82  F   UNL     1      -1.789  15.807  17.822  1.00  0.00    -0.205 F 
ATOM     83  C   UNL     1       0.357  18.324  16.258  1.00  0.00     0.022 A 
BRANCH  81  84
ATOM     84  S   UNL     1      -2.170  18.801  17.207  1.00  0.00     0.127 S 
ATOM     85  O   UNL     1      -1.725  19.554  18.376  1.00  0.00    -0.237 OA
ATOM     86  O   UNL     1      -2.255  19.578  15.970  1.00  0.00    -0.237 OA
ATOM     87  O   UNL     1      -3.291  17.895  17.420  1.00  0.00    -0.744 OA
ENDBRANCH  81  84
ENDBRANCH  53  77
BRANCH  65  88
ATOM     88  C   UNL     1       4.113  11.246  20.740  1.00  0.00     0.023 A 
ATOM     89  C   UNL     1       3.871  11.823  22.002  1.00  0.00     0.012 A 
ATOM     90  C   UNL     1       5.415  10.821  20.411  1.00  0.00     0.148 A 
ATOM     91  C   UNL     1       4.912  11.998  22.912  1.00  0.00     0.002 A 
ATOM     92  C   UNL     1       6.440  10.960  21.340  1.00  0.00     0.091 A 
ATOM     93  F   UNL     1       5.630  10.295  19.196  1.00  0.00    -0.205 F 
ATOM     94  C   UNL     1       6.193  11.557  22.587  1.00  0.00     0.022 A 
BRANCH  92  95
ATOM     95  S   UNL     1       8.098  10.338  21.036  1.00  0.00     0.127 S 
ATOM     96  O   UNL     1       8.828  11.568  20.735  1.00  0.00    -0.237 OA
ATOM     97  O   UNL     1       8.443   9.724  22.319  1.00  0.00    -0.237 OA
ATOM     98  O   UNL     1       7.973   9.395  19.933  1.00  0.00    -0.744 OA
ENDBRANCH  92  95
ENDBRANCH  65  88
ENDBRANCH  39  40
ENDBRANCH  32  34
ENDBRANCH  31  32
ENDBRANCH  30  31
ENDBRANCH  29  30
ENDBRANCH  28  29
ENDBRANCH  26  28
ENDBRANCH   1  26
TORSDOF 23
