REMARK SMILES CCc1cc(N2CCC[C@H](C(=O)OCCOC(=O)c3ccc(-c4c5nc(c(-c6cccc(S(=O)(=O)[O-])c6F)c6ccc([nH]6)c(-c6cccc(S(=O)(=O)[O-])c6F)c6nc(c(-c7cccc(S(=O)(=O)[O-])c7F)c7ccc4[nH]7)C=C6)C=C5)cc3)C2)nc(-c2ccc(Cl)cc2)n1
REMARK SMILES IDX 15 1 14 2 13 3 11 4 12 5 10 6 6 7 7 8 82 9 8 10 9 11 5 12
REMARK SMILES IDX 3 13 4 14 92 15 84 16 83 17 2 18 1 19 85 20 86 21 91 22
REMARK SMILES IDX 87 23 90 24 88 25 89 26 16 27 17 28 18 29 19 30 20 31 81 32
REMARK SMILES IDX 21 33 80 34 22 35 23 36 24 37 74 38 25 39 79 40 73 41 75 42
REMARK SMILES IDX 26 43 78 44 72 45 71 46 27 48 59 49 39 50 58 51 40 52 43 53
REMARK SMILES IDX 57 54 76 55 41 56 42 57 56 59 77 60 44 61 28 62 29 63 37 64
REMARK SMILES IDX 30 65 32 66 38 67 31 68 33 69 34 70 35 71 36 72 60 73 61 74
REMARK SMILES IDX 69 75 62 76 64 77 70 78 63 79 65 80 66 81 67 82 68 83 45 84
REMARK SMILES IDX 46 85 54 86 47 87 49 88 55 89 48 90 50 91 51 92 52 93 53 94
REMARK H PARENT 75 47 43 58
REMARK Flexibility Score: inf
ROOT
ATOM      1  C   UNL     1      -0.333   0.465   9.392  1.00  0.00     0.275 C 
ENDROOT
BRANCH   1   2
ATOM      2  C   UNL     1       0.023   0.189   7.933  1.00  0.00     0.274 C 
BRANCH   2   3
ATOM      3  O   UNL     1       0.485   1.385   7.286  1.00  0.00    -0.462 OA
BRANCH   3   4
ATOM      4  C   UNL     1      -0.273   1.900   6.288  1.00  0.00     0.310 C 
ATOM      5  O   UNL     1      -1.348   1.442   5.917  1.00  0.00    -0.252 OA
BRANCH   4   6
ATOM      6  C   UNL     1       0.345   3.139   5.657  1.00  0.00     0.118 C 
ATOM      7  N   UNL     1       1.864   2.005   4.113  1.00  0.00    -0.356 N 
ATOM      8  C   UNL     1       3.080   2.452   4.778  1.00  0.00     0.118 C 
ATOM      9  C   UNL     1       0.676   2.847   4.199  1.00  0.00     0.133 C 
ATOM     10  C   UNL     1       2.825   2.881   6.220  1.00  0.00     0.022 C 
ATOM     11  C   UNL     1       1.561   3.731   6.378  1.00  0.00     0.019 C 
BRANCH   7  12
ATOM     12  C   UNL     1       1.710   0.686   3.721  1.00  0.00     0.132 A 
ATOM     13  C   UNL     1       1.023  -0.883   2.077  1.00  0.00     0.046 A 
ATOM     14  C   UNL     1       1.124   0.427   2.492  1.00  0.00     0.070 A 
ATOM     15  N   UNL     1       1.426  -1.897   2.859  1.00  0.00    -0.233 NA
ATOM     16  C   UNL     1       1.928  -1.565   4.063  1.00  0.00     0.161 A 
ATOM     17  N   UNL     1       2.122  -0.312   4.521  1.00  0.00    -0.211 NA
BRANCH  13  18
ATOM     18  C   UNL     1       0.416  -1.246   0.748  1.00  0.00     0.053 C 
ATOM     19  C   UNL     1       0.927  -0.407  -0.417  1.00  0.00     0.011 C 
ENDBRANCH  13  18
BRANCH  16  20
ATOM     20  C   UNL     1       2.205  -2.688   4.962  1.00  0.00     0.019 A 
ATOM     21  C   UNL     1       3.194  -3.635   4.653  1.00  0.00     0.013 A 
ATOM     22  C   UNL     1       1.425  -2.898   6.113  1.00  0.00     0.013 A 
ATOM     23  C   UNL     1       3.407  -4.749   5.473  1.00  0.00     0.021 A 
ATOM     24  C   UNL     1       1.633  -4.009   6.936  1.00  0.00     0.021 A 
ATOM     25  C   UNL     1       2.625  -4.930   6.611  1.00  0.00     0.041 A 
ATOM     26  Cl  UNL     1       2.873  -6.311   7.608  1.00  0.00    -0.084 Cl
ENDBRANCH  16  20
ENDBRANCH   7  12
ENDBRANCH   4   6
ENDBRANCH   3   4
ENDBRANCH   2   3
ENDBRANCH   1   2
BRANCH   1  27
ATOM     27  O   UNL     1      -1.455   1.354   9.483  1.00  0.00    -0.458 OA
BRANCH  27  28
ATOM     28  C   UNL     1      -1.130   2.667   9.528  1.00  0.00     0.338 C 
ATOM     29  O   UNL     1      -0.018   3.160   9.593  1.00  0.00    -0.246 OA
BRANCH  28  30
ATOM     30  C   UNL     1      -2.346   3.462   9.332  1.00  0.00     0.060 A 
ATOM     31  C   UNL     1      -2.449   4.221   8.165  1.00  0.00     0.016 A 
ATOM     32  C   UNL     1      -3.334   3.515  10.314  1.00  0.00     0.016 A 
ATOM     33  C   UNL     1      -3.539   5.059   7.973  1.00  0.00     0.010 A 
ATOM     34  C   UNL     1      -4.430   4.357  10.122  1.00  0.00     0.010 A 
ATOM     35  C   UNL     1      -4.526   5.146   8.961  1.00  0.00    -0.014 A 
BRANCH  35  36
ATOM     36  C   UNL     1      -5.630   6.117   8.812  1.00  0.00     0.031 A 
ATOM     37  C   UNL     1      -5.639   7.356   9.657  1.00  0.00     0.074 A 
ATOM     38  C   UNL     1      -6.626   5.866   7.946  1.00  0.00     0.049 A 
ATOM     39  N   UNL     1      -6.558   8.278   9.758  1.00  0.00    -0.248 NA
ATOM     40  C   UNL     1      -4.461   7.579  10.511  1.00  0.00     0.031 C 
ATOM     41  C   UNL     1      -6.712   4.690   7.080  1.00  0.00     0.029 A 
ATOM     42  N   UNL     1      -7.773   6.567   7.680  1.00  0.00    -0.354 N 
ATOM     43  C   UNL     1      -6.098   9.162  10.725  1.00  0.00     0.074 A 
ATOM     44  C   UNL     1      -4.814   8.670  11.175  1.00  0.00     0.031 C 
ATOM     45  C   UNL     1      -7.870   4.732   6.403  1.00  0.00     0.029 A 
ATOM     46  C   UNL     1      -8.619   5.916   6.814  1.00  0.00     0.049 A 
ATOM     47  H   UNL     1      -7.971   7.449   8.070  1.00  0.00     0.167 HD
ATOM     48  C   UNL     1      -6.692  10.287  11.188  1.00  0.00     0.034 A 
ATOM     49  C   UNL     1      -9.872   6.223   6.426  1.00  0.00     0.034 A 
ATOM     50  C   UNL     1      -7.948  10.788  10.700  1.00  0.00     0.049 A 
ATOM     51  C   UNL     1     -10.503   7.488   6.939  1.00  0.00     0.074 A 
ATOM     52  C   UNL     1      -8.602  11.957  11.045  1.00  0.00     0.029 A 
ATOM     53  N   UNL     1      -8.746  10.143   9.767  1.00  0.00    -0.354 N 
ATOM     54  N   UNL     1     -10.007   8.380   7.763  1.00  0.00    -0.248 NA
ATOM     55  C   UNL     1     -11.851   7.805   6.449  1.00  0.00     0.031 C 
ATOM     56  C   UNL     1      -9.805  12.009  10.332  1.00  0.00     0.029 A 
ATOM     57  C   UNL     1      -9.893  10.881   9.531  1.00  0.00     0.049 A 
ATOM     58  H   UNL     1      -8.529   9.285   9.335  1.00  0.00     0.167 HD
ATOM     59  C   UNL     1     -10.971   9.374   7.876  1.00  0.00     0.074 A 
ATOM     60  C   UNL     1     -12.071   8.985   7.015  1.00  0.00     0.031 C 
ATOM     61  C   UNL     1     -10.956  10.498   8.636  1.00  0.00     0.034 A 
BRANCH  48  62
ATOM     62  C   UNL     1      -5.975  11.056  12.264  1.00  0.00     0.023 A 
ATOM     63  C   UNL     1      -4.831  11.812  11.940  1.00  0.00     0.012 A 
ATOM     64  C   UNL     1      -6.445  11.047  13.591  1.00  0.00     0.148 A 
ATOM     65  C   UNL     1      -4.145  12.520  12.927  1.00  0.00     0.002 A 
ATOM     66  C   UNL     1      -5.778  11.786  14.562  1.00  0.00     0.091 A 
ATOM     67  F   UNL     1      -7.515  10.296  13.889  1.00  0.00    -0.205 F 
ATOM     68  C   UNL     1      -4.623  12.514  14.235  1.00  0.00     0.022 A 
BRANCH  66  69
ATOM     69  S   UNL     1      -6.368  11.887  16.256  1.00  0.00     0.127 S 
ATOM     70  O   UNL     1      -5.495  10.930  16.932  1.00  0.00    -0.237 OA
ATOM     71  O   UNL     1      -6.113  13.288  16.594  1.00  0.00    -0.237 OA
ATOM     72  O   UNL     1      -7.779  11.531  16.202  1.00  0.00    -0.744 OA
ENDBRANCH  66  69
ENDBRANCH  48  62
BRANCH  49  73
ATOM     73  C   UNL     1     -10.582   5.319   5.481  1.00  0.00     0.023 A 
ATOM     74  C   UNL     1     -10.777   5.723   4.148  1.00  0.00     0.012 A 
ATOM     75  C   UNL     1     -10.988   4.028   5.876  1.00  0.00     0.148 A 
ATOM     76  C   UNL     1     -11.373   4.862   3.225  1.00  0.00     0.002 A 
ATOM     77  C   UNL     1     -11.530   3.156   4.940  1.00  0.00     0.091 A 
ATOM     78  F   UNL     1     -10.807   3.670   7.155  1.00  0.00    -0.205 F 
ATOM     79  C   UNL     1     -11.736   3.576   3.617  1.00  0.00     0.022 A 
BRANCH  77  80
ATOM     80  S   UNL     1     -11.896   1.438   5.319  1.00  0.00     0.127 S 
ATOM     81  O   UNL     1     -13.355   1.427   5.280  1.00  0.00    -0.237 OA
ATOM     82  O   UNL     1     -11.244   0.740   4.210  1.00  0.00    -0.237 OA
ATOM     83  O   UNL     1     -11.296   1.186   6.622  1.00  0.00    -0.744 OA
ENDBRANCH  77  80
ENDBRANCH  49  73
BRANCH  61  84
ATOM     84  C   UNL     1     -12.160  11.399   8.566  1.00  0.00     0.023 A 
ATOM     85  C   UNL     1     -13.349  11.021   9.219  1.00  0.00     0.012 A 
ATOM     86  C   UNL     1     -12.087  12.653   7.928  1.00  0.00     0.148 A 
ATOM     87  C   UNL     1     -14.457  11.867   9.217  1.00  0.00     0.002 A 
ATOM     88  C   UNL     1     -13.181  13.510   7.968  1.00  0.00     0.091 A 
ATOM     89  F   UNL     1     -10.953  12.985   7.294  1.00  0.00    -0.205 F 
ATOM     90  C   UNL     1     -14.369  13.115   8.604  1.00  0.00     0.022 A 
BRANCH  88  91
ATOM     91  S   UNL     1     -13.120  15.170   7.284  1.00  0.00     0.127 S 
ATOM     92  O   UNL     1     -13.863  15.006   6.036  1.00  0.00    -0.237 OA
ATOM     93  O   UNL     1     -13.810  15.957   8.306  1.00  0.00    -0.237 OA
ATOM     94  O   UNL     1     -11.705  15.486   7.138  1.00  0.00    -0.744 OA
ENDBRANCH  88  91
ENDBRANCH  61  84
ENDBRANCH  35  36
ENDBRANCH  28  30
ENDBRANCH  27  28
ENDBRANCH   1  27
TORSDOF 17
