REMARK SMILES CC(C)CCc1cc2c(cc1Cl)C=C(C(=O)OCCOC(=O)c1ccc(-c3c4nc(c(-c5cccc(S(=O)(=O)[O-])c5F)c5ccc([nH]5)c(-c5cccc(S(=O)(=O)[O-])c5F)c5nc(c(-c6cccc(S(=O)(=O)[O-])c6F)c6ccc3[nH]6)C=C5)C=C4)cc1)[C@@H](C(F)(F)F)O2
REMARK SMILES IDX 18 1 17 2 15 3 16 4 14 5 6 6 7 7 11 8 8 9 10 10 12 11 9 12
REMARK SMILES IDX 91 13 13 14 86 15 5 16 4 17 2 18 1 19 3 20 87 21 88 22 89 23
REMARK SMILES IDX 90 24 19 25 20 26 21 27 22 28 23 29 24 30 85 31 25 32 84 33
REMARK SMILES IDX 26 34 27 35 28 36 78 37 29 38 83 39 77 40 79 41 30 42 82 43
REMARK SMILES IDX 76 44 75 45 31 47 63 48 43 49 62 50 44 51 47 52 61 53 80 54
REMARK SMILES IDX 45 55 46 56 60 58 81 59 48 60 32 61 33 62 41 63 34 64 36 65
REMARK SMILES IDX 42 66 35 67 37 68 38 69 39 70 40 71 64 72 65 73 73 74 66 75
REMARK SMILES IDX 68 76 74 77 67 78 69 79 70 80 71 81 72 82 49 83 50 84 58 85
REMARK SMILES IDX 51 86 53 87 59 88 52 89 54 90 55 91 56 92 57 93
REMARK H PARENT 79 46 47 57
REMARK Flexibility Score: inf
ROOT
ATOM      1  C   UNL     1       1.153   3.867  10.324  1.00  0.00     0.275 C 
ENDROOT
BRANCH   1   2
ATOM      2  O   UNL     1       0.565   3.647   9.024  1.00  0.00    -0.459 OA
BRANCH   2   3
ATOM      3  C   UNL     1       1.238   2.798   8.212  1.00  0.00     0.338 C 
ATOM      4  O   UNL     1       2.295   2.239   8.464  1.00  0.00    -0.246 OA
BRANCH   3   5
ATOM      5  C   UNL     1       0.498   2.592   6.952  1.00  0.00     0.087 C 
ATOM      6  C   UNL     1      -1.342   0.688   2.674  1.00  0.00    -0.026 A 
ATOM      7  C   UNL     1      -1.298   1.981   3.240  1.00  0.00     0.052 A 
ATOM      8  C   UNL     1      -0.935  -0.399   3.464  1.00  0.00     0.045 A 
ATOM      9  C   UNL     1      -0.754   2.198   4.505  1.00  0.00     0.128 A 
ATOM     10  C   UNL     1      -0.411  -0.184   4.738  1.00  0.00     0.032 A 
ATOM     11  Cl  UNL     1      -1.024  -2.036   2.920  1.00  0.00    -0.084 Cl
ATOM     12  C   UNL     1      -0.288   1.115   5.237  1.00  0.00     0.019 A 
ATOM     13  O   UNL     1      -0.706   3.490   4.950  1.00  0.00    -0.475 OA
ATOM     14  C   UNL     1       0.359   1.339   6.509  1.00  0.00     0.027 C 
ATOM     15  C   UNL     1       0.047   3.787   6.163  1.00  0.00     0.316 C 
BRANCH   6  16
ATOM     16  C   UNL     1      -1.791   0.519   1.239  1.00  0.00     0.037 C 
BRANCH  16  17
ATOM     17  C   UNL     1      -1.091   1.463   0.244  1.00  0.00     0.008 C 
BRANCH  17  18
ATOM     18  C   UNL     1       0.452   1.423   0.270  1.00  0.00    -0.017 C 
ATOM     19  C   UNL     1       1.009   0.078  -0.193  1.00  0.00     0.007 C 
ATOM     20  C   UNL     1       1.011   2.551  -0.600  1.00  0.00     0.007 C 
ENDBRANCH  17  18
ENDBRANCH  16  17
ENDBRANCH   6  16
BRANCH  15  21
ATOM     21  C   UNL     1       1.244   4.680   5.795  1.00  0.00     0.430 C 
ATOM     22  F   UNL     1       0.855   5.751   5.061  1.00  0.00    -0.167 F 
ATOM     23  F   UNL     1       1.854   5.177   6.900  1.00  0.00    -0.167 F 
ATOM     24  F   UNL     1       2.181   4.018   5.080  1.00  0.00    -0.167 F 
ENDBRANCH  15  21
ENDBRANCH   3   5
ENDBRANCH   2   3
ENDBRANCH   1   2
BRANCH   1  25
ATOM     25  C   UNL     1       0.388   3.122  11.420  1.00  0.00     0.275 C 
BRANCH  25  26
ATOM     26  O   UNL     1       0.588   1.702  11.306  1.00  0.00    -0.458 OA
BRANCH  26  27
ATOM     27  C   UNL     1      -0.430   1.026  10.726  1.00  0.00     0.338 C 
ATOM     28  O   UNL     1      -1.488   1.482  10.329  1.00  0.00    -0.246 OA
BRANCH  27  29
ATOM     29  C   UNL     1      -0.036  -0.374  10.521  1.00  0.00     0.060 A 
ATOM     30  C   UNL     1      -0.547  -1.401  11.302  1.00  0.00     0.016 A 
ATOM     31  C   UNL     1       0.741  -0.669   9.408  1.00  0.00     0.016 A 
ATOM     32  C   UNL     1      -0.260  -2.727  10.949  1.00  0.00     0.010 A 
ATOM     33  C   UNL     1       0.878  -1.978   8.965  1.00  0.00     0.010 A 
ATOM     34  C   UNL     1       0.417  -3.037   9.749  1.00  0.00    -0.014 A 
BRANCH  34  35
ATOM     35  C   UNL     1       0.638  -4.449   9.316  1.00  0.00     0.031 A 
ATOM     36  C   UNL     1       2.018  -4.958   8.958  1.00  0.00     0.074 A 
ATOM     37  C   UNL     1      -0.421  -5.279   9.199  1.00  0.00     0.049 A 
ATOM     38  N   UNL     1       2.380  -6.167   8.605  1.00  0.00    -0.248 NA
ATOM     39  C   UNL     1       3.132  -3.992   8.952  1.00  0.00     0.031 C 
ATOM     40  C   UNL     1      -1.824  -4.891   9.370  1.00  0.00     0.029 A 
ATOM     41  N   UNL     1      -0.486  -6.622   8.921  1.00  0.00    -0.354 N 
ATOM     42  C   UNL     1       3.734  -6.091   8.296  1.00  0.00     0.074 A 
ATOM     43  C   UNL     1       4.126  -4.711   8.450  1.00  0.00     0.031 C 
ATOM     44  C   UNL     1      -2.600  -5.981   9.275  1.00  0.00     0.029 A 
ATOM     45  C   UNL     1      -1.759  -7.140   8.999  1.00  0.00     0.049 A 
ATOM     46  H   UNL     1       0.302  -7.163   8.688  1.00  0.00     0.167 HD
ATOM     47  C   UNL     1       4.593  -7.084   7.968  1.00  0.00     0.034 A 
ATOM     48  C   UNL     1      -2.203  -8.408   8.890  1.00  0.00     0.034 A 
ATOM     49  C   UNL     1       4.232  -8.472   7.920  1.00  0.00     0.049 A 
ATOM     50  C   UNL     1      -1.215  -9.512   8.646  1.00  0.00     0.074 A 
ATOM     51  C   UNL     1       5.056  -9.565   7.723  1.00  0.00     0.029 A 
ATOM     52  N   UNL     1       2.947  -8.959   8.088  1.00  0.00    -0.354 N 
ATOM     53  N   UNL     1       0.085  -9.431   8.509  1.00  0.00    -0.248 NA
ATOM     54  C   UNL     1      -1.746 -10.881   8.569  1.00  0.00     0.031 C 
ATOM     55  C   UNL     1       4.267 -10.717   7.771  1.00  0.00     0.029 A 
ATOM     56  C   UNL     1       2.955 -10.338   8.006  1.00  0.00     0.049 A 
ATOM     57  H   UNL     1       2.148  -8.405   8.243  1.00  0.00     0.167 HD
ATOM     58  C   UNL     1       0.532 -10.736   8.343  1.00  0.00     0.074 A 
ATOM     59  C   UNL     1      -0.634 -11.592   8.417  1.00  0.00     0.031 C 
ATOM     60  C   UNL     1       1.794 -11.179   8.130  1.00  0.00     0.034 A 
BRANCH  47  61
ATOM     61  C   UNL     1       6.040  -6.731   7.745  1.00  0.00     0.023 A 
ATOM     62  C   UNL     1       6.853  -6.441   8.860  1.00  0.00     0.012 A 
ATOM     63  C   UNL     1       6.619  -6.791   6.462  1.00  0.00     0.148 A 
ATOM     64  C   UNL     1       8.216  -6.197   8.702  1.00  0.00     0.002 A 
ATOM     65  C   UNL     1       7.986  -6.581   6.316  1.00  0.00     0.091 A 
ATOM     66  F   UNL     1       5.826  -7.062   5.416  1.00  0.00    -0.205 F 
ATOM     67  C   UNL     1       8.783  -6.278   7.433  1.00  0.00     0.022 A 
BRANCH  65  68
ATOM     68  S   UNL     1       8.835  -6.721   4.739  1.00  0.00     0.127 S 
ATOM     69  O   UNL     1       9.322  -5.356   4.544  1.00  0.00    -0.237 OA
ATOM     70  O   UNL     1       9.877  -7.702   5.040  1.00  0.00    -0.237 OA
ATOM     71  O   UNL     1       7.834  -7.162   3.778  1.00  0.00    -0.744 OA
ENDBRANCH  65  68
ENDBRANCH  47  61
BRANCH  48  72
ATOM     72  C   UNL     1      -3.644  -8.696   9.127  1.00  0.00     0.023 A 
ATOM     73  C   UNL     1      -4.036  -9.257  10.359  1.00  0.00     0.012 A 
ATOM     74  C   UNL     1      -4.630  -8.335   8.189  1.00  0.00     0.148 A 
ATOM     75  C   UNL     1      -5.385  -9.458  10.651  1.00  0.00     0.002 A 
ATOM     76  C   UNL     1      -5.974  -8.500   8.503  1.00  0.00     0.091 A 
ATOM     77  F   UNL     1      -4.230  -7.803   7.026  1.00  0.00    -0.205 F 
ATOM     78  C   UNL     1      -6.353  -9.070   9.729  1.00  0.00     0.022 A 
BRANCH  76  79
ATOM     79  S   UNL     1      -7.298  -7.933   7.430  1.00  0.00     0.127 S 
ATOM     80  O   UNL     1      -7.952  -9.190   7.073  1.00  0.00    -0.237 OA
ATOM     81  O   UNL     1      -8.065  -7.073   8.332  1.00  0.00    -0.237 OA
ATOM     82  O   UNL     1      -6.647  -7.232   6.332  1.00  0.00    -0.744 OA
ENDBRANCH  76  79
ENDBRANCH  48  72
BRANCH  60  83
ATOM     83  C   UNL     1       2.010 -12.656   7.967  1.00  0.00     0.023 A 
ATOM     84  C   UNL     1       1.730 -13.257   6.725  1.00  0.00     0.012 A 
ATOM     85  C   UNL     1       2.625 -13.407   8.986  1.00  0.00     0.148 A 
ATOM     86  C   UNL     1       2.059 -14.593   6.500  1.00  0.00     0.002 A 
ATOM     87  C   UNL     1       2.980 -14.728   8.744  1.00  0.00     0.091 A 
ATOM     88  F   UNL     1       2.874 -12.807  10.159  1.00  0.00    -0.205 F 
ATOM     89  C   UNL     1       2.695 -15.323   7.503  1.00  0.00     0.022 A 
BRANCH  87  90
ATOM     90  S   UNL     1       3.871 -15.726   9.941  1.00  0.00     0.127 S 
ATOM     91  O   UNL     1       2.881 -16.750  10.270  1.00  0.00    -0.237 OA
ATOM     92  O   UNL     1       5.009 -16.207   9.157  1.00  0.00    -0.237 OA
ATOM     93  O   UNL     1       4.221 -14.831  11.036  1.00  0.00    -0.744 OA
ENDBRANCH  87  90
ENDBRANCH  60  83
ENDBRANCH  34  35
ENDBRANCH  27  29
ENDBRANCH  26  27
ENDBRANCH  25  26
ENDBRANCH   1  25
TORSDOF 18
