REMARK SMILES O=C(Cc1csc(NC(=O)c2ccccc2Cl)n1)OCCOC(=O)c1ccc(-c2c3nc(c(-c4cccc(S(=O)(=O)[O-])c4F)c4ccc([nH]4)c(-c4cccc(S(=O)(=O)[O-])c4F)c4nc(c(-c5cccc(S(=O)(=O)[O-])c5F)c5ccc2[nH]5)C=C4)C=C3)cc1
REMARK SMILES IDX 20 1 19 2 2 3 1 4 3 5 4 6 5 7 18 8 6 9 7 10 8 11 9 12 10 14
REMARK SMILES IDX 11 15 12 16 16 17 13 18 15 19 17 20 14 21 21 22 22 23 23 24
REMARK SMILES IDX 24 25 25 26 26 27 87 28 27 29 86 30 28 31 29 32 30 33 80 34
REMARK SMILES IDX 31 35 85 36 79 37 81 38 32 39 84 40 78 41 77 42 33 44 65 45
REMARK SMILES IDX 45 46 64 47 46 48 49 49 63 50 82 51 47 52 48 53 62 55 83 56
REMARK SMILES IDX 50 57 34 58 35 59 43 60 36 61 38 62 44 63 37 64 39 65 40 66
REMARK SMILES IDX 41 67 42 68 66 69 67 70 75 71 68 72 70 73 76 74 69 75 71 76
REMARK SMILES IDX 72 77 73 78 74 79 51 80 52 81 60 82 53 83 55 84 61 85 54 86
REMARK SMILES IDX 56 87 57 88 58 89 59 90
REMARK H PARENT 8 13 81 43 49 54
REMARK Flexibility Score: inf
ROOT
ATOM      1  C   UNL     1       4.426   1.008  -0.533  1.00  0.00     0.274 C 
ENDROOT
BRANCH   1   2
ATOM      2  O   UNL     1       3.068   0.703  -0.912  1.00  0.00    -0.462 OA
BRANCH   2   3
ATOM      3  C   UNL     1       2.558  -0.557  -0.882  1.00  0.00     0.312 C 
ATOM      4  O   UNL     1       1.689  -0.892  -1.686  1.00  0.00    -0.252 OA
BRANCH   3   5
ATOM      5  C   UNL     1       2.969  -1.457   0.252  1.00  0.00     0.179 C 
BRANCH   5   6
ATOM      6  C   UNL     1       4.043  -2.431  -0.054  1.00  0.00     0.065 A 
ATOM      7  C   UNL     1       4.264  -3.607   0.641  1.00  0.00     0.093 A 
ATOM      8  N   UNL     1       4.996  -2.141  -1.016  1.00  0.00    -0.224 NA
ATOM      9  S   UNL     1       5.700  -4.341   0.083  1.00  0.00    -0.105 S 
ATOM     10  C   UNL     1       5.814  -3.155  -1.139  1.00  0.00     0.189 A 
BRANCH  10  11
ATOM     11  N   UNL     1       6.767  -3.210  -2.120  1.00  0.00    -0.298 N 
ATOM     12  C   UNL     1       7.247  -4.321  -2.775  1.00  0.00     0.258 C 
ATOM     13  H   UNL     1       7.157  -2.347  -2.391  1.00  0.00     0.172 HD
ATOM     14  O   UNL     1       8.206  -4.241  -3.540  1.00  0.00    -0.269 OA
BRANCH  12  15
ATOM     15  C   UNL     1       6.569  -5.623  -2.621  1.00  0.00     0.058 A 
ATOM     16  C   UNL     1       7.292  -6.652  -2.003  1.00  0.00     0.015 A 
ATOM     17  C   UNL     1       5.219  -5.806  -2.959  1.00  0.00     0.053 A 
ATOM     18  C   UNL     1       6.635  -7.824  -1.633  1.00  0.00     0.001 A 
ATOM     19  C   UNL     1       4.568  -6.977  -2.569  1.00  0.00     0.021 A 
ATOM     20  Cl  UNL     1       4.304  -4.622  -3.823  1.00  0.00    -0.083 Cl
ATOM     21  C   UNL     1       5.271  -7.975  -1.892  1.00  0.00     0.002 A 
ENDBRANCH  12  15
ENDBRANCH  10  11
ENDBRANCH   5   6
ENDBRANCH   3   5
ENDBRANCH   2   3
ENDBRANCH   1   2
BRANCH   1  22
ATOM     22  C   UNL     1       4.500   1.947   0.671  1.00  0.00     0.275 C 
BRANCH  22  23
ATOM     23  O   UNL     1       4.072   1.268   1.865  1.00  0.00    -0.458 OA
BRANCH  23  24
ATOM     24  C   UNL     1       2.770   1.451   2.200  1.00  0.00     0.338 C 
ATOM     25  O   UNL     1       1.991   2.229   1.675  1.00  0.00    -0.246 OA
BRANCH  24  26
ATOM     26  C   UNL     1       2.354   0.413   3.175  1.00  0.00     0.060 A 
ATOM     27  C   UNL     1       1.046  -0.079   3.072  1.00  0.00     0.016 A 
ATOM     28  C   UNL     1       3.221  -0.102   4.145  1.00  0.00     0.016 A 
ATOM     29  C   UNL     1       0.581  -1.028   3.981  1.00  0.00     0.010 A 
ATOM     30  C   UNL     1       2.753  -1.057   5.056  1.00  0.00     0.010 A 
ATOM     31  C   UNL     1       1.416  -1.486   5.008  1.00  0.00    -0.014 A 
BRANCH  31  32
ATOM     32  C   UNL     1       0.820  -2.243   6.137  1.00  0.00     0.031 A 
ATOM     33  C   UNL     1       0.442  -1.488   7.384  1.00  0.00     0.074 A 
ATOM     34  C   UNL     1       0.580  -3.564   6.055  1.00  0.00     0.049 A 
ATOM     35  N   UNL     1      -0.195  -1.908   8.445  1.00  0.00    -0.248 NA
ATOM     36  C   UNL     1       0.836  -0.070   7.442  1.00  0.00     0.031 C 
ATOM     37  C   UNL     1       0.915  -4.419   4.918  1.00  0.00     0.029 A 
ATOM     38  N   UNL     1      -0.001  -4.419   6.960  1.00  0.00    -0.354 N 
ATOM     39  C   UNL     1      -0.269  -0.814   9.299  1.00  0.00     0.074 A 
ATOM     40  C   UNL     1       0.414   0.281   8.647  1.00  0.00     0.031 C 
ATOM     41  C   UNL     1       0.544  -5.682   5.199  1.00  0.00     0.029 A 
ATOM     42  C   UNL     1      -0.057  -5.724   6.532  1.00  0.00     0.049 A 
ATOM     43  H   UNL     1      -0.345  -4.124   7.834  1.00  0.00     0.167 HD
ATOM     44  C   UNL     1      -0.875  -0.715  10.505  1.00  0.00     0.034 A 
ATOM     45  C   UNL     1      -0.547  -6.822   7.144  1.00  0.00     0.034 A 
ATOM     46  C   UNL     1      -1.571  -1.793  11.151  1.00  0.00     0.049 A 
ATOM     47  C   UNL     1      -1.215  -6.686   8.491  1.00  0.00     0.074 A 
ATOM     48  C   UNL     1      -2.268  -1.772  12.346  1.00  0.00     0.029 A 
ATOM     49  N   UNL     1      -1.645  -3.088  10.666  1.00  0.00    -0.354 N 
ATOM     50  N   UNL     1      -1.429  -5.606   9.204  1.00  0.00    -0.248 NA
ATOM     51  C   UNL     1      -1.751  -7.916   9.094  1.00  0.00     0.031 C 
ATOM     52  C   UNL     1      -2.744  -3.064  12.595  1.00  0.00     0.029 A 
ATOM     53  C   UNL     1      -2.365  -3.881  11.542  1.00  0.00     0.049 A 
ATOM     54  H   UNL     1      -1.245  -3.398   9.822  1.00  0.00     0.167 HD
ATOM     55  C   UNL     1      -2.167  -6.019  10.310  1.00  0.00     0.074 A 
ATOM     56  C   UNL     1      -2.374  -7.444  10.166  1.00  0.00     0.031 C 
ATOM     57  C   UNL     1      -2.624  -5.285  11.356  1.00  0.00     0.034 A 
BRANCH  44  58
ATOM     58  C   UNL     1      -0.840   0.625  11.188  1.00  0.00     0.023 A 
ATOM     59  C   UNL     1      -1.643   1.675  10.698  1.00  0.00     0.012 A 
ATOM     60  C   UNL     1      -0.048   0.833  12.333  1.00  0.00     0.148 A 
ATOM     61  C   UNL     1      -1.633   2.923  11.319  1.00  0.00     0.002 A 
ATOM     62  C   UNL     1      -0.076   2.067  12.971  1.00  0.00     0.091 A 
ATOM     63  F   UNL     1       0.729  -0.171  12.764  1.00  0.00    -0.205 F 
ATOM     64  C   UNL     1      -0.859   3.116  12.460  1.00  0.00     0.022 A 
BRANCH  62  65
ATOM     65  S   UNL     1       0.832   2.388  14.486  1.00  0.00     0.127 S 
ATOM     66  O   UNL     1       1.920   3.237  14.004  1.00  0.00    -0.237 OA
ATOM     67  O   UNL     1      -0.165   3.079  15.304  1.00  0.00    -0.237 OA
ATOM     68  O   UNL     1       1.233   1.083  14.995  1.00  0.00    -0.744 OA
ENDBRANCH  62  65
ENDBRANCH  44  58
BRANCH  45  69
ATOM     69  C   UNL     1      -0.501  -8.145   6.458  1.00  0.00     0.023 A 
ATOM     70  C   UNL     1      -1.700  -8.738   6.014  1.00  0.00     0.012 A 
ATOM     71  C   UNL     1       0.716  -8.820   6.248  1.00  0.00     0.148 A 
ATOM     72  C   UNL     1      -1.692  -9.995   5.410  1.00  0.00     0.002 A 
ATOM     73  C   UNL     1       0.723 -10.049   5.598  1.00  0.00     0.091 A 
ATOM     74  F   UNL     1       1.844  -8.247   6.691  1.00  0.00    -0.205 F 
ATOM     75  C   UNL     1      -0.481 -10.647   5.194  1.00  0.00     0.022 A 
BRANCH  73  76
ATOM     76  S   UNL     1       2.244 -10.903   5.168  1.00  0.00     0.127 S 
ATOM     77  O   UNL     1       2.215 -12.044   6.078  1.00  0.00    -0.237 OA
ATOM     78  O   UNL     1       2.019 -11.230   3.759  1.00  0.00    -0.237 OA
ATOM     79  O   UNL     1       3.313  -9.939   5.394  1.00  0.00    -0.744 OA
ENDBRANCH  73  76
ENDBRANCH  45  69
BRANCH  57  80
ATOM     80  C   UNL     1      -3.439  -5.989  12.412  1.00  0.00     0.023 A 
ATOM     81  C   UNL     1      -2.813  -6.875  13.310  1.00  0.00     0.012 A 
ATOM     82  C   UNL     1      -4.812  -5.709  12.564  1.00  0.00     0.148 A 
ATOM     83  C   UNL     1      -3.547  -7.498  14.320  1.00  0.00     0.002 A 
ATOM     84  C   UNL     1      -5.527  -6.295  13.602  1.00  0.00     0.091 A 
ATOM     85  F   UNL     1      -5.398  -4.878  11.689  1.00  0.00    -0.205 F 
ATOM     86  C   UNL     1      -4.899  -7.199  14.474  1.00  0.00     0.022 A 
BRANCH  84  87
ATOM     87  S   UNL     1      -7.245  -5.885  13.931  1.00  0.00     0.127 S 
ATOM     88  O   UNL     1      -7.941  -7.040  13.367  1.00  0.00    -0.237 OA
ATOM     89  O   UNL     1      -7.277  -5.807  15.392  1.00  0.00    -0.237 OA
ATOM     90  O   UNL     1      -7.483  -4.615  13.258  1.00  0.00    -0.744 OA
ENDBRANCH  84  87
ENDBRANCH  57  80
ENDBRANCH  31  32
ENDBRANCH  24  26
ENDBRANCH  23  24
ENDBRANCH  22  23
ENDBRANCH   1  22
TORSDOF 17
