REMARK SMILES C[C@H](NC(=O)NCCc1ccccc1F)C(=O)OCCOC(=O)c1ccc(-c2c3nc(c(-c4cccc(S(=O)(=O)[O-])c4F)c4ccc([nH]4)c(-c4cccc(S(=O)(=O)[O-])c4F)c4nc(c(-c5cccc(S(=O)(=O)[O-])c5F)c5ccc2[nH]5)C=C4)C=C3)cc1
REMARK SMILES IDX 19 1 18 2 16 3 17 4 2 5 1 6 3 7 4 8 5 10 6 11 7 13 8 14 9 15
REMARK SMILES IDX 10 16 14 17 11 18 13 19 15 20 12 21 20 22 21 23 22 24 23 25
REMARK SMILES IDX 24 26 25 27 86 28 26 29 85 30 27 31 28 32 29 33 79 34 30 35
REMARK SMILES IDX 84 36 78 37 80 38 31 39 83 40 77 41 76 42 32 44 64 45 44 46
REMARK SMILES IDX 63 47 45 48 48 49 62 50 81 51 46 52 47 53 61 55 82 56 49 57
REMARK SMILES IDX 33 58 34 59 42 60 35 61 37 62 43 63 36 64 38 65 39 66 40 67
REMARK SMILES IDX 41 68 65 69 66 70 74 71 67 72 69 73 75 74 68 75 70 76 71 77
REMARK SMILES IDX 72 78 73 79 50 80 51 81 59 82 52 83 54 84 60 85 53 86 55 87
REMARK SMILES IDX 56 88 57 89 58 90
REMARK H PARENT 3 9 6 12 80 43 48 54
REMARK Flexibility Score: inf
ROOT
ATOM      1  C   UNL     1      -2.940  -1.230  -0.530  1.00  0.00     0.274 C 
ENDROOT
BRANCH   1   2
ATOM      2  O   UNL     1      -1.522  -1.156  -0.304  1.00  0.00    -0.461 OA
BRANCH   2   3
ATOM      3  C   UNL     1      -0.728  -1.105  -1.408  1.00  0.00     0.328 C 
ATOM      4  O   UNL     1      -1.121  -1.281  -2.556  1.00  0.00    -0.250 OA
BRANCH   3   5
ATOM      5  C   UNL     1       0.711  -0.673  -1.067  1.00  0.00     0.190 C 
ATOM      6  C   UNL     1       1.756  -1.216  -2.035  1.00  0.00     0.043 C 
BRANCH   5   7
ATOM      7  N   UNL     1       1.083  -0.721   0.343  1.00  0.00    -0.325 N 
ATOM      8  C   UNL     1       1.203  -1.667   1.270  1.00  0.00     0.315 C 
ATOM      9  H   UNL     1       1.298   0.172   0.698  1.00  0.00     0.166 HD
ATOM     10  O   UNL     1       1.478  -1.321   2.421  1.00  0.00    -0.249 OA
ATOM     11  N   UNL     1       1.020  -2.970   1.049  1.00  0.00    -0.338 N 
ATOM     12  H   UNL     1       0.961  -3.490   1.883  1.00  0.00     0.165 HD
BRANCH  11  13
ATOM     13  C   UNL     1       0.889  -3.798  -0.134  1.00  0.00     0.122 C 
BRANCH  13  14
ATOM     14  C   UNL     1       2.252  -4.256  -0.664  1.00  0.00     0.060 C 
BRANCH  14  15
ATOM     15  C   UNL     1       2.800  -5.418   0.123  1.00  0.00    -0.010 A 
ATOM     16  C   UNL     1       3.319  -5.236   1.413  1.00  0.00     0.007 A 
ATOM     17  C   UNL     1       2.758  -6.711  -0.405  1.00  0.00     0.126 A 
ATOM     18  C   UNL     1       3.751  -6.333   2.160  1.00  0.00     0.000 A 
ATOM     19  C   UNL     1       3.203  -7.805   0.328  1.00  0.00     0.039 A 
ATOM     20  F   UNL     1       2.270  -6.917  -1.637  1.00  0.00    -0.207 F 
ATOM     21  C   UNL     1       3.692  -7.618   1.619  1.00  0.00     0.003 A 
ENDBRANCH  14  15
ENDBRANCH  13  14
ENDBRANCH  11  13
ENDBRANCH   5   7
ENDBRANCH   3   5
ENDBRANCH   2   3
ENDBRANCH   1   2
BRANCH   1  22
ATOM     22  C   UNL     1      -3.575   0.153  -0.364  1.00  0.00     0.275 C 
BRANCH  22  23
ATOM     23  O   UNL     1      -3.212   1.034  -1.443  1.00  0.00    -0.458 OA
BRANCH  23  24
ATOM     24  C   UNL     1      -2.091   1.765  -1.244  1.00  0.00     0.338 C 
ATOM     25  O   UNL     1      -1.371   1.774  -0.260  1.00  0.00    -0.246 OA
BRANCH  24  26
ATOM     26  C   UNL     1      -1.761   2.497  -2.471  1.00  0.00     0.060 A 
ATOM     27  C   UNL     1      -0.720   2.030  -3.277  1.00  0.00     0.016 A 
ATOM     28  C   UNL     1      -2.410   3.694  -2.766  1.00  0.00     0.016 A 
ATOM     29  C   UNL     1      -0.290   2.777  -4.365  1.00  0.00     0.010 A 
ATOM     30  C   UNL     1      -2.006   4.423  -3.885  1.00  0.00     0.010 A 
ATOM     31  C   UNL     1      -0.936   3.975  -4.682  1.00  0.00    -0.014 A 
BRANCH  31  32
ATOM     32  C   UNL     1      -0.501   4.776  -5.847  1.00  0.00     0.031 A 
ATOM     33  C   UNL     1       0.111   6.127  -5.628  1.00  0.00     0.074 A 
ATOM     34  C   UNL     1      -0.701   4.298  -7.090  1.00  0.00     0.049 A 
ATOM     35  N   UNL     1       0.341   7.075  -6.495  1.00  0.00    -0.248 NA
ATOM     36  C   UNL     1       0.514   6.458  -4.250  1.00  0.00     0.031 C 
ATOM     37  C   UNL     1      -1.241   2.975  -7.413  1.00  0.00     0.029 A 
ATOM     38  N   UNL     1      -0.498   4.883  -8.314  1.00  0.00    -0.354 N 
ATOM     39  C   UNL     1       0.865   8.135  -5.766  1.00  0.00     0.074 A 
ATOM     40  C   UNL     1       0.934   7.709  -4.385  1.00  0.00     0.031 C 
ATOM     41  C   UNL     1      -1.340   2.855  -8.746  1.00  0.00     0.029 A 
ATOM     42  C   UNL     1      -0.938   4.112  -9.365  1.00  0.00     0.049 A 
ATOM     43  H   UNL     1      -0.079   5.766  -8.429  1.00  0.00     0.167 HD
ATOM     44  C   UNL     1       1.255   9.349  -6.217  1.00  0.00     0.034 A 
ATOM     45  C   UNL     1      -1.047   4.406 -10.675  1.00  0.00     0.034 A 
ATOM     46  C   UNL     1       1.214   9.737  -7.601  1.00  0.00     0.049 A 
ATOM     47  C   UNL     1      -0.637   5.777 -11.140  1.00  0.00     0.074 A 
ATOM     48  C   UNL     1       1.569  10.949  -8.164  1.00  0.00     0.029 A 
ATOM     49  N   UNL     1       0.808   8.914  -8.640  1.00  0.00    -0.354 N 
ATOM     50  N   UNL     1      -0.135   6.768 -10.443  1.00  0.00    -0.248 NA
ATOM     51  C   UNL     1      -0.798   6.067 -12.571  1.00  0.00     0.031 C 
ATOM     52  C   UNL     1       1.379  10.858  -9.546  1.00  0.00     0.029 A 
ATOM     53  C   UNL     1       0.916   9.586  -9.844  1.00  0.00     0.049 A 
ATOM     54  H   UNL     1       0.490   7.988  -8.536  1.00  0.00     0.167 HD
ATOM     55  C   UNL     1       0.108   7.788 -11.354  1.00  0.00     0.074 A 
ATOM     56  C   UNL     1      -0.281   7.286 -12.657  1.00  0.00     0.031 C 
ATOM     57  C   UNL     1       0.586   9.037 -11.133  1.00  0.00     0.034 A 
BRANCH  44  58
ATOM     58  C   UNL     1       1.794  10.339  -5.222  1.00  0.00     0.023 A 
ATOM     59  C   UNL     1       3.111  10.191  -4.745  1.00  0.00     0.012 A 
ATOM     60  C   UNL     1       1.040  11.468  -4.843  1.00  0.00     0.148 A 
ATOM     61  C   UNL     1       3.669  11.148  -3.897  1.00  0.00     0.002 A 
ATOM     62  C   UNL     1       1.616  12.435  -4.027  1.00  0.00     0.091 A 
ATOM     63  F   UNL     1      -0.215  11.578  -5.298  1.00  0.00    -0.205 F 
ATOM     64  C   UNL     1       2.927  12.274  -3.549  1.00  0.00     0.022 A 
BRANCH  62  65
ATOM     65  S   UNL     1       0.773  13.956  -3.573  1.00  0.00     0.127 S 
ATOM     66  O   UNL     1       0.674  13.817  -2.120  1.00  0.00    -0.237 OA
ATOM     67  O   UNL     1       1.719  14.976  -4.026  1.00  0.00    -0.237 OA
ATOM     68  O   UNL     1      -0.499  13.941  -4.281  1.00  0.00    -0.744 OA
ENDBRANCH  62  65
ENDBRANCH  44  58
BRANCH  45  69
ATOM     69  C   UNL     1      -1.543   3.380 -11.634  1.00  0.00     0.023 A 
ATOM     70  C   UNL     1      -0.652   2.844 -12.584  1.00  0.00     0.012 A 
ATOM     71  C   UNL     1      -2.869   2.905 -11.596  1.00  0.00     0.148 A 
ATOM     72  C   UNL     1      -1.077   1.873 -13.492  1.00  0.00     0.002 A 
ATOM     73  C   UNL     1      -3.270   1.896 -12.464  1.00  0.00     0.091 A 
ATOM     74  F   UNL     1      -3.714   3.443 -10.705  1.00  0.00    -0.205 F 
ATOM     75  C   UNL     1      -2.381   1.390 -13.424  1.00  0.00     0.022 A 
BRANCH  73  76
ATOM     76  S   UNL     1      -4.888   1.124 -12.339  1.00  0.00     0.127 S 
ATOM     77  O   UNL     1      -5.623   1.789 -13.412  1.00  0.00    -0.237 OA
ATOM     78  O   UNL     1      -4.580  -0.285 -12.586  1.00  0.00    -0.237 OA
ATOM     79  O   UNL     1      -5.341   1.403 -10.982  1.00  0.00    -0.744 OA
ENDBRANCH  73  76
ENDBRANCH  45  69
BRANCH  57  80
ATOM     80  C   UNL     1       0.752   9.939 -12.325  1.00  0.00     0.023 A 
ATOM     81  C   UNL     1      -0.383  10.531 -12.911  1.00  0.00     0.012 A 
ATOM     82  C   UNL     1       2.035  10.271 -12.801  1.00  0.00     0.148 A 
ATOM     83  C   UNL     1      -0.244  11.425 -13.971  1.00  0.00     0.002 A 
ATOM     84  C   UNL     1       2.168  11.197 -13.828  1.00  0.00     0.091 A 
ATOM     85  F   UNL     1       3.101   9.678 -12.242  1.00  0.00    -0.205 F 
ATOM     86  C   UNL     1       1.030  11.768 -14.420  1.00  0.00     0.022 A 
BRANCH  84  87
ATOM     87  S   UNL     1       3.774  11.765 -14.397  1.00  0.00     0.127 S 
ATOM     88  O   UNL     1       3.939  11.005 -15.634  1.00  0.00    -0.237 OA
ATOM     89  O   UNL     1       3.552  13.199 -14.588  1.00  0.00    -0.237 OA
ATOM     90  O   UNL     1       4.709  11.441 -13.327  1.00  0.00    -0.744 OA
ENDBRANCH  84  87
ENDBRANCH  57  80
ENDBRANCH  31  32
ENDBRANCH  24  26
ENDBRANCH  23  24
ENDBRANCH  22  23
ENDBRANCH   1  22
TORSDOF 18
