REMARK SMILES Nc1nccc(N2CCC[C@@](Cc3ccc(F)cc3F)(C(=O)OCCOC(=O)c3ccc(-c4c5nc(c(-c6cccc(S(=O)(=O)[O-])c6F)c6ccc([nH]6)c(-c6cccc(S(=O)(=O)[O-])c6F)c6nc(c(-c7cccc(S(=O)(=O)[O-])c7F)c7ccc4[nH]7)C=C6)C=C5)cc3)C2)n1
REMARK SMILES IDX 25 1 24 2 23 3 21 4 22 5 11 6 7 7 8 8 92 9 9 10 10 11 6 12
REMARK SMILES IDX 2 13 3 14 93 15 4 16 5 17 1 18 12 21 13 22 14 23 19 24 15 25
REMARK SMILES IDX 18 26 20 27 16 28 17 29 26 30 27 31 28 32 29 33 30 34 91 35
REMARK SMILES IDX 31 36 90 37 32 38 33 39 34 40 84 41 35 42 89 43 83 44 85 45
REMARK SMILES IDX 36 46 88 47 82 48 81 49 37 51 69 52 49 53 68 54 50 55 53 56
REMARK SMILES IDX 67 57 86 58 51 59 52 60 66 62 87 63 54 64 38 65 39 66 47 67
REMARK SMILES IDX 40 68 42 69 48 70 41 71 43 72 44 73 45 74 46 75 70 76 71 77
REMARK SMILES IDX 79 78 72 79 74 80 80 81 73 82 75 83 76 84 77 85 78 86 55 87
REMARK SMILES IDX 56 88 64 89 57 90 59 91 65 92 58 93 60 94 61 95 62 96 63 97
REMARK H PARENT 1 19 1 20 85 50 53 61
REMARK Flexibility Score: inf
ROOT
ATOM      1  C   UNL     1       2.160  -7.467  -4.014  1.00  0.00     0.275 C 
ENDROOT
BRANCH   1   2
ATOM      2  C   UNL     1       3.171  -6.357  -4.276  1.00  0.00     0.274 C 
BRANCH   2   3
ATOM      3  O   UNL     1       3.416  -5.588  -3.078  1.00  0.00    -0.462 OA
BRANCH   3   4
ATOM      4  C   UNL     1       2.832  -4.358  -3.031  1.00  0.00     0.314 C 
ATOM      5  O   UNL     1       2.095  -3.918  -3.907  1.00  0.00    -0.252 OA
BRANCH   4   6
ATOM      6  C   UNL     1       3.289  -3.522  -1.837  1.00  0.00     0.090 C 
ATOM      7  N   UNL     1       2.389  -1.992  -0.146  1.00  0.00    -0.355 N 
ATOM      8  C   UNL     1       2.846  -2.742   1.019  1.00  0.00     0.118 C 
ATOM      9  C   UNL     1       2.026  -2.808  -1.303  1.00  0.00     0.137 C 
ATOM     10  C   UNL     1       4.072  -3.570   0.619  1.00  0.00     0.023 C 
ATOM     11  C   UNL     1       3.861  -4.372  -0.675  1.00  0.00     0.023 C 
BRANCH   7  12
ATOM     12  C   UNL     1       1.494  -0.952   0.122  1.00  0.00     0.134 A 
ATOM     13  C   UNL     1      -0.634  -0.100   0.184  1.00  0.00     0.221 A 
ATOM     14  N   UNL     1      -0.210   1.140   0.454  1.00  0.00    -0.222 NA
ATOM     15  N   UNL     1       0.170  -1.155  -0.001  1.00  0.00    -0.196 NA
ATOM     16  C   UNL     1       1.115   1.309   0.563  1.00  0.00     0.119 A 
ATOM     17  C   UNL     1       2.017   0.288   0.422  1.00  0.00     0.067 A 
BRANCH  13  18
ATOM     18  N   UNL     1      -1.980  -0.284   0.091  1.00  0.00    -0.368 N 
ATOM     19  H   UNL     1      -2.591   0.476   0.222  1.00  0.00     0.159 HD
ATOM     20  H   UNL     1      -2.341  -1.178  -0.109  1.00  0.00     0.159 HD
ENDBRANCH  13  18
ENDBRANCH   7  12
BRANCH   6  21
ATOM     21  C   UNL     1       4.271  -2.444  -2.380  1.00  0.00     0.059 C 
BRANCH  21  22
ATOM     22  C   UNL     1       5.552  -2.956  -2.999  1.00  0.00    -0.011 A 
ATOM     23  C   UNL     1       5.571  -3.432  -4.320  1.00  0.00     0.010 A 
ATOM     24  C   UNL     1       6.748  -2.953  -2.273  1.00  0.00     0.129 A 
ATOM     25  C   UNL     1       6.752  -3.928  -4.873  1.00  0.00     0.040 A 
ATOM     26  C   UNL     1       7.931  -3.432  -2.821  1.00  0.00     0.078 A 
ATOM     27  F   UNL     1       6.773  -2.473  -1.022  1.00  0.00    -0.207 F 
ATOM     28  C   UNL     1       7.919  -3.924  -4.117  1.00  0.00     0.126 A 
ATOM     29  F   UNL     1       9.051  -4.398  -4.653  1.00  0.00    -0.207 F 
ENDBRANCH  21  22
ENDBRANCH   6  21
ENDBRANCH   4   6
ENDBRANCH   3   4
ENDBRANCH   2   3
ENDBRANCH   1   2
BRANCH   1  30
ATOM     30  O   UNL     1       0.924  -6.883  -3.580  1.00  0.00    -0.458 OA
BRANCH  30  31
ATOM     31  C   UNL     1       0.397  -7.399  -2.446  1.00  0.00     0.338 C 
ATOM     32  O   UNL     1       0.806  -8.357  -1.814  1.00  0.00    -0.246 OA
BRANCH  31  33
ATOM     33  C   UNL     1      -0.766  -6.593  -2.029  1.00  0.00     0.060 A 
ATOM     34  C   UNL     1      -0.670  -5.203  -1.984  1.00  0.00     0.016 A 
ATOM     35  C   UNL     1      -1.913  -7.225  -1.558  1.00  0.00     0.016 A 
ATOM     36  C   UNL     1      -1.660  -4.450  -1.355  1.00  0.00     0.010 A 
ATOM     37  C   UNL     1      -2.960  -6.456  -1.040  1.00  0.00     0.010 A 
ATOM     38  C   UNL     1      -2.827  -5.064  -0.883  1.00  0.00    -0.014 A 
BRANCH  38  39
ATOM     39  C   UNL     1      -3.888  -4.277  -0.188  1.00  0.00     0.031 A 
ATOM     40  C   UNL     1      -4.351  -4.689   1.188  1.00  0.00     0.074 A 
ATOM     41  C   UNL     1      -4.459  -3.209  -0.781  1.00  0.00     0.049 A 
ATOM     42  N   UNL     1      -5.402  -4.293   1.859  1.00  0.00    -0.248 NA
ATOM     43  C   UNL     1      -3.541  -5.698   1.890  1.00  0.00     0.031 C 
ATOM     44  C   UNL     1      -4.106  -2.677  -2.098  1.00  0.00     0.029 A 
ATOM     45  N   UNL     1      -5.468  -2.379  -0.352  1.00  0.00    -0.354 N 
ATOM     46  C   UNL     1      -5.437  -5.076   3.008  1.00  0.00     0.074 A 
ATOM     47  C   UNL     1      -4.286  -5.952   2.957  1.00  0.00     0.031 C 
ATOM     48  C   UNL     1      -4.859  -1.597  -2.356  1.00  0.00     0.029 A 
ATOM     49  C   UNL     1      -5.810  -1.409  -1.266  1.00  0.00     0.049 A 
ATOM     50  H   UNL     1      -5.904  -2.470   0.526  1.00  0.00     0.167 HD
ATOM     51  C   UNL     1      -6.340  -5.064   4.017  1.00  0.00     0.034 A 
ATOM     52  C   UNL     1      -6.801  -0.496  -1.255  1.00  0.00     0.034 A 
ATOM     53  C   UNL     1      -7.413  -4.114   4.129  1.00  0.00     0.049 A 
ATOM     54  C   UNL     1      -7.760  -0.468  -0.099  1.00  0.00     0.074 A 
ATOM     55  C   UNL     1      -8.343  -3.982   5.146  1.00  0.00     0.029 A 
ATOM     56  N   UNL     1      -7.684  -3.115   3.208  1.00  0.00    -0.354 N 
ATOM     57  N   UNL     1      -7.763  -1.201   0.988  1.00  0.00    -0.248 NA
ATOM     58  C   UNL     1      -8.854   0.512  -0.167  1.00  0.00     0.031 C 
ATOM     59  C   UNL     1      -9.173  -2.897   4.842  1.00  0.00     0.029 A 
ATOM     60  C   UNL     1      -8.760  -2.356   3.635  1.00  0.00     0.049 A 
ATOM     61  H   UNL     1      -7.184  -2.965   2.374  1.00  0.00     0.167 HD
ATOM     62  C   UNL     1      -8.851  -0.767   1.736  1.00  0.00     0.074 A 
ATOM     63  C   UNL     1      -9.463   0.317   0.995  1.00  0.00     0.031 C 
ATOM     64  C   UNL     1      -9.322  -1.245   2.913  1.00  0.00     0.034 A 
BRANCH  51  65
ATOM     65  C   UNL     1      -6.190  -6.093   5.105  1.00  0.00     0.023 A 
ATOM     66  C   UNL     1      -5.209  -5.923   6.101  1.00  0.00     0.012 A 
ATOM     67  C   UNL     1      -7.059  -7.200   5.171  1.00  0.00     0.148 A 
ATOM     68  C   UNL     1      -5.079  -6.853   7.133  1.00  0.00     0.002 A 
ATOM     69  C   UNL     1      -6.947  -8.104   6.222  1.00  0.00     0.091 A 
ATOM     70  F   UNL     1      -7.968  -7.363   4.198  1.00  0.00    -0.205 F 
ATOM     71  C   UNL     1      -5.953  -7.936   7.200  1.00  0.00     0.022 A 
BRANCH  69  72
ATOM     72  S   UNL     1      -8.081  -9.484   6.417  1.00  0.00     0.127 S 
ATOM     73  O   UNL     1      -7.306 -10.587   5.854  1.00  0.00    -0.237 OA
ATOM     74  O   UNL     1      -8.259  -9.545   7.869  1.00  0.00    -0.237 OA
ATOM     75  O   UNL     1      -9.282  -9.110   5.683  1.00  0.00    -0.744 OA
ENDBRANCH  69  72
ENDBRANCH  51  65
BRANCH  52  76
ATOM     76  C   UNL     1      -6.915   0.486  -2.372  1.00  0.00     0.023 A 
ATOM     77  C   UNL     1      -6.611   1.838  -2.127  1.00  0.00     0.012 A 
ATOM     78  C   UNL     1      -7.260   0.086  -3.677  1.00  0.00     0.148 A 
ATOM     79  C   UNL     1      -6.655   2.776  -3.160  1.00  0.00     0.002 A 
ATOM     80  C   UNL     1      -7.243   1.014  -4.713  1.00  0.00     0.091 A 
ATOM     81  F   UNL     1      -7.580  -1.199  -3.889  1.00  0.00    -0.205 F 
ATOM     82  C   UNL     1      -6.954   2.361  -4.455  1.00  0.00     0.022 A 
BRANCH  80  83
ATOM     83  S   UNL     1      -7.466   0.517  -6.426  1.00  0.00     0.127 S 
ATOM     84  O   UNL     1      -8.873   0.834  -6.652  1.00  0.00    -0.237 OA
ATOM     85  O   UNL     1      -6.519   1.383  -7.129  1.00  0.00    -0.237 OA
ATOM     86  O   UNL     1      -7.111  -0.897  -6.459  1.00  0.00    -0.744 OA
ENDBRANCH  80  83
ENDBRANCH  52  76
BRANCH  64  87
ATOM     87  C   UNL     1     -10.555  -0.597   3.481  1.00  0.00     0.023 A 
ATOM     88  C   UNL     1     -11.813  -0.916   2.933  1.00  0.00     0.012 A 
ATOM     89  C   UNL     1     -10.480   0.268   4.589  1.00  0.00     0.148 A 
ATOM     90  C   UNL     1     -12.977  -0.367   3.467  1.00  0.00     0.002 A 
ATOM     91  C   UNL     1     -11.648   0.784   5.138  1.00  0.00     0.091 A 
ATOM     92  F   UNL     1      -9.271   0.580   5.080  1.00  0.00    -0.205 F 
ATOM     93  C   UNL     1     -12.897   0.474   4.575  1.00  0.00     0.022 A 
BRANCH  91  94
ATOM     94  S   UNL     1     -11.627   1.810   6.613  1.00  0.00     0.127 S 
ATOM     95  O   UNL     1     -11.684   3.155   6.045  1.00  0.00    -0.237 OA
ATOM     96  O   UNL     1     -12.843   1.391   7.311  1.00  0.00    -0.237 OA
ATOM     97  O   UNL     1     -10.393   1.466   7.308  1.00  0.00    -0.744 OA
ENDBRANCH  91  94
ENDBRANCH  64  87
ENDBRANCH  38  39
ENDBRANCH  31  33
ENDBRANCH  30  31
ENDBRANCH   1  30
TORSDOF 18
