REMARK SMILES CC[C@H](CCO)CNc1cc(C(=O)OCCOC(=O)c2ccc(-c3c4nc(c(-c5cccc(S(=O)(=O)[O-])c5F)c5ccc([nH]5)c(-c5cccc(S(=O)(=O)[O-])c5F)c5nc(c(-c6cccc(S(=O)(=O)[O-])c6F)c6ccc3[nH]6)C=C5)C=C4)cc2)ccn1
REMARK SMILES IDX 14 1 12 2 13 3 11 4 9 5 10 6 85 7 84 8 83 9 8 10 7 12 3 13
REMARK SMILES IDX 2 14 1 15 4 16 5 17 6 18 15 20 16 21 17 22 18 23 19 24 20 25
REMARK SMILES IDX 21 26 82 27 22 28 81 29 23 30 24 31 25 32 75 33 26 34 80 35
REMARK SMILES IDX 74 36 76 37 27 38 79 39 73 40 72 41 28 43 60 44 40 45 59 46
REMARK SMILES IDX 41 47 44 48 58 49 77 50 42 51 43 52 57 54 78 55 45 56 29 57
REMARK SMILES IDX 30 58 38 59 31 60 33 61 39 62 32 63 34 64 35 65 36 66 37 67
REMARK SMILES IDX 61 68 62 69 70 70 63 71 65 72 71 73 64 74 66 75 67 76 68 77
REMARK SMILES IDX 69 78 46 79 47 80 55 81 48 82 50 83 56 84 49 85 51 86 52 87
REMARK SMILES IDX 53 88 54 89
REMARK H PARENT 8 11 6 19 76 42 44 53
REMARK Flexibility Score: inf
ROOT
ATOM      1  O   UNL     1       0.916  -0.819  -8.893  1.00  0.00    -0.458 OA
ENDROOT
BRANCH   1   2
ATOM      2  C   UNL     1       2.182  -0.758  -8.403  1.00  0.00     0.338 C 
ATOM      3  O   UNL     1       3.177  -1.251  -8.893  1.00  0.00    -0.246 OA
BRANCH   2   4
ATOM      4  C   UNL     1       2.212   0.085  -7.183  1.00  0.00     0.065 A 
ATOM      5  C   UNL     1       1.196   0.919  -5.189  1.00  0.00     0.126 A 
ATOM      6  C   UNL     1       1.129   0.112  -6.313  1.00  0.00     0.062 A 
ATOM      7  N   UNL     1       2.252   1.720  -4.933  1.00  0.00    -0.240 NA
ATOM      8  C   UNL     1       3.297   1.674  -5.789  1.00  0.00     0.114 A 
ATOM      9  C   UNL     1       3.343   0.844  -6.890  1.00  0.00     0.036 A 
BRANCH   5  10
ATOM     10  N   UNL     1       0.191   0.913  -4.239  1.00  0.00    -0.370 N 
ATOM     11  H   UNL     1      -0.298   1.739  -4.017  1.00  0.00     0.162 HD
BRANCH  10  12
ATOM     12  C   UNL     1      -0.126  -0.341  -3.578  1.00  0.00     0.118 C 
BRANCH  12  13
ATOM     13  C   UNL     1       0.796  -0.621  -2.362  1.00  0.00     0.010 C 
BRANCH  13  14
ATOM     14  C   UNL     1       0.505  -2.059  -1.843  1.00  0.00     0.002 C 
ATOM     15  C   UNL     1      -0.525  -2.183  -0.726  1.00  0.00     0.004 C 
ENDBRANCH  13  14
BRANCH  13  16
ATOM     16  C   UNL     1       0.675   0.448  -1.244  1.00  0.00     0.033 C 
BRANCH  16  17
ATOM     17  C   UNL     1       1.677   1.601  -1.330  1.00  0.00     0.156 C 
BRANCH  17  18
ATOM     18  O   UNL     1       1.359   2.497  -2.378  1.00  0.00    -0.396 OA
ATOM     19  H   UNL     1       1.387   2.026  -3.226  1.00  0.00     0.210 HD
ENDBRANCH  17  18
ENDBRANCH  16  17
ENDBRANCH  13  16
ENDBRANCH  12  13
ENDBRANCH  10  12
ENDBRANCH   5  10
ENDBRANCH   2   4
ENDBRANCH   1   2
BRANCH   1  20
ATOM     20  C   UNL     1       0.734  -1.514 -10.143  1.00  0.00     0.275 C 
BRANCH  20  21
ATOM     21  C   UNL     1       0.477  -0.536 -11.291  1.00  0.00     0.275 C 
BRANCH  21  22
ATOM     22  O   UNL     1       1.674   0.192 -11.619  1.00  0.00    -0.458 OA
BRANCH  22  23
ATOM     23  C   UNL     1       1.742   1.439 -11.101  1.00  0.00     0.338 C 
ATOM     24  O   UNL     1       0.892   2.018 -10.446  1.00  0.00    -0.246 OA
BRANCH  23  25
ATOM     25  C   UNL     1       3.086   1.991 -11.311  1.00  0.00     0.060 A 
ATOM     26  C   UNL     1       4.022   1.772 -10.307  1.00  0.00     0.016 A 
ATOM     27  C   UNL     1       3.383   2.838 -12.373  1.00  0.00     0.016 A 
ATOM     28  C   UNL     1       5.220   2.473 -10.290  1.00  0.00     0.010 A 
ATOM     29  C   UNL     1       4.635   3.469 -12.409  1.00  0.00     0.010 A 
ATOM     30  C   UNL     1       5.551   3.325 -11.348  1.00  0.00    -0.014 A 
BRANCH  30  31
ATOM     31  C   UNL     1       6.838   4.076 -11.320  1.00  0.00     0.031 A 
ATOM     32  C   UNL     1       6.840   5.580 -11.399  1.00  0.00     0.074 A 
ATOM     33  C   UNL     1       8.008   3.412 -11.219  1.00  0.00     0.049 A 
ATOM     34  N   UNL     1       7.849   6.399 -11.545  1.00  0.00    -0.248 NA
ATOM     35  C   UNL     1       5.532   6.253 -11.318  1.00  0.00     0.031 C 
ATOM     36  C   UNL     1       8.152   1.958 -11.108  1.00  0.00     0.029 A 
ATOM     37  N   UNL     1       9.304   3.870 -11.206  1.00  0.00    -0.354 N 
ATOM     38  C   UNL     1       7.297   7.671 -11.655  1.00  0.00     0.074 A 
ATOM     39  C   UNL     1       5.862   7.517 -11.547  1.00  0.00     0.031 C 
ATOM     40  C   UNL     1       9.454   1.646 -11.027  1.00  0.00     0.029 A 
ATOM     41  C   UNL     1      10.241   2.863 -11.171  1.00  0.00     0.049 A 
ATOM     42  H   UNL     1       9.538   4.827 -11.221  1.00  0.00     0.167 HD
ATOM     43  C   UNL     1       7.928   8.857 -11.825  1.00  0.00     0.034 A 
ATOM     44  C   UNL     1      11.582   2.901 -11.298  1.00  0.00     0.034 A 
ATOM     45  C   UNL     1       9.359   9.009 -11.869  1.00  0.00     0.049 A 
ATOM     46  C   UNL     1      12.256   4.229 -11.495  1.00  0.00     0.074 A 
ATOM     47  C   UNL     1      10.096  10.174 -11.988  1.00  0.00     0.029 A 
ATOM     48  N   UNL     1      10.270   7.966 -11.794  1.00  0.00    -0.354 N 
ATOM     49  N   UNL     1      11.722   5.425 -11.546  1.00  0.00    -0.248 NA
ATOM     50  C   UNL     1      13.718   4.216 -11.637  1.00  0.00     0.031 C 
ATOM     51  C   UNL     1      11.452   9.833 -12.017  1.00  0.00     0.029 A 
ATOM     52  C   UNL     1      11.562   8.459 -11.876  1.00  0.00     0.049 A 
ATOM     53  H   UNL     1      10.033   7.016 -11.697  1.00  0.00     0.167 HD
ATOM     54  C   UNL     1      12.783   6.309 -11.696  1.00  0.00     0.074 A 
ATOM     55  C   UNL     1      13.993   5.512 -11.703  1.00  0.00     0.031 C 
ATOM     56  C   UNL     1      12.758   7.658 -11.831  1.00  0.00     0.034 A 
BRANCH  43  57
ATOM     57  C   UNL     1       7.079  10.094 -11.978  1.00  0.00     0.023 A 
ATOM     58  C   UNL     1       6.384  10.619 -10.870  1.00  0.00     0.012 A 
ATOM     59  C   UNL     1       7.016  10.769 -13.214  1.00  0.00     0.148 A 
ATOM     60  C   UNL     1       5.612  11.774 -10.999  1.00  0.00     0.002 A 
ATOM     61  C   UNL     1       6.285  11.946 -13.323  1.00  0.00     0.091 A 
ATOM     62  F   UNL     1       7.668  10.245 -14.262  1.00  0.00    -0.205 F 
ATOM     63  C   UNL     1       5.572  12.443 -12.220  1.00  0.00     0.022 A 
BRANCH  61  64
ATOM     64  S   UNL     1       6.239  12.924 -14.829  1.00  0.00     0.127 S 
ATOM     65  O   UNL     1       4.858  12.725 -15.268  1.00  0.00    -0.237 OA
ATOM     66  O   UNL     1       6.532  14.268 -14.332  1.00  0.00    -0.237 OA
ATOM     67  O   UNL     1       7.258  12.364 -15.705  1.00  0.00    -0.744 OA
ENDBRANCH  61  64
ENDBRANCH  43  57
BRANCH  44  68
ATOM     68  C   UNL     1      12.371   1.637 -11.249  1.00  0.00     0.023 A 
ATOM     69  C   UNL     1      13.238   1.398 -10.165  1.00  0.00     0.012 A 
ATOM     70  C   UNL     1      12.245   0.658 -12.255  1.00  0.00     0.148 A 
ATOM     71  C   UNL     1      13.983   0.220 -10.098  1.00  0.00     0.002 A 
ATOM     72  C   UNL     1      12.941  -0.539 -12.149  1.00  0.00     0.091 A 
ATOM     73  F   UNL     1      11.429   0.911 -13.288  1.00  0.00    -0.205 F 
ATOM     74  C   UNL     1      13.825  -0.753 -11.082  1.00  0.00     0.022 A 
BRANCH  72  75
ATOM     75  S   UNL     1      12.691  -1.902 -13.293  1.00  0.00     0.127 S 
ATOM     76  O   UNL     1      13.959  -1.922 -14.016  1.00  0.00    -0.237 OA
ATOM     77  O   UNL     1      12.485  -3.027 -12.379  1.00  0.00    -0.237 OA
ATOM     78  O   UNL     1      11.518  -1.546 -14.079  1.00  0.00    -0.744 OA
ENDBRANCH  72  75
ENDBRANCH  44  68
BRANCH  56  79
ATOM     79  C   UNL     1      14.081   8.369 -11.948  1.00  0.00     0.023 A 
ATOM     80  C   UNL     1      14.838   8.261 -13.131  1.00  0.00     0.012 A 
ATOM     81  C   UNL     1      14.539   9.197 -10.905  1.00  0.00     0.148 A 
ATOM     82  C   UNL     1      16.050   8.938 -13.259  1.00  0.00     0.002 A 
ATOM     83  C   UNL     1      15.721   9.910 -11.060  1.00  0.00     0.091 A 
ATOM     84  F   UNL     1      13.813   9.270  -9.780  1.00  0.00    -0.205 F 
ATOM     85  C   UNL     1      16.485   9.771 -12.230  1.00  0.00     0.022 A 
BRANCH  83  86
ATOM     86  S   UNL     1      16.308  11.081  -9.831  1.00  0.00     0.127 S 
ATOM     87  O   UNL     1      17.473  10.384  -9.288  1.00  0.00    -0.237 OA
ATOM     88  O   UNL     1      16.623  12.253 -10.647  1.00  0.00    -0.237 OA
ATOM     89  O   UNL     1      15.205  11.272  -8.898  1.00  0.00    -0.744 OA
ENDBRANCH  83  86
ENDBRANCH  56  79
ENDBRANCH  30  31
ENDBRANCH  23  25
ENDBRANCH  22  23
ENDBRANCH  21  22
ENDBRANCH  20  21
ENDBRANCH   1  20
TORSDOF 21
