REMARK SMILES C[C@@H](O)[C@@H](NC(=O)CCOc1ccc(Br)cc1)C(=O)OCCOC(=O)c1ccc(-c2c3nc(c(-c4cccc(S(=O)(=O)[O-])c4F)c4ccc([nH]4)c(-c4cccc(S(=O)(=O)[O-])c4F)c4nc(c(-c5cccc(S(=O)(=O)[O-])c5F)c5ccc2[nH]5)C=C4)C=C3)cc1
REMARK SMILES IDX 21 1 20 2 18 3 19 4 4 5 2 6 1 7 3 8 5 10 6 11 7 13 8 14 9 15
REMARK SMILES IDX 10 16 11 17 12 18 17 19 13 20 16 21 14 22 15 23 22 24 23 25
REMARK SMILES IDX 24 26 25 27 26 28 27 29 88 30 28 31 87 32 29 33 30 34 31 35
REMARK SMILES IDX 81 36 32 37 86 38 80 39 82 40 33 41 85 42 79 43 78 44 34 46
REMARK SMILES IDX 66 47 46 48 65 49 47 50 50 51 64 52 83 53 48 54 49 55 63 57
REMARK SMILES IDX 84 58 51 59 35 60 36 61 44 62 37 63 39 64 45 65 38 66 40 67
REMARK SMILES IDX 41 68 42 69 43 70 67 71 68 72 76 73 69 74 71 75 77 76 70 77
REMARK SMILES IDX 72 78 73 79 74 80 75 81 52 82 53 83 61 84 54 85 56 86 62 87
REMARK SMILES IDX 55 88 57 89 58 90 59 91 60 92
REMARK H PARENT 3 9 5 12 82 45 50 56
REMARK Flexibility Score: inf
ROOT
ATOM      1  C   UNL     1      -1.678  -0.196   5.282  1.00  0.00     0.274 C 
ENDROOT
BRANCH   1   2
ATOM      2  O   UNL     1      -1.269  -0.101   3.903  1.00  0.00    -0.460 OA
BRANCH   2   3
ATOM      3  C   UNL     1      -2.282   0.012   2.994  1.00  0.00     0.331 C 
ATOM      4  O   UNL     1      -3.474   0.023   3.282  1.00  0.00    -0.250 OA
BRANCH   3   5
ATOM      5  C   UNL     1      -1.782  -0.013   1.545  1.00  0.00     0.221 C 
BRANCH   5   6
ATOM      6  C   UNL     1      -0.284   0.321   1.349  1.00  0.00     0.145 C 
ATOM      7  C   UNL     1       0.079   0.476  -0.126  1.00  0.00     0.041 C 
BRANCH   6   8
ATOM      8  O   UNL     1       0.049   1.591   1.923  1.00  0.00    -0.391 OA
ATOM      9  H   UNL     1      -0.450   2.290   1.472  1.00  0.00     0.211 HD
ENDBRANCH   6   8
ENDBRANCH   5   6
BRANCH   5  10
ATOM     10  N   UNL     1      -2.305  -1.166   0.790  1.00  0.00    -0.341 N 
ATOM     11  C   UNL     1      -2.455  -2.482   1.086  1.00  0.00     0.224 C 
ATOM     12  H   UNL     1      -2.609  -0.934  -0.117  1.00  0.00     0.164 HD
ATOM     13  O   UNL     1      -2.820  -3.235   0.177  1.00  0.00    -0.275 OA
BRANCH  11  14
ATOM     14  C   UNL     1      -2.239  -3.041   2.472  1.00  0.00     0.141 C 
BRANCH  14  15
ATOM     15  C   UNL     1      -0.962  -3.854   2.627  1.00  0.00     0.239 C 
BRANCH  15  16
ATOM     16  O   UNL     1       0.229  -3.076   2.503  1.00  0.00    -0.493 OA
BRANCH  16  17
ATOM     17  C   UNL     1       0.852  -3.020   1.285  1.00  0.00     0.119 A 
ATOM     18  C   UNL     1       0.358  -3.530   0.086  1.00  0.00     0.047 A 
ATOM     19  C   UNL     1       2.048  -2.293   1.270  1.00  0.00     0.047 A 
ATOM     20  C   UNL     1       0.994  -3.242  -1.124  1.00  0.00     0.019 A 
ATOM     21  C   UNL     1       2.696  -2.012   0.064  1.00  0.00     0.019 A 
ATOM     22  C   UNL     1       2.152  -2.472  -1.131  1.00  0.00     0.018 A 
ATOM     23  Br  UNL     1       2.959  -2.015  -2.776  1.00  0.00    -0.051 Br
ENDBRANCH  16  17
ENDBRANCH  15  16
ENDBRANCH  14  15
ENDBRANCH  11  14
ENDBRANCH   5  10
ENDBRANCH   3   5
ENDBRANCH   2   3
ENDBRANCH   1   2
BRANCH   1  24
ATOM     24  C   UNL     1      -1.309   1.073   6.046  1.00  0.00     0.275 C 
BRANCH  24  25
ATOM     25  O   UNL     1      -1.847   2.222   5.372  1.00  0.00    -0.458 OA
BRANCH  25  26
ATOM     26  C   UNL     1      -0.944   3.042   4.790  1.00  0.00     0.338 C 
ATOM     27  O   UNL     1       0.281   2.970   4.863  1.00  0.00    -0.246 OA
BRANCH  26  28
ATOM     28  C   UNL     1      -1.651   3.962   3.894  1.00  0.00     0.060 A 
ATOM     29  C   UNL     1      -2.168   3.431   2.716  1.00  0.00     0.016 A 
ATOM     30  C   UNL     1      -1.738   5.326   4.135  1.00  0.00     0.016 A 
ATOM     31  C   UNL     1      -2.727   4.233   1.742  1.00  0.00     0.010 A 
ATOM     32  C   UNL     1      -2.393   6.133   3.198  1.00  0.00     0.010 A 
ATOM     33  C   UNL     1      -2.889   5.590   1.994  1.00  0.00    -0.014 A 
BRANCH  33  34
ATOM     34  C   UNL     1      -3.581   6.435   0.997  1.00  0.00     0.031 A 
ATOM     35  C   UNL     1      -2.850   7.585   0.381  1.00  0.00     0.074 A 
ATOM     36  C   UNL     1      -4.862   6.174   0.671  1.00  0.00     0.049 A 
ATOM     37  N   UNL     1      -3.328   8.609  -0.270  1.00  0.00    -0.248 NA
ATOM     38  C   UNL     1      -1.385   7.590   0.531  1.00  0.00     0.031 C 
ATOM     39  C   UNL     1      -5.647   5.031   1.147  1.00  0.00     0.029 A 
ATOM     40  N   UNL     1      -5.743   6.871  -0.117  1.00  0.00    -0.354 N 
ATOM     41  C   UNL     1      -2.238   9.429  -0.527  1.00  0.00     0.074 A 
ATOM     42  C   UNL     1      -1.067   8.765   0.005  1.00  0.00     0.031 C 
ATOM     43  C   UNL     1      -6.891   5.110   0.654  1.00  0.00     0.029 A 
ATOM     44  C   UNL     1      -7.020   6.359  -0.084  1.00  0.00     0.049 A 
ATOM     45  H   UNL     1      -5.487   7.657  -0.652  1.00  0.00     0.167 HD
ATOM     46  C   UNL     1      -2.230  10.633  -1.142  1.00  0.00     0.034 A 
ATOM     47  C   UNL     1      -8.181   6.877  -0.527  1.00  0.00     0.034 A 
ATOM     48  C   UNL     1      -3.403  11.239  -1.712  1.00  0.00     0.049 A 
ATOM     49  C   UNL     1      -8.152   8.232  -1.173  1.00  0.00     0.074 A 
ATOM     50  C   UNL     1      -3.514  12.443  -2.382  1.00  0.00     0.029 A 
ATOM     51  N   UNL     1      -4.672  10.677  -1.681  1.00  0.00    -0.354 N 
ATOM     52  N   UNL     1      -7.120   9.004  -1.422  1.00  0.00    -0.248 NA
ATOM     53  C   UNL     1      -9.441   8.792  -1.595  1.00  0.00     0.031 C 
ATOM     54  C   UNL     1      -4.855  12.615  -2.744  1.00  0.00     0.029 A 
ATOM     55  C   UNL     1      -5.576  11.511  -2.312  1.00  0.00     0.049 A 
ATOM     56  H   UNL     1      -4.895   9.810  -1.271  1.00  0.00     0.167 HD
ATOM     57  C   UNL     1      -7.633  10.137  -2.038  1.00  0.00     0.074 A 
ATOM     58  C   UNL     1      -9.065   9.934  -2.154  1.00  0.00     0.031 C 
ATOM     59  C   UNL     1      -6.988  11.258  -2.446  1.00  0.00     0.034 A 
BRANCH  46  60
ATOM     60  C   UNL     1      -0.921  11.370  -1.217  1.00  0.00     0.023 A 
ATOM     61  C   UNL     1       0.074  10.952  -2.122  1.00  0.00     0.012 A 
ATOM     62  C   UNL     1      -0.687  12.495  -0.402  1.00  0.00     0.148 A 
ATOM     63  C   UNL     1       1.293  11.625  -2.195  1.00  0.00     0.002 A 
ATOM     64  C   UNL     1       0.516  13.184  -0.507  1.00  0.00     0.091 A 
ATOM     65  F   UNL     1      -1.635  12.859   0.474  1.00  0.00    -0.205 F 
ATOM     66  C   UNL     1       1.510  12.745  -1.396  1.00  0.00     0.022 A 
BRANCH  64  67
ATOM     67  S   UNL     1       0.863  14.673   0.436  1.00  0.00     0.127 S 
ATOM     68  O   UNL     1       1.852  14.189   1.399  1.00  0.00    -0.237 OA
ATOM     69  O   UNL     1       1.400  15.569  -0.589  1.00  0.00    -0.237 OA
ATOM     70  O   UNL     1      -0.409  15.095   1.004  1.00  0.00    -0.744 OA
ENDBRANCH  64  67
ENDBRANCH  46  60
BRANCH  47  71
ATOM     71  C   UNL     1      -9.455   6.125  -0.338  1.00  0.00     0.023 A 
ATOM     72  C   UNL     1     -10.121   5.604  -1.463  1.00  0.00     0.012 A 
ATOM     73  C   UNL     1      -9.983   5.879   0.946  1.00  0.00     0.148 A 
ATOM     74  C   UNL     1     -11.295   4.864  -1.314  1.00  0.00     0.002 A 
ATOM     75  C   UNL     1     -11.119   5.091   1.091  1.00  0.00     0.091 A 
ATOM     76  F   UNL     1      -9.352   6.404   2.006  1.00  0.00    -0.205 F 
ATOM     77  C   UNL     1     -11.786   4.595  -0.038  1.00  0.00     0.022 A 
BRANCH  75  78
ATOM     78  S   UNL     1     -11.731   4.579   2.702  1.00  0.00     0.127 S 
ATOM     79  O   UNL     1     -12.905   5.432   2.862  1.00  0.00    -0.237 OA
ATOM     80  O   UNL     1     -12.024   3.162   2.483  1.00  0.00    -0.237 OA
ATOM     81  O   UNL     1     -10.634   4.824   3.630  1.00  0.00    -0.744 OA
ENDBRANCH  75  78
ENDBRANCH  47  71
BRANCH  59  82
ATOM     82  C   UNL     1      -7.826  12.341  -3.065  1.00  0.00     0.023 A 
ATOM     83  C   UNL     1      -8.626  13.154  -2.238  1.00  0.00     0.012 A 
ATOM     84  C   UNL     1      -7.765  12.600  -4.447  1.00  0.00     0.148 A 
ATOM     85  C   UNL     1      -9.374  14.196  -2.783  1.00  0.00     0.002 A 
ATOM     86  C   UNL     1      -8.476  13.669  -4.976  1.00  0.00     0.091 A 
ATOM     87  F   UNL     1      -7.013  11.799  -5.215  1.00  0.00    -0.205 F 
ATOM     88  C   UNL     1      -9.289  14.461  -4.148  1.00  0.00     0.022 A 
BRANCH  86  89
ATOM     89  S   UNL     1      -8.355  14.140  -6.704  1.00  0.00     0.127 S 
ATOM     90  O   UNL     1      -9.649  13.701  -7.224  1.00  0.00    -0.237 OA
ATOM     91  O   UNL     1      -8.191  15.592  -6.620  1.00  0.00    -0.237 OA
ATOM     92  O   UNL     1      -7.196  13.433  -7.231  1.00  0.00    -0.744 OA
ENDBRANCH  86  89
ENDBRANCH  59  82
ENDBRANCH  33  34
ENDBRANCH  26  28
ENDBRANCH  25  26
ENDBRANCH  24  25
ENDBRANCH   1  24
TORSDOF 21
