REMARK SMILES COc1cc(NC(=O)CN2C(=O)c3ccccc3C2=O)c(C(=O)OCCOC(=O)c2ccc(-c3c4nc(c(-c5cccc(S(=O)(=O)[O-])c5F)c5ccc([nH]5)c(-c5cccc(S(=O)(=O)[O-])c5F)c5nc(c(-c6cccc(S(=O)(=O)[O-])c6F)c6ccc3[nH]6)C=C5)C=C4)cc2)cc1OC
REMARK SMILES IDX 25 1 24 2 22 3 23 4 21 5 3 6 4 7 94 8 5 9 93 10 2 11 1 12
REMARK SMILES IDX 95 13 96 14 6 15 7 16 8 18 9 19 10 20 11 21 19 22 12 23
REMARK SMILES IDX 13 24 18 25 20 26 14 27 17 28 15 29 16 30 26 31 27 32 28 33
REMARK SMILES IDX 29 34 30 35 31 36 92 37 32 38 91 39 33 40 34 41 35 42 85 43
REMARK SMILES IDX 36 44 90 45 84 46 86 47 37 48 89 49 83 50 82 51 38 53 70 54
REMARK SMILES IDX 50 55 69 56 51 57 54 58 68 59 87 60 52 61 53 62 67 64 88 65
REMARK SMILES IDX 55 66 39 67 40 68 48 69 41 70 43 71 49 72 42 73 44 74 45 75
REMARK SMILES IDX 46 76 47 77 71 78 72 79 80 80 73 81 75 82 81 83 74 84 76 85
REMARK SMILES IDX 77 86 78 87 79 88 56 89 57 90 65 91 58 92 60 93 66 94 59 95
REMARK SMILES IDX 61 96 62 97 63 98 64 99
REMARK H PARENT 6 17 86 52 54 63
REMARK Flexibility Score: inf
ROOT
ATOM      1  C   UNL     1       3.585   5.556   5.244  1.00  0.00     0.275 C 
ENDROOT
BRANCH   1   2
ATOM      2  O   UNL     1       3.267   4.796   4.056  1.00  0.00    -0.458 OA
BRANCH   2   3
ATOM      3  C   UNL     1       2.015   4.279   3.989  1.00  0.00     0.340 C 
ATOM      4  O   UNL     1       1.108   4.476   4.779  1.00  0.00    -0.246 OA
BRANCH   3   5
ATOM      5  C   UNL     1       1.861   3.363   2.830  1.00  0.00     0.087 A 
ATOM      6  C   UNL     1       1.582   1.359   0.911  1.00  0.00     0.162 A 
ATOM      7  C   UNL     1       0.516   2.231   1.195  1.00  0.00     0.077 A 
ATOM      8  C   UNL     1       2.815   1.524   1.548  1.00  0.00     0.161 A 
ATOM      9  C   UNL     1       0.649   3.276   2.103  1.00  0.00     0.059 A 
ATOM     10  C   UNL     1       2.931   2.507   2.533  1.00  0.00     0.068 A 
BRANCH   6  11
ATOM     11  O   UNL     1       1.431   0.415  -0.070  1.00  0.00    -0.493 OA
ATOM     12  C   UNL     1       0.324  -0.461   0.140  1.00  0.00     0.278 C 
ENDBRANCH   6  11
BRANCH   8  13
ATOM     13  O   UNL     1       3.973   0.819   1.366  1.00  0.00    -0.493 OA
ATOM     14  C   UNL     1       3.961  -0.273   0.459  1.00  0.00     0.278 C 
ENDBRANCH   8  13
BRANCH   9  15
ATOM     15  N   UNL     1      -0.302   4.308   2.227  1.00  0.00    -0.324 N 
ATOM     16  C   UNL     1      -1.387   4.730   1.526  1.00  0.00     0.244 C 
ATOM     17  H   UNL     1      -0.139   4.865   3.022  1.00  0.00     0.170 HD
ATOM     18  O   UNL     1      -1.638   5.933   1.652  1.00  0.00    -0.273 OA
BRANCH  16  19
ATOM     19  C   UNL     1      -2.220   3.949   0.526  1.00  0.00     0.229 C 
BRANCH  19  20
ATOM     20  N   UNL     1      -1.620   4.099  -0.782  1.00  0.00    -0.265 N 
ATOM     21  C   UNL     1      -1.428   5.293  -1.417  1.00  0.00     0.262 C 
ATOM     22  C   UNL     1      -1.252   3.054  -1.581  1.00  0.00     0.262 C 
ATOM     23  O   UNL     1      -1.822   6.412  -1.150  1.00  0.00    -0.269 OA
ATOM     24  C   UNL     1      -0.586   5.008  -2.568  1.00  0.00     0.053 A 
ATOM     25  C   UNL     1      -0.488   3.635  -2.678  1.00  0.00     0.053 A 
ATOM     26  O   UNL     1      -1.475   1.873  -1.451  1.00  0.00    -0.269 OA
ATOM     27  C   UNL     1       0.129   5.864  -3.378  1.00  0.00     0.015 A 
ATOM     28  C   UNL     1       0.317   3.030  -3.618  1.00  0.00     0.015 A 
ATOM     29  C   UNL     1       0.969   5.278  -4.328  1.00  0.00     0.001 A 
ATOM     30  C   UNL     1       1.058   3.874  -4.450  1.00  0.00     0.001 A 
ENDBRANCH  19  20
ENDBRANCH  16  19
ENDBRANCH   9  15
ENDBRANCH   3   5
ENDBRANCH   2   3
ENDBRANCH   1   2
BRANCH   1  31
ATOM     31  C   UNL     1       3.538   7.060   4.987  1.00  0.00     0.275 C 
BRANCH  31  32
ATOM     32  O   UNL     1       2.170   7.496   4.926  1.00  0.00    -0.458 OA
BRANCH  32  33
ATOM     33  C   UNL     1       1.754   7.992   3.738  1.00  0.00     0.338 C 
ATOM     34  O   UNL     1       2.438   8.169   2.743  1.00  0.00    -0.246 OA
BRANCH  33  35
ATOM     35  C   UNL     1       0.297   8.239   3.774  1.00  0.00     0.060 A 
ATOM     36  C   UNL     1      -0.546   7.265   4.289  1.00  0.00     0.016 A 
ATOM     37  C   UNL     1      -0.248   9.338   3.111  1.00  0.00     0.016 A 
ATOM     38  C   UNL     1      -1.900   7.292   3.955  1.00  0.00     0.010 A 
ATOM     39  C   UNL     1      -1.635   9.419   2.899  1.00  0.00     0.010 A 
ATOM     40  C   UNL     1      -2.483   8.345   3.221  1.00  0.00    -0.014 A 
BRANCH  40  41
ATOM     41  C   UNL     1      -3.899   8.254   2.689  1.00  0.00     0.031 A 
ATOM     42  C   UNL     1      -4.247   8.726   1.280  1.00  0.00     0.074 A 
ATOM     43  C   UNL     1      -4.904   7.705   3.409  1.00  0.00     0.049 A 
ATOM     44  N   UNL     1      -5.422   9.025   0.773  1.00  0.00    -0.248 NA
ATOM     45  C   UNL     1      -3.142   8.915   0.329  1.00  0.00     0.031 C 
ATOM     46  C   UNL     1      -4.788   7.145   4.754  1.00  0.00     0.029 A 
ATOM     47  N   UNL     1      -6.239   7.524   3.104  1.00  0.00    -0.354 N 
ATOM     48  C   UNL     1      -5.177   9.555  -0.494  1.00  0.00     0.074 A 
ATOM     49  C   UNL     1      -3.747   9.500  -0.698  1.00  0.00     0.031 C 
ATOM     50  C   UNL     1      -5.958   6.615   5.125  1.00  0.00     0.029 A 
ATOM     51  C   UNL     1      -6.963   6.960   4.130  1.00  0.00     0.049 A 
ATOM     52  H   UNL     1      -6.634   7.774   2.238  1.00  0.00     0.167 HD
ATOM     53  C   UNL     1      -6.060  10.032  -1.408  1.00  0.00     0.034 A 
ATOM     54  C   UNL     1      -8.290   6.816   4.326  1.00  0.00     0.034 A 
ATOM     55  C   UNL     1      -7.492   9.917  -1.295  1.00  0.00     0.049 A 
ATOM     56  C   UNL     1      -9.251   7.333   3.299  1.00  0.00     0.074 A 
ATOM     57  C   UNL     1      -8.461  10.317  -2.203  1.00  0.00     0.029 A 
ATOM     58  N   UNL     1      -8.161   9.322  -0.240  1.00  0.00    -0.354 N 
ATOM     59  N   UNL     1      -9.000   7.883   2.138  1.00  0.00    -0.248 NA
ATOM     60  C   UNL     1     -10.682   7.220   3.616  1.00  0.00     0.031 C 
ATOM     61  C   UNL     1      -9.715   9.971  -1.692  1.00  0.00     0.029 A 
ATOM     62  C   UNL     1      -9.527   9.342  -0.474  1.00  0.00     0.049 A 
ATOM     63  H   UNL     1      -7.730   8.940   0.559  1.00  0.00     0.167 HD
ATOM     64  C   UNL     1     -10.239   8.180   1.585  1.00  0.00     0.074 A 
ATOM     65  C   UNL     1     -11.241   7.708   2.517  1.00  0.00     0.031 C 
ATOM     66  C   UNL     1     -10.520   8.819   0.425  1.00  0.00     0.034 A 
BRANCH  53  67
ATOM     67  C   UNL     1      -5.536  10.714  -2.650  1.00  0.00     0.023 A 
ATOM     68  C   UNL     1      -5.041   9.954  -3.725  1.00  0.00     0.012 A 
ATOM     69  C   UNL     1      -5.693  12.110  -2.805  1.00  0.00     0.148 A 
ATOM     70  C   UNL     1      -4.702  10.570  -4.932  1.00  0.00     0.002 A 
ATOM     71  C   UNL     1      -5.394  12.710  -4.023  1.00  0.00     0.091 A 
ATOM     72  F   UNL     1      -6.159  12.819  -1.766  1.00  0.00    -0.205 F 
ATOM     73  C   UNL     1      -4.893  11.942  -5.086  1.00  0.00     0.022 A 
BRANCH  71  74
ATOM     74  S   UNL     1      -5.699  14.452  -4.351  1.00  0.00     0.127 S 
ATOM     75  O   UNL     1      -4.338  14.980  -4.441  1.00  0.00    -0.237 OA
ATOM     76  O   UNL     1      -6.418  14.406  -5.625  1.00  0.00    -0.237 OA
ATOM     77  O   UNL     1      -6.485  14.944  -3.228  1.00  0.00    -0.744 OA
ENDBRANCH  71  74
ENDBRANCH  53  67
BRANCH  54  78
ATOM     78  C   UNL     1      -8.783   6.210   5.598  1.00  0.00     0.023 A 
ATOM     79  C   UNL     1      -9.451   4.973   5.574  1.00  0.00     0.012 A 
ATOM     80  C   UNL     1      -8.539   6.832   6.840  1.00  0.00     0.148 A 
ATOM     81  C   UNL     1      -9.872   4.371   6.761  1.00  0.00     0.002 A 
ATOM     82  C   UNL     1      -8.879   6.184   8.020  1.00  0.00     0.091 A 
ATOM     83  F   UNL     1      -7.945   8.034   6.850  1.00  0.00    -0.205 F 
ATOM     84  C   UNL     1      -9.565   4.964   7.985  1.00  0.00     0.022 A 
BRANCH  82  85
ATOM     85  S   UNL     1      -8.312   6.802   9.609  1.00  0.00     0.127 S 
ATOM     86  O   UNL     1      -9.460   7.583  10.059  1.00  0.00    -0.237 OA
ATOM     87  O   UNL     1      -8.075   5.567  10.360  1.00  0.00    -0.237 OA
ATOM     88  O   UNL     1      -7.097   7.549   9.308  1.00  0.00    -0.744 OA
ENDBRANCH  82  85
ENDBRANCH  54  78
BRANCH  66  89
ATOM     89  C   UNL     1     -11.969   9.019   0.077  1.00  0.00     0.023 A 
ATOM     90  C   UNL     1     -12.717   9.998   0.760  1.00  0.00     0.012 A 
ATOM     91  C   UNL     1     -12.579   8.270  -0.947  1.00  0.00     0.148 A 
ATOM     92  C   UNL     1     -14.061  10.204   0.453  1.00  0.00     0.002 A 
ATOM     93  C   UNL     1     -13.908   8.509  -1.276  1.00  0.00     0.091 A 
ATOM     94  F   UNL     1     -11.855   7.329  -1.571  1.00  0.00    -0.205 F 
ATOM     95  C   UNL     1     -14.653   9.468  -0.571  1.00  0.00     0.022 A 
BRANCH  93  96
ATOM     96  S   UNL     1     -14.729   7.660  -2.630  1.00  0.00     0.127 S 
ATOM     97  O   UNL     1     -15.579   6.711  -1.915  1.00  0.00    -0.237 OA
ATOM     98  O   UNL     1     -15.452   8.748  -3.290  1.00  0.00    -0.237 OA
ATOM     99  O   UNL     1     -13.667   7.070  -3.434  1.00  0.00    -0.744 OA
ENDBRANCH  93  96
ENDBRANCH  66  89
ENDBRANCH  40  41
ENDBRANCH  33  35
ENDBRANCH  32  33
ENDBRANCH  31  32
ENDBRANCH   1  31
TORSDOF 19
