REMARK SMILES O=C(OCCOC(=O)c1nnn(-c2cccc(C(F)(F)F)c2)c1[C@@H]1COc2ccccc2O1)c1ccc(-c2c3nc(c(-c4cccc(S(=O)(=O)[O-])c4F)c4ccc([nH]4)c(-c4cccc(S(=O)(=O)[O-])c4F)c4nc(c(-c5cccc(S(=O)(=O)[O-])c5F)c5ccc2[nH]5)C=C4)C=C3)cc1
REMARK SMILES IDX 4 1 3 2 2 3 1 4 34 5 35 6 96 7 36 8 95 9 37 10 38 11 39 12
REMARK SMILES IDX 89 13 40 14 94 15 88 16 90 17 41 18 93 19 87 20 86 21 42 23
REMARK SMILES IDX 74 24 54 25 73 26 55 27 58 28 72 29 91 30 56 31 57 32 71 34
REMARK SMILES IDX 92 35 59 36 43 37 44 38 52 39 45 40 47 41 53 42 46 43 48 44
REMARK SMILES IDX 49 45 50 46 51 47 75 48 76 49 84 50 77 51 79 52 85 53 78 54
REMARK SMILES IDX 80 55 81 56 82 57 83 58 60 59 61 60 69 61 62 62 64 63 70 64
REMARK SMILES IDX 63 65 65 66 66 67 67 68 68 69 5 70 6 71 7 72 8 73 9 74 10 75
REMARK SMILES IDX 23 76 11 77 12 78 24 79 25 80 33 81 26 82 32 83 27 84 31 85
REMARK SMILES IDX 28 86 30 87 29 88 13 89 14 90 22 91 15 92 17 93 16 94 18 95
REMARK SMILES IDX 19 96 20 97 21 98
REMARK H PARENT 90 22 58 33
REMARK Flexibility Score: inf
ROOT
ATOM      1  C   UNL     1       4.447  -0.016   0.822  1.00  0.00     0.275 C 
ENDROOT
BRANCH   1   2
ATOM      2  O   UNL     1       3.284   0.804   1.047  1.00  0.00    -0.458 OA
BRANCH   2   3
ATOM      3  C   UNL     1       2.198   0.612   0.265  1.00  0.00     0.338 C 
ATOM      4  O   UNL     1       1.335  -0.218   0.497  1.00  0.00    -0.246 OA
BRANCH   3   5
ATOM      5  C   UNL     1       2.099   1.624  -0.811  1.00  0.00     0.060 A 
ATOM      6  C   UNL     1       3.198   2.402  -1.191  1.00  0.00     0.016 A 
ATOM      7  C   UNL     1       0.857   1.806  -1.438  1.00  0.00     0.016 A 
ATOM      8  C   UNL     1       3.037   3.403  -2.135  1.00  0.00     0.010 A 
ATOM      9  C   UNL     1       0.691   2.821  -2.373  1.00  0.00     0.010 A 
ATOM     10  C   UNL     1       1.775   3.636  -2.692  1.00  0.00    -0.014 A 
BRANCH  10  11
ATOM     11  C   UNL     1       1.679   4.681  -3.702  1.00  0.00     0.031 A 
ATOM     12  C   UNL     1       2.381   4.365  -4.973  1.00  0.00     0.074 A 
ATOM     13  C   UNL     1       0.987   5.826  -3.546  1.00  0.00     0.049 A 
ATOM     14  N   UNL     1       3.484   4.880  -5.407  1.00  0.00    -0.248 NA
ATOM     15  C   UNL     1       1.881   3.248  -5.782  1.00  0.00     0.031 C 
ATOM     16  C   UNL     1       0.027   6.163  -2.493  1.00  0.00     0.029 A 
ATOM     17  N   UNL     1       0.920   6.902  -4.382  1.00  0.00    -0.354 N 
ATOM     18  C   UNL     1       3.690   4.322  -6.667  1.00  0.00     0.074 A 
ATOM     19  C   UNL     1       2.790   3.203  -6.758  1.00  0.00     0.031 C 
ATOM     20  C   UNL     1      -0.695   7.241  -2.882  1.00  0.00     0.029 A 
ATOM     21  C   UNL     1      -0.154   7.750  -4.131  1.00  0.00     0.049 A 
ATOM     22  H   UNL     1       1.574   7.064  -5.100  1.00  0.00     0.167 HD
ATOM     23  C   UNL     1       4.415   4.977  -7.618  1.00  0.00     0.034 A 
ATOM     24  C   UNL     1      -0.599   8.751  -4.932  1.00  0.00     0.034 A 
ATOM     25  C   UNL     1       5.191   6.048  -7.041  1.00  0.00     0.049 A 
ATOM     26  C   UNL     1       0.512   9.131  -5.833  1.00  0.00     0.074 A 
ATOM     27  C   UNL     1       6.157   6.143  -6.060  1.00  0.00     0.029 A 
ATOM     28  N   UNL     1       4.733   7.327  -7.243  1.00  0.00    -0.354 N 
ATOM     29  N   UNL     1       1.594   9.731  -5.426  1.00  0.00    -0.248 NA
ATOM     30  C   UNL     1       0.604   8.477  -7.128  1.00  0.00     0.031 C 
ATOM     31  C   UNL     1       5.875   7.368  -5.388  1.00  0.00     0.029 A 
ATOM     32  C   UNL     1       4.804   7.978  -6.043  1.00  0.00     0.049 A 
ATOM     33  H   UNL     1       4.414   7.705  -8.094  1.00  0.00     0.167 HD
ATOM     34  C   UNL     1       2.608   9.132  -6.158  1.00  0.00     0.074 A 
ATOM     35  C   UNL     1       1.932   8.459  -7.265  1.00  0.00     0.031 C 
ATOM     36  C   UNL     1       3.862   8.994  -5.635  1.00  0.00     0.034 A 
BRANCH  23  37
ATOM     37  C   UNL     1       4.153   4.932  -9.110  1.00  0.00     0.023 A 
ATOM     38  C   UNL     1       5.064   5.625  -9.943  1.00  0.00     0.012 A 
ATOM     39  C   UNL     1       2.938   4.521  -9.702  1.00  0.00     0.148 A 
ATOM     40  C   UNL     1       4.746   5.970 -11.261  1.00  0.00     0.002 A 
ATOM     41  C   UNL     1       2.657   4.799 -11.036  1.00  0.00     0.091 A 
ATOM     42  F   UNL     1       1.981   3.965  -8.956  1.00  0.00    -0.205 F 
ATOM     43  C   UNL     1       3.540   5.557 -11.808  1.00  0.00     0.022 A 
BRANCH  41  44
ATOM     44  S   UNL     1       1.138   4.242 -11.818  1.00  0.00     0.127 S 
ATOM     45  O   UNL     1       0.414   5.499 -11.977  1.00  0.00    -0.237 OA
ATOM     46  O   UNL     1       1.644   3.654 -13.059  1.00  0.00    -0.237 OA
ATOM     47  O   UNL     1       0.553   3.276 -10.897  1.00  0.00    -0.744 OA
ENDBRANCH  41  44
ENDBRANCH  23  37
BRANCH  24  48
ATOM     48  C   UNL     1      -1.972   9.258  -5.159  1.00  0.00     0.023 A 
ATOM     49  C   UNL     1      -2.160  10.534  -5.732  1.00  0.00     0.012 A 
ATOM     50  C   UNL     1      -3.077   8.382  -5.105  1.00  0.00     0.148 A 
ATOM     51  C   UNL     1      -3.397  10.908  -6.271  1.00  0.00     0.002 A 
ATOM     52  C   UNL     1      -4.305   8.759  -5.641  1.00  0.00     0.091 A 
ATOM     53  F   UNL     1      -2.896   7.147  -4.620  1.00  0.00    -0.205 F 
ATOM     54  C   UNL     1      -4.465  10.017  -6.237  1.00  0.00     0.022 A 
BRANCH  52  55
ATOM     55  S   UNL     1      -5.718   7.649  -5.669  1.00  0.00     0.127 S 
ATOM     56  O   UNL     1      -6.784   8.503  -5.142  1.00  0.00    -0.237 OA
ATOM     57  O   UNL     1      -5.829   7.338  -7.091  1.00  0.00    -0.237 OA
ATOM     58  O   UNL     1      -5.363   6.532  -4.803  1.00  0.00    -0.744 OA
ENDBRANCH  52  55
ENDBRANCH  24  48
BRANCH  36  59
ATOM     59  C   UNL     1       4.207   9.767  -4.389  1.00  0.00     0.023 A 
ATOM     60  C   UNL     1       3.517   9.604  -3.171  1.00  0.00     0.012 A 
ATOM     61  C   UNL     1       5.362  10.567  -4.414  1.00  0.00     0.148 A 
ATOM     62  C   UNL     1       3.952  10.253  -2.011  1.00  0.00     0.002 A 
ATOM     63  C   UNL     1       5.821  11.166  -3.250  1.00  0.00     0.091 A 
ATOM     64  F   UNL     1       6.008  10.714  -5.582  1.00  0.00    -0.205 F 
ATOM     65  C   UNL     1       5.113  11.023  -2.048  1.00  0.00     0.022 A 
BRANCH  63  66
ATOM     66  S   UNL     1       7.379  12.054  -3.222  1.00  0.00     0.127 S 
ATOM     67  O   UNL     1       6.941  13.445  -3.304  1.00  0.00    -0.237 OA
ATOM     68  O   UNL     1       7.944  11.664  -1.928  1.00  0.00    -0.237 OA
ATOM     69  O   UNL     1       8.135  11.560  -4.367  1.00  0.00    -0.744 OA
ENDBRANCH  63  66
ENDBRANCH  36  59
ENDBRANCH  10  11
ENDBRANCH   3   5
ENDBRANCH   2   3
ENDBRANCH   1   2
BRANCH   1  70
ATOM     70  C   UNL     1       4.212  -1.460   0.383  1.00  0.00     0.275 C 
BRANCH  70  71
ATOM     71  O   UNL     1       3.644  -1.498  -0.937  1.00  0.00    -0.457 OA
BRANCH  71  72
ATOM     72  C   UNL     1       2.571  -2.335  -1.106  1.00  0.00     0.361 C 
ATOM     73  O   UNL     1       2.127  -3.078  -0.236  1.00  0.00    -0.244 OA
BRANCH  72  74
ATOM     74  C   UNL     1       2.064  -2.302  -2.466  1.00  0.00     0.198 A 
ATOM     75  N   UNL     1       0.727  -2.296  -2.754  1.00  0.00    -0.122 NA
ATOM     76  C   UNL     1       2.790  -2.266  -3.651  1.00  0.00     0.123 A 
ATOM     77  N   UNL     1       0.588  -2.244  -4.070  1.00  0.00    -0.061 NA
ATOM     78  N   UNL     1       1.814  -2.344  -4.631  1.00  0.00    -0.213 N 
BRANCH  76  79
ATOM     79  C   UNL     1       4.255  -2.032  -3.868  1.00  0.00     0.262 C 
ATOM     80  C   UNL     1       4.558  -0.580  -4.250  1.00  0.00     0.281 C 
ATOM     81  O   UNL     1       4.827  -3.008  -4.746  1.00  0.00    -0.477 OA
ATOM     82  O   UNL     1       4.217  -0.321  -5.612  1.00  0.00    -0.485 OA
ATOM     83  C   UNL     1       5.188  -2.514  -5.974  1.00  0.00     0.162 A 
ATOM     84  C   UNL     1       4.839  -1.236  -6.419  1.00  0.00     0.161 A 
ATOM     85  C   UNL     1       5.857  -3.387  -6.831  1.00  0.00     0.050 A 
ATOM     86  C   UNL     1       5.063  -0.864  -7.741  1.00  0.00     0.050 A 
ATOM     87  C   UNL     1       6.124  -2.999  -8.146  1.00  0.00     0.004 A 
ATOM     88  C   UNL     1       5.705  -1.749  -8.606  1.00  0.00     0.004 A 
ENDBRANCH  76  79
BRANCH  78  89
ATOM     89  C   UNL     1       1.911  -2.889  -5.923  1.00  0.00     0.067 A 
ATOM     90  C   UNL     1       1.634  -2.091  -7.032  1.00  0.00     0.028 A 
ATOM     91  C   UNL     1       2.288  -4.231  -6.067  1.00  0.00     0.041 A 
ATOM     92  C   UNL     1       1.839  -2.619  -8.306  1.00  0.00     0.003 A 
ATOM     93  C   UNL     1       2.441  -4.779  -7.347  1.00  0.00     0.058 A 
ATOM     94  C   UNL     1       2.249  -3.948  -8.463  1.00  0.00     0.013 A 
BRANCH  93  95
ATOM     95  C   UNL     1       2.846  -6.218  -7.518  1.00  0.00     0.416 C 
ATOM     96  F   UNL     1       2.244  -6.824  -8.581  1.00  0.00    -0.166 F 
ATOM     97  F   UNL     1       4.186  -6.370  -7.715  1.00  0.00    -0.166 F 
ATOM     98  F   UNL     1       2.545  -6.997  -6.438  1.00  0.00    -0.166 F 
ENDBRANCH  93  95
ENDBRANCH  78  89
ENDBRANCH  72  74
ENDBRANCH  71  72
ENDBRANCH  70  71
ENDBRANCH   1  70
TORSDOF 17
