REMARK SMILES O=C(OCCOC(=O)[C@@H](Cc1c(F)cccc1Cl)c1ccc(Cl)cc1)c1ccc(-c2c3nc(c(-c4cccc(S(=O)(=O)[O-])c4F)c4ccc([nH]4)c(-c4cccc(S(=O)(=O)[O-])c4F)c4nc(c(-c5cccc(S(=O)(=O)[O-])c5F)c5ccc2[nH]5)C=C4)C=C3)cc1
REMARK SMILES IDX 4 1 3 2 2 3 1 4 26 5 27 6 88 7 28 8 87 9 29 10 30 11 31 12
REMARK SMILES IDX 81 13 32 14 86 15 80 16 82 17 33 18 85 19 79 20 78 21 34 23
REMARK SMILES IDX 66 24 46 25 65 26 47 27 50 28 64 29 83 30 48 31 49 32 63 34
REMARK SMILES IDX 84 35 51 36 35 37 36 38 44 39 37 40 39 41 45 42 38 43 40 44
REMARK SMILES IDX 41 45 42 46 43 47 67 48 68 49 76 50 69 51 71 52 77 53 70 54
REMARK SMILES IDX 72 55 73 56 74 57 75 58 52 59 53 60 61 61 54 62 56 63 62 64
REMARK SMILES IDX 55 65 57 66 58 67 59 68 60 69 5 70 6 71 7 72 8 73 9 74 10 75
REMARK SMILES IDX 11 76 12 77 17 78 13 79 14 80 16 81 18 82 15 83 19 84 20 85
REMARK SMILES IDX 25 86 21 87 24 88 22 89 23 90
REMARK H PARENT 82 22 50 33
REMARK Flexibility Score: inf
ROOT
ATOM      1  C   UNL     1       3.935   0.493  -1.100  1.00  0.00     0.275 C 
ENDROOT
BRANCH   1   2
ATOM      2  O   UNL     1       2.576  -0.016  -1.036  1.00  0.00    -0.458 OA
BRANCH   2   3
ATOM      3  C   UNL     1       2.040  -1.176  -0.577  1.00  0.00     0.338 C 
ATOM      4  O   UNL     1       0.870  -1.440  -0.847  1.00  0.00    -0.246 OA
BRANCH   3   5
ATOM      5  C   UNL     1       2.750  -2.102   0.354  1.00  0.00     0.060 A 
ATOM      6  C   UNL     1       4.016  -2.614   0.119  1.00  0.00     0.016 A 
ATOM      7  C   UNL     1       2.065  -2.560   1.500  1.00  0.00     0.016 A 
ATOM      8  C   UNL     1       4.639  -3.412   1.104  1.00  0.00     0.010 A 
ATOM      9  C   UNL     1       2.697  -3.362   2.486  1.00  0.00     0.010 A 
ATOM     10  C   UNL     1       4.036  -3.737   2.351  1.00  0.00    -0.014 A 
BRANCH  10  11
ATOM     11  C   UNL     1       4.887  -4.390   3.446  1.00  0.00     0.031 A 
ATOM     12  C   UNL     1       5.730  -5.577   3.098  1.00  0.00     0.074 A 
ATOM     13  C   UNL     1       5.148  -3.850   4.667  1.00  0.00     0.049 A 
ATOM     14  N   UNL     1       6.811  -6.019   3.686  1.00  0.00    -0.248 NA
ATOM     15  C   UNL     1       5.311  -6.342   1.918  1.00  0.00     0.031 C 
ATOM     16  C   UNL     1       4.462  -2.712   5.234  1.00  0.00     0.029 A 
ATOM     17  N   UNL     1       6.126  -4.110   5.620  1.00  0.00    -0.354 N 
ATOM     18  C   UNL     1       7.235  -7.087   2.921  1.00  0.00     0.074 A 
ATOM     19  C   UNL     1       6.301  -7.214   1.816  1.00  0.00     0.031 C 
ATOM     20  C   UNL     1       5.120  -2.247   6.306  1.00  0.00     0.029 A 
ATOM     21  C   UNL     1       6.215  -3.151   6.619  1.00  0.00     0.049 A 
ATOM     22  H   UNL     1       6.706  -4.906   5.588  1.00  0.00     0.167 HD
ATOM     23  C   UNL     1       8.284  -7.916   3.119  1.00  0.00     0.034 A 
ATOM     24  C   UNL     1       7.042  -2.995   7.681  1.00  0.00     0.034 A 
ATOM     25  C   UNL     1       9.129  -7.960   4.278  1.00  0.00     0.049 A 
ATOM     26  C   UNL     1       8.094  -4.036   7.958  1.00  0.00     0.074 A 
ATOM     27  C   UNL     1      10.086  -8.911   4.593  1.00  0.00     0.029 A 
ATOM     28  N   UNL     1       9.088  -7.075   5.339  1.00  0.00    -0.354 N 
ATOM     29  N   UNL     1       8.527  -4.994   7.181  1.00  0.00    -0.248 NA
ATOM     30  C   UNL     1       8.765  -3.983   9.271  1.00  0.00     0.031 C 
ATOM     31  C   UNL     1      10.595  -8.625   5.864  1.00  0.00     0.029 A 
ATOM     32  C   UNL     1       9.989  -7.469   6.320  1.00  0.00     0.049 A 
ATOM     33  H   UNL     1       8.507  -6.282   5.392  1.00  0.00     0.167 HD
ATOM     34  C   UNL     1       9.511  -5.656   7.907  1.00  0.00     0.074 A 
ATOM     35  C   UNL     1       9.662  -4.954   9.161  1.00  0.00     0.031 C 
ATOM     36  C   UNL     1      10.194  -6.774   7.564  1.00  0.00     0.034 A 
BRANCH  23  37
ATOM     37  C   UNL     1       8.502  -8.927   2.042  1.00  0.00     0.023 A 
ATOM     38  C   UNL     1       9.168  -8.547   0.861  1.00  0.00     0.012 A 
ATOM     39  C   UNL     1       7.991 -10.227   2.184  1.00  0.00     0.148 A 
ATOM     40  C   UNL     1       9.303  -9.456  -0.184  1.00  0.00     0.002 A 
ATOM     41  C   UNL     1       8.152 -11.132   1.151  1.00  0.00     0.091 A 
ATOM     42  F   UNL     1       7.325 -10.529   3.307  1.00  0.00    -0.205 F 
ATOM     43  C   UNL     1       8.800 -10.748  -0.037  1.00  0.00     0.022 A 
BRANCH  41  44
ATOM     44  S   UNL     1       7.550 -12.816   1.253  1.00  0.00     0.127 S 
ATOM     45  O   UNL     1       6.510 -12.816   0.224  1.00  0.00    -0.237 OA
ATOM     46  O   UNL     1       8.747 -13.585   0.916  1.00  0.00    -0.237 OA
ATOM     47  O   UNL     1       7.071 -12.992   2.617  1.00  0.00    -0.744 OA
ENDBRANCH  41  44
ENDBRANCH  23  37
BRANCH  24  48
ATOM     48  C   UNL     1       6.911  -1.849   8.647  1.00  0.00     0.023 A 
ATOM     49  C   UNL     1       8.006  -0.984   8.870  1.00  0.00     0.012 A 
ATOM     50  C   UNL     1       5.764  -1.692   9.447  1.00  0.00     0.148 A 
ATOM     51  C   UNL     1       7.970  -0.023   9.889  1.00  0.00     0.002 A 
ATOM     52  C   UNL     1       5.717  -0.703  10.427  1.00  0.00     0.091 A 
ATOM     53  F   UNL     1       4.741  -2.542   9.276  1.00  0.00    -0.205 F 
ATOM     54  C   UNL     1       6.822   0.124  10.662  1.00  0.00     0.022 A 
BRANCH  52  55
ATOM     55  S   UNL     1       4.228  -0.468  11.404  1.00  0.00     0.127 S 
ATOM     56  O   UNL     1       4.410  -1.448  12.470  1.00  0.00    -0.237 OA
ATOM     57  O   UNL     1       4.335   0.926  11.834  1.00  0.00    -0.237 OA
ATOM     58  O   UNL     1       3.143  -0.729  10.463  1.00  0.00    -0.744 OA
ENDBRANCH  52  55
ENDBRANCH  24  48
BRANCH  36  59
ATOM     59  C   UNL     1      11.189  -7.333   8.551  1.00  0.00     0.023 A 
ATOM     60  C   UNL     1      10.740  -7.908   9.758  1.00  0.00     0.012 A 
ATOM     61  C   UNL     1      12.567  -7.350   8.257  1.00  0.00     0.148 A 
ATOM     62  C   UNL     1      11.644  -8.459  10.667  1.00  0.00     0.002 A 
ATOM     63  C   UNL     1      13.458  -7.946   9.143  1.00  0.00     0.091 A 
ATOM     64  F   UNL     1      12.984  -6.778   7.118  1.00  0.00    -0.205 F 
ATOM     65  C   UNL     1      13.001  -8.489  10.354  1.00  0.00     0.022 A 
BRANCH  63  66
ATOM     66  S   UNL     1      15.209  -8.116   8.779  1.00  0.00     0.127 S 
ATOM     67  O   UNL     1      15.800  -7.133   9.684  1.00  0.00    -0.237 OA
ATOM     68  O   UNL     1      15.467  -9.511   9.140  1.00  0.00    -0.237 OA
ATOM     69  O   UNL     1      15.352  -7.825   7.359  1.00  0.00    -0.744 OA
ENDBRANCH  63  66
ENDBRANCH  36  59
ENDBRANCH  10  11
ENDBRANCH   3   5
ENDBRANCH   2   3
ENDBRANCH   1   2
BRANCH   1  70
ATOM     70  C   UNL     1       4.080   1.817  -0.338  1.00  0.00     0.274 C 
BRANCH  70  71
ATOM     71  O   UNL     1       4.274   1.510   1.042  1.00  0.00    -0.462 OA
BRANCH  71  72
ATOM     72  C   UNL     1       3.188   1.533   1.858  1.00  0.00     0.313 C 
ATOM     73  O   UNL     1       2.154   2.137   1.621  1.00  0.00    -0.252 OA
BRANCH  72  74
ATOM     74  C   UNL     1       3.393   0.569   3.016  1.00  0.00     0.134 C 
BRANCH  74  75
ATOM     75  C   UNL     1       4.687  -0.296   2.835  1.00  0.00     0.060 C 
BRANCH  75  76
ATOM     76  C   UNL     1       6.167  -0.024   3.046  1.00  0.00     0.008 A 
ATOM     77  C   UNL     1       7.014  -1.145   2.853  1.00  0.00     0.127 A 
ATOM     78  C   UNL     1       6.833   1.166   3.313  1.00  0.00     0.047 A 
ATOM     79  F   UNL     1       6.491  -2.316   2.504  1.00  0.00    -0.207 F 
ATOM     80  C   UNL     1       8.401  -1.123   2.934  1.00  0.00     0.039 A 
ATOM     81  C   UNL     1       8.242   1.202   3.416  1.00  0.00     0.021 A 
ATOM     82  Cl  UNL     1       6.066   2.692   3.443  1.00  0.00    -0.084 Cl
ATOM     83  C   UNL     1       9.027   0.067   3.224  1.00  0.00     0.005 A 
ENDBRANCH  75  76
ENDBRANCH  74  75
BRANCH  74  84
ATOM     84  C   UNL     1       3.078   1.069   4.413  1.00  0.00    -0.033 A 
ATOM     85  C   UNL     1       2.677   0.176   5.421  1.00  0.00     0.006 A 
ATOM     86  C   UNL     1       3.229   2.406   4.771  1.00  0.00     0.006 A 
ATOM     87  C   UNL     1       2.718   0.535   6.772  1.00  0.00     0.021 A 
ATOM     88  C   UNL     1       3.257   2.782   6.114  1.00  0.00     0.021 A 
ATOM     89  C   UNL     1       3.071   1.832   7.111  1.00  0.00     0.041 A 
ATOM     90  Cl  UNL     1       3.289   2.289   8.747  1.00  0.00    -0.084 Cl
ENDBRANCH  74  84
ENDBRANCH  72  74
ENDBRANCH  71  72
ENDBRANCH  70  71
ENDBRANCH   1  70
TORSDOF 17
