REMARK SMILES C[C@@H]1Cc2ccccc2N1S(=O)(=O)c1cccc(C(=O)OCCOC(=O)c2ccc(-c3c4nc(c(-c5cccc(S(=O)(=O)[O-])c5F)c5ccc([nH]5)c(-c5cccc(S(=O)(=O)[O-])c5F)c5nc(c(-c6cccc(S(=O)(=O)[O-])c6F)c6ccc3[nH]6)C=C5)C=C4)cc2)c1
REMARK SMILES IDX 23 1 22 2 21 3 19 4 20 5 18 6 14 7 15 8 90 9 16 10 17 11
REMARK SMILES IDX 11 12 12 13 13 14 10 15 1 16 2 17 3 18 4 19 9 20 5 21 8 22
REMARK SMILES IDX 6 23 7 24 24 25 25 26 26 27 27 28 28 29 89 30 29 31 88 32
REMARK SMILES IDX 30 33 31 34 32 35 82 36 33 37 87 38 81 39 83 40 34 41 86 42
REMARK SMILES IDX 80 43 79 44 35 46 67 47 47 48 66 49 48 50 51 51 65 52 84 53
REMARK SMILES IDX 49 54 50 55 64 57 85 58 52 59 36 60 37 61 45 62 38 63 40 64
REMARK SMILES IDX 46 65 39 66 41 67 42 68 43 69 44 70 68 71 69 72 77 73 70 74
REMARK SMILES IDX 72 75 78 76 71 77 73 78 74 79 75 80 76 81 53 82 54 83 62 84
REMARK SMILES IDX 55 85 57 86 63 87 56 88 58 89 59 90 60 91 61 92
REMARK H PARENT 83 45 51 56
REMARK Flexibility Score: inf
ROOT
ATOM      1  C   UNL     1       1.617   9.924  -3.431  1.00  0.00     0.275 C 
ENDROOT
BRANCH   1   2
ATOM      2  C   UNL     1       2.895   9.181  -3.830  1.00  0.00     0.275 C 
BRANCH   2   3
ATOM      3  O   UNL     1       3.085   7.993  -3.040  1.00  0.00    -0.458 OA
BRANCH   3   4
ATOM      4  C   UNL     1       4.027   8.055  -2.061  1.00  0.00     0.338 C 
ATOM      5  O   UNL     1       4.737   9.003  -1.806  1.00  0.00    -0.246 OA
BRANCH   4   6
ATOM      6  C   UNL     1       4.028   6.791  -1.268  1.00  0.00     0.061 A 
ATOM      7  C   UNL     1       3.325   4.507  -0.889  1.00  0.00     0.088 A 
ATOM      8  C   UNL     1       3.962   4.492   0.355  1.00  0.00     0.022 A 
ATOM      9  C   UNL     1       3.366   5.644  -1.708  1.00  0.00     0.038 A 
ATOM     10  C   UNL     1       4.634   5.635   0.788  1.00  0.00     0.002 A 
ATOM     11  C   UNL     1       4.676   6.776  -0.023  1.00  0.00     0.016 A 
BRANCH   7  12
ATOM     12  S   UNL     1       2.384   3.109  -1.437  1.00  0.00     0.264 S 
ATOM     13  O   UNL     1       3.334   2.024  -1.591  1.00  0.00    -0.201 OA
ATOM     14  O   UNL     1       1.587   3.537  -2.571  1.00  0.00    -0.201 OA
BRANCH  12  15
ATOM     15  N   UNL     1       1.336   2.691  -0.189  1.00  0.00    -0.263 N 
ATOM     16  C   UNL     1       0.156   0.993  -1.677  1.00  0.00     0.032 C 
ATOM     17  C   UNL     1       0.649   1.346  -0.273  1.00  0.00     0.101 C 
ATOM     18  C   UNL     1      -0.543   1.425   0.709  1.00  0.00     0.063 C 
ATOM     19  C   UNL     1      -0.591   2.872   1.073  1.00  0.00    -0.021 A 
ATOM     20  C   UNL     1       0.434   3.596   0.462  1.00  0.00     0.055 A 
ATOM     21  C   UNL     1      -1.482   3.466   1.959  1.00  0.00     0.006 A 
ATOM     22  C   UNL     1       0.570   4.948   0.732  1.00  0.00     0.027 A 
ATOM     23  C   UNL     1      -1.331   4.821   2.244  1.00  0.00     0.000 A 
ATOM     24  C   UNL     1      -0.317   5.559   1.627  1.00  0.00     0.002 A 
ENDBRANCH  12  15
ENDBRANCH   7  12
ENDBRANCH   4   6
ENDBRANCH   3   4
ENDBRANCH   2   3
ENDBRANCH   1   2
BRANCH   1  25
ATOM     25  O   UNL     1       1.754  10.563  -2.149  1.00  0.00    -0.458 OA
BRANCH  25  26
ATOM     26  C   UNL     1       1.348   9.824  -1.089  1.00  0.00     0.338 C 
ATOM     27  O   UNL     1       0.828   8.720  -1.115  1.00  0.00    -0.246 OA
BRANCH  26  28
ATOM     28  C   UNL     1       1.784  10.482   0.155  1.00  0.00     0.060 A 
ATOM     29  C   UNL     1       1.409  11.787   0.476  1.00  0.00     0.016 A 
ATOM     30  C   UNL     1       2.571   9.735   1.035  1.00  0.00     0.016 A 
ATOM     31  C   UNL     1       1.856  12.349   1.678  1.00  0.00     0.010 A 
ATOM     32  C   UNL     1       3.011  10.294   2.232  1.00  0.00     0.010 A 
ATOM     33  C   UNL     1       2.668  11.611   2.561  1.00  0.00    -0.014 A 
BRANCH  33  34
ATOM     34  C   UNL     1       3.110  12.193   3.854  1.00  0.00     0.031 A 
ATOM     35  C   UNL     1       4.556  12.520   4.108  1.00  0.00     0.074 A 
ATOM     36  C   UNL     1       2.201  12.383   4.830  1.00  0.00     0.049 A 
ATOM     37  N   UNL     1       5.089  13.117   5.143  1.00  0.00    -0.248 NA
ATOM     38  C   UNL     1       5.535  12.105   3.089  1.00  0.00     0.031 C 
ATOM     39  C   UNL     1       0.791  11.994   4.752  1.00  0.00     0.029 A 
ATOM     40  N   UNL     1       2.323  12.948   6.074  1.00  0.00    -0.354 N 
ATOM     41  C   UNL     1       6.459  13.134   4.913  1.00  0.00     0.074 A 
ATOM     42  C   UNL     1       6.683  12.458   3.654  1.00  0.00     0.031 C 
ATOM     43  C   UNL     1       0.171  12.367   5.882  1.00  0.00     0.029 A 
ATOM     44  C   UNL     1       1.135  13.019   6.764  1.00  0.00     0.049 A 
ATOM     45  H   UNL     1       3.178  13.271   6.438  1.00  0.00     0.167 HD
ATOM     46  C   UNL     1       7.435  13.698   5.662  1.00  0.00     0.034 A 
ATOM     47  C   UNL     1       0.846  13.576   7.957  1.00  0.00     0.034 A 
ATOM     48  C   UNL     1       7.199  14.428   6.877  1.00  0.00     0.049 A 
ATOM     49  C   UNL     1       1.928  14.280   8.726  1.00  0.00     0.074 A 
ATOM     50  C   UNL     1       8.109  15.141   7.638  1.00  0.00     0.029 A 
ATOM     51  N   UNL     1       5.971  14.541   7.507  1.00  0.00    -0.354 N 
ATOM     52  N   UNL     1       3.186  14.448   8.401  1.00  0.00    -0.248 NA
ATOM     53  C   UNL     1       1.550  14.899  10.006  1.00  0.00     0.031 C 
ATOM     54  C   UNL     1       7.430  15.685   8.732  1.00  0.00     0.029 A 
ATOM     55  C   UNL     1       6.098  15.309   8.650  1.00  0.00     0.049 A 
ATOM     56  H   UNL     1       5.133  14.135   7.189  1.00  0.00     0.167 HD
ATOM     57  C   UNL     1       3.747  15.203   9.424  1.00  0.00     0.074 A 
ATOM     58  C   UNL     1       2.689  15.475  10.374  1.00  0.00     0.031 C 
ATOM     59  C   UNL     1       5.029  15.615   9.564  1.00  0.00     0.034 A 
BRANCH  46  60
ATOM     60  C   UNL     1       8.847  13.649   5.146  1.00  0.00     0.023 A 
ATOM     61  C   UNL     1       9.222  14.532   4.114  1.00  0.00     0.012 A 
ATOM     62  C   UNL     1       9.823  12.834   5.752  1.00  0.00     0.148 A 
ATOM     63  C   UNL     1      10.544  14.597   3.680  1.00  0.00     0.002 A 
ATOM     64  C   UNL     1      11.146  12.924   5.333  1.00  0.00     0.091 A 
ATOM     65  F   UNL     1       9.442  12.000   6.729  1.00  0.00    -0.205 F 
ATOM     66  C   UNL     1      11.507  13.801   4.295  1.00  0.00     0.022 A 
BRANCH  64  67
ATOM     67  S   UNL     1      12.479  11.989   6.093  1.00  0.00     0.127 S 
ATOM     68  O   UNL     1      12.901  11.127   4.988  1.00  0.00    -0.237 OA
ATOM     69  O   UNL     1      13.432  13.041   6.443  1.00  0.00    -0.237 OA
ATOM     70  O   UNL     1      11.889  11.293   7.228  1.00  0.00    -0.744 OA
ENDBRANCH  64  67
ENDBRANCH  46  60
BRANCH  47  71
ATOM     71  C   UNL     1      -0.568  13.592   8.420  1.00  0.00     0.023 A 
ATOM     72  C   UNL     1      -1.314  14.778   8.287  1.00  0.00     0.012 A 
ATOM     73  C   UNL     1      -1.199  12.427   8.896  1.00  0.00     0.148 A 
ATOM     74  C   UNL     1      -2.667  14.807   8.626  1.00  0.00     0.002 A 
ATOM     75  C   UNL     1      -2.556  12.452   9.195  1.00  0.00     0.091 A 
ATOM     76  F   UNL     1      -0.465  11.312   9.011  1.00  0.00    -0.205 F 
ATOM     77  C   UNL     1      -3.290  13.643   9.069  1.00  0.00     0.022 A 
BRANCH  75  78
ATOM     78  S   UNL     1      -3.474  10.982   9.668  1.00  0.00     0.127 S 
ATOM     79  O   UNL     1      -3.871  11.306  11.037  1.00  0.00    -0.237 OA
ATOM     80  O   UNL     1      -4.565  10.984   8.693  1.00  0.00    -0.237 OA
ATOM     81  O   UNL     1      -2.542   9.872   9.533  1.00  0.00    -0.744 OA
ENDBRANCH  75  78
ENDBRANCH  47  71
BRANCH  59  82
ATOM     82  C   UNL     1       5.401  16.405  10.788  1.00  0.00     0.023 A 
ATOM     83  C   UNL     1       5.677  15.716  11.984  1.00  0.00     0.012 A 
ATOM     84  C   UNL     1       5.653  17.788  10.703  1.00  0.00     0.148 A 
ATOM     85  C   UNL     1       6.209  16.392  13.080  1.00  0.00     0.002 A 
ATOM     86  C   UNL     1       6.213  18.449  11.789  1.00  0.00     0.091 A 
ATOM     87  F   UNL     1       5.382  18.415   9.550  1.00  0.00    -0.205 F 
ATOM     88  C   UNL     1       6.490  17.753  12.978  1.00  0.00     0.022 A 
BRANCH  86  89
ATOM     89  S   UNL     1       6.687  20.181  11.735  1.00  0.00     0.127 S 
ATOM     90  O   UNL     1       5.853  20.752  12.793  1.00  0.00    -0.237 OA
ATOM     91  O   UNL     1       8.114  20.119  12.049  1.00  0.00    -0.237 OA
ATOM     92  O   UNL     1       6.373  20.647  10.391  1.00  0.00    -0.744 OA
ENDBRANCH  86  89
ENDBRANCH  59  82
ENDBRANCH  33  34
ENDBRANCH  26  28
ENDBRANCH  25  26
ENDBRANCH   1  25
TORSDOF 16
