REMARK SMILES C[C@H](Oc1ccc(C(=O)NCc2ccccc2)cc1)C(=O)OCCOC(=O)c1ccc(-c2c3nc(c(-c4cccc(S(=O)(=O)[O-])c4F)c4ccc([nH]4)c(-c4cccc(S(=O)(=O)[O-])c4F)c4nc(c(-c5cccc(S(=O)(=O)[O-])c5F)c5ccc2[nH]5)C=C4)C=C3)cc1
REMARK SMILES IDX 23 1 22 2 20 3 21 4 2 5 1 6 3 7 4 8 5 9 19 10 6 11 18 12
REMARK SMILES IDX 7 13 8 14 9 15 10 16 11 18 12 19 13 20 17 21 14 22 16 23
REMARK SMILES IDX 15 24 24 25 25 26 26 27 27 28 28 29 29 30 90 31 30 32 89 33
REMARK SMILES IDX 31 34 32 35 33 36 83 37 34 38 88 39 82 40 84 41 35 42 87 43
REMARK SMILES IDX 81 44 80 45 36 47 68 48 48 49 67 50 49 51 52 52 66 53 85 54
REMARK SMILES IDX 50 55 51 56 65 58 86 59 53 60 37 61 38 62 46 63 39 64 41 65
REMARK SMILES IDX 47 66 40 67 42 68 43 69 44 70 45 71 69 72 70 73 78 74 71 75
REMARK SMILES IDX 73 76 79 77 72 78 74 79 75 80 76 81 77 82 54 83 55 84 63 85
REMARK SMILES IDX 56 86 58 87 64 88 57 89 59 90 60 91 61 92 62 93
REMARK H PARENT 10 17 84 46 52 57
REMARK Flexibility Score: inf
ROOT
ATOM      1  C   UNL     1      -3.087  -0.544  -1.028  1.00  0.00     0.274 C 
ENDROOT
BRANCH   1   2
ATOM      2  O   UNL     1      -1.665  -0.767  -1.060  1.00  0.00    -0.459 OA
BRANCH   2   3
ATOM      3  C   UNL     1      -0.946  -0.009  -1.938  1.00  0.00     0.347 C 
ATOM      4  O   UNL     1      -1.431   0.799  -2.722  1.00  0.00    -0.248 OA
BRANCH   3   5
ATOM      5  C   UNL     1       0.546  -0.353  -1.907  1.00  0.00     0.279 C 
ATOM      6  C   UNL     1       0.745  -1.520  -2.877  1.00  0.00     0.066 C 
BRANCH   5   7
ATOM      7  O   UNL     1       0.912  -0.618  -0.552  1.00  0.00    -0.479 OA
BRANCH   7   8
ATOM      8  C   UNL     1       2.131  -1.138  -0.244  1.00  0.00     0.120 A 
ATOM      9  C   UNL     1       3.262  -1.123  -1.051  1.00  0.00     0.047 A 
ATOM     10  C   UNL     1       2.185  -1.775   0.997  1.00  0.00     0.047 A 
ATOM     11  C   UNL     1       4.397  -1.847  -0.664  1.00  0.00     0.017 A 
ATOM     12  C   UNL     1       3.317  -2.500   1.386  1.00  0.00     0.017 A 
ATOM     13  C   UNL     1       4.431  -2.558   0.548  1.00  0.00     0.040 A 
BRANCH  13  14
ATOM     14  C   UNL     1       5.607  -3.439   0.783  1.00  0.00     0.251 C 
ATOM     15  O   UNL     1       6.191  -3.918  -0.191  1.00  0.00    -0.269 OA
ATOM     16  N   UNL     1       6.079  -3.767   2.024  1.00  0.00    -0.348 N 
ATOM     17  H   UNL     1       6.804  -4.433   2.011  1.00  0.00     0.164 HD
BRANCH  16  18
ATOM     18  C   UNL     1       5.716  -3.324   3.353  1.00  0.00     0.152 C 
BRANCH  18  19
ATOM     19  C   UNL     1       4.898  -4.333   4.130  1.00  0.00    -0.029 A 
ATOM     20  C   UNL     1       4.408  -5.522   3.564  1.00  0.00     0.005 A 
ATOM     21  C   UNL     1       4.599  -4.066   5.475  1.00  0.00     0.005 A 
ATOM     22  C   UNL     1       3.643  -6.413   4.320  1.00  0.00     0.000 A 
ATOM     23  C   UNL     1       3.835  -4.958   6.231  1.00  0.00     0.000 A 
ATOM     24  C   UNL     1       3.357  -6.132   5.653  1.00  0.00     0.000 A 
ENDBRANCH  18  19
ENDBRANCH  16  18
ENDBRANCH  13  14
ENDBRANCH   7   8
ENDBRANCH   5   7
ENDBRANCH   3   5
ENDBRANCH   2   3
ENDBRANCH   1   2
BRANCH   1  25
ATOM     25  C   UNL     1      -3.492   0.406   0.101  1.00  0.00     0.275 C 
BRANCH  25  26
ATOM     26  O   UNL     1      -3.076   1.755  -0.168  1.00  0.00    -0.458 OA
BRANCH  26  27
ATOM     27  C   UNL     1      -1.859   2.089   0.316  1.00  0.00     0.338 C 
ATOM     28  O   UNL     1      -1.124   1.393   1.004  1.00  0.00    -0.246 OA
BRANCH  27  29
ATOM     29  C   UNL     1      -1.456   3.399  -0.214  1.00  0.00     0.060 A 
ATOM     30  C   UNL     1      -0.218   3.498  -0.860  1.00  0.00     0.016 A 
ATOM     31  C   UNL     1      -2.253   4.530  -0.024  1.00  0.00     0.016 A 
ATOM     32  C   UNL     1       0.235   4.736  -1.310  1.00  0.00     0.010 A 
ATOM     33  C   UNL     1      -1.793   5.771  -0.469  1.00  0.00     0.010 A 
ATOM     34  C   UNL     1      -0.539   5.883  -1.095  1.00  0.00    -0.014 A 
BRANCH  34  35
ATOM     35  C   UNL     1      -0.006   7.218  -1.448  1.00  0.00     0.031 A 
ATOM     36  C   UNL     1       0.509   8.115  -0.359  1.00  0.00     0.074 A 
ATOM     37  C   UNL     1      -0.014   7.633  -2.728  1.00  0.00     0.049 A 
ATOM     38  N   UNL     1       0.932   9.349  -0.436  1.00  0.00    -0.248 NA
ATOM     39  C   UNL     1       0.546   7.547   0.999  1.00  0.00     0.031 C 
ATOM     40  C   UNL     1      -0.486   6.846  -3.866  1.00  0.00     0.029 A 
ATOM     41  N   UNL     1       0.361   8.833  -3.278  1.00  0.00    -0.354 N 
ATOM     42  C   UNL     1       1.248   9.721   0.865  1.00  0.00     0.074 A 
ATOM     43  C   UNL     1       0.968   8.582   1.712  1.00  0.00     0.031 C 
ATOM     44  C   UNL     1      -0.401   7.596  -4.978  1.00  0.00     0.029 A 
ATOM     45  C   UNL     1       0.102   8.921  -4.625  1.00  0.00     0.049 A 
ATOM     46  H   UNL     1       0.774   9.560  -2.758  1.00  0.00     0.167 HD
ATOM     47  C   UNL     1       1.740  10.901   1.311  1.00  0.00     0.034 A 
ATOM     48  C   UNL     1       0.231   9.963  -5.470  1.00  0.00     0.034 A 
ATOM     49  C   UNL     1       2.046  12.019   0.459  1.00  0.00     0.049 A 
ATOM     50  C   UNL     1       0.775  11.267  -4.949  1.00  0.00     0.074 A 
ATOM     51  C   UNL     1       2.589  13.243   0.807  1.00  0.00     0.029 A 
ATOM     52  N   UNL     1       1.830  12.051  -0.910  1.00  0.00    -0.354 N 
ATOM     53  N   UNL     1       1.170  11.570  -3.735  1.00  0.00    -0.248 NA
ATOM     54  C   UNL     1       0.918  12.364  -5.917  1.00  0.00     0.031 C 
ATOM     55  C   UNL     1       2.688  14.021  -0.351  1.00  0.00     0.029 A 
ATOM     56  C   UNL     1       2.223  13.275  -1.423  1.00  0.00     0.049 A 
ATOM     57  H   UNL     1       1.452  11.312  -1.440  1.00  0.00     0.167 HD
ATOM     58  C   UNL     1       1.638  12.877  -3.800  1.00  0.00     0.074 A 
ATOM     59  C   UNL     1       1.494  13.303  -5.178  1.00  0.00     0.031 C 
ATOM     60  C   UNL     1       2.128  13.661  -2.808  1.00  0.00     0.034 A 
BRANCH  47  61
ATOM     61  C   UNL     1       2.006  11.031   2.786  1.00  0.00     0.023 A 
ATOM     62  C   UNL     1       3.119  10.377   3.353  1.00  0.00     0.012 A 
ATOM     63  C   UNL     1       1.183  11.830   3.603  1.00  0.00     0.148 A 
ATOM     64  C   UNL     1       3.392  10.492   4.715  1.00  0.00     0.002 A 
ATOM     65  C   UNL     1       1.484  11.971   4.954  1.00  0.00     0.091 A 
ATOM     66  F   UNL     1       0.113  12.422   3.053  1.00  0.00    -0.205 F 
ATOM     67  C   UNL     1       2.581  11.296   5.513  1.00  0.00     0.022 A 
BRANCH  65  68
ATOM     68  S   UNL     1       0.537  13.040   6.044  1.00  0.00     0.127 S 
ATOM     69  O   UNL     1      -0.247  12.067   6.803  1.00  0.00    -0.237 OA
ATOM     70  O   UNL     1       1.587  13.709   6.813  1.00  0.00    -0.237 OA
ATOM     71  O   UNL     1      -0.227  13.921   5.172  1.00  0.00    -0.744 OA
ENDBRANCH  65  68
ENDBRANCH  47  61
BRANCH  48  72
ATOM     72  C   UNL     1      -0.125   9.797  -6.907  1.00  0.00     0.023 A 
ATOM     73  C   UNL     1       0.898   9.781  -7.875  1.00  0.00     0.012 A 
ATOM     74  C   UNL     1      -1.461   9.617  -7.316  1.00  0.00     0.148 A 
ATOM     75  C   UNL     1       0.594   9.611  -9.227  1.00  0.00     0.002 A 
ATOM     76  C   UNL     1      -1.751   9.395  -8.657  1.00  0.00     0.091 A 
ATOM     77  F   UNL     1      -2.422   9.655  -6.381  1.00  0.00    -0.205 F 
ATOM     78  C   UNL     1      -0.727   9.406  -9.616  1.00  0.00     0.022 A 
BRANCH  76  79
ATOM     79  S   UNL     1      -3.406   8.996  -9.231  1.00  0.00     0.127 S 
ATOM     80  O   UNL     1      -3.785  10.223  -9.927  1.00  0.00    -0.237 OA
ATOM     81  O   UNL     1      -3.157   7.847 -10.101  1.00  0.00    -0.237 OA
ATOM     82  O   UNL     1      -4.173   8.685  -8.032  1.00  0.00    -0.744 OA
ENDBRANCH  76  79
ENDBRANCH  48  72
BRANCH  60  83
ATOM     83  C   UNL     1       2.581  15.051  -3.171  1.00  0.00     0.023 A 
ATOM     84  C   UNL     1       1.623  16.050  -3.430  1.00  0.00     0.012 A 
ATOM     85  C   UNL     1       3.949  15.386  -3.169  1.00  0.00     0.148 A 
ATOM     86  C   UNL     1       2.021  17.358  -3.705  1.00  0.00     0.002 A 
ATOM     87  C   UNL     1       4.337  16.700  -3.400  1.00  0.00     0.091 A 
ATOM     88  F   UNL     1       4.846  14.415  -2.941  1.00  0.00    -0.205 F 
ATOM     89  C   UNL     1       3.375  17.686  -3.678  1.00  0.00     0.022 A 
BRANCH  87  90
ATOM     90  S   UNL     1       6.051  17.228  -3.291  1.00  0.00     0.127 S 
ATOM     91  O   UNL     1       6.407  17.379  -4.701  1.00  0.00    -0.237 OA
ATOM     92  O   UNL     1       5.945  18.486  -2.551  1.00  0.00    -0.237 OA
ATOM     93  O   UNL     1       6.749  16.167  -2.578  1.00  0.00    -0.744 OA
ENDBRANCH  87  90
ENDBRANCH  60  83
ENDBRANCH  34  35
ENDBRANCH  27  29
ENDBRANCH  26  27
ENDBRANCH  25  26
ENDBRANCH   1  25
TORSDOF 19
