REMARK SMILES CC[C@H](C(=O)OCCOC(=O)c1ccc(-c2c3nc(c(-c4cccc(S(=O)(=O)[O-])c4F)c4ccc([nH]4)c(-c4cccc(S(=O)(=O)[O-])c4F)c4nc(c(-c5cccc(S(=O)(=O)[O-])c5F)c5ccc2[nH]5)C=C4)C=C3)cc1)N1C(=O)c2ccc([N+](=O)[O-])cc2C1=O
REMARK SMILES IDX 8 1 7 2 6 3 4 4 5 5 3 6 2 7 1 8 75 9 76 10 87 11 77 12 78 13
REMARK SMILES IDX 86 14 88 15 79 16 85 17 80 18 81 19 82 20 83 21 84 22 9 23
REMARK SMILES IDX 10 24 11 25 12 26 13 27 74 28 14 29 73 30 15 31 16 32 17 33
REMARK SMILES IDX 67 34 18 35 72 36 66 37 68 38 19 39 71 40 65 41 64 42 20 44
REMARK SMILES IDX 52 45 32 46 51 47 33 48 36 49 50 50 69 51 34 52 35 53 49 55
REMARK SMILES IDX 70 56 37 57 21 58 22 59 30 60 23 61 25 62 31 63 24 64 26 65
REMARK SMILES IDX 27 66 28 67 29 68 53 69 54 70 62 71 55 72 57 73 63 74 56 75
REMARK SMILES IDX 58 76 59 77 60 78 61 79 38 80 39 81 47 82 40 83 42 84 48 85
REMARK SMILES IDX 41 86 43 87 44 88 45 89 46 90
REMARK H PARENT 68 43 36 54
REMARK Flexibility Score: inf
ROOT
ATOM      1  C   UNL     1      -0.336   1.808   0.217  1.00  0.00     0.275 C 
ENDROOT
BRANCH   1   2
ATOM      2  C   UNL     1      -1.302   0.717  -0.253  1.00  0.00     0.274 C 
BRANCH   2   3
ATOM      3  O   UNL     1      -0.652  -0.560  -0.371  1.00  0.00    -0.461 OA
BRANCH   3   4
ATOM      4  C   UNL     1      -0.142  -0.846  -1.596  1.00  0.00     0.329 C 
ATOM      5  O   UNL     1      -0.180  -0.079  -2.557  1.00  0.00    -0.250 OA
BRANCH   4   6
ATOM      6  C   UNL     1       0.396  -2.279  -1.717  1.00  0.00     0.203 C 
BRANCH   6   7
ATOM      7  C   UNL     1       0.270  -3.205  -0.507  1.00  0.00     0.034 C 
ATOM      8  C   UNL     1       1.106  -2.759   0.691  1.00  0.00     0.007 C 
ENDBRANCH   6   7
BRANCH   6   9
ATOM      9  N   UNL     1      -0.312  -2.782  -2.898  1.00  0.00    -0.260 N 
ATOM     10  C   UNL     1      -1.660  -2.608  -3.065  1.00  0.00     0.262 C 
ATOM     11  C   UNL     1       0.258  -3.363  -3.995  1.00  0.00     0.262 C 
ATOM     12  O   UNL     1      -2.504  -2.280  -2.256  1.00  0.00    -0.269 OA
ATOM     13  C   UNL     1      -1.937  -2.888  -4.463  1.00  0.00     0.053 A 
ATOM     14  C   UNL     1      -0.798  -3.453  -5.013  1.00  0.00     0.060 A 
ATOM     15  O   UNL     1       1.403  -3.741  -4.156  1.00  0.00    -0.269 OA
ATOM     16  C   UNL     1      -3.080  -2.635  -5.191  1.00  0.00     0.022 A 
ATOM     17  C   UNL     1      -0.793  -3.937  -6.307  1.00  0.00     0.100 A 
ATOM     18  C   UNL     1      -3.096  -3.073  -6.514  1.00  0.00     0.086 A 
ATOM     19  C   UNL     1      -1.980  -3.768  -7.046  1.00  0.00     0.270 A 
BRANCH  19  20
ATOM     20  N   UNL     1      -2.105  -4.387  -8.371  1.00  0.00     0.062 N 
ATOM     21  O   UNL     1      -3.066  -4.051  -9.076  1.00  0.00    -0.258 OA
ATOM     22  O   UNL     1      -1.278  -5.259  -8.671  1.00  0.00    -0.258 OA
ENDBRANCH  19  20
ENDBRANCH   6   9
ENDBRANCH   4   6
ENDBRANCH   3   4
ENDBRANCH   2   3
ENDBRANCH   1   2
BRANCH   1  23
ATOM     23  O   UNL     1       0.586   2.205  -0.813  1.00  0.00    -0.458 OA
BRANCH  23  24
ATOM     24  C   UNL     1       1.712   1.456  -0.924  1.00  0.00     0.338 C 
ATOM     25  O   UNL     1       2.049   0.530  -0.204  1.00  0.00    -0.246 OA
BRANCH  24  26
ATOM     26  C   UNL     1       2.412   1.806  -2.175  1.00  0.00     0.060 A 
ATOM     27  C   UNL     1       2.819   0.770  -3.026  1.00  0.00     0.016 A 
ATOM     28  C   UNL     1       2.679   3.136  -2.501  1.00  0.00     0.016 A 
ATOM     29  C   UNL     1       3.496   1.059  -4.208  1.00  0.00     0.010 A 
ATOM     30  C   UNL     1       3.363   3.424  -3.682  1.00  0.00     0.010 A 
ATOM     31  C   UNL     1       3.785   2.388  -4.535  1.00  0.00    -0.014 A 
BRANCH  31  32
ATOM     32  C   UNL     1       4.590   2.713  -5.733  1.00  0.00     0.031 A 
ATOM     33  C   UNL     1       6.007   3.176  -5.556  1.00  0.00     0.074 A 
ATOM     34  C   UNL     1       4.037   2.653  -6.958  1.00  0.00     0.049 A 
ATOM     35  N   UNL     1       6.839   3.648  -6.445  1.00  0.00    -0.248 NA
ATOM     36  C   UNL     1       6.555   3.107  -4.191  1.00  0.00     0.031 C 
ATOM     37  C   UNL     1       2.674   2.207  -7.248  1.00  0.00     0.029 A 
ATOM     38  N   UNL     1       4.543   3.011  -8.183  1.00  0.00    -0.354 N 
ATOM     39  C   UNL     1       7.992   3.977  -5.744  1.00  0.00     0.074 A 
ATOM     40  C   UNL     1       7.752   3.651  -4.355  1.00  0.00     0.031 C 
ATOM     41  C   UNL     1       2.438   2.354  -8.562  1.00  0.00     0.029 A 
ATOM     42  C   UNL     1       3.615   2.944  -9.195  1.00  0.00     0.049 A 
ATOM     43  H   UNL     1       5.477   3.287  -8.322  1.00  0.00     0.167 HD
ATOM     44  C   UNL     1       9.146   4.500  -6.219  1.00  0.00     0.034 A 
ATOM     45  C   UNL     1       3.692   3.355 -10.477  1.00  0.00     0.034 A 
ATOM     46  C   UNL     1       9.376   4.807  -7.604  1.00  0.00     0.049 A 
ATOM     47  C   UNL     1       4.976   3.969 -10.973  1.00  0.00     0.074 A 
ATOM     48  C   UNL     1      10.529   5.292  -8.196  1.00  0.00     0.029 A 
ATOM     49  N   UNL     1       8.431   4.679  -8.611  1.00  0.00    -0.354 N 
ATOM     50  N   UNL     1       6.093   4.183 -10.322  1.00  0.00    -0.248 NA
ATOM     51  C   UNL     1       5.019   4.374 -12.386  1.00  0.00     0.031 C 
ATOM     52  C   UNL     1      10.266   5.500  -9.553  1.00  0.00     0.029 A 
ATOM     53  C   UNL     1       8.968   5.093  -9.817  1.00  0.00     0.049 A 
ATOM     54  H   UNL     1       7.515   4.343  -8.486  1.00  0.00     0.167 HD
ATOM     55  C   UNL     1       6.986   4.702 -11.254  1.00  0.00     0.074 A 
ATOM     56  C   UNL     1       6.280   4.766 -12.517  1.00  0.00     0.031 C 
ATOM     57  C   UNL     1       8.271   5.095 -11.078  1.00  0.00     0.034 A 
BRANCH  44  58
ATOM     58  C   UNL     1      10.252   4.773  -5.234  1.00  0.00     0.023 A 
ATOM     59  C   UNL     1      10.952   3.701  -4.645  1.00  0.00     0.012 A 
ATOM     60  C   UNL     1      10.636   6.096  -4.938  1.00  0.00     0.148 A 
ATOM     61  C   UNL     1      11.994   3.942  -3.749  1.00  0.00     0.002 A 
ATOM     62  C   UNL     1      11.706   6.327  -4.083  1.00  0.00     0.091 A 
ATOM     63  F   UNL     1       9.944   7.101  -5.493  1.00  0.00    -0.205 F 
ATOM     64  C   UNL     1      12.377   5.253  -3.478  1.00  0.00     0.022 A 
BRANCH  62  65
ATOM     65  S   UNL     1      12.328   7.975  -3.734  1.00  0.00     0.127 S 
ATOM     66  O   UNL     1      11.964   8.136  -2.327  1.00  0.00    -0.237 OA
ATOM     67  O   UNL     1      13.762   7.819  -3.978  1.00  0.00    -0.237 OA
ATOM     68  O   UNL     1      11.646   8.870  -4.659  1.00  0.00    -0.744 OA
ENDBRANCH  62  65
ENDBRANCH  44  58
BRANCH  45  69
ATOM     69  C   UNL     1       2.522   3.191 -11.385  1.00  0.00     0.023 A 
ATOM     70  C   UNL     1       2.595   2.275 -12.452  1.00  0.00     0.012 A 
ATOM     71  C   UNL     1       1.336   3.924 -11.188  1.00  0.00     0.148 A 
ATOM     72  C   UNL     1       1.520   2.118 -13.328  1.00  0.00     0.002 A 
ATOM     73  C   UNL     1       0.249   3.722 -12.030  1.00  0.00     0.091 A 
ATOM     74  F   UNL     1       1.291   4.798 -10.173  1.00  0.00    -0.205 F 
ATOM     75  C   UNL     1       0.345   2.834 -13.112  1.00  0.00     0.022 A 
BRANCH  73  76
ATOM     76  S   UNL     1      -1.345   4.502 -11.754  1.00  0.00     0.127 S 
ATOM     77  O   UNL     1      -1.449   5.388 -12.911  1.00  0.00    -0.237 OA
ATOM     78  O   UNL     1      -2.249   3.351 -11.774  1.00  0.00    -0.237 OA
ATOM     79  O   UNL     1      -1.244   5.165 -10.461  1.00  0.00    -0.744 OA
ENDBRANCH  73  76
ENDBRANCH  45  69
BRANCH  57  80
ATOM     80  C   UNL     1       9.040   5.568 -12.284  1.00  0.00     0.023 A 
ATOM     81  C   UNL     1       8.769   6.828 -12.851  1.00  0.00     0.012 A 
ATOM     82  C   UNL     1      10.112   4.799 -12.782  1.00  0.00     0.148 A 
ATOM     83  C   UNL     1       9.542   7.307 -13.909  1.00  0.00     0.002 A 
ATOM     84  C   UNL     1      10.910   5.306 -13.799  1.00  0.00     0.091 A 
ATOM     85  F   UNL     1      10.341   3.595 -12.237  1.00  0.00    -0.205 F 
ATOM     86  C   UNL     1      10.619   6.554 -14.373  1.00  0.00     0.022 A 
BRANCH  84  87
ATOM     87  S   UNL     1      12.379   4.457 -14.388  1.00  0.00     0.127 S 
ATOM     88  O   UNL     1      11.995   4.112 -15.757  1.00  0.00    -0.237 OA
ATOM     89  O   UNL     1      13.399   5.501 -14.285  1.00  0.00    -0.237 OA
ATOM     90  O   UNL     1      12.578   3.322 -13.497  1.00  0.00    -0.744 OA
ENDBRANCH  84  87
ENDBRANCH  57  80
ENDBRANCH  31  32
ENDBRANCH  24  26
ENDBRANCH  23  24
ENDBRANCH   1  23
TORSDOF 17
