REMARK SMILES O=C(OCCOC(=O)c1n[nH]c2cc(Br)cc(Cl)c12)c1ccc(-c2c3nc(c(-c4cccc(S(=O)(=O)[O-])c4F)c4ccc([nH]4)c(-c4cccc(S(=O)(=O)[O-])c4F)c4nc(c(-c5cccc(S(=O)(=O)[O-])c5F)c5ccc2[nH]5)C=C4)C=C3)cc1
REMARK SMILES IDX 3 1 2 2 1 3 20 4 21 5 82 6 22 7 81 8 23 9 24 10 25 11 75 12
REMARK SMILES IDX 26 13 80 14 74 15 76 16 27 17 79 18 73 19 72 20 28 22 60 23
REMARK SMILES IDX 40 24 59 25 41 26 44 27 58 28 77 29 42 30 43 31 57 33 78 34
REMARK SMILES IDX 45 35 29 36 30 37 38 38 31 39 33 40 39 41 32 42 34 43 35 44
REMARK SMILES IDX 36 45 37 46 61 47 62 48 70 49 63 50 65 51 71 52 64 53 66 54
REMARK SMILES IDX 67 55 68 56 69 57 46 58 47 59 55 60 48 61 50 62 56 63 49 64
REMARK SMILES IDX 51 65 52 66 53 67 54 68 4 69 5 70 6 71 7 72 8 73 9 74 10 75
REMARK SMILES IDX 19 76 11 77 12 78 17 79 13 81 16 82 18 83 14 84 15 85
REMARK H PARENT 76 21 44 32 11 80
REMARK Flexibility Score: inf
ROOT
ATOM      1  O   UNL     1       3.428   0.796  -1.361  1.00  0.00    -0.458 OA
ENDROOT
BRANCH   1   2
ATOM      2  C   UNL     1       2.333   0.268  -0.762  1.00  0.00     0.338 C 
ATOM      3  O   UNL     1       1.442   0.945  -0.276  1.00  0.00    -0.246 OA
BRANCH   2   4
ATOM      4  C   UNL     1       2.238  -1.194  -0.994  1.00  0.00     0.060 A 
ATOM      5  C   UNL     1       3.376  -2.000  -1.124  1.00  0.00     0.016 A 
ATOM      6  C   UNL     1       0.963  -1.762  -1.094  1.00  0.00     0.016 A 
ATOM      7  C   UNL     1       3.247  -3.338  -1.454  1.00  0.00     0.010 A 
ATOM      8  C   UNL     1       0.831  -3.107  -1.412  1.00  0.00     0.010 A 
ATOM      9  C   UNL     1       1.974  -3.876  -1.642  1.00  0.00    -0.014 A 
BRANCH   9  10
ATOM     10  C   UNL     1       1.887  -5.266  -2.068  1.00  0.00     0.031 A 
ATOM     11  C   UNL     1       2.359  -6.290  -1.093  1.00  0.00     0.074 A 
ATOM     12  C   UNL     1       1.315  -5.615  -3.236  1.00  0.00     0.049 A 
ATOM     13  N   UNL     1       3.319  -7.148  -1.228  1.00  0.00    -0.248 NA
ATOM     14  C   UNL     1       1.731  -6.303   0.235  1.00  0.00     0.031 C 
ATOM     15  C   UNL     1       0.555  -4.763  -4.157  1.00  0.00     0.029 A 
ATOM     16  N   UNL     1       1.170  -6.857  -3.773  1.00  0.00    -0.354 N 
ATOM     17  C   UNL     1       3.299  -7.937  -0.076  1.00  0.00     0.074 A 
ATOM     18  C   UNL     1       2.395  -7.288   0.840  1.00  0.00     0.031 C 
ATOM     19  C   UNL     1      -0.184  -5.547  -4.973  1.00  0.00     0.029 A 
ATOM     20  C   UNL     1       0.171  -6.934  -4.735  1.00  0.00     0.049 A 
ATOM     21  H   UNL     1       1.721  -7.628  -3.506  1.00  0.00     0.167 HD
ATOM     22  C   UNL     1       3.892  -9.163  -0.020  1.00  0.00     0.034 A 
ATOM     23  C   UNL     1      -0.380  -8.068  -5.228  1.00  0.00     0.034 A 
ATOM     24  C   UNL     1       4.799  -9.370  -1.115  1.00  0.00     0.049 A 
ATOM     25  C   UNL     1       0.573  -9.172  -4.973  1.00  0.00     0.074 A 
ATOM     26  C   UNL     1       5.970  -8.781  -1.545  1.00  0.00     0.029 A 
ATOM     27  N   UNL     1       4.353 -10.133  -2.165  1.00  0.00    -0.354 N 
ATOM     28  N   UNL     1       1.742  -9.262  -5.541  1.00  0.00    -0.248 NA
ATOM     29  C   UNL     1       0.393  -9.974  -3.775  1.00  0.00     0.031 C 
ATOM     30  C   UNL     1       5.901  -8.830  -2.968  1.00  0.00     0.029 A 
ATOM     31  C   UNL     1       4.714  -9.481  -3.314  1.00  0.00     0.049 A 
ATOM     32  H   UNL     1       3.867 -10.986  -2.104  1.00  0.00     0.167 HD
ATOM     33  C   UNL     1       2.572  -9.762  -4.548  1.00  0.00     0.074 A 
ATOM     34  C   UNL     1       1.667 -10.293  -3.531  1.00  0.00     0.031 C 
ATOM     35  C   UNL     1       3.900  -9.442  -4.509  1.00  0.00     0.034 A 
BRANCH  22  36
ATOM     36  C   UNL     1       3.462 -10.317   0.857  1.00  0.00     0.023 A 
ATOM     37  C   UNL     1       4.322 -11.438   0.936  1.00  0.00     0.012 A 
ATOM     38  C   UNL     1       2.163 -10.470   1.388  1.00  0.00     0.148 A 
ATOM     39  C   UNL     1       3.896 -12.659   1.473  1.00  0.00     0.002 A 
ATOM     40  C   UNL     1       1.769 -11.662   1.990  1.00  0.00     0.091 A 
ATOM     41  F   UNL     1       1.252  -9.509   1.203  1.00  0.00    -0.205 F 
ATOM     42  C   UNL     1       2.620 -12.769   2.007  1.00  0.00     0.022 A 
BRANCH  40  43
ATOM     43  S   UNL     1       0.152 -11.841   2.753  1.00  0.00     0.127 S 
ATOM     44  O   UNL     1      -0.546 -12.669   1.774  1.00  0.00    -0.237 OA
ATOM     45  O   UNL     1       0.485 -12.514   4.009  1.00  0.00    -0.237 OA
ATOM     46  O   UNL     1      -0.347 -10.482   2.921  1.00  0.00    -0.744 OA
ENDBRANCH  40  43
ENDBRANCH  22  36
BRANCH  23  47
ATOM     47  C   UNL     1      -1.783  -8.323  -5.621  1.00  0.00     0.023 A 
ATOM     48  C   UNL     1      -2.080  -9.409  -6.467  1.00  0.00     0.012 A 
ATOM     49  C   UNL     1      -2.849  -7.696  -4.937  1.00  0.00     0.148 A 
ATOM     50  C   UNL     1      -3.391  -9.880  -6.599  1.00  0.00     0.002 A 
ATOM     51  C   UNL     1      -4.150  -8.168  -5.071  1.00  0.00     0.091 A 
ATOM     52  F   UNL     1      -2.571  -6.703  -4.081  1.00  0.00    -0.205 F 
ATOM     53  C   UNL     1      -4.424  -9.268  -5.893  1.00  0.00     0.022 A 
BRANCH  51  54
ATOM     54  S   UNL     1      -5.525  -7.462  -4.153  1.00  0.00     0.127 S 
ATOM     55  O   UNL     1      -6.526  -7.275  -5.203  1.00  0.00    -0.237 OA
ATOM     56  O   UNL     1      -5.827  -8.526  -3.200  1.00  0.00    -0.237 OA
ATOM     57  O   UNL     1      -5.023  -6.221  -3.575  1.00  0.00    -0.744 OA
ENDBRANCH  51  54
ENDBRANCH  23  47
BRANCH  35  58
ATOM     58  C   UNL     1       4.493  -8.710  -5.691  1.00  0.00     0.023 A 
ATOM     59  C   UNL     1       4.048  -7.426  -6.072  1.00  0.00     0.012 A 
ATOM     60  C   UNL     1       5.647  -9.232  -6.300  1.00  0.00     0.148 A 
ATOM     61  C   UNL     1       4.721  -6.689  -7.049  1.00  0.00     0.002 A 
ATOM     62  C   UNL     1       6.345  -8.475  -7.235  1.00  0.00     0.091 A 
ATOM     63  F   UNL     1       6.067 -10.450  -5.926  1.00  0.00    -0.205 F 
ATOM     64  C   UNL     1       5.880  -7.207  -7.620  1.00  0.00     0.022 A 
BRANCH  62  65
ATOM     65  S   UNL     1       7.922  -9.020  -7.897  1.00  0.00     0.127 S 
ATOM     66  O   UNL     1       7.556  -9.446  -9.246  1.00  0.00    -0.237 OA
ATOM     67  O   UNL     1       8.728  -7.799  -7.838  1.00  0.00    -0.237 OA
ATOM     68  O   UNL     1       8.384 -10.078  -7.007  1.00  0.00    -0.744 OA
ENDBRANCH  62  65
ENDBRANCH  35  58
ENDBRANCH   9  10
ENDBRANCH   2   4
ENDBRANCH   1   2
BRANCH   1  69
ATOM     69  C   UNL     1       4.625   1.007  -0.584  1.00  0.00     0.275 C 
BRANCH  69  70
ATOM     70  C   UNL     1       4.457   1.191   0.924  1.00  0.00     0.275 C 
BRANCH  70  71
ATOM     71  O   UNL     1       3.954  -0.017   1.512  1.00  0.00    -0.457 OA
BRANCH  71  72
ATOM     72  C   UNL     1       2.932   0.129   2.410  1.00  0.00     0.359 C 
ATOM     73  O   UNL     1       2.507   1.204   2.826  1.00  0.00    -0.244 OA
BRANCH  72  74
ATOM     74  C   UNL     1       2.460  -1.167   2.882  1.00  0.00     0.179 A 
ATOM     75  N   UNL     1       1.472  -1.836   2.260  1.00  0.00    -0.167 NA
ATOM     76  C   UNL     1       2.972  -1.903   3.987  1.00  0.00     0.053 A 
ATOM     77  N   UNL     1       1.369  -2.988   2.940  1.00  0.00    -0.277 N 
ATOM     78  C   UNL     1       2.238  -3.088   3.993  1.00  0.00     0.069 A 
ATOM     79  C   UNL     1       3.960  -1.739   4.973  1.00  0.00     0.054 A 
ATOM     80  H   UNL     1       0.726  -3.695   2.704  1.00  0.00     0.190 HD
ATOM     81  C   UNL     1       2.443  -4.108   4.932  1.00  0.00     0.044 A 
ATOM     82  C   UNL     1       4.189  -2.725   5.930  1.00  0.00     0.037 A 
ATOM     83  Cl  UNL     1       4.867  -0.291   4.958  1.00  0.00    -0.083 Cl
ATOM     84  C   UNL     1       3.432  -3.893   5.899  1.00  0.00     0.021 A 
ATOM     85  Br  UNL     1       3.749  -5.224   7.208  1.00  0.00    -0.051 Br
ENDBRANCH  72  74
ENDBRANCH  71  72
ENDBRANCH  70  71
ENDBRANCH  69  70
ENDBRANCH   1  69
TORSDOF 14
