REMARK SMILES O=C(Cc1ccccc1Nc1c(Cl)cccc1C(F)(F)F)OCCOC(=O)c1ccc(-c2c3nc(c(-c4cccc(S(=O)(=O)[O-])c4F)c4ccc([nH]4)c(-c4cccc(S(=O)(=O)[O-])c4F)c4nc(c(-c5cccc(S(=O)(=O)[O-])c5F)c5ccc2[nH]5)C=C4)C=C3)cc1
REMARK SMILES IDX 23 1 22 2 2 3 1 4 3 5 4 6 5 7 9 8 6 9 8 10 7 11 10 12 11 14
REMARK SMILES IDX 12 15 17 16 13 17 14 18 16 19 15 20 18 21 19 22 20 23 21 24
REMARK SMILES IDX 24 25 25 26 26 27 27 28 28 29 29 30 90 31 30 32 89 33 31 34
REMARK SMILES IDX 32 35 33 36 83 37 34 38 88 39 82 40 84 41 35 42 87 43 81 44
REMARK SMILES IDX 80 45 36 47 68 48 48 49 67 50 49 51 52 52 66 53 85 54 50 55
REMARK SMILES IDX 51 56 65 58 86 59 53 60 37 61 38 62 46 63 39 64 41 65 47 66
REMARK SMILES IDX 40 67 42 68 43 69 44 70 45 71 69 72 70 73 78 74 71 75 73 76
REMARK SMILES IDX 79 77 72 78 74 79 75 80 76 81 77 82 54 83 55 84 63 85 56 86
REMARK SMILES IDX 58 87 64 88 57 89 59 90 60 91 61 92 62 93
REMARK H PARENT 10 13 84 46 52 57
REMARK Flexibility Score: inf
ROOT
ATOM      1  C   UNL     1       4.225  -1.588   0.032  1.00  0.00     0.274 C 
ENDROOT
BRANCH   1   2
ATOM      2  O   UNL     1       2.969  -1.125   0.564  1.00  0.00    -0.462 OA
BRANCH   2   3
ATOM      3  C   UNL     1       2.628   0.176   0.737  1.00  0.00     0.310 C 
ATOM      4  O   UNL     1       1.599   0.460   1.348  1.00  0.00    -0.252 OA
BRANCH   3   5
ATOM      5  C   UNL     1       3.506   1.251   0.135  1.00  0.00     0.160 C 
BRANCH   5   6
ATOM      6  C   UNL     1       4.089   2.182   1.172  1.00  0.00    -0.013 A 
ATOM      7  C   UNL     1       5.093   1.687   2.030  1.00  0.00     0.006 A 
ATOM      8  C   UNL     1       3.715   3.534   1.260  1.00  0.00     0.042 A 
ATOM      9  C   UNL     1       5.726   2.516   2.953  1.00  0.00     0.000 A 
ATOM     10  C   UNL     1       4.341   4.339   2.228  1.00  0.00     0.026 A 
ATOM     11  C   UNL     1       5.346   3.845   3.056  1.00  0.00     0.002 A 
BRANCH   8  12
ATOM     12  N   UNL     1       2.817   4.104   0.330  1.00  0.00    -0.354 N 
ATOM     13  H   UNL     1       2.209   3.479  -0.128  1.00  0.00     0.167 HD
BRANCH  12  14
ATOM     14  C   UNL     1       2.691   5.469  -0.021  1.00  0.00     0.070 A 
ATOM     15  C   UNL     1       1.410   6.064   0.004  1.00  0.00     0.065 A 
ATOM     16  C   UNL     1       3.814   6.296  -0.236  1.00  0.00     0.080 A 
ATOM     17  Cl  UNL     1      -0.014   5.082   0.103  1.00  0.00    -0.082 Cl
ATOM     18  C   UNL     1       1.256   7.447  -0.026  1.00  0.00     0.023 A 
ATOM     19  C   UNL     1       3.650   7.692  -0.178  1.00  0.00     0.015 A 
ATOM     20  C   UNL     1       2.383   8.259  -0.054  1.00  0.00     0.002 A 
BRANCH  16  21
ATOM     21  C   UNL     1       5.178   5.757  -0.626  1.00  0.00     0.418 C 
ATOM     22  F   UNL     1       5.699   6.409  -1.701  1.00  0.00    -0.166 F 
ATOM     23  F   UNL     1       6.102   5.869   0.368  1.00  0.00    -0.166 F 
ATOM     24  F   UNL     1       5.190   4.444  -1.006  1.00  0.00    -0.166 F 
ENDBRANCH  16  21
ENDBRANCH  12  14
ENDBRANCH   8  12
ENDBRANCH   5   6
ENDBRANCH   3   5
ENDBRANCH   2   3
ENDBRANCH   1   2
BRANCH   1  25
ATOM     25  C   UNL     1       4.133  -1.939  -1.454  1.00  0.00     0.275 C 
BRANCH  25  26
ATOM     26  O   UNL     1       3.766  -0.798  -2.251  1.00  0.00    -0.458 OA
BRANCH  26  27
ATOM     27  C   UNL     1       2.446  -0.704  -2.566  1.00  0.00     0.338 C 
ATOM     28  O   UNL     1       1.574  -1.492  -2.258  1.00  0.00    -0.246 OA
BRANCH  27  29
ATOM     29  C   UNL     1       2.182   0.589  -3.242  1.00  0.00     0.060 A 
ATOM     30  C   UNL     1       0.999   1.271  -2.926  1.00  0.00     0.016 A 
ATOM     31  C   UNL     1       3.069   1.128  -4.179  1.00  0.00     0.016 A 
ATOM     32  C   UNL     1       0.704   2.490  -3.548  1.00  0.00     0.010 A 
ATOM     33  C   UNL     1       2.762   2.338  -4.812  1.00  0.00     0.010 A 
ATOM     34  C   UNL     1       1.574   3.023  -4.509  1.00  0.00    -0.014 A 
BRANCH  34  35
ATOM     35  C   UNL     1       1.228   4.279  -5.224  1.00  0.00     0.031 A 
ATOM     36  C   UNL     1       0.448   4.231  -6.503  1.00  0.00     0.074 A 
ATOM     37  C   UNL     1       1.686   5.467  -4.785  1.00  0.00     0.049 A 
ATOM     38  N   UNL     1       0.039   5.223  -7.251  1.00  0.00    -0.248 NA
ATOM     39  C   UNL     1       0.128   2.898  -7.033  1.00  0.00     0.031 C 
ATOM     40  C   UNL     1       2.580   5.640  -3.648  1.00  0.00     0.029 A 
ATOM     41  N   UNL     1       1.492   6.744  -5.259  1.00  0.00    -0.354 N 
ATOM     42  C   UNL     1      -0.512   4.639  -8.382  1.00  0.00     0.074 A 
ATOM     43  C   UNL     1      -0.434   3.204  -8.196  1.00  0.00     0.031 C 
ATOM     44  C   UNL     1       2.839   6.949  -3.504  1.00  0.00     0.029 A 
ATOM     45  C   UNL     1       2.108   7.713  -4.502  1.00  0.00     0.049 A 
ATOM     46  H   UNL     1       0.961   6.945  -6.064  1.00  0.00     0.167 HD
ATOM     47  C   UNL     1      -1.010   5.243  -9.486  1.00  0.00     0.034 A 
ATOM     48  C   UNL     1       2.077   9.060  -4.581  1.00  0.00     0.034 A 
ATOM     49  C   UNL     1      -1.115   6.666  -9.671  1.00  0.00     0.049 A 
ATOM     50  C   UNL     1       1.343   9.704  -5.725  1.00  0.00     0.074 A 
ATOM     51  C   UNL     1      -1.693   7.351 -10.726  1.00  0.00     0.029 A 
ATOM     52  N   UNL     1      -0.615   7.621  -8.803  1.00  0.00    -0.354 N 
ATOM     53  N   UNL     1       0.639   9.140  -6.674  1.00  0.00    -0.248 NA
ATOM     54  C   UNL     1       1.406  11.172  -5.813  1.00  0.00     0.031 C 
ATOM     55  C   UNL     1      -1.522   8.722 -10.508  1.00  0.00     0.029 A 
ATOM     56  C   UNL     1      -0.852   8.889  -9.309  1.00  0.00     0.049 A 
ATOM     57  H   UNL     1      -0.159   7.428  -7.952  1.00  0.00     0.167 HD
ATOM     58  C   UNL     1       0.208  10.179  -7.489  1.00  0.00     0.074 A 
ATOM     59  C   UNL     1       0.647  11.412  -6.872  1.00  0.00     0.031 C 
ATOM     60  C   UNL     1      -0.437  10.113  -8.678  1.00  0.00     0.034 A 
BRANCH  47  61
ATOM     61  C   UNL     1      -1.484   4.363 -10.606  1.00  0.00     0.023 A 
ATOM     62  C   UNL     1      -2.739   3.733 -10.516  1.00  0.00     0.012 A 
ATOM     63  C   UNL     1      -0.721   4.239 -11.783  1.00  0.00     0.148 A 
ATOM     64  C   UNL     1      -3.225   2.978 -11.582  1.00  0.00     0.002 A 
ATOM     65  C   UNL     1      -1.227   3.514 -12.854  1.00  0.00     0.091 A 
ATOM     66  F   UNL     1       0.481   4.831 -11.831  1.00  0.00    -0.205 F 
ATOM     67  C   UNL     1      -2.476   2.879 -12.753  1.00  0.00     0.022 A 
BRANCH  65  68
ATOM     68  S   UNL     1      -0.371   3.383 -14.426  1.00  0.00     0.127 S 
ATOM     69  O   UNL     1      -0.011   1.966 -14.447  1.00  0.00    -0.237 OA
ATOM     70  O   UNL     1      -1.417   3.761 -15.377  1.00  0.00    -0.237 OA
ATOM     71  O   UNL     1       0.752   4.308 -14.354  1.00  0.00    -0.744 OA
ENDBRANCH  65  68
ENDBRANCH  47  61
BRANCH  48  72
ATOM     72  C   UNL     1       2.670   9.918  -3.510  1.00  0.00     0.023 A 
ATOM     73  C   UNL     1       1.799  10.713  -2.732  1.00  0.00     0.012 A 
ATOM     74  C   UNL     1       4.049   9.975  -3.248  1.00  0.00     0.148 A 
ATOM     75  C   UNL     1       2.291  11.576  -1.752  1.00  0.00     0.002 A 
ATOM     76  C   UNL     1       4.526  10.776  -2.213  1.00  0.00     0.091 A 
ATOM     77  F   UNL     1       4.879   9.245  -4.007  1.00  0.00    -0.205 F 
ATOM     78  C   UNL     1       3.654  11.595  -1.481  1.00  0.00     0.022 A 
BRANCH  76  79
ATOM     79  S   UNL     1       6.232  10.665  -1.660  1.00  0.00     0.127 S 
ATOM     80  O   UNL     1       6.870  11.744  -2.405  1.00  0.00    -0.237 OA
ATOM     81  O   UNL     1       6.104  10.894  -0.219  1.00  0.00    -0.237 OA
ATOM     82  O   UNL     1       6.635   9.307  -1.998  1.00  0.00    -0.744 OA
ENDBRANCH  76  79
ENDBRANCH  48  72
BRANCH  60  83
ATOM     83  C   UNL     1      -0.651  11.406  -9.416  1.00  0.00     0.023 A 
ATOM     84  C   UNL     1       0.456  12.036 -10.022  1.00  0.00     0.012 A 
ATOM     85  C   UNL     1      -1.931  11.973  -9.556  1.00  0.00     0.148 A 
ATOM     86  C   UNL     1       0.298  13.225 -10.730  1.00  0.00     0.002 A 
ATOM     87  C   UNL     1      -2.088  13.138 -10.298  1.00  0.00     0.091 A 
ATOM     88  F   UNL     1      -2.967  11.368  -8.956  1.00  0.00    -0.205 F 
ATOM     89  C   UNL     1      -0.974  13.771 -10.876  1.00  0.00     0.022 A 
BRANCH  87  90
ATOM     90  S   UNL     1      -3.695  13.880 -10.605  1.00  0.00     0.127 S 
ATOM     91  O   UNL     1      -3.624  15.091  -9.790  1.00  0.00    -0.237 OA
ATOM     92  O   UNL     1      -3.657  14.113 -12.049  1.00  0.00    -0.237 OA
ATOM     93  O   UNL     1      -4.680  12.896 -10.176  1.00  0.00    -0.744 OA
ENDBRANCH  87  90
ENDBRANCH  60  83
ENDBRANCH  34  35
ENDBRANCH  27  29
ENDBRANCH  26  27
ENDBRANCH  25  26
ENDBRANCH   1  25
TORSDOF 18
