REMARK SMILES Cc1ccc(O[C@H](C)C(=O)NNC(=O)[C@@H]2[C@@H](C(=O)OCCOC(=O)c3ccc(-c4c5nc(c(-c6cccc(S(=O)(=O)[O-])c6F)c6ccc([nH]6)c(-c6cccc(S(=O)(=O)[O-])c6F)c6nc(c(-c7cccc(S(=O)(=O)[O-])c7F)c7ccc4[nH]7)C=C6)C=C5)cc3)[C@@H]3C=C[C@H]2C3)cc1C
REMARK SMILES IDX 20 1 19 2 17 3 18 4 16 5 15 6 91 7 88 8 90 9 92 10 89 11
REMARK SMILES IDX 13 12 12 13 14 15 11 16 9 17 10 18 7 20 8 21 6 22 5 23 1 24
REMARK SMILES IDX 2 25 3 26 94 27 4 28 93 29 95 30 21 31 22 32 23 33 24 34
REMARK SMILES IDX 25 35 26 36 87 37 27 38 86 39 28 40 29 41 30 42 80 43 31 44
REMARK SMILES IDX 85 45 79 46 81 47 32 48 84 49 78 50 77 51 33 53 65 54 45 55
REMARK SMILES IDX 64 56 46 57 49 58 63 59 82 60 47 61 48 62 62 64 83 65 50 66
REMARK SMILES IDX 34 67 35 68 43 69 36 70 38 71 44 72 37 73 39 74 40 75 41 76
REMARK SMILES IDX 42 77 66 78 67 79 75 80 68 81 70 82 76 83 69 84 71 85 72 86
REMARK SMILES IDX 73 87 74 88 51 89 52 90 60 91 53 92 55 93 61 94 54 95 56 96
REMARK SMILES IDX 57 97 58 98 59 99
REMARK H PARENT 12 14 11 19 81 52 49 63
REMARK Flexibility Score: inf
ROOT
ATOM      1  C   UNL     1       1.611   5.726  -1.439  1.00  0.00     0.274 C 
ENDROOT
BRANCH   1   2
ATOM      2  O   UNL     1       0.416   4.925  -1.320  1.00  0.00    -0.462 OA
BRANCH   2   3
ATOM      3  C   UNL     1      -0.748   5.621  -1.245  1.00  0.00     0.310 C 
ATOM      4  O   UNL     1      -0.827   6.842  -1.321  1.00  0.00    -0.252 OA
BRANCH   3   5
ATOM      5  C   UNL     1      -1.946   4.746  -0.942  1.00  0.00     0.119 C 
ATOM      6  C   UNL     1      -1.902   3.269  -1.494  1.00  0.00     0.102 C 
ATOM      7  C   UNL     1      -3.218   3.198  -2.316  1.00  0.00     0.025 C 
ATOM      8  C   UNL     1      -3.215   5.320  -1.627  1.00  0.00     0.027 C 
ATOM      9  C   UNL     1      -4.414   3.371  -1.415  1.00  0.00    -0.027 C 
ATOM     10  C   UNL     1      -3.213   4.580  -2.963  1.00  0.00     0.017 C 
ATOM     11  C   UNL     1      -4.415   4.646  -1.001  1.00  0.00    -0.027 C 
BRANCH   6  12
ATOM     12  C   UNL     1      -1.717   2.291  -0.335  1.00  0.00     0.242 C 
ATOM     13  N   UNL     1      -2.074   0.974  -0.437  1.00  0.00    -0.267 N 
ATOM     14  H   UNL     1      -1.820   0.382   0.308  1.00  0.00     0.191 HD
ATOM     15  O   UNL     1      -1.135   2.634   0.700  1.00  0.00    -0.273 OA
BRANCH  13  16
ATOM     16  N   UNL     1      -2.759   0.400  -1.490  1.00  0.00    -0.264 N 
ATOM     17  C   UNL     1      -3.781  -0.507  -1.341  1.00  0.00     0.279 C 
ATOM     18  O   UNL     1      -4.479  -0.786  -2.320  1.00  0.00    -0.269 OA
ATOM     19  H   UNL     1      -2.498   0.656  -2.405  1.00  0.00     0.191 HD
BRANCH  17  20
ATOM     20  C   UNL     1      -3.936  -1.275  -0.014  1.00  0.00     0.260 C 
ATOM     21  C   UNL     1      -2.724  -2.209   0.107  1.00  0.00     0.064 C 
BRANCH  20  22
ATOM     22  O   UNL     1      -4.055  -0.406   1.112  1.00  0.00    -0.481 OA
BRANCH  22  23
ATOM     23  C   UNL     1      -4.419  -0.943   2.319  1.00  0.00     0.120 A 
ATOM     24  C   UNL     1      -5.230  -2.383   6.324  1.00  0.00     0.044 C 
ATOM     25  C   UNL     1      -4.973  -1.838   4.947  1.00  0.00    -0.048 A 
ATOM     26  C   UNL     1      -5.064  -2.705   3.849  1.00  0.00     0.007 A 
ATOM     27  C   UNL     1      -4.649  -0.488   4.719  1.00  0.00    -0.045 A 
ATOM     28  C   UNL     1      -4.805  -2.260   2.550  1.00  0.00     0.047 A 
ATOM     29  C   UNL     1      -4.371  -0.061   3.403  1.00  0.00     0.050 A 
ATOM     30  C   UNL     1      -4.608   0.540   5.817  1.00  0.00     0.045 C 
ENDBRANCH  22  23
ENDBRANCH  20  22
ENDBRANCH  17  20
ENDBRANCH  13  16
ENDBRANCH   6  12
ENDBRANCH   3   5
ENDBRANCH   2   3
ENDBRANCH   1   2
BRANCH   1  31
ATOM     31  C   UNL     1       2.113   5.790  -2.879  1.00  0.00     0.275 C 
BRANCH  31  32
ATOM     32  O   UNL     1       1.162   6.461  -3.723  1.00  0.00    -0.458 OA
BRANCH  32  33
ATOM     33  C   UNL     1       0.508   5.667  -4.599  1.00  0.00     0.338 C 
ATOM     34  O   UNL     1       0.637   4.464  -4.747  1.00  0.00    -0.246 OA
BRANCH  33  35
ATOM     35  C   UNL     1      -0.456   6.459  -5.378  1.00  0.00     0.060 A 
ATOM     36  C   UNL     1      -1.578   6.993  -4.746  1.00  0.00     0.016 A 
ATOM     37  C   UNL     1      -0.336   6.514  -6.766  1.00  0.00     0.016 A 
ATOM     38  C   UNL     1      -2.642   7.469  -5.510  1.00  0.00     0.010 A 
ATOM     39  C   UNL     1      -1.357   7.096  -7.522  1.00  0.00     0.010 A 
ATOM     40  C   UNL     1      -2.543   7.536  -6.908  1.00  0.00    -0.014 A 
BRANCH  40  41
ATOM     41  C   UNL     1      -3.674   8.042  -7.737  1.00  0.00     0.031 A 
ATOM     42  C   UNL     1      -4.266   7.179  -8.823  1.00  0.00     0.074 A 
ATOM     43  C   UNL     1      -4.148   9.289  -7.548  1.00  0.00     0.049 A 
ATOM     44  N   UNL     1      -5.092   7.510  -9.782  1.00  0.00    -0.248 NA
ATOM     45  C   UNL     1      -3.863   5.763  -8.845  1.00  0.00     0.031 C 
ATOM     46  C   UNL     1      -3.679  10.229  -6.529  1.00  0.00     0.029 A 
ATOM     47  N   UNL     1      -5.119   9.991  -8.222  1.00  0.00    -0.354 N 
ATOM     48  C   UNL     1      -5.243   6.371 -10.566  1.00  0.00     0.074 A 
ATOM     49  C   UNL     1      -4.438   5.332  -9.960  1.00  0.00     0.031 C 
ATOM     50  C   UNL     1      -4.366  11.375  -6.635  1.00  0.00     0.029 A 
ATOM     51  C   UNL     1      -5.269  11.283  -7.776  1.00  0.00     0.049 A 
ATOM     52  H   UNL     1      -5.654   9.605  -8.953  1.00  0.00     0.167 HD
ATOM     53  C   UNL     1      -5.990   6.203 -11.683  1.00  0.00     0.034 A 
ATOM     54  C   UNL     1      -6.015  12.299  -8.254  1.00  0.00     0.034 A 
ATOM     55  C   UNL     1      -6.861   7.208 -12.232  1.00  0.00     0.049 A 
ATOM     56  C   UNL     1      -6.864  12.076  -9.472  1.00  0.00     0.074 A 
ATOM     57  C   UNL     1      -7.689   7.118 -13.338  1.00  0.00     0.029 A 
ATOM     58  N   UNL     1      -7.036   8.477 -11.704  1.00  0.00    -0.354 N 
ATOM     59  N   UNL     1      -7.019  10.983 -10.179  1.00  0.00    -0.248 NA
ATOM     60  C   UNL     1      -7.647  13.222  -9.956  1.00  0.00     0.031 C 
ATOM     61  C   UNL     1      -8.371   8.332 -13.474  1.00  0.00     0.029 A 
ATOM     62  C   UNL     1      -7.966   9.178 -12.454  1.00  0.00     0.049 A 
ATOM     63  H   UNL     1      -6.568   8.829 -10.913  1.00  0.00     0.167 HD
ATOM     64  C   UNL     1      -7.928  11.303 -11.179  1.00  0.00     0.074 A 
ATOM     65  C   UNL     1      -8.310  12.685 -10.972  1.00  0.00     0.031 C 
ATOM     66  C   UNL     1      -8.382  10.531 -12.196  1.00  0.00     0.034 A 
BRANCH  53  67
ATOM     67  C   UNL     1      -5.937   4.866 -12.372  1.00  0.00     0.023 A 
ATOM     68  C   UNL     1      -6.657   3.779 -11.840  1.00  0.00     0.012 A 
ATOM     69  C   UNL     1      -5.234   4.703 -13.583  1.00  0.00     0.148 A 
ATOM     70  C   UNL     1      -6.663   2.545 -12.490  1.00  0.00     0.002 A 
ATOM     71  C   UNL     1      -5.272   3.480 -14.243  1.00  0.00     0.091 A 
ATOM     72  F   UNL     1      -4.531   5.740 -14.061  1.00  0.00    -0.205 F 
ATOM     73  C   UNL     1      -5.981   2.399 -13.696  1.00  0.00     0.022 A 
BRANCH  71  74
ATOM     74  S   UNL     1      -4.478   3.228 -15.836  1.00  0.00     0.127 S 
ATOM     75  O   UNL     1      -3.243   2.550 -15.448  1.00  0.00    -0.237 OA
ATOM     76  O   UNL     1      -5.442   2.381 -16.540  1.00  0.00    -0.237 OA
ATOM     77  O   UNL     1      -4.319   4.558 -16.409  1.00  0.00    -0.744 OA
ENDBRANCH  71  74
ENDBRANCH  53  67
BRANCH  54  78
ATOM     78  C   UNL     1      -6.002  13.611  -7.549  1.00  0.00     0.023 A 
ATOM     79  C   UNL     1      -7.140  14.015  -6.826  1.00  0.00     0.012 A 
ATOM     80  C   UNL     1      -4.851  14.424  -7.528  1.00  0.00     0.148 A 
ATOM     81  C   UNL     1      -7.135  15.209  -6.103  1.00  0.00     0.002 A 
ATOM     82  C   UNL     1      -4.833  15.581  -6.758  1.00  0.00     0.091 A 
ATOM     83  F   UNL     1      -3.785  14.040  -8.245  1.00  0.00    -0.205 F 
ATOM     84  C   UNL     1      -5.978  15.982  -6.054  1.00  0.00     0.022 A 
BRANCH  82  85
ATOM     85  S   UNL     1      -3.326  16.533  -6.528  1.00  0.00     0.127 S 
ATOM     86  O   UNL     1      -3.490  17.599  -7.510  1.00  0.00    -0.237 OA
ATOM     87  O   UNL     1      -3.435  16.960  -5.131  1.00  0.00    -0.237 OA
ATOM     88  O   UNL     1      -2.243  15.590  -6.774  1.00  0.00    -0.744 OA
ENDBRANCH  82  85
ENDBRANCH  54  78
BRANCH  66  89
ATOM     89  C   UNL     1      -9.360  11.152 -13.154  1.00  0.00     0.023 A 
ATOM     90  C   UNL     1      -8.887  12.029 -14.149  1.00  0.00     0.012 A 
ATOM     91  C   UNL     1     -10.726  10.812 -13.120  1.00  0.00     0.148 A 
ATOM     92  C   UNL     1      -9.764  12.576 -15.085  1.00  0.00     0.002 A 
ATOM     93  C   UNL     1     -11.588  11.333 -14.078  1.00  0.00     0.091 A 
ATOM     94  F   UNL     1     -11.160   9.994 -12.149  1.00  0.00    -0.205 F 
ATOM     95  C   UNL     1     -11.110  12.220 -15.057  1.00  0.00     0.022 A 
BRANCH  93  96
ATOM     96  S   UNL     1     -13.320  10.862 -14.155  1.00  0.00     0.127 S 
ATOM     97  O   UNL     1     -13.968  11.994 -13.497  1.00  0.00    -0.237 OA
ATOM     98  O   UNL     1     -13.562  10.774 -15.595  1.00  0.00    -0.237 OA
ATOM     99  O   UNL     1     -13.411   9.587 -13.455  1.00  0.00    -0.744 OA
ENDBRANCH  93  96
ENDBRANCH  66  89
ENDBRANCH  40  41
ENDBRANCH  33  35
ENDBRANCH  32  33
ENDBRANCH  31  32
ENDBRANCH   1  31
TORSDOF 19
