REMARK SMILES Cc1ccc(-c2cc(Cl)cc3c2O[C@H](C(F)(F)F)C(C(=O)OCCOC(=O)c2ccc(-c4c5nc(c(-c6cccc(S(=O)(=O)[O-])c6F)c6ccc([nH]6)c(-c6cccc(S(=O)(=O)[O-])c6F)c6nc(c(-c7cccc(S(=O)(=O)[O-])c7F)c7ccc4[nH]7)C=C6)C=C5)cc2)=C3)cc1F
REMARK SMILES IDX 24 1 23 2 22 3 20 4 21 5 19 6 6 7 7 8 12 9 8 10 11 11 13 12
REMARK SMILES IDX 9 13 10 14 91 15 14 16 5 17 1 18 2 19 3 20 93 21 4 22 92 23
REMARK SMILES IDX 94 24 15 25 16 26 17 27 18 28 25 29 26 30 27 31 28 32 29 33
REMARK SMILES IDX 90 34 30 35 89 36 31 37 32 38 33 39 83 40 34 41 88 42 82 43
REMARK SMILES IDX 84 44 35 45 87 46 81 47 80 48 36 50 68 51 48 52 67 53 49 54
REMARK SMILES IDX 52 55 66 56 85 57 50 58 51 59 65 61 86 62 53 63 37 64 38 65
REMARK SMILES IDX 46 66 39 67 41 68 47 69 40 70 42 71 43 72 44 73 45 74 69 75
REMARK SMILES IDX 70 76 78 77 71 78 73 79 79 80 72 81 74 82 75 83 76 84 77 85
REMARK SMILES IDX 54 86 55 87 63 88 56 89 58 90 64 91 57 92 59 93 60 94 61 95
REMARK SMILES IDX 62 96
REMARK H PARENT 84 49 52 60
REMARK Flexibility Score: inf
ROOT
ATOM      1  C   UNL     1      -4.954  -4.596   7.579  1.00  0.00     0.275 C 
ENDROOT
BRANCH   1   2
ATOM      2  C   UNL     1      -3.567  -4.590   6.921  1.00  0.00     0.275 C 
BRANCH   2   3
ATOM      3  O   UNL     1      -3.482  -3.946   5.629  1.00  0.00    -0.459 OA
BRANCH   3   4
ATOM      4  C   UNL     1      -3.472  -4.790   4.558  1.00  0.00     0.338 C 
ATOM      5  O   UNL     1      -3.871  -5.944   4.553  1.00  0.00    -0.246 OA
BRANCH   4   6
ATOM      6  C   UNL     1      -3.133  -4.037   3.326  1.00  0.00     0.087 C 
ATOM      7  C   UNL     1      -2.664  -1.472   0.022  1.00  0.00     0.026 A 
ATOM      8  C   UNL     1      -3.576  -1.576  -1.044  1.00  0.00     0.033 A 
ATOM      9  C   UNL     1      -2.825  -2.323   1.137  1.00  0.00     0.135 A 
ATOM     10  C   UNL     1      -4.587  -2.534  -1.018  1.00  0.00     0.042 A 
ATOM     11  C   UNL     1      -3.811  -3.315   1.130  1.00  0.00     0.019 A 
ATOM     12  O   UNL     1      -2.043  -2.098   2.253  1.00  0.00    -0.475 OA
ATOM     13  Cl  UNL     1      -5.737  -2.606  -2.297  1.00  0.00    -0.084 Cl
ATOM     14  C   UNL     1      -4.688  -3.424   0.047  1.00  0.00     0.032 A 
ATOM     15  C   UNL     1      -3.972  -4.163   2.295  1.00  0.00     0.027 C 
ATOM     16  C   UNL     1      -1.891  -3.211   3.197  1.00  0.00     0.316 C 
BRANCH   7  17
ATOM     17  C   UNL     1      -1.533  -0.543  -0.070  1.00  0.00    -0.012 A 
ATOM     18  C   UNL     1       1.884   2.093  -0.053  1.00  0.00     0.047 C 
ATOM     19  C   UNL     1       0.684   1.200  -0.117  1.00  0.00    -0.015 A 
ATOM     20  C   UNL     1      -0.617   1.714  -0.088  1.00  0.00     0.007 A 
ATOM     21  C   UNL     1       0.860  -0.183  -0.165  1.00  0.00     0.126 A 
ATOM     22  C   UNL     1      -1.716   0.848  -0.071  1.00  0.00     0.009 A 
ATOM     23  C   UNL     1      -0.226  -1.048  -0.146  1.00  0.00     0.048 A 
ATOM     24  F   UNL     1       2.098  -0.695  -0.213  1.00  0.00    -0.207 F 
ENDBRANCH   7  17
BRANCH  16  25
ATOM     25  C   UNL     1      -0.676  -4.056   2.767  1.00  0.00     0.430 C 
ATOM     26  F   UNL     1       0.465  -3.324   2.876  1.00  0.00    -0.167 F 
ATOM     27  F   UNL     1      -0.518  -5.158   3.518  1.00  0.00    -0.167 F 
ATOM     28  F   UNL     1      -0.761  -4.445   1.471  1.00  0.00    -0.167 F 
ENDBRANCH  16  25
ENDBRANCH   4   6
ENDBRANCH   3   4
ENDBRANCH   2   3
ENDBRANCH   1   2
BRANCH   1  29
ATOM     29  O   UNL     1      -5.870  -5.395   6.821  1.00  0.00    -0.458 OA
BRANCH  29  30
ATOM     30  C   UNL     1      -6.971  -4.763   6.342  1.00  0.00     0.338 C 
ATOM     31  O   UNL     1      -7.427  -3.695   6.675  1.00  0.00    -0.246 OA
BRANCH  30  32
ATOM     32  C   UNL     1      -7.307  -5.471   5.092  1.00  0.00     0.060 A 
ATOM     33  C   UNL     1      -7.398  -6.867   5.026  1.00  0.00     0.016 A 
ATOM     34  C   UNL     1      -7.239  -4.699   3.938  1.00  0.00     0.016 A 
ATOM     35  C   UNL     1      -7.207  -7.503   3.798  1.00  0.00     0.010 A 
ATOM     36  C   UNL     1      -7.086  -5.340   2.721  1.00  0.00     0.010 A 
ATOM     37  C   UNL     1      -6.939  -6.733   2.663  1.00  0.00    -0.014 A 
BRANCH  37  38
ATOM     38  C   UNL     1      -6.316  -7.286   1.454  1.00  0.00     0.031 A 
ATOM     39  C   UNL     1      -7.073  -7.381   0.183  1.00  0.00     0.074 A 
ATOM     40  C   UNL     1      -5.020  -7.693   1.434  1.00  0.00     0.049 A 
ATOM     41  N   UNL     1      -6.967  -8.368  -0.644  1.00  0.00    -0.248 NA
ATOM     42  C   UNL     1      -8.010  -6.357  -0.265  1.00  0.00     0.031 C 
ATOM     43  C   UNL     1      -4.258  -8.083   0.244  1.00  0.00     0.029 A 
ATOM     44  N   UNL     1      -4.138  -7.976   2.471  1.00  0.00    -0.354 N 
ATOM     45  C   UNL     1      -7.553  -7.982  -1.828  1.00  0.00     0.074 A 
ATOM     46  C   UNL     1      -8.262  -6.761  -1.515  1.00  0.00     0.031 C 
ATOM     47  C   UNL     1      -3.212  -8.831   0.623  1.00  0.00     0.029 A 
ATOM     48  C   UNL     1      -3.304  -9.023   2.056  1.00  0.00     0.049 A 
ATOM     49  H   UNL     1      -4.106  -7.521   3.344  1.00  0.00     0.167 HD
ATOM     50  C   UNL     1      -7.274  -8.643  -2.990  1.00  0.00     0.034 A 
ATOM     51  C   UNL     1      -3.148 -10.216   2.700  1.00  0.00     0.034 A 
ATOM     52  C   UNL     1      -6.263  -9.672  -2.795  1.00  0.00     0.049 A 
ATOM     53  C   UNL     1      -3.584 -11.401   1.879  1.00  0.00     0.074 A 
ATOM     54  C   UNL     1      -4.900  -9.684  -3.041  1.00  0.00     0.029 A 
ATOM     55  N   UNL     1      -6.532 -10.783  -2.006  1.00  0.00    -0.354 N 
ATOM     56  N   UNL     1      -4.181 -11.279   0.727  1.00  0.00    -0.248 NA
ATOM     57  C   UNL     1      -3.483 -12.796   2.303  1.00  0.00     0.031 C 
ATOM     58  C   UNL     1      -4.338 -10.782  -2.349  1.00  0.00     0.029 A 
ATOM     59  C   UNL     1      -5.361 -11.447  -1.696  1.00  0.00     0.049 A 
ATOM     60  H   UNL     1      -7.429 -11.058  -1.711  1.00  0.00     0.167 HD
ATOM     61  C   UNL     1      -4.607 -12.505   0.295  1.00  0.00     0.074 A 
ATOM     62  C   UNL     1      -4.110 -13.429   1.294  1.00  0.00     0.031 C 
ATOM     63  C   UNL     1      -5.367 -12.624  -0.833  1.00  0.00     0.034 A 
BRANCH  50  64
ATOM     64  C   UNL     1      -7.735  -8.172  -4.356  1.00  0.00     0.023 A 
ATOM     65  C   UNL     1      -8.950  -7.472  -4.525  1.00  0.00     0.012 A 
ATOM     66  C   UNL     1      -6.992  -8.419  -5.534  1.00  0.00     0.148 A 
ATOM     67  C   UNL     1      -9.336  -6.926  -5.756  1.00  0.00     0.002 A 
ATOM     68  C   UNL     1      -7.404  -7.917  -6.771  1.00  0.00     0.091 A 
ATOM     69  F   UNL     1      -5.870  -9.148  -5.487  1.00  0.00    -0.205 F 
ATOM     70  C   UNL     1      -8.558  -7.141  -6.883  1.00  0.00     0.022 A 
BRANCH  68  71
ATOM     71  S   UNL     1      -6.444  -8.300  -8.242  1.00  0.00     0.127 S 
ATOM     72  O   UNL     1      -5.148  -7.694  -7.957  1.00  0.00    -0.237 OA
ATOM     73  O   UNL     1      -6.493  -9.757  -8.296  1.00  0.00    -0.237 OA
ATOM     74  O   UNL     1      -7.192  -7.638  -9.313  1.00  0.00    -0.744 OA
ENDBRANCH  68  71
ENDBRANCH  50  64
BRANCH  51  75
ATOM     75  C   UNL     1      -3.188 -10.118   4.176  1.00  0.00     0.023 A 
ATOM     76  C   UNL     1      -4.424 -10.013   4.836  1.00  0.00     0.012 A 
ATOM     77  C   UNL     1      -2.022  -9.600   4.773  1.00  0.00     0.148 A 
ATOM     78  C   UNL     1      -4.517  -9.232   5.990  1.00  0.00     0.002 A 
ATOM     79  C   UNL     1      -2.128  -8.781   5.885  1.00  0.00     0.091 A 
ATOM     80  F   UNL     1      -0.850  -9.832   4.163  1.00  0.00    -0.205 F 
ATOM     81  C   UNL     1      -3.381  -8.584   6.487  1.00  0.00     0.022 A 
BRANCH  79  82
ATOM     82  S   UNL     1      -0.727  -7.823   6.487  1.00  0.00     0.127 S 
ATOM     83  O   UNL     1      -0.684  -8.209   7.897  1.00  0.00    -0.237 OA
ATOM     84  O   UNL     1       0.422  -8.248   5.701  1.00  0.00    -0.237 OA
ATOM     85  O   UNL     1      -1.146  -6.440   6.258  1.00  0.00    -0.744 OA
ENDBRANCH  79  82
ENDBRANCH  51  75
BRANCH  63  86
ATOM     86  C   UNL     1      -6.074 -13.872  -1.297  1.00  0.00     0.023 A 
ATOM     87  C   UNL     1      -6.453 -13.959  -2.661  1.00  0.00     0.012 A 
ATOM     88  C   UNL     1      -6.453 -14.939  -0.470  1.00  0.00     0.148 A 
ATOM     89  C   UNL     1      -7.146 -15.057  -3.177  1.00  0.00     0.002 A 
ATOM     90  C   UNL     1      -7.042 -16.083  -1.010  1.00  0.00     0.091 A 
ATOM     91  F   UNL     1      -6.307 -14.850   0.859  1.00  0.00    -0.205 F 
ATOM     92  C   UNL     1      -7.414 -16.140  -2.355  1.00  0.00     0.022 A 
BRANCH  90  93
ATOM     93  S   UNL     1      -7.176 -17.543   0.024  1.00  0.00     0.127 S 
ATOM     94  O   UNL     1      -5.791 -17.776   0.424  1.00  0.00    -0.237 OA
ATOM     95  O   UNL     1      -8.094 -17.127   1.079  1.00  0.00    -0.237 OA
ATOM     96  O   UNL     1      -7.717 -18.555  -0.884  1.00  0.00    -0.744 OA
ENDBRANCH  90  93
ENDBRANCH  63  86
ENDBRANCH  37  38
ENDBRANCH  30  32
ENDBRANCH  29  30
ENDBRANCH   1  29
TORSDOF 16
