REMARK SMILES Cn1cc(-c2ccn(Cc3ccc(C(=O)OCCOC(=O)c4ccc(-c5c6nc(c(-c7cccc(S(=O)(=O)[O-])c7F)c7ccc([nH]7)c(-c7cccc(S(=O)(=O)[O-])c7F)c7nc(c(-c8cccc(S(=O)(=O)[O-])c8F)c8ccc5[nH]8)C=C7)C=C6)cc4)cc3)n2)cn1
REMARK SMILES IDX 17 1 16 2 14 3 15 4 13 5 10 6 11 7 86 8 12 9 85 10 9 11 8 12
REMARK SMILES IDX 5 13 6 14 87 15 7 16 4 17 1 18 2 19 3 20 89 21 88 22 18 23
REMARK SMILES IDX 19 24 20 25 21 26 22 27 23 28 84 29 24 30 83 31 25 32 26 33
REMARK SMILES IDX 27 34 77 35 28 36 82 37 76 38 78 39 29 40 81 41 75 42 74 43
REMARK SMILES IDX 30 45 62 46 42 47 61 48 43 49 46 50 60 51 79 52 44 53 45 54
REMARK SMILES IDX 59 56 80 57 47 58 31 59 32 60 40 61 33 62 35 63 41 64 34 65
REMARK SMILES IDX 36 66 37 67 38 68 39 69 63 70 64 71 72 72 65 73 67 74 73 75
REMARK SMILES IDX 66 76 68 77 69 78 70 79 71 80 48 81 49 82 57 83 50 84 52 85
REMARK SMILES IDX 58 86 51 87 53 88 54 89 55 90 56 91
REMARK H PARENT 78 44 46 55
REMARK Flexibility Score: inf
ROOT
ATOM      1  C   UNL     1       8.721   4.260   3.254  1.00  0.00     0.275 C 
ENDROOT
BRANCH   1   2
ATOM      2  O   UNL     1       7.936   3.114   2.892  1.00  0.00    -0.458 OA
BRANCH   2   3
ATOM      3  C   UNL     1       8.470   2.314   1.934  1.00  0.00     0.338 C 
ATOM      4  O   UNL     1       9.445   2.571   1.240  1.00  0.00    -0.246 OA
BRANCH   3   5
ATOM      5  C   UNL     1       7.747   1.019   1.866  1.00  0.00     0.060 A 
ATOM      6  C   UNL     1       6.388  -1.423   1.559  1.00  0.00    -0.026 A 
ATOM      7  C   UNL     1       7.694  -1.277   1.074  1.00  0.00     0.006 A 
ATOM      8  C   UNL     1       5.811  -0.361   2.275  1.00  0.00     0.006 A 
ATOM      9  C   UNL     1       8.369  -0.062   1.227  1.00  0.00     0.016 A 
ATOM     10  C   UNL     1       6.476   0.855   2.420  1.00  0.00     0.016 A 
BRANCH   6  11
ATOM     11  C   UNL     1       5.601  -2.689   1.308  1.00  0.00     0.179 C 
BRANCH  11  12
ATOM     12  N   UNL     1       4.438  -2.451   0.451  1.00  0.00    -0.268 N 
ATOM     13  C   UNL     1       2.566  -1.655  -0.136  1.00  0.00     0.095 A 
ATOM     14  C   UNL     1       2.975  -2.494  -1.189  1.00  0.00     0.050 A 
ATOM     15  N   UNL     1       3.424  -1.669   0.883  1.00  0.00    -0.172 NA
ATOM     16  C   UNL     1       4.194  -2.994  -0.784  1.00  0.00     0.110 A 
BRANCH  13  17
ATOM     17  C   UNL     1       1.356  -0.858  -0.120  1.00  0.00     0.040 A 
ATOM     18  C   UNL     1      -2.132  -0.021  -0.058  1.00  0.00     0.173 C 
ATOM     19  N   UNL     1      -0.694  -0.121  -0.088  1.00  0.00    -0.275 N 
ATOM     20  C   UNL     1       0.045  -1.263  -0.191  1.00  0.00     0.118 A 
ATOM     21  N   UNL     1       0.047   1.001  -0.003  1.00  0.00    -0.181 NA
ATOM     22  C   UNL     1       1.304   0.541   0.011  1.00  0.00     0.145 A 
ENDBRANCH  13  17
ENDBRANCH  11  12
ENDBRANCH   6  11
ENDBRANCH   3   5
ENDBRANCH   2   3
ENDBRANCH   1   2
BRANCH   1  23
ATOM     23  C   UNL     1       9.668   3.938   4.401  1.00  0.00     0.275 C 
BRANCH  23  24
ATOM     24  O   UNL     1      10.716   3.055   4.003  1.00  0.00    -0.458 OA
BRANCH  24  25
ATOM     25  C   UNL     1      10.479   1.750   4.266  1.00  0.00     0.338 C 
ATOM     26  O   UNL     1       9.397   1.212   4.433  1.00  0.00    -0.246 OA
BRANCH  25  27
ATOM     27  C   UNL     1      11.743   1.080   4.572  1.00  0.00     0.060 A 
ATOM     28  C   UNL     1      11.749  -0.318   4.606  1.00  0.00     0.016 A 
ATOM     29  C   UNL     1      12.815   1.838   5.064  1.00  0.00     0.016 A 
ATOM     30  C   UNL     1      12.796  -0.958   5.240  1.00  0.00     0.010 A 
ATOM     31  C   UNL     1      13.848   1.199   5.710  1.00  0.00     0.010 A 
ATOM     32  C   UNL     1      13.805  -0.188   5.833  1.00  0.00    -0.014 A 
BRANCH  32  33
ATOM     33  C   UNL     1      14.943  -0.876   6.416  1.00  0.00     0.031 A 
ATOM     34  C   UNL     1      15.785  -1.527   5.382  1.00  0.00     0.074 A 
ATOM     35  C   UNL     1      15.260  -0.781   7.722  1.00  0.00     0.049 A 
ATOM     36  N   UNL     1      15.992  -2.791   5.215  1.00  0.00    -0.248 NA
ATOM     37  C   UNL     1      16.291  -0.689   4.280  1.00  0.00     0.031 C 
ATOM     38  C   UNL     1      14.622   0.081   8.725  1.00  0.00     0.029 A 
ATOM     39  N   UNL     1      16.311  -1.319   8.404  1.00  0.00    -0.354 N 
ATOM     40  C   UNL     1      16.877  -2.875   4.141  1.00  0.00     0.074 A 
ATOM     41  C   UNL     1      16.826  -1.606   3.474  1.00  0.00     0.031 C 
ATOM     42  C   UNL     1      15.439   0.197   9.795  1.00  0.00     0.029 A 
ATOM     43  C   UNL     1      16.586  -0.674   9.609  1.00  0.00     0.049 A 
ATOM     44  H   UNL     1      16.827  -2.091   8.075  1.00  0.00     0.167 HD
ATOM     45  C   UNL     1      17.810  -3.863   4.093  1.00  0.00     0.034 A 
ATOM     46  C   UNL     1      17.709  -0.797  10.358  1.00  0.00     0.034 A 
ATOM     47  C   UNL     1      17.470  -4.925   5.006  1.00  0.00     0.049 A 
ATOM     48  C   UNL     1      18.385  -2.041   9.937  1.00  0.00     0.074 A 
ATOM     49  C   UNL     1      16.456  -5.848   5.129  1.00  0.00     0.029 A 
ATOM     50  N   UNL     1      18.099  -4.845   6.222  1.00  0.00    -0.354 N 
ATOM     51  N   UNL     1      17.919  -3.231  10.185  1.00  0.00    -0.248 NA
ATOM     52  C   UNL     1      19.429  -1.972   8.926  1.00  0.00     0.031 C 
ATOM     53  C   UNL     1      16.316  -6.075   6.529  1.00  0.00     0.029 A 
ATOM     54  C   UNL     1      17.283  -5.326   7.203  1.00  0.00     0.049 A 
ATOM     55  H   UNL     1      19.007  -4.493   6.365  1.00  0.00     0.167 HD
ATOM     56  C   UNL     1      18.251  -3.959   9.054  1.00  0.00     0.074 A 
ATOM     57  C   UNL     1      19.322  -3.202   8.417  1.00  0.00     0.031 C 
ATOM     58  C   UNL     1      17.406  -4.922   8.587  1.00  0.00     0.034 A 
BRANCH  45  59
ATOM     59  C   UNL     1      19.251  -3.674   3.637  1.00  0.00     0.023 A 
ATOM     60  C   UNL     1      20.081  -4.819   3.686  1.00  0.00     0.012 A 
ATOM     61  C   UNL     1      19.904  -2.428   3.481  1.00  0.00     0.148 A 
ATOM     62  C   UNL     1      21.477  -4.723   3.671  1.00  0.00     0.002 A 
ATOM     63  C   UNL     1      21.290  -2.343   3.399  1.00  0.00     0.091 A 
ATOM     64  F   UNL     1      19.214  -1.289   3.532  1.00  0.00    -0.205 F 
ATOM     65  C   UNL     1      22.083  -3.483   3.530  1.00  0.00     0.022 A 
BRANCH  63  66
ATOM     66  S   UNL     1      22.130  -0.765   3.186  1.00  0.00     0.127 S 
ATOM     67  O   UNL     1      22.769  -0.596   4.487  1.00  0.00    -0.237 OA
ATOM     68  O   UNL     1      23.040  -1.064   2.080  1.00  0.00    -0.237 OA
ATOM     69  O   UNL     1      21.088   0.200   2.858  1.00  0.00    -0.744 OA
ENDBRANCH  63  66
ENDBRANCH  45  59
BRANCH  46  70
ATOM     70  C   UNL     1      18.378   0.139  11.290  1.00  0.00     0.023 A 
ATOM     71  C   UNL     1      19.270  -0.369  12.258  1.00  0.00     0.012 A 
ATOM     72  C   UNL     1      18.386   1.527  11.039  1.00  0.00     0.148 A 
ATOM     73  C   UNL     1      20.179   0.468  12.915  1.00  0.00     0.002 A 
ATOM     74  C   UNL     1      19.293   2.356  11.694  1.00  0.00     0.091 A 
ATOM     75  F   UNL     1      17.575   2.013  10.091  1.00  0.00    -0.205 F 
ATOM     76  C   UNL     1      20.201   1.828  12.622  1.00  0.00     0.022 A 
BRANCH  74  77
ATOM     77  S   UNL     1      19.417   4.114  11.339  1.00  0.00     0.127 S 
ATOM     78  O   UNL     1      19.382   4.696  12.681  1.00  0.00    -0.237 OA
ATOM     79  O   UNL     1      20.713   4.195  10.671  1.00  0.00    -0.237 OA
ATOM     80  O   UNL     1      18.260   4.436  10.515  1.00  0.00    -0.744 OA
ENDBRANCH  74  77
ENDBRANCH  46  70
BRANCH  58  81
ATOM     81  C   UNL     1      16.387  -5.470   9.546  1.00  0.00     0.023 A 
ATOM     82  C   UNL     1      15.344  -4.697  10.095  1.00  0.00     0.012 A 
ATOM     83  C   UNL     1      16.427  -6.849   9.806  1.00  0.00     0.148 A 
ATOM     84  C   UNL     1      14.376  -5.290  10.911  1.00  0.00     0.002 A 
ATOM     85  C   UNL     1      15.434  -7.442  10.570  1.00  0.00     0.091 A 
ATOM     86  F   UNL     1      17.435  -7.565   9.283  1.00  0.00    -0.205 F 
ATOM     87  C   UNL     1      14.413  -6.665  11.136  1.00  0.00     0.022 A 
BRANCH  85  88
ATOM     88  S   UNL     1      15.371  -9.222  10.773  1.00  0.00     0.127 S 
ATOM     89  O   UNL     1      15.942  -9.399  12.106  1.00  0.00    -0.237 OA
ATOM     90  O   UNL     1      13.937  -9.501  10.677  1.00  0.00    -0.237 OA
ATOM     91  O   UNL     1      16.154  -9.773   9.672  1.00  0.00    -0.744 OA
ENDBRANCH  85  88
ENDBRANCH  58  81
ENDBRANCH  32  33
ENDBRANCH  25  27
ENDBRANCH  24  25
ENDBRANCH  23  24
ENDBRANCH   1  23
TORSDOF 17
