REMARK SMILES CC(C)C[C@H](NC(N)=O)C(=O)N[C@@H](C(=O)OCCOC(=O)c1ccc(-c2c3nc(c(-c4cccc(S(=O)(=O)[O-])c4F)c4ccc([nH]4)c(-c4cccc(S(=O)(=O)[O-])c4F)c4nc(c(-c5cccc(S(=O)(=O)[O-])c5F)c5ccc2[nH]5)C=C4)C=C3)cc1)C(C)C
REMARK SMILES IDX 17 1 16 2 14 3 15 4 13 5 12 6 10 7 11 8 5 10 4 11 2 12 1 13
REMARK SMILES IDX 3 14 6 15 7 16 8 18 9 19 85 22 86 23 87 24 18 25 19 26 20 27
REMARK SMILES IDX 21 28 22 29 23 30 84 31 24 32 83 33 25 34 26 35 27 36 77 37
REMARK SMILES IDX 28 38 82 39 76 40 78 41 29 42 81 43 75 44 74 45 30 47 62 48
REMARK SMILES IDX 42 49 61 50 43 51 46 52 60 53 79 54 44 55 45 56 59 58 80 59
REMARK SMILES IDX 47 60 31 61 32 62 40 63 33 64 35 65 41 66 34 67 36 68 37 69
REMARK SMILES IDX 38 70 39 71 63 72 64 73 72 74 65 75 67 76 73 77 66 78 68 79
REMARK SMILES IDX 69 80 70 81 71 82 48 83 49 84 57 85 50 86 52 87 58 88 51 89
REMARK SMILES IDX 53 90 54 91 55 92 56 93
REMARK H PARENT 12 9 6 17 8 20 8 21 78 46 46 57
REMARK Flexibility Score: inf
ROOT
ATOM      1  C   UNL     1      -3.746   3.617   3.042  1.00  0.00     0.274 C 
ENDROOT
BRANCH   1   2
ATOM      2  O   UNL     1      -3.522   2.201   2.850  1.00  0.00    -0.461 OA
BRANCH   2   3
ATOM      3  C   UNL     1      -2.708   1.581   3.752  1.00  0.00     0.329 C 
ATOM      4  O   UNL     1      -2.164   2.162   4.684  1.00  0.00    -0.250 OA
BRANCH   3   5
ATOM      5  C   UNL     1      -2.515   0.062   3.463  1.00  0.00     0.194 C 
BRANCH   5   6
ATOM      6  N   UNL     1      -3.215  -0.324   2.230  1.00  0.00    -0.341 N 
ATOM      7  C   UNL     1      -2.747  -0.878   1.075  1.00  0.00     0.243 C 
ATOM      8  O   UNL     1      -3.567  -1.152   0.195  1.00  0.00    -0.273 OA
ATOM      9  H   UNL     1      -4.184  -0.154   2.239  1.00  0.00     0.164 HD
BRANCH   7  10
ATOM     10  C   UNL     1      -1.246  -1.183   0.873  1.00  0.00     0.173 C 
BRANCH  10  11
ATOM     11  C   UNL     1      -0.722  -2.324   1.769  1.00  0.00     0.038 C 
BRANCH  11  12
ATOM     12  C   UNL     1      -1.378  -3.701   1.534  1.00  0.00    -0.015 C 
ATOM     13  C   UNL     1      -1.044  -4.253   0.148  1.00  0.00     0.007 C 
ATOM     14  C   UNL     1      -0.909  -4.710   2.591  1.00  0.00     0.007 C 
ENDBRANCH  11  12
ENDBRANCH  10  11
BRANCH  10  15
ATOM     15  N   UNL     1      -0.497   0.064   1.060  1.00  0.00    -0.327 N 
ATOM     16  C   UNL     1       0.809   0.186   0.703  1.00  0.00     0.312 C 
ATOM     17  H   UNL     1      -0.955   0.839   1.457  1.00  0.00     0.166 HD
ATOM     18  N   UNL     1       1.325   1.396   1.019  1.00  0.00    -0.352 N 
ATOM     19  O   UNL     1       1.485  -0.678   0.172  1.00  0.00    -0.249 OA
ATOM     20  H   UNL     1       0.758   2.076   1.448  1.00  0.00     0.161 HD
ATOM     21  H   UNL     1       2.268   1.596   0.820  1.00  0.00     0.161 HD
ENDBRANCH  10  15
ENDBRANCH   7  10
ENDBRANCH   5   6
BRANCH   5  22
ATOM     22  C   UNL     1      -2.992  -0.806   4.655  1.00  0.00     0.017 C 
ATOM     23  C   UNL     1      -3.072  -2.310   4.400  1.00  0.00     0.010 C 
ATOM     24  C   UNL     1      -2.117  -0.606   5.903  1.00  0.00     0.010 C 
ENDBRANCH   5  22
ENDBRANCH   3   5
ENDBRANCH   2   3
ENDBRANCH   1   2
BRANCH   1  25
ATOM     25  C   UNL     1      -5.214   3.912   3.354  1.00  0.00     0.275 C 
BRANCH  25  26
ATOM     26  O   UNL     1      -5.587   3.358   4.631  1.00  0.00    -0.458 OA
BRANCH  26  27
ATOM     27  C   UNL     1      -6.268   2.193   4.553  1.00  0.00     0.338 C 
ATOM     28  O   UNL     1      -6.585   1.596   3.536  1.00  0.00    -0.246 OA
BRANCH  27  29
ATOM     29  C   UNL     1      -6.451   1.592   5.883  1.00  0.00     0.060 A 
ATOM     30  C   UNL     1      -5.373   0.886   6.387  1.00  0.00     0.016 A 
ATOM     31  C   UNL     1      -7.713   1.413   6.438  1.00  0.00     0.016 A 
ATOM     32  C   UNL     1      -5.594  -0.194   7.239  1.00  0.00     0.010 A 
ATOM     33  C   UNL     1      -7.889   0.458   7.454  1.00  0.00     0.010 A 
ATOM     34  C   UNL     1      -6.857  -0.438   7.795  1.00  0.00    -0.014 A 
BRANCH  34  35
ATOM     35  C   UNL     1      -7.103  -1.658   8.642  1.00  0.00     0.031 A 
ATOM     36  C   UNL     1      -8.305  -2.549   8.380  1.00  0.00     0.074 A 
ATOM     37  C   UNL     1      -6.252  -2.018   9.631  1.00  0.00     0.049 A 
ATOM     38  N   UNL     1      -8.801  -3.513   9.116  1.00  0.00    -0.248 NA
ATOM     39  C   UNL     1      -9.060  -2.311   7.139  1.00  0.00     0.031 C 
ATOM     40  C   UNL     1      -5.024  -1.312  10.004  1.00  0.00     0.029 A 
ATOM     41  N   UNL     1      -6.291  -3.077  10.511  1.00  0.00    -0.354 N 
ATOM     42  C   UNL     1      -9.976  -3.916   8.486  1.00  0.00     0.074 A 
ATOM     43  C   UNL     1     -10.114  -3.099   7.301  1.00  0.00     0.031 C 
ATOM     44  C   UNL     1      -4.406  -1.976  10.990  1.00  0.00     0.029 A 
ATOM     45  C   UNL     1      -5.249  -3.086  11.412  1.00  0.00     0.049 A 
ATOM     46  H   UNL     1      -6.997  -3.763  10.497  1.00  0.00     0.167 HD
ATOM     47  C   UNL     1     -10.859  -4.881   8.848  1.00  0.00     0.034 A 
ATOM     48  C   UNL     1      -5.012  -3.852  12.496  1.00  0.00     0.034 A 
ATOM     49  C   UNL     1     -10.677  -5.771   9.965  1.00  0.00     0.049 A 
ATOM     50  C   UNL     1      -5.998  -4.922  12.871  1.00  0.00     0.074 A 
ATOM     51  C   UNL     1     -11.502  -6.799  10.390  1.00  0.00     0.029 A 
ATOM     52  N   UNL     1      -9.587  -5.759  10.819  1.00  0.00    -0.354 N 
ATOM     53  N   UNL     1      -7.102  -5.278  12.264  1.00  0.00    -0.248 NA
ATOM     54  C   UNL     1      -5.695  -5.706  14.077  1.00  0.00     0.031 C 
ATOM     55  C   UNL     1     -10.919  -7.396  11.513  1.00  0.00     0.029 A 
ATOM     56  C   UNL     1      -9.714  -6.764  11.765  1.00  0.00     0.049 A 
ATOM     57  H   UNL     1      -8.832  -5.130  10.763  1.00  0.00     0.167 HD
ATOM     58  C   UNL     1      -7.607  -6.349  12.992  1.00  0.00     0.074 A 
ATOM     59  C   UNL     1      -6.673  -6.600  14.069  1.00  0.00     0.031 C 
ATOM     60  C   UNL     1      -8.751  -7.050  12.797  1.00  0.00     0.034 A 
BRANCH  47  61
ATOM     61  C   UNL     1     -12.114  -5.034   8.022  1.00  0.00     0.023 A 
ATOM     62  C   UNL     1     -12.053  -5.586   6.727  1.00  0.00     0.012 A 
ATOM     63  C   UNL     1     -13.368  -4.673   8.558  1.00  0.00     0.148 A 
ATOM     64  C   UNL     1     -13.210  -5.734   5.962  1.00  0.00     0.002 A 
ATOM     65  C   UNL     1     -14.523  -4.871   7.809  1.00  0.00     0.091 A 
ATOM     66  F   UNL     1     -13.408  -4.137   9.786  1.00  0.00    -0.205 F 
ATOM     67  C   UNL     1     -14.445  -5.386   6.506  1.00  0.00     0.022 A 
BRANCH  65  68
ATOM     68  S   UNL     1     -16.166  -4.534   8.454  1.00  0.00     0.127 S 
ATOM     69  O   UNL     1     -16.552  -3.356   7.678  1.00  0.00    -0.237 OA
ATOM     70  O   UNL     1     -16.890  -5.757   8.107  1.00  0.00    -0.237 OA
ATOM     71  O   UNL     1     -16.000  -4.312   9.884  1.00  0.00    -0.744 OA
ENDBRANCH  65  68
ENDBRANCH  47  61
BRANCH  48  72
ATOM     72  C   UNL     1      -3.789  -3.626  13.322  1.00  0.00     0.023 A 
ATOM     73  C   UNL     1      -2.790  -4.617  13.373  1.00  0.00     0.012 A 
ATOM     74  C   UNL     1      -3.607  -2.433  14.050  1.00  0.00     0.148 A 
ATOM     75  C   UNL     1      -1.650  -4.440  14.159  1.00  0.00     0.002 A 
ATOM     76  C   UNL     1      -2.439  -2.233  14.775  1.00  0.00     0.091 A 
ATOM     77  F   UNL     1      -4.576  -1.508  14.007  1.00  0.00    -0.205 F 
ATOM     78  C   UNL     1      -1.469  -3.244  14.849  1.00  0.00     0.022 A 
BRANCH  76  79
ATOM     79  S   UNL     1      -2.058  -0.669  15.570  1.00  0.00     0.127 S 
ATOM     80  O   UNL     1      -2.186  -1.012  16.983  1.00  0.00    -0.237 OA
ATOM     81  O   UNL     1      -0.688  -0.426  15.115  1.00  0.00    -0.237 OA
ATOM     82  O   UNL     1      -3.035   0.281  15.056  1.00  0.00    -0.744 OA
ENDBRANCH  76  79
ENDBRANCH  48  72
BRANCH  60  83
ATOM     83  C   UNL     1      -9.026  -8.204  13.726  1.00  0.00     0.023 A 
ATOM     84  C   UNL     1      -9.374  -7.965  15.070  1.00  0.00     0.012 A 
ATOM     85  C   UNL     1      -8.973  -9.529  13.252  1.00  0.00     0.148 A 
ATOM     86  C   UNL     1      -9.617  -9.029  15.940  1.00  0.00     0.002 A 
ATOM     87  C   UNL     1      -9.269 -10.582  14.110  1.00  0.00     0.091 A 
ATOM     88  F   UNL     1      -8.618  -9.740  11.976  1.00  0.00    -0.205 F 
ATOM     89  C   UNL     1      -9.575 -10.335  15.457  1.00  0.00     0.022 A 
BRANCH  87  90
ATOM     90  S   UNL     1      -9.334 -12.285  13.544  1.00  0.00     0.127 S 
ATOM     91  O   UNL     1      -8.072 -12.818  14.054  1.00  0.00    -0.237 OA
ATOM     92  O   UNL     1     -10.528 -12.794  14.220  1.00  0.00    -0.237 OA
ATOM     93  O   UNL     1      -9.449 -12.217  12.093  1.00  0.00    -0.744 OA
ENDBRANCH  87  90
ENDBRANCH  60  83
ENDBRANCH  34  35
ENDBRANCH  27  29
ENDBRANCH  26  27
ENDBRANCH  25  26
ENDBRANCH   1  25
TORSDOF 20
