REMARK SMILES O=C(CSc1nnnn1-c1ccc(C(=O)OCCOC(=O)c2ccc(-c3c4nc(c(-c5cccc(S(=O)(=O)[O-])c5F)c5ccc([nH]5)c(-c5cccc(S(=O)(=O)[O-])c5F)c5nc(c(-c6cccc(S(=O)(=O)[O-])c6F)c6ccc3[nH]6)C=C5)C=C4)cc2)cc1)Nc1nc(-c2ccccc2)cs1
REMARK SMILES IDX 16 1 14 2 15 3 13 4 10 5 11 6 86 7 12 8 85 9 9 10 5 11 6 12
REMARK SMILES IDX 7 13 8 14 4 15 3 16 2 17 1 18 87 19 88 21 89 22 98 23 90 24
REMARK SMILES IDX 97 25 91 26 92 27 96 28 93 29 95 30 94 31 17 32 18 33 19 34
REMARK SMILES IDX 20 35 21 36 22 37 23 38 84 39 24 40 83 41 25 42 26 43 27 44
REMARK SMILES IDX 77 45 28 46 82 47 76 48 78 49 29 50 81 51 75 52 74 53 30 55
REMARK SMILES IDX 62 56 42 57 61 58 43 59 46 60 60 61 79 62 44 63 45 64 59 66
REMARK SMILES IDX 80 67 47 68 31 69 32 70 40 71 33 72 35 73 41 74 34 75 36 76
REMARK SMILES IDX 37 77 38 78 39 79 63 80 64 81 72 82 65 83 67 84 73 85 66 86
REMARK SMILES IDX 68 87 69 88 70 89 71 90 48 91 49 92 57 93 50 94 52 95 58 96
REMARK SMILES IDX 51 97 53 98 54 99 55 100 56 101
REMARK H PARENT 87 20 78 54 46 65
REMARK Flexibility Score: inf
ROOT
ATOM      1  O   UNL     1      -1.219   2.844   1.154  1.00  0.00    -0.458 OA
ENDROOT
BRANCH   1   2
ATOM      2  C   UNL     1      -1.069   2.205   2.348  1.00  0.00     0.338 C 
ATOM      3  O   UNL     1      -1.309   2.657   3.443  1.00  0.00    -0.246 OA
BRANCH   2   4
ATOM      4  C   UNL     1      -0.591   0.808   2.133  1.00  0.00     0.060 A 
ATOM      5  C   UNL     1       0.712  -1.625   1.899  1.00  0.00     0.069 A 
ATOM      6  C   UNL     1       0.152  -1.275   3.130  1.00  0.00     0.029 A 
ATOM      7  C   UNL     1       0.426  -0.891   0.749  1.00  0.00     0.029 A 
ATOM      8  C   UNL     1      -0.485  -0.039   3.247  1.00  0.00     0.018 A 
ATOM      9  C   UNL     1      -0.225   0.334   0.869  1.00  0.00     0.018 A 
BRANCH   5  10
ATOM     10  N   UNL     1       1.635  -2.677   1.841  1.00  0.00    -0.187 N 
ATOM     11  C   UNL     1       2.911  -2.749   1.297  1.00  0.00     0.214 A 
ATOM     12  N   UNL     1       3.285  -4.014   1.325  1.00  0.00    -0.101 NA
ATOM     13  N   UNL     1       2.310  -4.695   1.999  1.00  0.00    -0.022 NA
ATOM     14  N   UNL     1       1.347  -3.877   2.393  1.00  0.00    -0.039 NA
BRANCH  11  15
ATOM     15  S   UNL     1       4.100  -1.520   0.962  1.00  0.00    -0.074 SA
BRANCH  15  16
ATOM     16  C   UNL     1       3.398   0.143   0.954  1.00  0.00     0.178 C 
BRANCH  16  17
ATOM     17  C   UNL     1       2.878   0.603  -0.411  1.00  0.00     0.236 C 
ATOM     18  O   UNL     1       2.291   1.677  -0.513  1.00  0.00    -0.274 OA
ATOM     19  N   UNL     1       3.143  -0.264  -1.443  1.00  0.00    -0.301 N 
ATOM     20  H   UNL     1       3.879  -0.908  -1.331  1.00  0.00     0.172 HD
BRANCH  19  21
ATOM     21  C   UNL     1       2.445  -0.282  -2.615  1.00  0.00     0.189 A 
ATOM     22  N   UNL     1       1.423   0.435  -2.997  1.00  0.00    -0.220 NA
ATOM     23  S   UNL     1       2.934  -1.544  -3.658  1.00  0.00    -0.105 S 
ATOM     24  C   UNL     1       0.924  -0.086  -4.180  1.00  0.00     0.084 A 
ATOM     25  C   UNL     1       1.628  -1.158  -4.697  1.00  0.00     0.097 A 
BRANCH  24  26
ATOM     26  C   UNL     1      -0.251   0.464  -4.834  1.00  0.00     0.001 A 
ATOM     27  C   UNL     1      -0.299   1.824  -5.154  1.00  0.00     0.010 A 
ATOM     28  C   UNL     1      -1.339  -0.359  -5.160  1.00  0.00     0.010 A 
ATOM     29  C   UNL     1      -1.409   2.351  -5.819  1.00  0.00     0.001 A 
ATOM     30  C   UNL     1      -2.453   0.173  -5.813  1.00  0.00     0.001 A 
ATOM     31  C   UNL     1      -2.484   1.525  -6.148  1.00  0.00     0.000 A 
ENDBRANCH  24  26
ENDBRANCH  19  21
ENDBRANCH  16  17
ENDBRANCH  15  16
ENDBRANCH  11  15
ENDBRANCH   5  10
ENDBRANCH   2   4
ENDBRANCH   1   2
BRANCH   1  32
ATOM     32  C   UNL     1      -1.972   4.068   1.181  1.00  0.00     0.275 C 
BRANCH  32  33
ATOM     33  C   UNL     1      -3.454   3.795   0.962  1.00  0.00     0.275 C 
BRANCH  33  34
ATOM     34  O   UNL     1      -3.989   3.094   2.079  1.00  0.00    -0.458 OA
BRANCH  34  35
ATOM     35  C   UNL     1      -3.953   1.749   1.975  1.00  0.00     0.338 C 
ATOM     36  O   UNL     1      -3.410   1.086   1.104  1.00  0.00    -0.246 OA
BRANCH  35  37
ATOM     37  C   UNL     1      -4.836   1.162   2.979  1.00  0.00     0.060 A 
ATOM     38  C   UNL     1      -4.883  -0.235   3.014  1.00  0.00     0.016 A 
ATOM     39  C   UNL     1      -5.847   1.969   3.517  1.00  0.00     0.016 A 
ATOM     40  C   UNL     1      -6.080  -0.825   3.336  1.00  0.00     0.010 A 
ATOM     41  C   UNL     1      -7.043   1.380   3.819  1.00  0.00     0.010 A 
ATOM     42  C   UNL     1      -7.165   0.007   3.620  1.00  0.00    -0.014 A 
BRANCH  42  43
ATOM     43  C   UNL     1      -8.465  -0.599   3.763  1.00  0.00     0.031 A 
ATOM     44  C   UNL     1      -8.607  -1.334   5.037  1.00  0.00     0.074 A 
ATOM     45  C   UNL     1      -9.440  -0.359   2.866  1.00  0.00     0.049 A 
ATOM     46  N   UNL     1      -8.825  -2.595   5.210  1.00  0.00    -0.248 NA
ATOM     47  C   UNL     1      -8.271  -0.603   6.271  1.00  0.00     0.031 C 
ATOM     48  C   UNL     1      -9.428   0.597   1.751  1.00  0.00     0.029 A 
ATOM     49  N   UNL     1     -10.722  -0.802   2.873  1.00  0.00    -0.354 N 
ATOM     50  C   UNL     1      -8.885  -2.761   6.591  1.00  0.00     0.074 A 
ATOM     51  C   UNL     1      -8.319  -1.577   7.176  1.00  0.00     0.031 C 
ATOM     52  C   UNL     1     -10.702   0.857   1.382  1.00  0.00     0.029 A 
ATOM     53  C   UNL     1     -11.592  -0.002   2.143  1.00  0.00     0.049 A 
ATOM     54  H   UNL     1     -11.008  -1.614   3.351  1.00  0.00     0.167 HD
ATOM     55  C   UNL     1      -9.653  -3.730   7.152  1.00  0.00     0.034 A 
ATOM     56  C   UNL     1     -12.943   0.017   2.258  1.00  0.00     0.034 A 
ATOM     57  C   UNL     1      -9.995  -4.752   6.200  1.00  0.00     0.049 A 
ATOM     58  C   UNL     1     -13.343  -1.233   2.949  1.00  0.00     0.074 A 
ATOM     59  C   UNL     1      -9.274  -5.644   5.432  1.00  0.00     0.029 A 
ATOM     60  N   UNL     1     -11.246  -4.684   5.635  1.00  0.00    -0.354 N 
ATOM     61  N   UNL     1     -13.196  -2.421   2.429  1.00  0.00    -0.248 NA
ATOM     62  C   UNL     1     -13.474  -1.197   4.397  1.00  0.00     0.031 C 
ATOM     63  C   UNL     1      -9.972  -5.709   4.191  1.00  0.00     0.029 A 
ATOM     64  C   UNL     1     -11.106  -4.899   4.289  1.00  0.00     0.049 A 
ATOM     65  H   UNL     1     -12.090  -4.513   6.111  1.00  0.00     0.167 HD
ATOM     66  C   UNL     1     -12.767  -3.214   3.488  1.00  0.00     0.074 A 
ATOM     67  C   UNL     1     -13.062  -2.434   4.689  1.00  0.00     0.031 C 
ATOM     68  C   UNL     1     -11.946  -4.286   3.280  1.00  0.00     0.034 A 
BRANCH  55  69
ATOM     69  C   UNL     1     -10.404  -3.558   8.449  1.00  0.00     0.023 A 
ATOM     70  C   UNL     1     -11.018  -4.705   8.995  1.00  0.00     0.012 A 
ATOM     71  C   UNL     1     -10.764  -2.309   9.010  1.00  0.00     0.148 A 
ATOM     72  C   UNL     1     -11.974  -4.608  10.010  1.00  0.00     0.002 A 
ATOM     73  C   UNL     1     -11.651  -2.225  10.075  1.00  0.00     0.091 A 
ATOM     74  F   UNL     1     -10.366  -1.171   8.435  1.00  0.00    -0.205 F 
ATOM     75  C   UNL     1     -12.285  -3.369  10.558  1.00  0.00     0.022 A 
BRANCH  73  76
ATOM     76  S   UNL     1     -12.044  -0.649  10.844  1.00  0.00     0.127 S 
ATOM     77  O   UNL     1     -13.377  -0.387  10.310  1.00  0.00    -0.237 OA
ATOM     78  O   UNL     1     -12.001  -0.991  12.266  1.00  0.00    -0.237 OA
ATOM     79  O   UNL     1     -10.990   0.265  10.421  1.00  0.00    -0.744 OA
ENDBRANCH  73  76
ENDBRANCH  55  69
BRANCH  56  80
ATOM     80  C   UNL     1     -13.867   1.165   2.099  1.00  0.00     0.023 A 
ATOM     81  C   UNL     1     -15.225   0.938   1.806  1.00  0.00     0.012 A 
ATOM     82  C   UNL     1     -13.476   2.469   2.481  1.00  0.00     0.148 A 
ATOM     83  C   UNL     1     -16.165   1.972   1.904  1.00  0.00     0.002 A 
ATOM     84  C   UNL     1     -14.411   3.496   2.565  1.00  0.00     0.091 A 
ATOM     85  F   UNL     1     -12.204   2.680   2.846  1.00  0.00    -0.205 F 
ATOM     86  C   UNL     1     -15.760   3.248   2.287  1.00  0.00     0.022 A 
BRANCH  84  87
ATOM     87  S   UNL     1     -13.966   5.164   3.070  1.00  0.00     0.127 S 
ATOM     88  O   UNL     1     -14.543   5.968   1.991  1.00  0.00    -0.237 OA
ATOM     89  O   UNL     1     -14.649   5.284   4.355  1.00  0.00    -0.237 OA
ATOM     90  O   UNL     1     -12.510   5.191   3.124  1.00  0.00    -0.744 OA
ENDBRANCH  84  87
ENDBRANCH  56  80
BRANCH  68  91
ATOM     91  C   UNL     1     -11.678  -4.705   1.853  1.00  0.00     0.023 A 
ATOM     92  C   UNL     1     -10.979  -3.877   0.948  1.00  0.00     0.012 A 
ATOM     93  C   UNL     1     -11.960  -6.028   1.478  1.00  0.00     0.148 A 
ATOM     94  C   UNL     1     -10.590  -4.351  -0.308  1.00  0.00     0.002 A 
ATOM     95  C   UNL     1     -11.530  -6.511   0.247  1.00  0.00     0.091 A 
ATOM     96  F   UNL     1     -12.612  -6.808   2.354  1.00  0.00    -0.205 F 
ATOM     97  C   UNL     1     -10.854  -5.673  -0.653  1.00  0.00     0.022 A 
BRANCH  95  98
ATOM     98  S   UNL     1     -11.719  -8.236  -0.205  1.00  0.00     0.127 S 
ATOM     99  O   UNL     1     -12.778  -8.175  -1.210  1.00  0.00    -0.237 OA
ATOM    100  O   UNL     1     -10.395  -8.569  -0.732  1.00  0.00    -0.237 OA
ATOM    101  O   UNL     1     -12.063  -8.939   1.025  1.00  0.00    -0.744 OA
ENDBRANCH  95  98
ENDBRANCH  68  91
ENDBRANCH  42  43
ENDBRANCH  35  37
ENDBRANCH  34  35
ENDBRANCH  33  34
ENDBRANCH  32  33
ENDBRANCH   1  32
TORSDOF 20
