REMARK SMILES O=C(CNc1nc(-c2ccccc2)c(-c2ccccc2)s1)OCCOC(=O)c1ccc(-c2c3nc(c(-c4cccc(S(=O)(=O)[O-])c4F)c4ccc([nH]4)c(-c4cccc(S(=O)(=O)[O-])c4F)c4nc(c(-c5cccc(S(=O)(=O)[O-])c5F)c5ccc2[nH]5)C=C4)C=C3)cc1
REMARK SMILES IDX 23 1 22 2 2 3 1 4 3 5 4 6 5 8 6 9 21 10 7 11 14 12 8 13 9 14
REMARK SMILES IDX 13 15 10 16 12 17 11 18 15 19 16 20 20 21 17 22 19 23 18 24
REMARK SMILES IDX 24 25 25 26 26 27 27 28 28 29 29 30 90 31 30 32 89 33 31 34
REMARK SMILES IDX 32 35 33 36 83 37 34 38 88 39 82 40 84 41 35 42 87 43 81 44
REMARK SMILES IDX 80 45 36 47 68 48 48 49 67 50 49 51 52 52 66 53 85 54 50 55
REMARK SMILES IDX 51 56 65 58 86 59 53 60 37 61 38 62 46 63 39 64 41 65 47 66
REMARK SMILES IDX 40 67 42 68 43 69 44 70 45 71 69 72 70 73 78 74 71 75 73 76
REMARK SMILES IDX 79 77 72 78 74 79 75 80 76 81 77 82 54 83 55 84 63 85 56 86
REMARK SMILES IDX 58 87 64 88 57 89 59 90 60 91 61 92 62 93
REMARK H PARENT 4 7 84 46 52 57
REMARK Flexibility Score: inf
ROOT
ATOM      1  C   UNL     1       4.284  -0.225  -0.997  1.00  0.00     0.274 C 
ENDROOT
BRANCH   1   2
ATOM      2  O   UNL     1       2.927  -0.610  -0.694  1.00  0.00    -0.461 OA
BRANCH   2   3
ATOM      3  C   UNL     1       2.401  -0.775   0.546  1.00  0.00     0.325 C 
ATOM      4  O   UNL     1       1.272  -1.253   0.660  1.00  0.00    -0.250 OA
BRANCH   3   5
ATOM      5  C   UNL     1       3.209  -0.379   1.780  1.00  0.00     0.238 C 
BRANCH   5   6
ATOM      6  N   UNL     1       4.287  -1.312   2.054  1.00  0.00    -0.351 N 
ATOM      7  H   UNL     1       4.088  -2.271   2.148  1.00  0.00     0.163 HD
BRANCH   6   8
ATOM      8  C   UNL     1       5.557  -0.882   2.182  1.00  0.00     0.184 A 
ATOM      9  N   UNL     1       5.929   0.370   2.306  1.00  0.00    -0.220 NA
ATOM     10  S   UNL     1       6.840  -2.014   2.044  1.00  0.00    -0.096 S 
ATOM     11  C   UNL     1       7.312   0.468   2.282  1.00  0.00     0.091 A 
ATOM     12  C   UNL     1       7.976  -0.729   2.062  1.00  0.00     0.064 A 
BRANCH  11  13
ATOM     13  C   UNL     1       7.990   1.735   2.521  1.00  0.00     0.002 A 
ATOM     14  C   UNL     1       8.931   2.246   1.617  1.00  0.00     0.010 A 
ATOM     15  C   UNL     1       7.764   2.411   3.726  1.00  0.00     0.010 A 
ATOM     16  C   UNL     1       9.675   3.385   1.940  1.00  0.00     0.001 A 
ATOM     17  C   UNL     1       8.511   3.547   4.049  1.00  0.00     0.001 A 
ATOM     18  C   UNL     1       9.474   4.026   3.161  1.00  0.00     0.000 A 
ENDBRANCH  11  13
BRANCH  12  19
ATOM     19  C   UNL     1       9.395  -1.037   1.924  1.00  0.00    -0.006 A 
ATOM     20  C   UNL     1       9.899  -1.503   0.701  1.00  0.00     0.009 A 
ATOM     21  C   UNL     1      10.267  -0.853   3.002  1.00  0.00     0.009 A 
ATOM     22  C   UNL     1      11.256  -1.798   0.566  1.00  0.00     0.001 A 
ATOM     23  C   UNL     1      11.623  -1.150   2.865  1.00  0.00     0.001 A 
ATOM     24  C   UNL     1      12.116  -1.625   1.649  1.00  0.00     0.000 A 
ENDBRANCH  12  19
ENDBRANCH   6   8
ENDBRANCH   5   6
ENDBRANCH   3   5
ENDBRANCH   2   3
ENDBRANCH   1   2
BRANCH   1  25
ATOM     25  C   UNL     1       4.420   1.252  -1.361  1.00  0.00     0.275 C 
BRANCH  25  26
ATOM     26  O   UNL     1       3.948   2.084  -0.293  1.00  0.00    -0.458 OA
BRANCH  26  27
ATOM     27  C   UNL     1       2.662   2.495  -0.411  1.00  0.00     0.338 C 
ATOM     28  O   UNL     1       1.935   2.337  -1.378  1.00  0.00    -0.246 OA
BRANCH  27  29
ATOM     29  C   UNL     1       2.191   3.009   0.893  1.00  0.00     0.060 A 
ATOM     30  C   UNL     1       0.878   2.703   1.271  1.00  0.00     0.016 A 
ATOM     31  C   UNL     1       3.015   3.754   1.744  1.00  0.00     0.016 A 
ATOM     32  C   UNL     1       0.373   3.183   2.478  1.00  0.00     0.010 A 
ATOM     33  C   UNL     1       2.506   4.230   2.957  1.00  0.00     0.010 A 
ATOM     34  C   UNL     1       1.172   3.976   3.315  1.00  0.00    -0.014 A 
BRANCH  34  35
ATOM     35  C   UNL     1       0.564   4.609   4.509  1.00  0.00     0.031 A 
ATOM     36  C   UNL     1       0.132   6.049   4.444  1.00  0.00     0.074 A 
ATOM     37  C   UNL     1       0.366   3.900   5.636  1.00  0.00     0.049 A 
ATOM     38  N   UNL     1      -0.529   6.752   5.326  1.00  0.00    -0.248 NA
ATOM     39  C   UNL     1       0.494   6.794   3.228  1.00  0.00     0.031 C 
ATOM     40  C   UNL     1       0.782   2.515   5.847  1.00  0.00     0.029 A 
ATOM     41  N   UNL     1      -0.227   4.259   6.820  1.00  0.00    -0.354 N 
ATOM     42  C   UNL     1      -0.674   8.017   4.771  1.00  0.00     0.074 A 
ATOM     43  C   UNL     1       0.008   7.998   3.494  1.00  0.00     0.031 C 
ATOM     44  C   UNL     1       0.448   2.146   7.096  1.00  0.00     0.029 A 
ATOM     45  C   UNL     1      -0.211   3.264   7.768  1.00  0.00     0.049 A 
ATOM     46  H   UNL     1      -0.625   5.146   6.976  1.00  0.00     0.167 HD
ATOM     47  C   UNL     1      -1.344   9.088   5.259  1.00  0.00     0.034 A 
ATOM     48  C   UNL     1      -0.682   3.256   9.031  1.00  0.00     0.034 A 
ATOM     49  C   UNL     1      -2.023   9.112   6.526  1.00  0.00     0.049 A 
ATOM     50  C   UNL     1      -1.428   4.458   9.551  1.00  0.00     0.074 A 
ATOM     51  C   UNL     1      -2.758  10.140   7.090  1.00  0.00     0.029 A 
ATOM     52  N   UNL     1      -2.041   8.065   7.434  1.00  0.00    -0.354 N 
ATOM     53  N   UNL     1      -1.704   5.587   8.944  1.00  0.00    -0.248 NA
ATOM     54  C   UNL     1      -1.974   4.364  10.913  1.00  0.00     0.031 C 
ATOM     55  C   UNL     1      -3.210   9.718   8.346  1.00  0.00     0.029 A 
ATOM     56  C   UNL     1      -2.770   8.421   8.556  1.00  0.00     0.049 A 
ATOM     57  H   UNL     1      -1.600   7.194   7.300  1.00  0.00     0.167 HD
ATOM     58  C   UNL     1      -2.480   6.322   9.835  1.00  0.00     0.074 A 
ATOM     59  C   UNL     1      -2.656   5.497  11.012  1.00  0.00     0.031 C 
ATOM     60  C   UNL     1      -2.985   7.573   9.700  1.00  0.00     0.034 A 
BRANCH  47  61
ATOM     61  C   UNL     1      -1.430  10.308   4.381  1.00  0.00     0.023 A 
ATOM     62  C   UNL     1      -2.280  10.281   3.256  1.00  0.00     0.012 A 
ATOM     63  C   UNL     1      -0.726  11.487   4.689  1.00  0.00     0.148 A 
ATOM     64  C   UNL     1      -2.408  11.400   2.435  1.00  0.00     0.002 A 
ATOM     65  C   UNL     1      -0.888  12.612   3.887  1.00  0.00     0.091 A 
ATOM     66  F   UNL     1       0.095  11.485   5.749  1.00  0.00    -0.205 F 
ATOM     67  C   UNL     1      -1.721  12.567   2.756  1.00  0.00     0.022 A 
BRANCH  65  68
ATOM     68  S   UNL     1      -0.100  14.184   4.252  1.00  0.00     0.127 S 
ATOM     69  O   UNL     1       0.905  14.263   3.193  1.00  0.00    -0.237 OA
ATOM     70  O   UNL     1      -1.211  15.126   4.110  1.00  0.00    -0.237 OA
ATOM     71  O   UNL     1       0.425  14.066   5.605  1.00  0.00    -0.744 OA
ENDBRANCH  65  68
ENDBRANCH  47  61
BRANCH  48  72
ATOM     72  C   UNL     1      -0.520   2.040   9.877  1.00  0.00     0.023 A 
ATOM     73  C   UNL     1      -1.647   1.263  10.207  1.00  0.00     0.012 A 
ATOM     74  C   UNL     1       0.747   1.649  10.353  1.00  0.00     0.148 A 
ATOM     75  C   UNL     1      -1.522   0.141  11.026  1.00  0.00     0.002 A 
ATOM     76  C   UNL     1       0.872   0.500  11.125  1.00  0.00     0.091 A 
ATOM     77  F   UNL     1       1.805   2.412  10.046  1.00  0.00    -0.205 F 
ATOM     78  C   UNL     1      -0.263  -0.246  11.478  1.00  0.00     0.022 A 
BRANCH  76  79
ATOM     79  S   UNL     1       2.471  -0.134  11.643  1.00  0.00     0.127 S 
ATOM     80  O   UNL     1       2.495   0.232  13.056  1.00  0.00    -0.237 OA
ATOM     81  O   UNL     1       2.331  -1.567  11.380  1.00  0.00    -0.237 OA
ATOM     82  O   UNL     1       3.448   0.535  10.794  1.00  0.00    -0.744 OA
ENDBRANCH  76  79
ENDBRANCH  48  72
BRANCH  60  83
ATOM     83  C   UNL     1      -3.794   8.128  10.846  1.00  0.00     0.023 A 
ATOM     84  C   UNL     1      -3.145   8.500  12.040  1.00  0.00     0.012 A 
ATOM     85  C   UNL     1      -5.182   8.336  10.722  1.00  0.00     0.148 A 
ATOM     86  C   UNL     1      -3.869   9.033  13.107  1.00  0.00     0.002 A 
ATOM     87  C   UNL     1      -5.890   8.911  11.773  1.00  0.00     0.091 A 
ATOM     88  F   UNL     1      -5.790   7.960   9.587  1.00  0.00    -0.205 F 
ATOM     89  C   UNL     1      -5.238   9.248  12.970  1.00  0.00     0.022 A 
BRANCH  87  90
ATOM     90  S   UNL     1      -7.639   9.306  11.643  1.00  0.00     0.127 S 
ATOM     91  O   UNL     1      -8.251   8.200  12.376  1.00  0.00    -0.237 OA
ATOM     92  O   UNL     1      -7.720  10.603  12.319  1.00  0.00    -0.237 OA
ATOM     93  O   UNL     1      -7.927   9.356  10.216  1.00  0.00    -0.744 OA
ENDBRANCH  87  90
ENDBRANCH  60  83
ENDBRANCH  34  35
ENDBRANCH  27  29
ENDBRANCH  26  27
ENDBRANCH  25  26
ENDBRANCH   1  25
TORSDOF 18
