REMARK SMILES C[C@](NC(=O)/C=C/c1ccco1)(C(=O)OCCOC(=O)c1ccc(-c2c3nc(c(-c4cccc(S(=O)(=O)[O-])c4F)c4ccc([nH]4)c(-c4cccc(S(=O)(=O)[O-])c4F)c4nc(c(-c5cccc(S(=O)(=O)[O-])c5F)c5ccc2[nH]5)C=C4)C=C3)cc1)C(F)(F)F
REMARK SMILES IDX 16 1 15 2 13 3 14 4 2 5 1 6 84 7 85 8 86 9 87 10 3 11 4 12
REMARK SMILES IDX 5 14 6 15 7 16 8 17 9 18 12 19 10 20 11 21 17 22 18 23 19 24
REMARK SMILES IDX 20 25 21 26 22 27 83 28 23 29 82 30 24 31 25 32 26 33 76 34
REMARK SMILES IDX 27 35 81 36 75 37 77 38 28 39 80 40 74 41 73 42 29 44 61 45
REMARK SMILES IDX 41 46 60 47 42 48 45 49 59 50 78 51 43 52 44 53 58 55 79 56
REMARK SMILES IDX 46 57 30 58 31 59 39 60 32 61 34 62 40 63 33 64 35 65 36 66
REMARK SMILES IDX 37 67 38 68 62 69 63 70 71 71 64 72 66 73 72 74 65 75 67 76
REMARK SMILES IDX 68 77 69 78 70 79 47 80 48 81 56 82 49 83 51 84 57 85 50 86
REMARK SMILES IDX 52 87 53 88 54 89 55 90
REMARK H PARENT 3 13 77 43 45 54
REMARK Flexibility Score: inf
ROOT
ATOM      1  C   UNL     1      -2.838  -0.164  -0.924  1.00  0.00     0.274 C 
ENDROOT
BRANCH   1   2
ATOM      2  O   UNL     1      -1.404  -0.006  -0.843  1.00  0.00    -0.460 OA
BRANCH   2   3
ATOM      3  C   UNL     1      -0.893   1.092  -1.488  1.00  0.00     0.341 C 
ATOM      4  O   UNL     1      -1.598   1.950  -2.003  1.00  0.00    -0.249 OA
BRANCH   3   5
ATOM      5  C   UNL     1       0.620   0.963  -1.710  1.00  0.00     0.231 C 
ATOM      6  C   UNL     1       0.786  -0.022  -2.891  1.00  0.00     0.058 C 
BRANCH   5   7
ATOM      7  C   UNL     1       1.113   2.336  -2.195  1.00  0.00     0.422 C 
ATOM      8  F   UNL     1       0.875   3.322  -1.310  1.00  0.00    -0.168 F 
ATOM      9  F   UNL     1       2.449   2.299  -2.435  1.00  0.00    -0.168 F 
ATOM     10  F   UNL     1       0.544   2.695  -3.372  1.00  0.00    -0.168 F 
ENDBRANCH   5   7
BRANCH   5  11
ATOM     11  N   UNL     1       1.321   0.303  -0.555  1.00  0.00    -0.329 N 
ATOM     12  C   UNL     1       2.054   0.724   0.504  1.00  0.00     0.245 C 
ATOM     13  H   UNL     1       1.222  -0.676  -0.572  1.00  0.00     0.165 HD
ATOM     14  O   UNL     1       2.453  -0.109   1.314  1.00  0.00    -0.270 OA
BRANCH  12  15
ATOM     15  C   UNL     1       2.366   2.140   0.710  1.00  0.00     0.075 C 
ATOM     16  C   UNL     1       3.462   2.698   0.177  1.00  0.00     0.053 C 
BRANCH  16  17
ATOM     17  C   UNL     1       3.770   4.057   0.461  1.00  0.00     0.126 A 
ATOM     18  C   UNL     1       5.010   4.656   0.641  1.00  0.00     0.050 A 
ATOM     19  O   UNL     1       2.816   5.040   0.603  1.00  0.00    -0.465 OA
ATOM     20  C   UNL     1       4.796   6.026   0.930  1.00  0.00     0.042 A 
ATOM     21  C   UNL     1       3.438   6.211   0.885  1.00  0.00     0.195 A 
ENDBRANCH  16  17
ENDBRANCH  12  15
ENDBRANCH   5  11
ENDBRANCH   3   5
ENDBRANCH   2   3
ENDBRANCH   1   2
BRANCH   1  22
ATOM     22  C   UNL     1      -3.544   0.108   0.402  1.00  0.00     0.275 C 
BRANCH  22  23
ATOM     23  O   UNL     1      -3.250   1.423   0.896  1.00  0.00    -0.458 OA
BRANCH  23  24
ATOM     24  C   UNL     1      -2.260   1.449   1.813  1.00  0.00     0.338 C 
ATOM     25  O   UNL     1      -1.625   0.494   2.242  1.00  0.00    -0.246 OA
BRANCH  24  26
ATOM     26  C   UNL     1      -1.938   2.828   2.186  1.00  0.00     0.060 A 
ATOM     27  C   UNL     1      -0.892   3.448   1.511  1.00  0.00     0.016 A 
ATOM     28  C   UNL     1      -2.494   3.412   3.324  1.00  0.00     0.016 A 
ATOM     29  C   UNL     1      -0.311   4.593   2.045  1.00  0.00     0.010 A 
ATOM     30  C   UNL     1      -1.944   4.600   3.822  1.00  0.00     0.010 A 
ATOM     31  C   UNL     1      -0.799   5.162   3.229  1.00  0.00    -0.014 A 
BRANCH  31  32
ATOM     32  C   UNL     1      -0.023   6.246   3.899  1.00  0.00     0.031 A 
ATOM     33  C   UNL     1       0.573   6.010   5.266  1.00  0.00     0.074 A 
ATOM     34  C   UNL     1       0.212   7.416   3.273  1.00  0.00     0.049 A 
ATOM     35  N   UNL     1       1.208   6.846   6.048  1.00  0.00    -0.248 NA
ATOM     36  C   UNL     1       0.424   4.660   5.837  1.00  0.00     0.031 C 
ATOM     37  C   UNL     1      -0.266   7.773   1.937  1.00  0.00     0.029 A 
ATOM     38  N   UNL     1       0.931   8.517   3.672  1.00  0.00    -0.354 N 
ATOM     39  C   UNL     1       1.449   6.156   7.231  1.00  0.00     0.074 A 
ATOM     40  C   UNL     1       0.914   4.823   7.058  1.00  0.00     0.031 C 
ATOM     41  C   UNL     1       0.210   8.984   1.609  1.00  0.00     0.029 A 
ATOM     42  C   UNL     1       0.981   9.517   2.729  1.00  0.00     0.049 A 
ATOM     43  H   UNL     1       1.371   8.584   4.551  1.00  0.00     0.167 HD
ATOM     44  C   UNL     1       2.066   6.585   8.358  1.00  0.00     0.034 A 
ATOM     45  C   UNL     1       1.575  10.727   2.762  1.00  0.00     0.034 A 
ATOM     46  C   UNL     1       2.700   7.867   8.498  1.00  0.00     0.049 A 
ATOM     47  C   UNL     1       2.320  11.151   4.000  1.00  0.00     0.074 A 
ATOM     48  C   UNL     1       3.368   8.382   9.596  1.00  0.00     0.029 A 
ATOM     49  N   UNL     1       2.777   8.823   7.499  1.00  0.00    -0.354 N 
ATOM     50  N   UNL     1       2.557  10.472   5.095  1.00  0.00    -0.248 NA
ATOM     51  C   UNL     1       2.891  12.507   3.998  1.00  0.00     0.031 C 
ATOM     52  C   UNL     1       3.857   9.649   9.256  1.00  0.00     0.029 A 
ATOM     53  C   UNL     1       3.493   9.920   7.947  1.00  0.00     0.049 A 
ATOM     54  H   UNL     1       2.381   8.736   6.602  1.00  0.00     0.167 HD
ATOM     55  C   UNL     1       3.316  11.310   5.906  1.00  0.00     0.074 A 
ATOM     56  C   UNL     1       3.531  12.532   5.160  1.00  0.00     0.031 C 
ATOM     57  C   UNL     1       3.764  11.099   7.168  1.00  0.00     0.034 A 
BRANCH  44  58
ATOM     58  C   UNL     1       2.104   5.646   9.533  1.00  0.00     0.023 A 
ATOM     59  C   UNL     1       3.023   4.578   9.551  1.00  0.00     0.012 A 
ATOM     60  C   UNL     1       1.261   5.852  10.643  1.00  0.00     0.148 A 
ATOM     61  C   UNL     1       3.083   3.714  10.644  1.00  0.00     0.002 A 
ATOM     62  C   UNL     1       1.352   5.008  11.745  1.00  0.00     0.091 A 
ATOM     63  F   UNL     1       0.372   6.854  10.597  1.00  0.00    -0.205 F 
ATOM     64  C   UNL     1       2.257   3.935  11.744  1.00  0.00     0.022 A 
BRANCH  62  65
ATOM     65  S   UNL     1       0.371   5.275  13.227  1.00  0.00     0.127 S 
ATOM     66  O   UNL     1      -0.736   4.343  13.023  1.00  0.00    -0.237 OA
ATOM     67  O   UNL     1       1.298   4.894  14.294  1.00  0.00    -0.237 OA
ATOM     68  O   UNL     1       0.023   6.689  13.214  1.00  0.00    -0.744 OA
ENDBRANCH  62  65
ENDBRANCH  44  58
BRANCH  45  69
ATOM     69  C   UNL     1       1.551  11.600   1.554  1.00  0.00     0.023 A 
ATOM     70  C   UNL     1       2.751  11.823   0.850  1.00  0.00     0.012 A 
ATOM     71  C   UNL     1       0.360  12.179   1.078  1.00  0.00     0.148 A 
ATOM     72  C   UNL     1       2.767  12.619  -0.295  1.00  0.00     0.002 A 
ATOM     73  C   UNL     1       0.373  12.923  -0.097  1.00  0.00     0.091 A 
ATOM     74  F   UNL     1      -0.768  11.987   1.776  1.00  0.00    -0.205 F 
ATOM     75  C   UNL     1       1.577  13.156  -0.778  1.00  0.00     0.022 A 
BRANCH  73  76
ATOM     76  S   UNL     1      -1.145  13.519  -0.852  1.00  0.00     0.127 S 
ATOM     77  O   UNL     1      -1.182  14.906  -0.398  1.00  0.00    -0.237 OA
ATOM     78  O   UNL     1      -0.873  13.346  -2.280  1.00  0.00    -0.237 OA
ATOM     79  O   UNL     1      -2.191  12.645  -0.338  1.00  0.00    -0.744 OA
ENDBRANCH  73  76
ENDBRANCH  45  69
BRANCH  57  80
ATOM     80  C   UNL     1       4.551  12.203   7.823  1.00  0.00     0.023 A 
ATOM     81  C   UNL     1       3.874  13.339   8.308  1.00  0.00     0.012 A 
ATOM     82  C   UNL     1       5.940  12.086   8.025  1.00  0.00     0.148 A 
ATOM     83  C   UNL     1       4.572  14.354   8.962  1.00  0.00     0.002 A 
ATOM     84  C   UNL     1       6.622  13.085   8.711  1.00  0.00     0.091 A 
ATOM     85  F   UNL     1       6.574  11.010   7.535  1.00  0.00    -0.205 F 
ATOM     86  C   UNL     1       5.942  14.223   9.174  1.00  0.00     0.022 A 
BRANCH  84  87
ATOM     87  S   UNL     1       8.373  12.940   9.090  1.00  0.00     0.127 S 
ATOM     88  O   UNL     1       8.983  13.670   7.981  1.00  0.00    -0.237 OA
ATOM     89  O   UNL     1       8.477  13.607  10.389  1.00  0.00    -0.237 OA
ATOM     90  O   UNL     1       8.641  11.508   9.134  1.00  0.00    -0.744 OA
ENDBRANCH  84  87
ENDBRANCH  57  80
ENDBRANCH  31  32
ENDBRANCH  24  26
ENDBRANCH  23  24
ENDBRANCH  22  23
ENDBRANCH   1  22
TORSDOF 18
