REMARK SMILES Cc1ccc(C(=O)NC2CC2)cc1NC(=O)[C@@H]1[C@@H](C(=O)OCCOC(=O)c2ccc(-c3c4nc(c(-c5cccc(S(=O)(=O)[O-])c5F)c5ccc([nH]5)c(-c5cccc(S(=O)(=O)[O-])c5F)c5nc(c(-c6cccc(S(=O)(=O)[O-])c6F)c6ccc3[nH]6)C=C5)C=C4)cc2)[C@H]2C=C[C@@H]1C2
REMARK SMILES IDX 22 1 21 2 19 3 20 4 18 5 17 6 93 7 90 8 92 9 94 10 91 11
REMARK SMILES IDX 15 12 14 13 16 15 13 16 1 17 2 18 3 19 4 20 12 21 5 22 6 23
REMARK SMILES IDX 7 24 8 25 9 27 10 28 11 29 23 30 24 31 25 32 26 33 27 34
REMARK SMILES IDX 28 35 89 36 29 37 88 38 30 39 31 40 32 41 82 42 33 43 87 44
REMARK SMILES IDX 81 45 83 46 34 47 86 48 80 49 79 50 35 52 67 53 47 54 66 55
REMARK SMILES IDX 48 56 51 57 65 58 84 59 49 60 50 61 64 63 85 64 52 65 36 66
REMARK SMILES IDX 37 67 45 68 38 69 40 70 46 71 39 72 41 73 42 74 43 75 44 76
REMARK SMILES IDX 68 77 69 78 77 79 70 80 72 81 78 82 71 83 73 84 74 85 75 86
REMARK SMILES IDX 76 87 53 88 54 89 62 90 55 91 57 92 63 93 56 94 58 95 59 96
REMARK SMILES IDX 60 97 61 98
REMARK H PARENT 14 14 8 26 83 51 51 62
REMARK Flexibility Score: inf
ROOT
ATOM      1  C   UNL     1      -2.650   8.268  -0.787  1.00  0.00     0.274 C 
ENDROOT
BRANCH   1   2
ATOM      2  O   UNL     1      -1.685   7.364  -0.190  1.00  0.00    -0.462 OA
BRANCH   2   3
ATOM      3  C   UNL     1      -2.228   6.654   0.858  1.00  0.00     0.310 C 
ATOM      4  O   UNL     1      -3.406   6.792   1.173  1.00  0.00    -0.252 OA
BRANCH   3   5
ATOM      5  C   UNL     1      -1.223   5.817   1.668  1.00  0.00     0.119 C 
ATOM      6  C   UNL     1      -0.964   4.249   1.419  1.00  0.00     0.100 C 
ATOM      7  C   UNL     1      -1.235   3.658   2.836  1.00  0.00     0.025 C 
ATOM      8  C   UNL     1      -1.778   5.795   3.133  1.00  0.00     0.027 C 
ATOM      9  C   UNL     1      -2.723   3.683   3.036  1.00  0.00    -0.027 C 
ATOM     10  C   UNL     1      -0.829   4.798   3.773  1.00  0.00     0.017 C 
ATOM     11  C   UNL     1      -3.054   4.966   3.217  1.00  0.00    -0.027 C 
BRANCH   6  12
ATOM     12  C   UNL     1       0.464   3.857   1.013  1.00  0.00     0.228 C 
ATOM     13  N   UNL     1       0.934   2.571   0.876  1.00  0.00    -0.326 N 
ATOM     14  H   UNL     1       1.899   2.567   0.680  1.00  0.00     0.169 HD
ATOM     15  O   UNL     1       1.291   4.755   0.794  1.00  0.00    -0.274 OA
BRANCH  13  16
ATOM     16  C   UNL     1       0.421   1.241   0.938  1.00  0.00     0.044 A 
ATOM     17  C   UNL     1       2.728   0.185   0.349  1.00  0.00     0.046 C 
ATOM     18  C   UNL     1       1.268   0.124   0.709  1.00  0.00    -0.027 A 
ATOM     19  C   UNL     1       0.734  -1.191   0.715  1.00  0.00     0.006 A 
ATOM     20  C   UNL     1      -0.629  -1.413   0.834  1.00  0.00     0.014 A 
ATOM     21  C   UNL     1      -0.927   0.967   1.136  1.00  0.00     0.040 A 
ATOM     22  C   UNL     1      -1.467  -0.318   0.970  1.00  0.00     0.041 A 
BRANCH  22  23
ATOM     23  C   UNL     1      -2.923  -0.538   0.777  1.00  0.00     0.251 C 
ATOM     24  O   UNL     1      -3.448  -1.569   1.197  1.00  0.00    -0.269 OA
ATOM     25  N   UNL     1      -3.663   0.401   0.092  1.00  0.00    -0.349 N 
ATOM     26  H   UNL     1      -4.605   0.161  -0.064  1.00  0.00     0.164 HD
BRANCH  25  27
ATOM     27  C   UNL     1      -3.264   1.667  -0.423  1.00  0.00     0.082 C 
ATOM     28  C   UNL     1      -2.201   1.948  -1.385  1.00  0.00     0.027 C 
ATOM     29  C   UNL     1      -3.623   1.960  -1.869  1.00  0.00     0.027 C 
ENDBRANCH  25  27
ENDBRANCH  22  23
ENDBRANCH  13  16
ENDBRANCH   6  12
ENDBRANCH   3   5
ENDBRANCH   2   3
ENDBRANCH   1   2
BRANCH   1  30
ATOM     30  C   UNL     1      -2.350   8.733  -2.221  1.00  0.00     0.275 C 
BRANCH  30  31
ATOM     31  O   UNL     1      -1.514   7.876  -3.028  1.00  0.00    -0.458 OA
BRANCH  31  32
ATOM     32  C   UNL     1      -1.931   6.721  -3.593  1.00  0.00     0.338 C 
ATOM     33  O   UNL     1      -1.309   6.127  -4.467  1.00  0.00    -0.246 OA
BRANCH  32  34
ATOM     34  C   UNL     1      -3.153   6.151  -3.039  1.00  0.00     0.060 A 
ATOM     35  C   UNL     1      -3.020   5.380  -1.890  1.00  0.00     0.016 A 
ATOM     36  C   UNL     1      -4.399   6.432  -3.597  1.00  0.00     0.016 A 
ATOM     37  C   UNL     1      -4.155   4.939  -1.239  1.00  0.00     0.010 A 
ATOM     38  C   UNL     1      -5.527   5.898  -2.998  1.00  0.00     0.010 A 
ATOM     39  C   UNL     1      -5.392   5.113  -1.849  1.00  0.00    -0.014 A 
BRANCH  39  40
ATOM     40  C   UNL     1      -6.540   4.351  -1.382  1.00  0.00     0.031 A 
ATOM     41  C   UNL     1      -6.977   4.482   0.048  1.00  0.00     0.074 A 
ATOM     42  C   UNL     1      -7.014   3.387  -2.217  1.00  0.00     0.049 A 
ATOM     43  N   UNL     1      -7.544   3.544   0.732  1.00  0.00    -0.248 NA
ATOM     44  C   UNL     1      -6.679   5.662   0.874  1.00  0.00     0.031 C 
ATOM     45  C   UNL     1      -8.242   2.642  -2.043  1.00  0.00     0.029 A 
ATOM     46  N   UNL     1      -6.388   2.725  -3.308  1.00  0.00    -0.354 N 
ATOM     47  C   UNL     1      -7.990   4.113   1.918  1.00  0.00     0.074 A 
ATOM     48  C   UNL     1      -7.272   5.353   2.034  1.00  0.00     0.031 C 
ATOM     49  C   UNL     1      -8.148   1.497  -2.735  1.00  0.00     0.029 A 
ATOM     50  C   UNL     1      -6.781   1.379  -3.241  1.00  0.00     0.049 A 
ATOM     51  H   UNL     1      -5.794   3.132  -3.980  1.00  0.00     0.167 HD
ATOM     52  C   UNL     1      -9.098   3.603   2.534  1.00  0.00     0.034 A 
ATOM     53  C   UNL     1      -6.022   0.231  -3.178  1.00  0.00     0.034 A 
ATOM     54  C   UNL     1      -9.567   2.441   1.786  1.00  0.00     0.049 A 
ATOM     55  C   UNL     1      -6.570  -0.647  -2.044  1.00  0.00     0.074 A 
ATOM     56  C   UNL     1     -10.470   2.350   0.739  1.00  0.00     0.029 A 
ATOM     57  N   UNL     1      -8.868   1.246   1.827  1.00  0.00    -0.354 N 
ATOM     58  N   UNL     1      -7.158  -0.158  -0.975  1.00  0.00    -0.248 NA
ATOM     59  C   UNL     1      -6.630  -2.104  -2.075  1.00  0.00     0.031 C 
ATOM     60  C   UNL     1     -10.259   1.109   0.094  1.00  0.00     0.029 A 
ATOM     61  C   UNL     1      -9.248   0.441   0.767  1.00  0.00     0.049 A 
ATOM     62  H   UNL     1      -8.199   1.004   2.508  1.00  0.00     0.167 HD
ATOM     63  C   UNL     1      -7.844  -1.164  -0.322  1.00  0.00     0.074 A 
ATOM     64  C   UNL     1      -7.415  -2.371  -1.012  1.00  0.00     0.031 C 
ATOM     65  C   UNL     1      -8.775  -0.928   0.664  1.00  0.00     0.034 A 
BRANCH  52  66
ATOM     66  C   UNL     1     -10.012   4.388   3.473  1.00  0.00     0.023 A 
ATOM     67  C   UNL     1     -11.395   4.080   3.424  1.00  0.00     0.012 A 
ATOM     68  C   UNL     1      -9.650   5.452   4.330  1.00  0.00     0.148 A 
ATOM     69  C   UNL     1     -12.372   4.859   4.053  1.00  0.00     0.002 A 
ATOM     70  C   UNL     1     -10.630   6.258   4.933  1.00  0.00     0.091 A 
ATOM     71  F   UNL     1      -8.357   5.661   4.604  1.00  0.00    -0.205 F 
ATOM     72  C   UNL     1     -11.992   5.973   4.779  1.00  0.00     0.022 A 
BRANCH  70  73
ATOM     73  S   UNL     1     -10.244   7.744   5.879  1.00  0.00     0.127 S 
ATOM     74  O   UNL     1     -10.958   8.779   5.128  1.00  0.00    -0.237 OA
ATOM     75  O   UNL     1     -10.816   7.444   7.190  1.00  0.00    -0.237 OA
ATOM     76  O   UNL     1      -8.792   7.877   5.851  1.00  0.00    -0.744 OA
ENDBRANCH  70  73
ENDBRANCH  52  66
BRANCH  53  77
ATOM     77  C   UNL     1      -4.689   0.085  -3.901  1.00  0.00     0.023 A 
ATOM     78  C   UNL     1      -4.625   0.686  -5.184  1.00  0.00     0.012 A 
ATOM     79  C   UNL     1      -3.479  -0.508  -3.435  1.00  0.00     0.148 A 
ATOM     80  C   UNL     1      -3.434   0.815  -5.908  1.00  0.00     0.002 A 
ATOM     81  C   UNL     1      -2.267  -0.340  -4.152  1.00  0.00     0.091 A 
ATOM     82  F   UNL     1      -3.498  -1.193  -2.284  1.00  0.00    -0.205 F 
ATOM     83  C   UNL     1      -2.250   0.338  -5.376  1.00  0.00     0.022 A 
BRANCH  81  84
ATOM     84  S   UNL     1      -0.620  -0.807  -3.541  1.00  0.00     0.127 S 
ATOM     85  O   UNL     1      -0.304  -1.981  -4.350  1.00  0.00    -0.237 OA
ATOM     86  O   UNL     1       0.184   0.378  -3.851  1.00  0.00    -0.237 OA
ATOM     87  O   UNL     1      -0.791  -1.060  -2.122  1.00  0.00    -0.744 OA
ENDBRANCH  81  84
ENDBRANCH  53  77
BRANCH  65  88
ATOM     88  C   UNL     1      -9.457  -1.925   1.606  1.00  0.00     0.023 A 
ATOM     89  C   UNL     1      -8.993  -3.235   1.789  1.00  0.00     0.012 A 
ATOM     90  C   UNL     1     -10.496  -1.500   2.497  1.00  0.00     0.148 A 
ATOM     91  C   UNL     1      -9.517  -4.071   2.788  1.00  0.00     0.002 A 
ATOM     92  C   UNL     1     -10.922  -2.286   3.560  1.00  0.00     0.091 A 
ATOM     93  F   UNL     1     -11.120  -0.329   2.312  1.00  0.00    -0.205 F 
ATOM     94  C   UNL     1     -10.450  -3.586   3.698  1.00  0.00     0.022 A 
BRANCH  92  95
ATOM     95  S   UNL     1     -11.942  -1.592   4.876  1.00  0.00     0.127 S 
ATOM     96  O   UNL     1     -13.282  -2.021   4.483  1.00  0.00    -0.237 OA
ATOM     97  O   UNL     1     -11.412  -2.262   6.065  1.00  0.00    -0.237 OA
ATOM     98  O   UNL     1     -11.693  -0.157   4.842  1.00  0.00    -0.744 OA
ENDBRANCH  92  95
ENDBRANCH  65  88
ENDBRANCH  39  40
ENDBRANCH  32  34
ENDBRANCH  31  32
ENDBRANCH  30  31
ENDBRANCH   1  30
TORSDOF 18
