REMARK SMILES Cc1ccc(-c2cc(Cl)cc3c2O[C@@H](C(F)(F)F)C(C(=O)OCCOC(=O)c2ccc(-c4c5nc(c(-c6cccc(S(=O)(=O)[O-])c6F)c6ccc([nH]6)c(-c6cccc(S(=O)(=O)[O-])c6F)c6nc(c(-c7cccc(S(=O)(=O)[O-])c7F)c7ccc4[nH]7)C=C6)C=C5)cc2)=C3)cc1
REMARK SMILES IDX 24 1 23 2 22 3 20 4 21 5 19 6 6 7 7 8 12 9 8 10 11 11 13 12
REMARK SMILES IDX 9 13 10 14 91 15 14 16 5 17 1 18 2 19 3 20 93 21 4 22 92 23
REMARK SMILES IDX 15 24 16 25 17 26 18 27 25 28 26 29 27 30 28 31 29 32 90 33
REMARK SMILES IDX 30 34 89 35 31 36 32 37 33 38 83 39 34 40 88 41 82 42 84 43
REMARK SMILES IDX 35 44 87 45 81 46 80 47 36 49 68 50 48 51 67 52 49 53 52 54
REMARK SMILES IDX 66 55 85 56 50 57 51 58 65 60 86 61 53 62 37 63 38 64 46 65
REMARK SMILES IDX 39 66 41 67 47 68 40 69 42 70 43 71 44 72 45 73 69 74 70 75
REMARK SMILES IDX 78 76 71 77 73 78 79 79 72 80 74 81 75 82 76 83 77 84 54 85
REMARK SMILES IDX 55 86 63 87 56 88 58 89 64 90 57 91 59 92 60 93 61 94 62 95
REMARK H PARENT 84 48 52 59
REMARK Flexibility Score: inf
ROOT
ATOM      1  C   UNL     1      -1.972  -4.758   4.319  1.00  0.00     0.275 C 
ENDROOT
BRANCH   1   2
ATOM      2  C   UNL     1      -3.105  -3.872   4.901  1.00  0.00     0.275 C 
BRANCH   2   3
ATOM      3  O   UNL     1      -3.978  -3.491   3.818  1.00  0.00    -0.459 OA
BRANCH   3   4
ATOM      4  C   UNL     1      -5.089  -2.734   4.034  1.00  0.00     0.338 C 
ATOM      5  O   UNL     1      -5.463  -2.267   5.075  1.00  0.00    -0.246 OA
BRANCH   4   6
ATOM      6  C   UNL     1      -5.739  -2.614   2.697  1.00  0.00     0.087 C 
ATOM      7  C   UNL     1      -4.157  -1.980  -1.006  1.00  0.00     0.026 A 
ATOM      8  C   UNL     1      -4.835  -1.158  -1.923  1.00  0.00     0.033 A 
ATOM      9  C   UNL     1      -4.895  -2.358   0.134  1.00  0.00     0.135 A 
ATOM     10  C   UNL     1      -6.012  -0.498  -1.556  1.00  0.00     0.042 A 
ATOM     11  C   UNL     1      -5.913  -1.494   0.623  1.00  0.00     0.019 A 
ATOM     12  O   UNL     1      -4.632  -3.551   0.817  1.00  0.00    -0.475 OA
ATOM     13  Cl  UNL     1      -6.729   0.593  -2.678  1.00  0.00    -0.084 Cl
ATOM     14  C   UNL     1      -6.500  -0.593  -0.254  1.00  0.00     0.032 A 
ATOM     15  C   UNL     1      -6.096  -1.459   2.107  1.00  0.00     0.027 C 
ATOM     16  C   UNL     1      -5.699  -3.805   1.784  1.00  0.00     0.316 C 
BRANCH   7  17
ATOM     17  C   UNL     1      -2.669  -1.774  -0.960  1.00  0.00    -0.015 A 
ATOM     18  C   UNL     1       1.543  -0.813  -0.322  1.00  0.00     0.044 C 
ATOM     19  C   UNL     1       0.104  -1.136  -0.610  1.00  0.00    -0.051 A 
ATOM     20  C   UNL     1      -0.323  -2.451  -0.849  1.00  0.00     0.004 A 
ATOM     21  C   UNL     1      -0.855  -0.130  -0.580  1.00  0.00     0.004 A 
ATOM     22  C   UNL     1      -1.693  -2.767  -1.030  1.00  0.00     0.009 A 
ATOM     23  C   UNL     1      -2.205  -0.448  -0.754  1.00  0.00     0.009 A 
ENDBRANCH   7  17
BRANCH  16  24
ATOM     24  C   UNL     1      -5.766  -5.176   2.485  1.00  0.00     0.430 C 
ATOM     25  F   UNL     1      -6.533  -5.108   3.608  1.00  0.00    -0.167 F 
ATOM     26  F   UNL     1      -6.380  -6.089   1.686  1.00  0.00    -0.167 F 
ATOM     27  F   UNL     1      -4.583  -5.707   2.844  1.00  0.00    -0.167 F 
ENDBRANCH  16  24
ENDBRANCH   4   6
ENDBRANCH   3   4
ENDBRANCH   2   3
ENDBRANCH   1   2
BRANCH   1  28
ATOM     28  O   UNL     1      -0.944  -4.026   3.626  1.00  0.00    -0.458 OA
BRANCH  28  29
ATOM     29  C   UNL     1      -1.394  -3.367   2.524  1.00  0.00     0.338 C 
ATOM     30  O   UNL     1      -1.900  -3.914   1.566  1.00  0.00    -0.246 OA
BRANCH  29  31
ATOM     31  C   UNL     1      -1.443  -1.932   2.903  1.00  0.00     0.060 A 
ATOM     32  C   UNL     1      -2.549  -1.166   2.511  1.00  0.00     0.016 A 
ATOM     33  C   UNL     1      -0.627  -1.517   3.948  1.00  0.00     0.016 A 
ATOM     34  C   UNL     1      -2.961  -0.070   3.252  1.00  0.00     0.010 A 
ATOM     35  C   UNL     1      -1.071  -0.490   4.737  1.00  0.00     0.010 A 
ATOM     36  C   UNL     1      -2.243   0.216   4.398  1.00  0.00    -0.014 A 
BRANCH  36  37
ATOM     37  C   UNL     1      -2.456   1.393   5.213  1.00  0.00     0.031 A 
ATOM     38  C   UNL     1      -3.106   1.330   6.532  1.00  0.00     0.074 A 
ATOM     39  C   UNL     1      -1.519   2.298   4.876  1.00  0.00     0.049 A 
ATOM     40  N   UNL     1      -3.065   2.294   7.383  1.00  0.00    -0.248 NA
ATOM     41  C   UNL     1      -3.889   0.189   6.990  1.00  0.00     0.031 C 
ATOM     42  C   UNL     1      -0.710   3.144   5.729  1.00  0.00     0.029 A 
ATOM     43  N   UNL     1      -1.156   2.653   3.569  1.00  0.00    -0.354 N 
ATOM     44  C   UNL     1      -3.604   1.835   8.570  1.00  0.00     0.074 A 
ATOM     45  C   UNL     1      -4.192   0.559   8.241  1.00  0.00     0.031 C 
ATOM     46  C   UNL     1      -0.120   4.065   4.945  1.00  0.00     0.029 A 
ATOM     47  C   UNL     1      -0.791   3.994   3.649  1.00  0.00     0.049 A 
ATOM     48  H   UNL     1      -1.159   2.079   2.769  1.00  0.00     0.167 HD
ATOM     49  C   UNL     1      -3.358   2.543   9.709  1.00  0.00     0.034 A 
ATOM     50  C   UNL     1      -1.599   4.971   3.139  1.00  0.00     0.034 A 
ATOM     51  C   UNL     1      -2.608   3.768   9.383  1.00  0.00     0.049 A 
ATOM     52  C   UNL     1      -2.041   5.995   4.171  1.00  0.00     0.074 A 
ATOM     53  C   UNL     1      -1.262   4.092   9.368  1.00  0.00     0.029 A 
ATOM     54  N   UNL     1      -3.252   4.772   8.684  1.00  0.00    -0.354 N 
ATOM     55  N   UNL     1      -1.868   5.895   5.459  1.00  0.00    -0.248 NA
ATOM     56  C   UNL     1      -2.867   7.138   3.793  1.00  0.00     0.031 C 
ATOM     57  C   UNL     1      -1.107   5.299   8.618  1.00  0.00     0.029 A 
ATOM     58  C   UNL     1      -2.361   5.724   8.215  1.00  0.00     0.049 A 
ATOM     59  H   UNL     1      -4.225   4.806   8.538  1.00  0.00     0.167 HD
ATOM     60  C   UNL     1      -2.674   6.806   6.082  1.00  0.00     0.074 A 
ATOM     61  C   UNL     1      -3.254   7.582   4.997  1.00  0.00     0.031 C 
ATOM     62  C   UNL     1      -2.897   6.826   7.429  1.00  0.00     0.034 A 
BRANCH  49  63
ATOM     63  C   UNL     1      -3.545   2.075  11.148  1.00  0.00     0.023 A 
ATOM     64  C   UNL     1      -2.868   2.823  12.143  1.00  0.00     0.012 A 
ATOM     65  C   UNL     1      -4.257   0.944  11.615  1.00  0.00     0.148 A 
ATOM     66  C   UNL     1      -2.810   2.431  13.485  1.00  0.00     0.002 A 
ATOM     67  C   UNL     1      -4.170   0.526  12.951  1.00  0.00     0.091 A 
ATOM     68  F   UNL     1      -5.064   0.277  10.791  1.00  0.00    -0.205 F 
ATOM     69  C   UNL     1      -3.438   1.265  13.885  1.00  0.00     0.022 A 
BRANCH  67  70
ATOM     70  S   UNL     1      -4.921  -0.998  13.560  1.00  0.00     0.127 S 
ATOM     71  O   UNL     1      -3.748  -1.762  13.990  1.00  0.00    -0.237 OA
ATOM     72  O   UNL     1      -5.765  -0.521  14.655  1.00  0.00    -0.237 OA
ATOM     73  O   UNL     1      -5.642  -1.583  12.437  1.00  0.00    -0.744 OA
ENDBRANCH  67  70
ENDBRANCH  49  63
BRANCH  50  74
ATOM     74  C   UNL     1      -2.548   4.534   2.060  1.00  0.00     0.023 A 
ATOM     75  C   UNL     1      -2.057   4.094   0.812  1.00  0.00     0.012 A 
ATOM     76  C   UNL     1      -3.909   4.317   2.361  1.00  0.00     0.148 A 
ATOM     77  C   UNL     1      -2.895   3.437  -0.096  1.00  0.00     0.002 A 
ATOM     78  C   UNL     1      -4.734   3.665   1.456  1.00  0.00     0.091 A 
ATOM     79  F   UNL     1      -4.376   4.708   3.552  1.00  0.00    -0.205 F 
ATOM     80  C   UNL     1      -4.230   3.211   0.230  1.00  0.00     0.022 A 
BRANCH  78  81
ATOM     81  S   UNL     1      -6.445   3.307   1.859  1.00  0.00     0.127 S 
ATOM     82  O   UNL     1      -7.137   4.407   1.195  1.00  0.00    -0.237 OA
ATOM     83  O   UNL     1      -6.632   1.997   1.241  1.00  0.00    -0.237 OA
ATOM     84  O   UNL     1      -6.499   3.281   3.311  1.00  0.00    -0.744 OA
ENDBRANCH  78  81
ENDBRANCH  50  74
BRANCH  62  85
ATOM     85  C   UNL     1      -3.721   7.912   8.078  1.00  0.00     0.023 A 
ATOM     86  C   UNL     1      -3.637   9.237   7.600  1.00  0.00     0.012 A 
ATOM     87  C   UNL     1      -4.509   7.692   9.232  1.00  0.00     0.148 A 
ATOM     88  C   UNL     1      -4.392  10.269   8.157  1.00  0.00     0.002 A 
ATOM     89  C   UNL     1      -5.184   8.742   9.842  1.00  0.00     0.091 A 
ATOM     90  F   UNL     1      -4.622   6.462   9.741  1.00  0.00    -0.205 F 
ATOM     91  C   UNL     1      -5.163  10.022   9.283  1.00  0.00     0.022 A 
BRANCH  89  92
ATOM     92  S   UNL     1      -6.034   8.557  11.415  1.00  0.00     0.127 S 
ATOM     93  O   UNL     1      -5.279   9.484  12.261  1.00  0.00    -0.237 OA
ATOM     94  O   UNL     1      -7.386   9.003  11.079  1.00  0.00    -0.237 OA
ATOM     95  O   UNL     1      -5.915   7.156  11.786  1.00  0.00    -0.744 OA
ENDBRANCH  89  92
ENDBRANCH  62  85
ENDBRANCH  36  37
ENDBRANCH  29  31
ENDBRANCH  28  29
ENDBRANCH   1  28
TORSDOF 16
