REMARK SMILES O=C(CN1C(=O)/C(=C\c2c(F)cccc2Cl)Oc2ccccc21)OCCOC(=O)c1ccc(-c2c3nc(c(-c4cccc(S(=O)(=O)[O-])c4F)c4ccc([nH]4)c(-c4cccc(S(=O)(=O)[O-])c4F)c4nc(c(-c5cccc(S(=O)(=O)[O-])c5F)c5ccc2[nH]5)C=C4)C=C3)cc1
REMARK SMILES IDX 26 1 25 2 24 3 2 4 1 5 3 6 4 7 5 8 23 9 6 10 7 11 18 12
REMARK SMILES IDX 22 13 8 14 17 15 19 16 21 17 20 18 9 19 10 20 15 21 11 22
REMARK SMILES IDX 12 23 14 24 16 25 13 26 27 27 28 28 29 29 30 30 31 31 92 32
REMARK SMILES IDX 32 33 91 34 33 35 34 36 35 37 85 38 36 39 90 40 84 41 86 42
REMARK SMILES IDX 37 43 89 44 83 45 82 46 38 48 70 49 50 50 69 51 51 52 54 53
REMARK SMILES IDX 68 54 87 55 52 56 53 57 67 59 88 60 55 61 39 62 40 63 48 64
REMARK SMILES IDX 41 65 43 66 49 67 42 68 44 69 45 70 46 71 47 72 71 73 72 74
REMARK SMILES IDX 80 75 73 76 75 77 81 78 74 79 76 80 77 81 78 82 79 83 56 84
REMARK SMILES IDX 57 85 65 86 58 87 60 88 66 89 59 90 61 91 62 92 63 93 64 94
REMARK H PARENT 86 47 54 58
REMARK Flexibility Score: inf
ROOT
ATOM      1  C   UNL     1       3.817   2.037   1.140  1.00  0.00     0.275 C 
ENDROOT
BRANCH   1   2
ATOM      2  C   UNL     1       3.686   1.597  -0.323  1.00  0.00     0.274 C 
BRANCH   2   3
ATOM      3  O   UNL     1       2.456   0.913  -0.589  1.00  0.00    -0.461 OA
BRANCH   3   4
ATOM      4  C   UNL     1       2.412  -0.424  -0.835  1.00  0.00     0.326 C 
ATOM      5  O   UNL     1       1.541  -0.858  -1.583  1.00  0.00    -0.250 OA
BRANCH   4   6
ATOM      6  C   UNL     1       3.399  -1.324  -0.074  1.00  0.00     0.248 C 
BRANCH   6   7
ATOM      7  N   UNL     1       4.346  -2.118  -0.837  1.00  0.00    -0.291 N 
ATOM      8  C   UNL     1       3.840  -3.275  -1.412  1.00  0.00     0.294 C 
ATOM      9  C   UNL     1       5.746  -1.844  -0.920  1.00  0.00     0.088 A 
ATOM     10  O   UNL     1       2.651  -3.490  -1.601  1.00  0.00    -0.265 OA
ATOM     11  C   UNL     1       4.896  -4.305  -1.634  1.00  0.00     0.193 C 
ATOM     12  C   UNL     1       6.548  -2.686  -1.714  1.00  0.00     0.151 A 
ATOM     13  C   UNL     1       6.373  -0.772  -0.281  1.00  0.00     0.030 A 
ATOM     14  C   UNL     1       4.790  -5.511  -1.047  1.00  0.00     0.065 C 
ATOM     15  O   UNL     1       6.087  -3.891  -2.202  1.00  0.00    -0.449 OA
ATOM     16  C   UNL     1       7.884  -2.382  -1.982  1.00  0.00     0.049 A 
ATOM     17  C   UNL     1       7.714  -0.464  -0.541  1.00  0.00     0.002 A 
ATOM     18  C   UNL     1       8.460  -1.251  -1.414  1.00  0.00     0.004 A 
BRANCH  14  19
ATOM     19  C   UNL     1       3.647  -5.873  -0.194  1.00  0.00     0.033 A 
ATOM     20  C   UNL     1       2.447  -6.264  -0.801  1.00  0.00     0.132 A 
ATOM     21  C   UNL     1       3.671  -5.706   1.201  1.00  0.00     0.051 A 
ATOM     22  F   UNL     1       2.388  -6.420  -2.132  1.00  0.00    -0.206 F 
ATOM     23  C   UNL     1       1.286  -6.434  -0.064  1.00  0.00     0.040 A 
ATOM     24  C   UNL     1       2.515  -5.912   1.952  1.00  0.00     0.021 A 
ATOM     25  Cl  UNL     1       5.095  -5.187   2.038  1.00  0.00    -0.084 Cl
ATOM     26  C   UNL     1       1.323  -6.253   1.310  1.00  0.00     0.005 A 
ENDBRANCH  14  19
ENDBRANCH   6   7
ENDBRANCH   4   6
ENDBRANCH   3   4
ENDBRANCH   2   3
ENDBRANCH   1   2
BRANCH   1  27
ATOM     27  O   UNL     1       3.642   0.948   2.070  1.00  0.00    -0.458 OA
BRANCH  27  28
ATOM     28  C   UNL     1       2.361   0.749   2.482  1.00  0.00     0.338 C 
ATOM     29  O   UNL     1       1.409   1.460   2.197  1.00  0.00    -0.246 OA
BRANCH  28  30
ATOM     30  C   UNL     1       2.212  -0.534   3.220  1.00  0.00     0.060 A 
ATOM     31  C   UNL     1       3.210  -1.068   4.037  1.00  0.00     0.016 A 
ATOM     32  C   UNL     1       0.984  -1.198   3.124  1.00  0.00     0.016 A 
ATOM     33  C   UNL     1       2.945  -2.225   4.795  1.00  0.00     0.010 A 
ATOM     34  C   UNL     1       0.719  -2.337   3.899  1.00  0.00     0.010 A 
ATOM     35  C   UNL     1       1.680  -2.855   4.772  1.00  0.00    -0.014 A 
BRANCH  35  36
ATOM     36  C   UNL     1       1.364  -3.918   5.771  1.00  0.00     0.031 A 
ATOM     37  C   UNL     1       0.965  -5.320   5.441  1.00  0.00     0.074 A 
ATOM     38  C   UNL     1       1.348  -3.650   7.089  1.00  0.00     0.049 A 
ATOM     39  N   UNL     1       1.394  -6.419   6.010  1.00  0.00    -0.248 NA
ATOM     40  C   UNL     1      -0.044  -5.545   4.404  1.00  0.00     0.031 C 
ATOM     41  C   UNL     1       1.478  -2.331   7.700  1.00  0.00     0.029 A 
ATOM     42  N   UNL     1       1.164  -4.503   8.149  1.00  0.00    -0.354 N 
ATOM     43  C   UNL     1       0.877  -7.453   5.250  1.00  0.00     0.074 A 
ATOM     44  C   UNL     1      -0.031  -6.871   4.301  1.00  0.00     0.031 C 
ATOM     45  C   UNL     1       1.336  -2.459   9.030  1.00  0.00     0.029 A 
ATOM     46  C   UNL     1       1.140  -3.872   9.362  1.00  0.00     0.049 A 
ATOM     47  H   UNL     1       1.058  -5.476   8.045  1.00  0.00     0.167 HD
ATOM     48  C   UNL     1       1.170  -8.766   5.339  1.00  0.00     0.034 A 
ATOM     49  C   UNL     1       0.989  -4.382  10.599  1.00  0.00     0.034 A 
ATOM     50  C   UNL     1       1.521  -9.387   6.581  1.00  0.00     0.049 A 
ATOM     51  C   UNL     1       0.930  -5.871  10.805  1.00  0.00     0.074 A 
ATOM     52  C   UNL     1       1.750 -10.722   6.855  1.00  0.00     0.029 A 
ATOM     53  N   UNL     1       1.453  -8.727   7.794  1.00  0.00    -0.354 N 
ATOM     54  N   UNL     1       1.117  -6.832   9.933  1.00  0.00    -0.248 NA
ATOM     55  C   UNL     1       0.679  -6.348  12.174  1.00  0.00     0.031 C 
ATOM     56  C   UNL     1       1.666 -10.885   8.247  1.00  0.00     0.029 A 
ATOM     57  C   UNL     1       1.450  -9.642   8.823  1.00  0.00     0.049 A 
ATOM     58  H   UNL     1       1.412  -7.750   7.905  1.00  0.00     0.167 HD
ATOM     59  C   UNL     1       1.046  -8.024  10.650  1.00  0.00     0.074 A 
ATOM     60  C   UNL     1       0.784  -7.665  12.028  1.00  0.00     0.031 C 
ATOM     61  C   UNL     1       1.202  -9.295  10.200  1.00  0.00     0.034 A 
BRANCH  48  62
ATOM     62  C   UNL     1       1.142  -9.597   4.096  1.00  0.00     0.023 A 
ATOM     63  C   UNL     1       2.358  -9.711   3.385  1.00  0.00     0.012 A 
ATOM     64  C   UNL     1       0.037 -10.363   3.701  1.00  0.00     0.148 A 
ATOM     65  C   UNL     1       2.479 -10.586   2.307  1.00  0.00     0.002 A 
ATOM     66  C   UNL     1       0.163 -11.235   2.623  1.00  0.00     0.091 A 
ATOM     67  F   UNL     1      -1.105 -10.232   4.390  1.00  0.00    -0.205 F 
ATOM     68  C   UNL     1       1.383 -11.353   1.931  1.00  0.00     0.022 A 
BRANCH  66  69
ATOM     69  S   UNL     1      -1.183 -12.274   2.049  1.00  0.00     0.127 S 
ATOM     70  O   UNL     1      -1.303 -11.856   0.652  1.00  0.00    -0.237 OA
ATOM     71  O   UNL     1      -0.637 -13.616   2.241  1.00  0.00    -0.237 OA
ATOM     72  O   UNL     1      -2.329 -11.940   2.884  1.00  0.00    -0.744 OA
ENDBRANCH  66  69
ENDBRANCH  48  62
BRANCH  49  73
ATOM     73  C   UNL     1       0.957  -3.435  11.739  1.00  0.00     0.023 A 
ATOM     74  C   UNL     1       2.106  -3.269  12.530  1.00  0.00     0.012 A 
ATOM     75  C   UNL     1      -0.168  -2.615  11.955  1.00  0.00     0.148 A 
ATOM     76  C   UNL     1       2.139  -2.290  13.521  1.00  0.00     0.002 A 
ATOM     77  C   UNL     1      -0.114  -1.618  12.918  1.00  0.00     0.091 A 
ATOM     78  F   UNL     1      -1.247  -2.804  11.183  1.00  0.00    -0.205 F 
ATOM     79  C   UNL     1       1.037  -1.457  13.707  1.00  0.00     0.022 A 
BRANCH  77  80
ATOM     80  S   UNL     1      -1.439  -0.429  13.155  1.00  0.00     0.127 S 
ATOM     81  O   UNL     1      -1.897  -0.759  14.502  1.00  0.00    -0.237 OA
ATOM     82  O   UNL     1      -0.724   0.842  13.039  1.00  0.00    -0.237 OA
ATOM     83  O   UNL     1      -2.397  -0.685  12.088  1.00  0.00    -0.744 OA
ENDBRANCH  77  80
ENDBRANCH  49  73
BRANCH  61  84
ATOM     84  C   UNL     1       1.077 -10.438  11.167  1.00  0.00     0.023 A 
ATOM     85  C   UNL     1      -0.199 -10.856  11.592  1.00  0.00     0.012 A 
ATOM     86  C   UNL     1       2.208 -11.209  11.499  1.00  0.00     0.148 A 
ATOM     87  C   UNL     1      -0.346 -12.031  12.330  1.00  0.00     0.002 A 
ATOM     88  C   UNL     1       2.049 -12.401  12.194  1.00  0.00     0.091 A 
ATOM     89  F   UNL     1       3.412 -10.780  11.093  1.00  0.00    -0.205 F 
ATOM     90  C   UNL     1       0.773 -12.812  12.614  1.00  0.00     0.022 A 
BRANCH  88  91
ATOM     91  S   UNL     1       3.418 -13.522  12.502  1.00  0.00     0.127 S 
ATOM     92  O   UNL     1       3.592 -13.389  13.948  1.00  0.00    -0.237 OA
ATOM     93  O   UNL     1       2.871 -14.808  12.068  1.00  0.00    -0.237 OA
ATOM     94  O   UNL     1       4.528 -13.034  11.694  1.00  0.00    -0.744 OA
ENDBRANCH  88  91
ENDBRANCH  61  84
ENDBRANCH  35  36
ENDBRANCH  28  30
ENDBRANCH  27  28
ENDBRANCH   1  27
TORSDOF 16
