REMARK SMILES CC(C)N(c1cc2c(cc1Cl)C=C(C(=O)OCCOC(=O)c1ccc(-c3c4nc(c(-c5cccc(S(=O)(=O)[O-])c5F)c5ccc([nH]5)c(-c5cccc(S(=O)(=O)[O-])c5F)c5nc(c(-c6cccc(S(=O)(=O)[O-])c6F)c6ccc3[nH]6)C=C5)C=C4)cc1)[C@@H](C(F)(F)F)O2)C(C)C
REMARK SMILES IDX 18 1 17 2 16 3 14 4 15 5 13 6 5 7 6 8 10 9 7 10 9 11 11 12
REMARK SMILES IDX 8 13 90 14 12 15 85 16 4 17 2 18 1 19 3 20 91 21 92 22 93 23
REMARK SMILES IDX 86 24 87 25 88 26 89 27 19 28 20 29 21 30 22 31 23 32 84 33
REMARK SMILES IDX 24 34 83 35 25 36 26 37 27 38 77 39 28 40 82 41 76 42 78 43
REMARK SMILES IDX 29 44 81 45 75 46 74 47 30 49 62 50 42 51 61 52 43 53 46 54
REMARK SMILES IDX 60 55 79 56 44 57 45 58 59 60 80 61 47 62 31 63 32 64 40 65
REMARK SMILES IDX 33 66 35 67 41 68 34 69 36 70 37 71 38 72 39 73 63 74 64 75
REMARK SMILES IDX 72 76 65 77 67 78 73 79 66 80 68 81 69 82 70 83 71 84 48 85
REMARK SMILES IDX 49 86 57 87 50 88 52 89 58 90 51 91 53 92 54 93 55 94 56 95
REMARK H PARENT 78 48 46 59
REMARK Flexibility Score: inf
ROOT
ATOM      1  C   UNL     1      -6.425   9.533   1.299  1.00  0.00     0.275 C 
ENDROOT
BRANCH   1   2
ATOM      2  C   UNL     1      -7.233   8.267   1.013  1.00  0.00     0.275 C 
BRANCH   2   3
ATOM      3  O   UNL     1      -6.399   7.088   1.040  1.00  0.00    -0.459 OA
BRANCH   3   4
ATOM      4  C   UNL     1      -6.077   6.583  -0.173  1.00  0.00     0.338 C 
ATOM      5  O   UNL     1      -6.439   7.016  -1.256  1.00  0.00    -0.246 OA
BRANCH   4   6
ATOM      6  C   UNL     1      -5.170   5.428  -0.039  1.00  0.00     0.087 C 
ATOM      7  C   UNL     1      -1.687   1.892  -1.018  1.00  0.00     0.060 A 
ATOM      8  C   UNL     1      -2.741   2.026  -0.077  1.00  0.00     0.074 A 
ATOM      9  C   UNL     1      -1.442   3.000  -1.861  1.00  0.00     0.065 A 
ATOM     10  C   UNL     1      -3.537   3.174  -0.007  1.00  0.00     0.130 A 
ATOM     11  C   UNL     1      -2.201   4.166  -1.753  1.00  0.00     0.034 A 
ATOM     12  Cl  UNL     1      -0.303   2.992  -3.165  1.00  0.00    -0.082 Cl
ATOM     13  C   UNL     1      -3.258   4.239  -0.848  1.00  0.00     0.019 A 
ATOM     14  O   UNL     1      -4.563   3.186   0.901  1.00  0.00    -0.475 OA
ATOM     15  C   UNL     1      -4.099   5.411  -0.836  1.00  0.00     0.027 C 
ATOM     16  C   UNL     1      -5.544   4.269   0.839  1.00  0.00     0.316 C 
BRANCH   7  17
ATOM     17  N   UNL     1      -0.978   0.674  -1.087  1.00  0.00    -0.365 N 
BRANCH  17  18
ATOM     18  C   UNL     1       0.503   0.739  -1.023  1.00  0.00     0.076 C 
ATOM     19  C   UNL     1       1.057   0.156   0.276  1.00  0.00     0.030 C 
ATOM     20  C   UNL     1       1.203   0.117  -2.229  1.00  0.00     0.030 C 
ENDBRANCH  17  18
BRANCH  17  21
ATOM     21  C   UNL     1      -1.796  -0.547  -1.227  1.00  0.00     0.076 C 
ATOM     22  C   UNL     1      -1.591  -1.261  -2.559  1.00  0.00     0.030 C 
ATOM     23  C   UNL     1      -1.645  -1.502  -0.047  1.00  0.00     0.030 C 
ENDBRANCH  17  21
ENDBRANCH   7  17
BRANCH  16  24
ATOM     24  C   UNL     1      -6.909   3.690   0.429  1.00  0.00     0.430 C 
ATOM     25  F   UNL     1      -7.255   2.637   1.208  1.00  0.00    -0.167 F 
ATOM     26  F   UNL     1      -7.899   4.607   0.569  1.00  0.00    -0.167 F 
ATOM     27  F   UNL     1      -6.929   3.269  -0.855  1.00  0.00    -0.167 F 
ENDBRANCH  16  24
ENDBRANCH   4   6
ENDBRANCH   3   4
ENDBRANCH   2   3
ENDBRANCH   1   2
BRANCH   1  28
ATOM     28  O   UNL     1      -5.517   9.806   0.217  1.00  0.00    -0.458 OA
BRANCH  28  29
ATOM     29  C   UNL     1      -4.208   9.601   0.490  1.00  0.00     0.338 C 
ATOM     30  O   UNL     1      -3.720   9.251   1.550  1.00  0.00    -0.246 OA
BRANCH  29  31
ATOM     31  C   UNL     1      -3.415   9.796  -0.733  1.00  0.00     0.060 A 
ATOM     32  C   UNL     1      -2.486  10.824  -0.838  1.00  0.00     0.016 A 
ATOM     33  C   UNL     1      -3.501   8.835  -1.733  1.00  0.00     0.016 A 
ATOM     34  C   UNL     1      -1.654  10.878  -1.964  1.00  0.00     0.010 A 
ATOM     35  C   UNL     1      -2.564   8.798  -2.761  1.00  0.00     0.010 A 
ATOM     36  C   UNL     1      -1.649   9.842  -2.922  1.00  0.00    -0.014 A 
BRANCH  36  37
ATOM     37  C   UNL     1      -0.703   9.849  -4.079  1.00  0.00     0.031 A 
ATOM     38  C   UNL     1      -1.198   9.694  -5.502  1.00  0.00     0.074 A 
ATOM     39  C   UNL     1       0.626   9.947  -3.857  1.00  0.00     0.049 A 
ATOM     40  N   UNL     1      -0.509   9.692  -6.617  1.00  0.00    -0.248 NA
ATOM     41  C   UNL     1      -2.640   9.468  -5.708  1.00  0.00     0.031 C 
ATOM     42  C   UNL     1       1.267   9.965  -2.539  1.00  0.00     0.029 A 
ATOM     43  N   UNL     1       1.679  10.061  -4.732  1.00  0.00    -0.354 N 
ATOM     44  C   UNL     1      -1.417   9.411  -7.632  1.00  0.00     0.074 A 
ATOM     45  C   UNL     1      -2.700   9.201  -7.004  1.00  0.00     0.031 C 
ATOM     46  C   UNL     1       2.586  10.159  -2.690  1.00  0.00     0.029 A 
ATOM     47  C   UNL     1       2.894  10.247  -4.113  1.00  0.00     0.049 A 
ATOM     48  H   UNL     1       1.575  10.014  -5.710  1.00  0.00     0.167 HD
ATOM     49  C   UNL     1      -1.224   9.385  -8.972  1.00  0.00     0.034 A 
ATOM     50  C   UNL     1       4.117  10.490  -4.625  1.00  0.00     0.034 A 
ATOM     51  C   UNL     1       0.019   9.716  -9.611  1.00  0.00     0.049 A 
ATOM     52  C   UNL     1       4.285  10.597  -6.114  1.00  0.00     0.074 A 
ATOM     53  C   UNL     1       0.279   9.847 -10.963  1.00  0.00     0.029 A 
ATOM     54  N   UNL     1       1.199   9.994  -8.944  1.00  0.00    -0.354 N 
ATOM     55  N   UNL     1       3.378  10.473  -7.051  1.00  0.00    -0.248 NA
ATOM     56  C   UNL     1       5.632  10.905  -6.617  1.00  0.00     0.031 C 
ATOM     57  C   UNL     1       1.619  10.215 -11.114  1.00  0.00     0.029 A 
ATOM     58  C   UNL     1       2.190  10.310  -9.855  1.00  0.00     0.049 A 
ATOM     59  H   UNL     1       1.316   9.970  -7.966  1.00  0.00     0.167 HD
ATOM     60  C   UNL     1       4.038  10.700  -8.252  1.00  0.00     0.074 A 
ATOM     61  C   UNL     1       5.418  10.992  -7.925  1.00  0.00     0.031 C 
ATOM     62  C   UNL     1       3.545  10.650  -9.513  1.00  0.00     0.034 A 
BRANCH  49  63
ATOM     63  C   UNL     1      -2.411   9.103  -9.855  1.00  0.00     0.023 A 
ATOM     64  C   UNL     1      -3.377  10.113 -10.042  1.00  0.00     0.012 A 
ATOM     65  C   UNL     1      -2.528   7.892 -10.565  1.00  0.00     0.148 A 
ATOM     66  C   UNL     1      -4.455   9.915 -10.902  1.00  0.00     0.002 A 
ATOM     67  C   UNL     1      -3.588   7.716 -11.448  1.00  0.00     0.091 A 
ATOM     68  F   UNL     1      -1.602   6.944 -10.368  1.00  0.00    -0.205 F 
ATOM     69  C   UNL     1      -4.555   8.722 -11.611  1.00  0.00     0.022 A 
BRANCH  67  70
ATOM     70  S   UNL     1      -3.783   6.246 -12.463  1.00  0.00     0.127 S 
ATOM     71  O   UNL     1      -5.025   5.684 -11.934  1.00  0.00    -0.237 OA
ATOM     72  O   UNL     1      -3.895   6.815 -13.806  1.00  0.00    -0.237 OA
ATOM     73  O   UNL     1      -2.592   5.438 -12.238  1.00  0.00    -0.744 OA
ENDBRANCH  67  70
ENDBRANCH  49  63
BRANCH  50  74
ATOM     74  C   UNL     1       5.249  10.774  -3.700  1.00  0.00     0.023 A 
ATOM     75  C   UNL     1       5.657  12.110  -3.516  1.00  0.00     0.012 A 
ATOM     76  C   UNL     1       5.857   9.755  -2.942  1.00  0.00     0.148 A 
ATOM     77  C   UNL     1       6.657  12.427  -2.596  1.00  0.00     0.002 A 
ATOM     78  C   UNL     1       6.825  10.083  -1.999  1.00  0.00     0.091 A 
ATOM     79  F   UNL     1       5.451   8.493  -3.137  1.00  0.00    -0.205 F 
ATOM     80  C   UNL     1       7.233  11.416  -1.831  1.00  0.00     0.022 A 
BRANCH  78  81
ATOM     81  S   UNL     1       7.550   8.871  -0.889  1.00  0.00     0.127 S 
ATOM     82  O   UNL     1       8.952   8.891  -1.299  1.00  0.00    -0.237 OA
ATOM     83  O   UNL     1       7.283   9.469   0.420  1.00  0.00    -0.237 OA
ATOM     84  O   UNL     1       6.841   7.625  -1.143  1.00  0.00    -0.744 OA
ENDBRANCH  78  81
ENDBRANCH  50  74
BRANCH  62  85
ATOM     85  C   UNL     1       4.485  10.917 -10.653  1.00  0.00     0.023 A 
ATOM     86  C   UNL     1       5.339   9.887 -11.092  1.00  0.00     0.012 A 
ATOM     87  C   UNL     1       4.420  12.126 -11.373  1.00  0.00     0.148 A 
ATOM     88  C   UNL     1       6.121  10.058 -12.233  1.00  0.00     0.002 A 
ATOM     89  C   UNL     1       5.178  12.277 -12.527  1.00  0.00     0.091 A 
ATOM     90  F   UNL     1       3.603  13.091 -10.927  1.00  0.00    -0.205 F 
ATOM     91  C   UNL     1       6.031  11.246 -12.956  1.00  0.00     0.022 A 
BRANCH  89  92
ATOM     92  S   UNL     1       5.074  13.736 -13.569  1.00  0.00     0.127 S 
ATOM     93  O   UNL     1       6.396  14.332 -13.379  1.00  0.00    -0.237 OA
ATOM     94  O   UNL     1       4.851  13.156 -14.894  1.00  0.00    -0.237 OA
ATOM     95  O   UNL     1       3.961  14.522 -13.055  1.00  0.00    -0.744 OA
ENDBRANCH  89  92
ENDBRANCH  62  85
ENDBRANCH  36  37
ENDBRANCH  29  31
ENDBRANCH  28  29
ENDBRANCH   1  28
TORSDOF 18
