REMARK SMILES Cn1cc(C[C@H](C(=O)OCCOC(=O)c2ccc(-c3c4nc(c(-c5cccc(S(=O)(=O)[O-])c5F)c5ccc([nH]5)c(-c5cccc(S(=O)(=O)[O-])c5F)c5nc(c(-c6cccc(S(=O)(=O)[O-])c6F)c6ccc3[nH]6)C=C5)C=C4)cc2)c2ccc(F)cc2)cn1
REMARK SMILES IDX 11 1 10 2 9 3 7 4 8 5 6 6 5 7 4 8 1 9 2 10 3 11 86 12 85 13
REMARK SMILES IDX 78 14 79 15 84 16 80 17 83 18 81 19 82 20 12 21 13 22 14 23
REMARK SMILES IDX 15 24 16 25 77 26 17 27 76 28 18 29 19 30 20 31 70 32 21 33
REMARK SMILES IDX 75 34 69 35 71 36 22 37 74 38 68 39 67 40 23 42 55 43 35 44
REMARK SMILES IDX 54 45 36 46 39 47 53 48 72 49 37 50 38 51 52 53 73 54 40 55
REMARK SMILES IDX 24 56 25 57 33 58 26 59 28 60 34 61 27 62 29 63 30 64 31 65
REMARK SMILES IDX 32 66 56 67 57 68 65 69 58 70 60 71 66 72 59 73 61 74 62 75
REMARK SMILES IDX 63 76 64 77 41 78 42 79 50 80 43 81 45 82 51 83 44 84 46 85
REMARK SMILES IDX 47 86 48 87 49 88
REMARK H PARENT 71 41 39 52
REMARK Flexibility Score: inf
ROOT
ATOM      1  C   UNL     1       2.463  -2.238   2.586  1.00  0.00     0.275 C 
ENDROOT
BRANCH   1   2
ATOM      2  C   UNL     1       2.155  -2.942   1.270  1.00  0.00     0.274 C 
BRANCH   2   3
ATOM      3  O   UNL     1       3.107  -2.527   0.267  1.00  0.00    -0.462 OA
BRANCH   3   4
ATOM      4  C   UNL     1       2.599  -2.073  -0.910  1.00  0.00     0.313 C 
ATOM      5  O   UNL     1       1.401  -1.955  -1.144  1.00  0.00    -0.252 OA
BRANCH   4   6
ATOM      6  C   UNL     1       3.672  -1.675  -1.928  1.00  0.00     0.134 C 
BRANCH   6   7
ATOM      7  C   UNL     1       3.725  -0.137  -1.921  1.00  0.00     0.059 C 
BRANCH   7   8
ATOM      8  C   UNL     1       4.137   0.556  -3.178  1.00  0.00    -0.009 A 
ATOM      9  C   UNL     1       4.514   3.419  -5.341  1.00  0.00     0.173 C 
ATOM     10  N   UNL     1       4.483   2.143  -4.666  1.00  0.00    -0.276 N 
ATOM     11  C   UNL     1       4.218   1.926  -3.346  1.00  0.00     0.112 A 
ATOM     12  N   UNL     1       4.657   1.005  -5.363  1.00  0.00    -0.182 NA
ATOM     13  C   UNL     1       4.438   0.045  -4.461  1.00  0.00     0.138 A 
ENDBRANCH   7   8
ENDBRANCH   6   7
BRANCH   6  14
ATOM     14  C   UNL     1       4.989  -2.433  -1.760  1.00  0.00    -0.033 A 
ATOM     15  C   UNL     1       4.961  -3.843  -1.808  1.00  0.00     0.007 A 
ATOM     16  C   UNL     1       6.228  -1.802  -1.565  1.00  0.00     0.007 A 
ATOM     17  C   UNL     1       6.125  -4.593  -1.635  1.00  0.00     0.039 A 
ATOM     18  C   UNL     1       7.395  -2.555  -1.402  1.00  0.00     0.039 A 
ATOM     19  C   UNL     1       7.332  -3.942  -1.433  1.00  0.00     0.123 A 
ATOM     20  F   UNL     1       8.450  -4.661  -1.268  1.00  0.00    -0.207 F 
ENDBRANCH   6  14
ENDBRANCH   4   6
ENDBRANCH   3   4
ENDBRANCH   2   3
ENDBRANCH   1   2
BRANCH   1  21
ATOM     21  O   UNL     1       2.264  -0.828   2.397  1.00  0.00    -0.458 OA
BRANCH  21  22
ATOM     22  C   UNL     1       3.363  -0.054   2.548  1.00  0.00     0.338 C 
ATOM     23  O   UNL     1       4.466  -0.396   2.932  1.00  0.00    -0.246 OA
BRANCH  22  24
ATOM     24  C   UNL     1       3.046   1.321   2.123  1.00  0.00     0.060 A 
ATOM     25  C   UNL     1       2.503   1.547   0.860  1.00  0.00     0.016 A 
ATOM     26  C   UNL     1       3.406   2.394   2.934  1.00  0.00     0.016 A 
ATOM     27  C   UNL     1       2.436   2.845   0.353  1.00  0.00     0.010 A 
ATOM     28  C   UNL     1       3.220   3.699   2.469  1.00  0.00     0.010 A 
ATOM     29  C   UNL     1       2.782   3.945   1.154  1.00  0.00    -0.014 A 
BRANCH  29  30
ATOM     30  C   UNL     1       2.723   5.343   0.628  1.00  0.00     0.031 A 
ATOM     31  C   UNL     1       3.932   6.244   0.727  1.00  0.00     0.074 A 
ATOM     32  C   UNL     1       1.586   5.834   0.093  1.00  0.00     0.049 A 
ATOM     33  N   UNL     1       4.017   7.537   0.546  1.00  0.00    -0.248 NA
ATOM     34  C   UNL     1       5.208   5.611   1.100  1.00  0.00     0.031 C 
ATOM     35  C   UNL     1       0.337   5.092  -0.074  1.00  0.00     0.029 A 
ATOM     36  N   UNL     1       1.293   7.085  -0.398  1.00  0.00    -0.354 N 
ATOM     37  C   UNL     1       5.321   7.886   0.882  1.00  0.00     0.074 A 
ATOM     38  C   UNL     1       6.000   6.663   1.254  1.00  0.00     0.031 C 
ATOM     39  C   UNL     1      -0.576   5.885  -0.653  1.00  0.00     0.029 A 
ATOM     40  C   UNL     1      -0.010   7.219  -0.819  1.00  0.00     0.049 A 
ATOM     41  H   UNL     1       1.953   7.814  -0.443  1.00  0.00     0.167 HD
ATOM     42  C   UNL     1       5.904   9.108   0.875  1.00  0.00     0.034 A 
ATOM     43  C   UNL     1      -0.695   8.297  -1.251  1.00  0.00     0.034 A 
ATOM     44  C   UNL     1       5.266  10.308   0.403  1.00  0.00     0.049 A 
ATOM     45  C   UNL     1      -0.009   9.631  -1.312  1.00  0.00     0.074 A 
ATOM     46  C   UNL     1       5.796  11.584   0.309  1.00  0.00     0.029 A 
ATOM     47  N   UNL     1       3.970  10.378  -0.082  1.00  0.00    -0.354 N 
ATOM     48  N   UNL     1       1.231   9.933  -1.013  1.00  0.00    -0.248 NA
ATOM     49  C   UNL     1      -0.812  10.773  -1.772  1.00  0.00     0.031 C 
ATOM     50  C   UNL     1       4.821  12.424  -0.242  1.00  0.00     0.029 A 
ATOM     51  C   UNL     1       3.686  11.670  -0.490  1.00  0.00     0.049 A 
ATOM     52  H   UNL     1       3.343   9.621  -0.128  1.00  0.00     0.167 HD
ATOM     53  C   UNL     1       1.359  11.296  -1.252  1.00  0.00     0.074 A 
ATOM     54  C   UNL     1       0.080  11.755  -1.757  1.00  0.00     0.031 C 
ATOM     55  C   UNL     1       2.428  12.102  -1.041  1.00  0.00     0.034 A 
BRANCH  42  56
ATOM     56  C   UNL     1       7.327   9.210   1.357  1.00  0.00     0.023 A 
ATOM     57  C   UNL     1       8.379   8.783   0.523  1.00  0.00     0.012 A 
ATOM     58  C   UNL     1       7.626   9.786   2.608  1.00  0.00     0.148 A 
ATOM     59  C   UNL     1       9.705   8.902   0.938  1.00  0.00     0.002 A 
ATOM     60  C   UNL     1       8.953   9.936   2.998  1.00  0.00     0.091 A 
ATOM     61  F   UNL     1       6.612  10.162   3.401  1.00  0.00    -0.205 F 
ATOM     62  C   UNL     1       9.993   9.488   2.169  1.00  0.00     0.022 A 
BRANCH  60  63
ATOM     63  S   UNL     1       9.406  10.750   4.535  1.00  0.00     0.127 S 
ATOM     64  O   UNL     1       9.636   9.609   5.419  1.00  0.00    -0.237 OA
ATOM     65  O   UNL     1      10.617  11.483   4.161  1.00  0.00    -0.237 OA
ATOM     66  O   UNL     1       8.273  11.600   4.875  1.00  0.00    -0.744 OA
ENDBRANCH  60  63
ENDBRANCH  42  56
BRANCH  43  67
ATOM     67  C   UNL     1      -2.114   8.138  -1.681  1.00  0.00     0.023 A 
ATOM     68  C   UNL     1      -2.434   8.237  -3.047  1.00  0.00     0.012 A 
ATOM     69  C   UNL     1      -3.128   7.808  -0.760  1.00  0.00     0.148 A 
ATOM     70  C   UNL     1      -3.739   8.015  -3.489  1.00  0.00     0.002 A 
ATOM     71  C   UNL     1      -4.410   7.522  -1.215  1.00  0.00     0.091 A 
ATOM     72  F   UNL     1      -2.813   7.749   0.542  1.00  0.00    -0.205 F 
ATOM     73  C   UNL     1      -4.722   7.638  -2.577  1.00  0.00     0.022 A 
BRANCH  71  74
ATOM     74  S   UNL     1      -5.672   6.864  -0.117  1.00  0.00     0.127 S 
ATOM     75  O   UNL     1      -6.459   8.055   0.186  1.00  0.00    -0.237 OA
ATOM     76  O   UNL     1      -6.343   5.881  -0.970  1.00  0.00    -0.237 OA
ATOM     77  O   UNL     1      -4.937   6.277   0.996  1.00  0.00    -0.744 OA
ENDBRANCH  71  74
ENDBRANCH  43  67
BRANCH  55  78
ATOM     78  C   UNL     1       2.269  13.562  -1.361  1.00  0.00     0.023 A 
ATOM     79  C   UNL     1       1.565  14.391  -0.465  1.00  0.00     0.012 A 
ATOM     80  C   UNL     1       2.868  14.127  -2.503  1.00  0.00     0.148 A 
ATOM     81  C   UNL     1       1.441  15.757  -0.713  1.00  0.00     0.002 A 
ATOM     82  C   UNL     1       2.768  15.496  -2.726  1.00  0.00     0.091 A 
ATOM     83  F   UNL     1       3.511  13.317  -3.357  1.00  0.00    -0.205 F 
ATOM     84  C   UNL     1       2.051  16.311  -1.836  1.00  0.00     0.022 A 
BRANCH  82  85
ATOM     85  S   UNL     1       3.590  16.294  -4.111  1.00  0.00     0.127 S 
ATOM     86  O   UNL     1       2.496  16.427  -5.071  1.00  0.00    -0.237 OA
ATOM     87  O   UNL     1       4.045  17.556  -3.526  1.00  0.00    -0.237 OA
ATOM     88  O   UNL     1       4.667  15.392  -4.499  1.00  0.00    -0.744 OA
ENDBRANCH  82  85
ENDBRANCH  55  78
ENDBRANCH  29  30
ENDBRANCH  22  24
ENDBRANCH  21  22
ENDBRANCH   1  21
TORSDOF 17
