REMARK SMILES O=C(OCCOC(=O)c1ccc(-c2c3nc(c(-c4cccc(S(=O)(=O)[O-])c4F)c4ccc([nH]4)c(-c4cccc(S(=O)(=O)[O-])c4F)c4nc(c(-c5cccc(S(=O)(=O)[O-])c5F)c5ccc2[nH]5)C=C4)C=C3)cc1)C1=Cc2c(ccc(Cl)c2-c2ccccc2)O[C@H]1C(F)(F)F
REMARK SMILES IDX 5 1 4 2 3 3 2 4 1 5 72 6 73 7 88 8 74 9 87 10 75 11 80 12
REMARK SMILES IDX 76 13 78 14 77 15 79 16 89 17 90 18 91 19 92 20 81 21 82 22
REMARK SMILES IDX 86 23 83 24 85 25 84 26 6 27 7 28 8 29 9 30 10 31 71 32
REMARK SMILES IDX 11 33 70 34 12 35 13 36 14 37 64 38 15 39 69 40 63 41 65 42
REMARK SMILES IDX 16 43 68 44 62 45 61 46 17 48 49 49 29 50 48 51 30 52 33 53
REMARK SMILES IDX 47 54 66 55 31 56 32 57 46 59 67 60 34 61 18 62 19 63 27 64
REMARK SMILES IDX 20 65 22 66 28 67 21 68 23 69 24 70 25 71 26 72 50 73 51 74
REMARK SMILES IDX 59 75 52 76 54 77 60 78 53 79 55 80 56 81 57 82 58 83 35 84
REMARK SMILES IDX 36 85 44 86 37 87 39 88 45 89 38 90 40 91 41 92 42 93 43 94
REMARK H PARENT 65 47 33 58
REMARK Flexibility Score: inf
ROOT
ATOM      1  C   UNL     1       2.461  -1.048  -1.871  1.00  0.00     0.275 C 
ENDROOT
BRANCH   1   2
ATOM      2  C   UNL     1       1.943  -0.761  -0.457  1.00  0.00     0.275 C 
BRANCH   2   3
ATOM      3  O   UNL     1       1.735   0.653  -0.268  1.00  0.00    -0.459 OA
BRANCH   3   4
ATOM      4  C   UNL     1       2.724   1.507   0.096  1.00  0.00     0.338 C 
ATOM      5  O   UNL     1       2.447   2.582   0.618  1.00  0.00    -0.246 OA
BRANCH   4   6
ATOM      6  C   UNL     1       4.145   1.177  -0.176  1.00  0.00     0.087 C 
ATOM      7  C   UNL     1       4.625  -0.000  -0.606  1.00  0.00     0.028 C 
ATOM      8  C   UNL     1       5.144   2.272   0.087  1.00  0.00     0.316 C 
ATOM      9  C   UNL     1       5.600  -0.562   0.337  1.00  0.00     0.027 A 
ATOM     10  O   UNL     1       6.455   1.730   0.491  1.00  0.00    -0.475 OA
ATOM     11  C   UNL     1       6.514   0.392   0.831  1.00  0.00     0.128 A 
ATOM     12  C   UNL     1       5.635  -1.945   0.702  1.00  0.00     0.011 A 
ATOM     13  C   UNL     1       7.535  -0.028   1.663  1.00  0.00     0.049 A 
ATOM     14  C   UNL     1       6.693  -2.324   1.543  1.00  0.00     0.049 A 
ATOM     15  C   UNL     1       7.626  -1.381   2.010  1.00  0.00     0.025 A 
ATOM     16  Cl  UNL     1       6.904  -3.967   2.048  1.00  0.00    -0.084 Cl
BRANCH   8  17
ATOM     17  C   UNL     1       5.235   3.153  -1.182  1.00  0.00     0.430 C 
ATOM     18  F   UNL     1       4.019   3.311  -1.766  1.00  0.00    -0.167 F 
ATOM     19  F   UNL     1       5.721   4.378  -0.915  1.00  0.00    -0.167 F 
ATOM     20  F   UNL     1       6.030   2.572  -2.115  1.00  0.00    -0.167 F 
ENDBRANCH   8  17
BRANCH  12  21
ATOM     21  C   UNL     1       4.564  -2.919   0.320  1.00  0.00    -0.016 A 
ATOM     22  C   UNL     1       3.504  -3.184   1.213  1.00  0.00     0.009 A 
ATOM     23  C   UNL     1       4.502  -3.536  -0.942  1.00  0.00     0.009 A 
ATOM     24  C   UNL     1       2.355  -3.883   0.808  1.00  0.00     0.001 A 
ATOM     25  C   UNL     1       3.350  -4.240  -1.349  1.00  0.00     0.001 A 
ATOM     26  C   UNL     1       2.260  -4.372  -0.490  1.00  0.00     0.000 A 
ENDBRANCH  12  21
ENDBRANCH   4   6
ENDBRANCH   3   4
ENDBRANCH   2   3
ENDBRANCH   1   2
BRANCH   1  27
ATOM     27  O   UNL     1       1.486  -1.690  -2.690  1.00  0.00    -0.458 OA
BRANCH  27  28
ATOM     28  C   UNL     1       0.387  -0.937  -2.890  1.00  0.00     0.338 C 
ATOM     29  O   UNL     1      -0.742  -1.326  -2.620  1.00  0.00    -0.246 OA
BRANCH  28  30
ATOM     30  C   UNL     1       0.694   0.408  -3.416  1.00  0.00     0.060 A 
ATOM     31  C   UNL     1      -0.048   1.471  -2.909  1.00  0.00     0.016 A 
ATOM     32  C   UNL     1       1.728   0.615  -4.348  1.00  0.00     0.016 A 
ATOM     33  C   UNL     1       0.144   2.732  -3.442  1.00  0.00     0.010 A 
ATOM     34  C   UNL     1       1.972   1.894  -4.823  1.00  0.00     0.010 A 
ATOM     35  C   UNL     1       1.102   2.924  -4.447  1.00  0.00    -0.014 A 
BRANCH  35  36
ATOM     36  C   UNL     1       0.990   4.128  -5.285  1.00  0.00     0.031 A 
ATOM     37  C   UNL     1       0.393   3.971  -6.658  1.00  0.00     0.074 A 
ATOM     38  C   UNL     1       1.335   5.325  -4.786  1.00  0.00     0.049 A 
ATOM     39  N   UNL     1       0.111   4.887  -7.542  1.00  0.00    -0.248 NA
ATOM     40  C   UNL     1       0.061   2.600  -7.098  1.00  0.00     0.031 C 
ATOM     41  C   UNL     1       1.915   5.552  -3.461  1.00  0.00     0.029 A 
ATOM     42  N   UNL     1       1.253   6.571  -5.340  1.00  0.00    -0.354 N 
ATOM     43  C   UNL     1      -0.395   4.205  -8.642  1.00  0.00     0.074 A 
ATOM     44  C   UNL     1      -0.366   2.798  -8.334  1.00  0.00     0.031 C 
ATOM     45  C   UNL     1       2.161   6.864  -3.314  1.00  0.00     0.029 A 
ATOM     46  C   UNL     1       1.776   7.557  -4.539  1.00  0.00     0.049 A 
ATOM     47  H   UNL     1       0.859   6.745  -6.224  1.00  0.00     0.167 HD
ATOM     48  C   UNL     1      -0.863   4.718  -9.800  1.00  0.00     0.034 A 
ATOM     49  C   UNL     1       1.943   8.867  -4.795  1.00  0.00     0.034 A 
ATOM     50  C   UNL     1      -0.912   6.125 -10.068  1.00  0.00     0.049 A 
ATOM     51  C   UNL     1       1.429   9.403  -6.105  1.00  0.00     0.074 A 
ATOM     52  C   UNL     1      -1.428   6.771 -11.174  1.00  0.00     0.029 A 
ATOM     53  N   UNL     1      -0.403   7.100  -9.225  1.00  0.00    -0.354 N 
ATOM     54  N   UNL     1       0.809   8.767  -7.072  1.00  0.00    -0.248 NA
ATOM     55  C   UNL     1       1.601  10.841  -6.347  1.00  0.00     0.031 C 
ATOM     56  C   UNL     1      -1.179   8.137 -11.024  1.00  0.00     0.029 A 
ATOM     57  C   UNL     1      -0.554   8.344  -9.803  1.00  0.00     0.049 A 
ATOM     58  H   UNL     1       0.006   6.931  -8.346  1.00  0.00     0.167 HD
ATOM     59  C   UNL     1       0.493   9.730  -8.021  1.00  0.00     0.074 A 
ATOM     60  C   UNL     1       0.961  10.997  -7.498  1.00  0.00     0.031 C 
ATOM     61  C   UNL     1      -0.114   9.587  -9.226  1.00  0.00     0.034 A 
BRANCH  48  62
ATOM     62  C   UNL     1      -1.349   3.764 -10.856  1.00  0.00     0.023 A 
ATOM     63  C   UNL     1      -2.570   3.081 -10.692  1.00  0.00     0.012 A 
ATOM     64  C   UNL     1      -0.615   3.598 -12.046  1.00  0.00     0.148 A 
ATOM     65  C   UNL     1      -3.045   2.231 -11.691  1.00  0.00     0.002 A 
ATOM     66  C   UNL     1      -1.116   2.787 -13.055  1.00  0.00     0.091 A 
ATOM     67  F   UNL     1       0.557   4.237 -12.166  1.00  0.00    -0.205 F 
ATOM     68  C   UNL     1      -2.325   2.095 -12.876  1.00  0.00     0.022 A 
BRANCH  66  69
ATOM     69  S   UNL     1      -0.302   2.603 -14.645  1.00  0.00     0.127 S 
ATOM     70  O   UNL     1       0.009   1.174 -14.654  1.00  0.00    -0.237 OA
ATOM     71  O   UNL     1      -1.359   3.004 -15.574  1.00  0.00    -0.237 OA
ATOM     72  O   UNL     1       0.856   3.485 -14.613  1.00  0.00    -0.744 OA
ENDBRANCH  66  69
ENDBRANCH  48  62
BRANCH  49  73
ATOM     73  C   UNL     1       2.621   9.750  -3.806  1.00  0.00     0.023 A 
ATOM     74  C   UNL     1       1.906  10.788  -3.179  1.00  0.00     0.012 A 
ATOM     75  C   UNL     1       3.985   9.573  -3.499  1.00  0.00     0.148 A 
ATOM     76  C   UNL     1       2.550  11.668  -2.308  1.00  0.00     0.002 A 
ATOM     77  C   UNL     1       4.607  10.419  -2.589  1.00  0.00     0.091 A 
ATOM     78  F   UNL     1       4.652   8.584  -4.110  1.00  0.00    -0.205 F 
ATOM     79  C   UNL     1       3.898  11.481  -2.010  1.00  0.00     0.022 A 
BRANCH  77  80
ATOM     80  S   UNL     1       6.309  10.183  -2.065  1.00  0.00     0.127 S 
ATOM     81  O   UNL     1       6.983  11.296  -2.729  1.00  0.00    -0.237 OA
ATOM     82  O   UNL     1       6.199  10.309  -0.611  1.00  0.00    -0.237 OA
ATOM     83  O   UNL     1       6.682   8.852  -2.525  1.00  0.00    -0.744 OA
ENDBRANCH  77  80
ENDBRANCH  49  73
BRANCH  61  84
ATOM     84  C   UNL     1      -0.326  10.828 -10.046  1.00  0.00     0.023 A 
ATOM     85  C   UNL     1       0.773  11.450 -10.669  1.00  0.00     0.012 A 
ATOM     86  C   UNL     1      -1.627  11.312 -10.281  1.00  0.00     0.148 A 
ATOM     87  C   UNL     1       0.583  12.557 -11.492  1.00  0.00     0.002 A 
ATOM     88  C   UNL     1      -1.815  12.378 -11.148  1.00  0.00     0.091 A 
ATOM     89  F   UNL     1      -2.654  10.706  -9.667  1.00  0.00    -0.205 F 
ATOM     90  C   UNL     1      -0.711  13.011 -11.743  1.00  0.00     0.022 A 
BRANCH  88  91
ATOM     91  S   UNL     1      -3.446  12.961 -11.619  1.00  0.00     0.127 S 
ATOM     92  O   UNL     1      -3.473  14.290 -11.011  1.00  0.00    -0.237 OA
ATOM     93  O   UNL     1      -3.363  12.958 -13.080  1.00  0.00    -0.237 OA
ATOM     94  O   UNL     1      -4.395  12.006 -11.063  1.00  0.00    -0.744 OA
ENDBRANCH  88  91
ENDBRANCH  61  84
ENDBRANCH  35  36
ENDBRANCH  28  30
ENDBRANCH  27  28
ENDBRANCH   1  27
TORSDOF 16
