REMARK SMILES C[C@@H]1CCC[C@H]1NC(=O)c1csc(/C=C/C(=O)OCCOC(=O)c2ccc(-c3c4nc(c(-c5cccc(S(=O)(=O)[O-])c5F)c5ccc([nH]5)c(-c5cccc(S(=O)(=O)[O-])c5F)c5nc(c(-c6cccc(S(=O)(=O)[O-])c6F)c6ccc3[nH]6)C=C5)C=C4)cc2)c1
REMARK SMILES IDX 19 1 18 2 16 3 17 4 15 5 14 6 13 7 10 8 11 9 87 10 12 11
REMARK SMILES IDX 8 12 7 13 9 15 6 16 1 17 2 18 3 19 4 20 5 21 20 22 21 23
REMARK SMILES IDX 22 24 23 25 24 26 25 27 86 28 26 29 85 30 27 31 28 32 29 33
REMARK SMILES IDX 79 34 30 35 84 36 78 37 80 38 31 39 83 40 77 41 76 42 32 44
REMARK SMILES IDX 64 45 44 46 63 47 45 48 48 49 62 50 81 51 46 52 47 53 61 55
REMARK SMILES IDX 82 56 49 57 33 58 34 59 42 60 35 61 37 62 43 63 36 64 38 65
REMARK SMILES IDX 39 66 40 67 41 68 65 69 66 70 74 71 67 72 69 73 75 74 68 75
REMARK SMILES IDX 70 76 71 77 72 78 73 79 50 80 51 81 59 82 52 83 54 84 60 85
REMARK SMILES IDX 53 86 55 87 56 88 57 89 58 90
REMARK H PARENT 7 14 80 43 48 54
REMARK Flexibility Score: inf
ROOT
ATOM      1  C   UNL     1       5.394   9.675   3.619  1.00  0.00     0.275 C 
ENDROOT
BRANCH   1   2
ATOM      2  O   UNL     1       4.379   8.691   3.345  1.00  0.00    -0.459 OA
BRANCH   2   3
ATOM      3  C   UNL     1       3.362   9.111   2.555  1.00  0.00     0.330 C 
ATOM      4  O   UNL     1       3.195  10.249   2.142  1.00  0.00    -0.247 OA
BRANCH   3   5
ATOM      5  C   UNL     1       2.446   8.021   2.167  1.00  0.00     0.095 C 
ATOM      6  C   UNL     1       2.531   6.745   2.571  1.00  0.00     0.026 C 
BRANCH   6   7
ATOM      7  C   UNL     1       1.623   5.736   2.119  1.00  0.00     0.028 A 
ATOM      8  C   UNL     1       0.305   3.760   2.058  1.00  0.00     0.051 A 
ATOM      9  C   UNL     1       0.011   4.343   0.842  1.00  0.00     0.079 A 
ATOM     10  C   UNL     1       1.220   4.595   2.794  1.00  0.00     0.033 A 
ATOM     11  S   UNL     1       0.898   5.770   0.556  1.00  0.00    -0.144 S 
BRANCH   8  12
ATOM     12  C   UNL     1      -0.303   2.545   2.590  1.00  0.00     0.252 C 
ATOM     13  N   UNL     1      -0.545   1.464   1.779  1.00  0.00    -0.349 N 
ATOM     14  H   UNL     1      -1.143   0.786   2.168  1.00  0.00     0.164 HD
ATOM     15  O   UNL     1      -0.603   2.449   3.779  1.00  0.00    -0.269 OA
BRANCH  13  16
ATOM     16  C   UNL     1      -0.062   1.151   0.435  1.00  0.00     0.085 C 
ATOM     17  C   UNL     1       1.795  -0.115  -0.748  1.00  0.00     0.010 C 
ATOM     18  C   UNL     1       0.864  -0.077   0.465  1.00  0.00     0.008 C 
ATOM     19  C   UNL     1      -0.112  -1.254   0.463  1.00  0.00     0.005 C 
ATOM     20  C   UNL     1      -1.287  -0.805  -0.399  1.00  0.00     0.002 C 
ATOM     21  C   UNL     1      -1.228   0.723  -0.461  1.00  0.00     0.025 C 
ENDBRANCH  13  16
ENDBRANCH   8  12
ENDBRANCH   6   7
ENDBRANCH   3   5
ENDBRANCH   2   3
ENDBRANCH   1   2
BRANCH   1  22
ATOM     22  C   UNL     1       6.628   9.473   2.735  1.00  0.00     0.275 C 
BRANCH  22  23
ATOM     23  O   UNL     1       6.355   9.742   1.348  1.00  0.00    -0.458 OA
BRANCH  23  24
ATOM     24  C   UNL     1       5.944   8.674   0.621  1.00  0.00     0.338 C 
ATOM     25  O   UNL     1       5.808   7.528   1.014  1.00  0.00    -0.246 OA
BRANCH  24  26
ATOM     26  C   UNL     1       5.558   9.113  -0.733  1.00  0.00     0.060 A 
ATOM     27  C   UNL     1       4.287   8.767  -1.202  1.00  0.00     0.016 A 
ATOM     28  C   UNL     1       6.451   9.808  -1.553  1.00  0.00     0.016 A 
ATOM     29  C   UNL     1       3.901   9.120  -2.495  1.00  0.00     0.010 A 
ATOM     30  C   UNL     1       6.062  10.158  -2.850  1.00  0.00     0.010 A 
ATOM     31  C   UNL     1       4.788   9.810  -3.332  1.00  0.00    -0.014 A 
BRANCH  31  32
ATOM     32  C   UNL     1       4.392  10.156  -4.719  1.00  0.00     0.031 A 
ATOM     33  C   UNL     1       4.953   9.381  -5.878  1.00  0.00     0.074 A 
ATOM     34  C   UNL     1       3.546  11.180  -4.936  1.00  0.00     0.049 A 
ATOM     35  N   UNL     1       4.774   9.568  -7.160  1.00  0.00    -0.248 NA
ATOM     36  C   UNL     1       5.831   8.246  -5.553  1.00  0.00     0.031 C 
ATOM     37  C   UNL     1       2.935  12.003  -3.892  1.00  0.00     0.029 A 
ATOM     38  N   UNL     1       3.072  11.717  -6.107  1.00  0.00    -0.354 N 
ATOM     39  C   UNL     1       5.531   8.593  -7.797  1.00  0.00     0.074 A 
ATOM     40  C   UNL     1       6.182   7.821  -6.760  1.00  0.00     0.031 C 
ATOM     41  C   UNL     1       2.182  12.954  -4.469  1.00  0.00     0.029 A 
ATOM     42  C   UNL     1       2.282  12.828  -5.921  1.00  0.00     0.049 A 
ATOM     43  H   UNL     1       3.278  11.344  -6.994  1.00  0.00     0.167 HD
ATOM     44  C   UNL     1       5.657   8.351  -9.124  1.00  0.00     0.034 A 
ATOM     45  C   UNL     1       1.723  13.662  -6.819  1.00  0.00     0.034 A 
ATOM     46  C   UNL     1       4.993   9.108 -10.152  1.00  0.00     0.049 A 
ATOM     47  C   UNL     1       1.915  13.394  -8.289  1.00  0.00     0.074 A 
ATOM     48  C   UNL     1       5.032   8.916 -11.522  1.00  0.00     0.029 A 
ATOM     49  N   UNL     1       4.177  10.205  -9.925  1.00  0.00    -0.354 N 
ATOM     50  N   UNL     1       2.544  12.402  -8.872  1.00  0.00    -0.248 NA
ATOM     51  C   UNL     1       1.302  14.348  -9.225  1.00  0.00     0.031 C 
ATOM     52  C   UNL     1       4.251   9.908 -12.125  1.00  0.00     0.029 A 
ATOM     53  C   UNL     1       3.715  10.709 -11.129  1.00  0.00     0.049 A 
ATOM     54  H   UNL     1       3.959  10.573  -9.039  1.00  0.00     0.167 HD
ATOM     55  C   UNL     1       2.377  12.595 -10.239  1.00  0.00     0.074 A 
ATOM     56  C   UNL     1       1.569  13.787 -10.397  1.00  0.00     0.031 C 
ATOM     57  C   UNL     1       2.864  11.862 -11.270  1.00  0.00     0.034 A 
BRANCH  44  58
ATOM     58  C   UNL     1       6.516   7.188  -9.545  1.00  0.00     0.023 A 
ATOM     59  C   UNL     1       6.027   5.876  -9.384  1.00  0.00     0.012 A 
ATOM     60  C   UNL     1       7.769   7.390 -10.156  1.00  0.00     0.148 A 
ATOM     61  C   UNL     1       6.781   4.781  -9.804  1.00  0.00     0.002 A 
ATOM     62  C   UNL     1       8.499   6.294 -10.605  1.00  0.00     0.091 A 
ATOM     63  F   UNL     1       8.226   8.644 -10.281  1.00  0.00    -0.205 F 
ATOM     64  C   UNL     1       8.011   4.990 -10.422  1.00  0.00     0.022 A 
BRANCH  62  65
ATOM     65  S   UNL     1      10.063   6.462 -11.473  1.00  0.00     0.127 S 
ATOM     66  O   UNL     1      11.013   6.002 -10.461  1.00  0.00    -0.237 OA
ATOM     67  O   UNL     1       9.889   5.550 -12.604  1.00  0.00    -0.237 OA
ATOM     68  O   UNL     1      10.169   7.868 -11.839  1.00  0.00    -0.744 OA
ENDBRANCH  62  65
ENDBRANCH  44  58
BRANCH  45  69
ATOM     69  C   UNL     1       0.896  14.813  -6.357  1.00  0.00     0.023 A 
ATOM     70  C   UNL     1      -0.493  14.803  -6.589  1.00  0.00     0.012 A 
ATOM     71  C   UNL     1       1.471  15.906  -5.680  1.00  0.00     0.148 A 
ATOM     72  C   UNL     1      -1.290  15.871  -6.178  1.00  0.00     0.002 A 
ATOM     73  C   UNL     1       0.663  16.943  -5.227  1.00  0.00     0.091 A 
ATOM     74  F   UNL     1       2.798  15.912  -5.491  1.00  0.00    -0.205 F 
ATOM     75  C   UNL     1      -0.716  16.936  -5.489  1.00  0.00     0.022 A 
BRANCH  73  76
ATOM     76  S   UNL     1       1.306  18.289  -4.225  1.00  0.00     0.127 S 
ATOM     77  O   UNL     1       1.355  19.384  -5.190  1.00  0.00    -0.237 OA
ATOM     78  O   UNL     1       0.276  18.423  -3.194  1.00  0.00    -0.237 OA
ATOM     79  O   UNL     1       2.592  17.820  -3.726  1.00  0.00    -0.744 OA
ENDBRANCH  73  76
ENDBRANCH  45  69
BRANCH  57  80
ATOM     80  C   UNL     1       2.521  12.307 -12.668  1.00  0.00     0.023 A 
ATOM     81  C   UNL     1       3.162  13.436 -13.215  1.00  0.00     0.012 A 
ATOM     82  C   UNL     1       1.633  11.560 -13.467  1.00  0.00     0.148 A 
ATOM     83  C   UNL     1       2.906  13.830 -14.527  1.00  0.00     0.002 A 
ATOM     84  C   UNL     1       1.416  11.933 -14.789  1.00  0.00     0.091 A 
ATOM     85  F   UNL     1       1.020  10.499 -12.922  1.00  0.00    -0.205 F 
ATOM     86  C   UNL     1       2.044  13.072 -15.317  1.00  0.00     0.022 A 
BRANCH  84  87
ATOM     87  S   UNL     1       0.393  10.969 -15.909  1.00  0.00     0.127 S 
ATOM     88  O   UNL     1      -0.776  11.833 -16.063  1.00  0.00    -0.237 OA
ATOM     89  O   UNL     1       1.241  10.872 -17.098  1.00  0.00    -0.237 OA
ATOM     90  O   UNL     1       0.147   9.700 -15.237  1.00  0.00    -0.744 OA
ENDBRANCH  84  87
ENDBRANCH  57  80
ENDBRANCH  31  32
ENDBRANCH  24  26
ENDBRANCH  23  24
ENDBRANCH  22  23
ENDBRANCH   1  22
TORSDOF 17
