REMARK SMILES O=C(OCCOC(=O)C1(Cc2cc(F)cc(Br)c2)CCCCCC1)c1ccc(-c2c3nc(c(-c4cccc(S(=O)(=O)[O-])c4F)c4ccc([nH]4)c(-c4cccc(S(=O)(=O)[O-])c4F)c4nc(c(-c5cccc(S(=O)(=O)[O-])c5F)c5ccc2[nH]5)C=C4)C=C3)cc1
REMARK SMILES IDX 4 1 3 2 2 3 1 4 25 5 26 6 87 7 27 8 86 9 28 10 29 11 30 12
REMARK SMILES IDX 80 13 31 14 85 15 79 16 81 17 32 18 84 19 78 20 77 21 33 23
REMARK SMILES IDX 65 24 45 25 64 26 46 27 49 28 63 29 82 30 47 31 48 32 62 34
REMARK SMILES IDX 83 35 50 36 34 37 35 38 43 39 36 40 38 41 44 42 37 43 39 44
REMARK SMILES IDX 40 45 41 46 42 47 66 48 67 49 75 50 68 51 70 52 76 53 69 54
REMARK SMILES IDX 71 55 72 56 73 57 74 58 51 59 52 60 60 61 53 62 55 63 61 64
REMARK SMILES IDX 54 65 56 66 57 67 58 68 59 69 5 70 6 71 7 72 8 73 9 74 10 75
REMARK SMILES IDX 11 76 12 77 18 78 13 79 16 80 14 81 15 82 17 83 19 84 20 85
REMARK SMILES IDX 21 86 24 88 23 89 22 90
REMARK H PARENT 81 22 49 33
REMARK Flexibility Score: 90.00
ROOT
ATOM      1  C   UNL     1       4.288   0.065  -1.631  1.00  0.00     0.275 C 
ENDROOT
BRANCH   1   2
ATOM      2  O   UNL     1       3.258  -0.639  -0.925  1.00  0.00    -0.458 OA
BRANCH   2   3
ATOM      3  C   UNL     1       3.292  -1.131   0.336  1.00  0.00     0.338 C 
ATOM      4  O   UNL     1       2.373  -1.859   0.707  1.00  0.00    -0.246 OA
BRANCH   3   5
ATOM      5  C   UNL     1       4.292  -0.670   1.351  1.00  0.00     0.060 A 
ATOM      6  C   UNL     1       5.596  -0.217   1.107  1.00  0.00     0.016 A 
ATOM      7  C   UNL     1       3.809  -0.592   2.658  1.00  0.00     0.016 A 
ATOM      8  C   UNL     1       6.323   0.484   2.083  1.00  0.00     0.010 A 
ATOM      9  C   UNL     1       4.521   0.120   3.620  1.00  0.00     0.010 A 
ATOM     10  C   UNL     1       5.773   0.707   3.339  1.00  0.00    -0.014 A 
BRANCH  10  11
ATOM     11  C   UNL     1       6.480   1.463   4.416  1.00  0.00     0.031 A 
ATOM     12  C   UNL     1       6.698   0.747   5.721  1.00  0.00     0.074 A 
ATOM     13  C   UNL     1       6.790   2.779   4.324  1.00  0.00     0.049 A 
ATOM     14  N   UNL     1       7.158   1.211   6.850  1.00  0.00    -0.248 NA
ATOM     15  C   UNL     1       6.317  -0.680   5.770  1.00  0.00     0.031 C 
ATOM     16  C   UNL     1       6.634   3.638   3.147  1.00  0.00     0.029 A 
ATOM     17  N   UNL     1       7.215   3.662   5.294  1.00  0.00    -0.354 N 
ATOM     18  C   UNL     1       7.152   0.125   7.710  1.00  0.00     0.074 A 
ATOM     19  C   UNL     1       6.438  -0.944   7.058  1.00  0.00     0.031 C 
ATOM     20  C   UNL     1       6.789   4.928   3.504  1.00  0.00     0.029 A 
ATOM     21  C   UNL     1       7.144   4.989   4.915  1.00  0.00     0.049 A 
ATOM     22  H   UNL     1       7.539   3.373   6.178  1.00  0.00     0.167 HD
ATOM     23  C   UNL     1       7.834  -0.039   8.865  1.00  0.00     0.034 A 
ATOM     24  C   UNL     1       7.355   6.117   5.626  1.00  0.00     0.034 A 
ATOM     25  C   UNL     1       8.604   1.000   9.470  1.00  0.00     0.049 A 
ATOM     26  C   UNL     1       7.968   5.975   6.998  1.00  0.00     0.074 A 
ATOM     27  C   UNL     1       9.462   0.933  10.548  1.00  0.00     0.029 A 
ATOM     28  N   UNL     1       8.587   2.317   9.041  1.00  0.00    -0.354 N 
ATOM     29  N   UNL     1       8.217   4.882   7.678  1.00  0.00    -0.248 NA
ATOM     30  C   UNL     1       8.453   7.205   7.643  1.00  0.00     0.031 C 
ATOM     31  C   UNL     1       9.940   2.225  10.793  1.00  0.00     0.029 A 
ATOM     32  C   UNL     1       9.402   3.085   9.846  1.00  0.00     0.049 A 
ATOM     33  H   UNL     1       8.070   2.655   8.274  1.00  0.00     0.167 HD
ATOM     34  C   UNL     1       9.003   5.276   8.754  1.00  0.00     0.074 A 
ATOM     35  C   UNL     1       9.136   6.716   8.670  1.00  0.00     0.031 C 
ATOM     36  C   UNL     1       9.595   4.504   9.698  1.00  0.00     0.034 A 
BRANCH  23  37
ATOM     37  C   UNL     1       7.858  -1.433   9.420  1.00  0.00     0.023 A 
ATOM     38  C   UNL     1       8.514  -2.450   8.686  1.00  0.00     0.012 A 
ATOM     39  C   UNL     1       7.167  -1.763  10.595  1.00  0.00     0.148 A 
ATOM     40  C   UNL     1       8.406  -3.785   9.066  1.00  0.00     0.002 A 
ATOM     41  C   UNL     1       7.110  -3.091  10.997  1.00  0.00     0.091 A 
ATOM     42  F   UNL     1       6.540  -0.786  11.264  1.00  0.00    -0.205 F 
ATOM     43  C   UNL     1       7.705  -4.104  10.223  1.00  0.00     0.022 A 
BRANCH  41  44
ATOM     44  S   UNL     1       6.282  -3.611  12.500  1.00  0.00     0.127 S 
ATOM     45  O   UNL     1       5.168  -4.392  11.969  1.00  0.00    -0.237 OA
ATOM     46  O   UNL     1       7.322  -4.398  13.161  1.00  0.00    -0.237 OA
ATOM     47  O   UNL     1       5.907  -2.386  13.197  1.00  0.00    -0.744 OA
ENDBRANCH  41  44
ENDBRANCH  23  37
BRANCH  24  48
ATOM     48  C   UNL     1       7.173   7.478   5.035  1.00  0.00     0.023 A 
ATOM     49  C   UNL     1       8.306   8.188   4.589  1.00  0.00     0.012 A 
ATOM     50  C   UNL     1       5.913   8.111   5.002  1.00  0.00     0.148 A 
ATOM     51  C   UNL     1       8.200   9.517   4.171  1.00  0.00     0.002 A 
ATOM     52  C   UNL     1       5.811   9.430   4.560  1.00  0.00     0.091 A 
ATOM     53  F   UNL     1       4.846   7.423   5.432  1.00  0.00    -0.205 F 
ATOM     54  C   UNL     1       6.956  10.138   4.160  1.00  0.00     0.022 A 
BRANCH  52  55
ATOM     55  S   UNL     1       4.252  10.324   4.469  1.00  0.00     0.127 S 
ATOM     56  O   UNL     1       4.471  11.407   5.426  1.00  0.00    -0.237 OA
ATOM     57  O   UNL     1       4.229  10.740   3.067  1.00  0.00    -0.237 OA
ATOM     58  O   UNL     1       3.222   9.363   4.837  1.00  0.00    -0.744 OA
ENDBRANCH  52  55
ENDBRANCH  24  48
BRANCH  36  59
ATOM     59  C   UNL     1      10.552   5.159  10.652  1.00  0.00     0.023 A 
ATOM     60  C   UNL     1      10.080   5.984  11.687  1.00  0.00     0.012 A 
ATOM     61  C   UNL     1      11.924   4.841  10.583  1.00  0.00     0.148 A 
ATOM     62  C   UNL     1      10.965   6.498  12.634  1.00  0.00     0.002 A 
ATOM     63  C   UNL     1      12.787   5.301  11.566  1.00  0.00     0.091 A 
ATOM     64  F   UNL     1      12.354   4.076   9.568  1.00  0.00    -0.205 F 
ATOM     65  C   UNL     1      12.312   6.140  12.586  1.00  0.00     0.022 A 
BRANCH  63  66
ATOM     66  S   UNL     1      14.501   4.772  11.653  1.00  0.00     0.127 S 
ATOM     67  O   UNL     1      15.207   5.974  11.215  1.00  0.00    -0.237 OA
ATOM     68  O   UNL     1      14.656   4.455  13.074  1.00  0.00    -0.237 OA
ATOM     69  O   UNL     1      14.611   3.621  10.766  1.00  0.00    -0.744 OA
ENDBRANCH  63  66
ENDBRANCH  36  59
ENDBRANCH  10  11
ENDBRANCH   3   5
ENDBRANCH   2   3
ENDBRANCH   1   2
BRANCH   1  70
ATOM     70  C   UNL     1       4.460   1.548  -1.272  1.00  0.00     0.274 C 
BRANCH  70  71
ATOM     71  O   UNL     1       3.804   1.958  -0.050  1.00  0.00    -0.462 OA
BRANCH  71  72
ATOM     72  C   UNL     1       2.609   2.578  -0.240  1.00  0.00     0.312 C 
ATOM     73  O   UNL     1       2.159   2.744  -1.370  1.00  0.00    -0.252 OA
BRANCH  72  74
ATOM     74  C   UNL     1       1.940   3.171   1.040  1.00  0.00     0.072 C 
BRANCH  74  75
ATOM     75  C   UNL     1       0.409   2.841   0.964  1.00  0.00     0.054 C 
BRANCH  75  76
ATOM     76  C   UNL     1      -0.406   3.416  -0.161  1.00  0.00    -0.043 A 
ATOM     77  C   UNL     1      -0.597   2.688  -1.343  1.00  0.00     0.043 A 
ATOM     78  C   UNL     1      -0.955   4.698  -0.051  1.00  0.00     0.019 A 
ATOM     79  C   UNL     1      -1.233   3.280  -2.424  1.00  0.00     0.124 A 
ATOM     80  C   UNL     1      -1.619   5.264  -1.137  1.00  0.00     0.021 A 
ATOM     81  F   UNL     1      -1.340   2.604  -3.576  1.00  0.00    -0.207 F 
ATOM     82  C   UNL     1      -1.742   4.568  -2.335  1.00  0.00     0.055 A 
ATOM     83  Br  UNL     1      -2.345   7.001  -0.978  1.00  0.00    -0.051 Br
ENDBRANCH  75  76
ENDBRANCH  74  75
BRANCH  74  84
ATOM     84  C   UNL     1       2.356   2.497   2.374  1.00  0.00     0.019 C 
BRANCH  84  85
ATOM     85  C   UNL     1       3.395   3.169   3.253  1.00  0.00     0.001 C 
BRANCH  85  86
ATOM     86  C   UNL     1       2.938   4.362   4.075  1.00  0.00     0.000 CG0
ATOM     87  G   UNL     1       2.850   5.643   3.272  1.00  0.00     0.000 G0
ENDBRANCH  85  86
ENDBRANCH  84  85
ENDBRANCH  74  84
BRANCH  74  88
ATOM     88  C   UNL     1       2.304   4.674   0.977  1.00  0.00     0.019 C 
BRANCH  88  89
ATOM     89  C   UNL     1       1.841   5.556   2.135  1.00  0.00     0.001 C 
BRANCH  89  90
ATOM     90  C   UNL     1       2.850   5.643   3.272  1.00  0.00     0.000 CG0
ATOM     91  G   UNL     1       2.938   4.362   4.075  1.00  0.00     0.000 G0
ENDBRANCH  89  90
ENDBRANCH  88  89
ENDBRANCH  74  88
ENDBRANCH  72  74
ENDBRANCH  71  72
ENDBRANCH  70  71
ENDBRANCH   1  70
TORSDOF 16
