REMARK SMILES O=C(Nc1ccccc1C(=O)OCCOC(=O)c1ccc(-c2c3nc(c(-c4cccc(S(=O)(=O)[O-])c4F)c4ccc([nH]4)c(-c4cccc(S(=O)(=O)[O-])c4F)c4nc(c(-c5cccc(S(=O)(=O)[O-])c5F)c5ccc2[nH]5)C=C4)C=C3)cc1)c1ccc(N2C(=O)[C@H]3CC=CC[C@H]3C2=O)cc1
REMARK SMILES IDX 13 1 12 2 10 3 11 4 9 5 4 6 5 7 6 8 8 9 7 10 3 11 1 12 2 13
REMARK SMILES IDX 81 15 82 16 97 17 83 18 96 19 84 20 85 21 86 22 94 23 87 24
REMARK SMILES IDX 88 25 93 26 95 27 89 28 92 29 90 30 91 31 14 32 15 33 16 34
REMARK SMILES IDX 17 35 18 36 19 37 80 38 20 39 79 40 21 41 22 42 23 43 73 44
REMARK SMILES IDX 24 45 78 46 72 47 74 48 25 49 77 50 71 51 70 52 26 54 58 55
REMARK SMILES IDX 38 56 57 57 39 58 42 59 56 60 75 61 40 62 41 63 55 65 76 66
REMARK SMILES IDX 43 67 27 68 28 69 36 70 29 71 31 72 37 73 30 74 32 75 33 76
REMARK SMILES IDX 34 77 35 78 59 79 60 80 68 81 61 82 63 83 69 84 62 85 64 86
REMARK SMILES IDX 65 87 66 88 67 89 44 90 45 91 53 92 46 93 48 94 54 95 47 96
REMARK SMILES IDX 49 97 50 98 51 99 52 100
REMARK H PARENT 3 14 74 53 42 64
REMARK Flexibility Score: inf
ROOT
ATOM      1  C   UNL     1       2.393   0.508   3.031  1.00  0.00     0.275 C 
ENDROOT
BRANCH   1   2
ATOM      2  O   UNL     1       3.040  -0.431   2.141  1.00  0.00    -0.458 OA
BRANCH   2   3
ATOM      3  C   UNL     1       4.191   0.012   1.575  1.00  0.00     0.340 C 
ATOM      4  O   UNL     1       4.748   1.064   1.829  1.00  0.00    -0.246 OA
BRANCH   3   5
ATOM      5  C   UNL     1       4.729  -0.915   0.554  1.00  0.00     0.083 A 
ATOM      6  C   UNL     1       3.994  -1.383  -0.545  1.00  0.00     0.056 A 
ATOM      7  C   UNL     1       4.605  -2.296  -1.423  1.00  0.00     0.027 A 
ATOM      8  C   UNL     1       5.954  -2.642  -1.290  1.00  0.00     0.002 A 
ATOM      9  C   UNL     1       6.081  -1.286   0.681  1.00  0.00     0.018 A 
ATOM     10  C   UNL     1       6.699  -2.123  -0.243  1.00  0.00     0.001 A 
BRANCH   6  11
ATOM     11  N   UNL     1       2.686  -0.984  -0.898  1.00  0.00    -0.321 N 
ATOM     12  O   UNL     1       0.830   0.311  -0.865  1.00  0.00    -0.269 OA
ATOM     13  C   UNL     1       2.054   0.238  -0.777  1.00  0.00     0.255 C 
ATOM     14  H   UNL     1       2.133  -1.695  -1.298  1.00  0.00     0.170 HD
BRANCH  13  15
ATOM     15  C   UNL     1       2.845   1.490  -0.643  1.00  0.00     0.040 A 
ATOM     16  C   UNL     1       4.044   1.671  -1.335  1.00  0.00     0.016 A 
ATOM     17  C   UNL     1       2.401   2.479   0.238  1.00  0.00     0.016 A 
ATOM     18  C   UNL     1       4.847   2.781  -1.062  1.00  0.00     0.027 A 
ATOM     19  C   UNL     1       3.227   3.569   0.537  1.00  0.00     0.027 A 
ATOM     20  C   UNL     1       4.467   3.729  -0.102  1.00  0.00     0.052 A 
BRANCH  20  21
ATOM     21  N   UNL     1       5.293   4.846   0.182  1.00  0.00    -0.250 N 
ATOM     22  C   UNL     1       6.064   5.474  -0.765  1.00  0.00     0.238 C 
ATOM     23  C   UNL     1       5.372   5.462   1.409  1.00  0.00     0.238 C 
ATOM     24  O   UNL     1       6.248   5.149  -1.933  1.00  0.00    -0.274 OA
ATOM     25  C   UNL     1       6.576   6.774  -0.201  1.00  0.00     0.096 C 
ATOM     26  C   UNL     1       6.266   6.677   1.295  1.00  0.00     0.096 C 
ATOM     27  O   UNL     1       4.850   5.114   2.462  1.00  0.00    -0.274 OA
ATOM     28  C   UNL     1       5.882   7.928  -0.945  1.00  0.00     0.041 C 
ATOM     29  C   UNL     1       5.537   7.888   1.880  1.00  0.00     0.041 C 
ATOM     30  C   UNL     1       4.560   8.311  -0.341  1.00  0.00    -0.030 C 
ATOM     31  C   UNL     1       4.403   8.312   0.989  1.00  0.00    -0.030 C 
ENDBRANCH  20  21
ENDBRANCH  13  15
ENDBRANCH   6  11
ENDBRANCH   3   5
ENDBRANCH   2   3
ENDBRANCH   1   2
BRANCH   1  32
ATOM     32  C   UNL     1       2.673   0.248   4.511  1.00  0.00     0.275 C 
BRANCH  32  33
ATOM     33  O   UNL     1       4.014   0.621   4.868  1.00  0.00    -0.458 OA
BRANCH  33  34
ATOM     34  C   UNL     1       4.912  -0.374   4.724  1.00  0.00     0.338 C 
ATOM     35  O   UNL     1       4.690  -1.530   4.393  1.00  0.00    -0.246 OA
BRANCH  34  36
ATOM     36  C   UNL     1       6.278   0.116   4.919  1.00  0.00     0.060 A 
ATOM     37  C   UNL     1       7.025   0.390   3.780  1.00  0.00     0.016 A 
ATOM     38  C   UNL     1       6.897   0.033   6.160  1.00  0.00     0.016 A 
ATOM     39  C   UNL     1       8.403   0.396   3.824  1.00  0.00     0.010 A 
ATOM     40  C   UNL     1       8.285   0.183   6.228  1.00  0.00     0.010 A 
ATOM     41  C   UNL     1       9.051   0.301   5.052  1.00  0.00    -0.014 A 
BRANCH  41  42
ATOM     42  C   UNL     1      10.530   0.266   5.085  1.00  0.00     0.031 A 
ATOM     43  C   UNL     1      11.220  -0.905   5.721  1.00  0.00     0.074 A 
ATOM     44  C   UNL     1      11.237   1.273   4.538  1.00  0.00     0.049 A 
ATOM     45  N   UNL     1      12.471  -1.032   6.069  1.00  0.00    -0.248 NA
ATOM     46  C   UNL     1      10.386  -2.081   6.028  1.00  0.00     0.031 C 
ATOM     47  C   UNL     1      10.667   2.431   3.841  1.00  0.00     0.029 A 
ATOM     48  N   UNL     1      12.588   1.499   4.502  1.00  0.00    -0.354 N 
ATOM     49  C   UNL     1      12.557  -2.258   6.718  1.00  0.00     0.074 A 
ATOM     50  C   UNL     1      11.234  -2.842   6.704  1.00  0.00     0.031 C 
ATOM     51  C   UNL     1      11.657   3.243   3.449  1.00  0.00     0.029 A 
ATOM     52  C   UNL     1      12.914   2.723   3.965  1.00  0.00     0.049 A 
ATOM     53  H   UNL     1      13.256   0.853   4.827  1.00  0.00     0.167 HD
ATOM     54  C   UNL     1      13.647  -2.835   7.276  1.00  0.00     0.034 A 
ATOM     55  C   UNL     1      14.082   3.390   3.960  1.00  0.00     0.034 A 
ATOM     56  C   UNL     1      14.960  -2.249   7.228  1.00  0.00     0.049 A 
ATOM     57  C   UNL     1      15.271   2.742   4.603  1.00  0.00     0.074 A 
ATOM     58  C   UNL     1      16.146  -2.748   7.730  1.00  0.00     0.029 A 
ATOM     59  N   UNL     1      15.256  -1.028   6.637  1.00  0.00    -0.354 N 
ATOM     60  N   UNL     1      15.350   1.577   5.202  1.00  0.00    -0.248 NA
ATOM     61  C   UNL     1      16.534   3.486   4.559  1.00  0.00     0.031 C 
ATOM     62  C   UNL     1      17.155  -1.815   7.470  1.00  0.00     0.029 A 
ATOM     63  C   UNL     1      16.606  -0.753   6.766  1.00  0.00     0.049 A 
ATOM     64  H   UNL     1      14.602  -0.443   6.191  1.00  0.00     0.167 HD
ATOM     65  C   UNL     1      16.677   1.434   5.582  1.00  0.00     0.074 A 
ATOM     66  C   UNL     1      17.369   2.624   5.122  1.00  0.00     0.031 C 
ATOM     67  C   UNL     1      17.271   0.421   6.259  1.00  0.00     0.034 A 
BRANCH  54  68
ATOM     68  C   UNL     1      13.460  -4.150   7.987  1.00  0.00     0.023 A 
ATOM     69  C   UNL     1      13.168  -5.319   7.256  1.00  0.00     0.012 A 
ATOM     70  C   UNL     1      13.600  -4.231   9.388  1.00  0.00     0.148 A 
ATOM     71  C   UNL     1      12.976  -6.537   7.910  1.00  0.00     0.002 A 
ATOM     72  C   UNL     1      13.458  -5.457  10.026  1.00  0.00     0.091 A 
ATOM     73  F   UNL     1      13.855  -3.106  10.071  1.00  0.00    -0.205 F 
ATOM     74  C   UNL     1      13.131  -6.608   9.291  1.00  0.00     0.022 A 
BRANCH  72  75
ATOM     75  S   UNL     1      13.719  -5.668  11.791  1.00  0.00     0.127 S 
ATOM     76  O   UNL     1      12.364  -5.960  12.257  1.00  0.00    -0.237 OA
ATOM     77  O   UNL     1      14.635  -6.808  11.831  1.00  0.00    -0.237 OA
ATOM     78  O   UNL     1      14.286  -4.415  12.268  1.00  0.00    -0.744 OA
ENDBRANCH  72  75
ENDBRANCH  54  68
BRANCH  55  79
ATOM     79  C   UNL     1      14.156   4.747   3.349  1.00  0.00     0.023 A 
ATOM     80  C   UNL     1      14.898   4.939   2.169  1.00  0.00     0.012 A 
ATOM     81  C   UNL     1      13.444   5.834   3.897  1.00  0.00     0.148 A 
ATOM     82  C   UNL     1      14.951   6.194   1.561  1.00  0.00     0.002 A 
ATOM     83  C   UNL     1      13.446   7.062   3.250  1.00  0.00     0.091 A 
ATOM     84  F   UNL     1      12.749   5.633   5.026  1.00  0.00    -0.205 F 
ATOM     85  C   UNL     1      14.216   7.251   2.093  1.00  0.00     0.022 A 
BRANCH  83  86
ATOM     86  S   UNL     1      12.402   8.429   3.769  1.00  0.00     0.127 S 
ATOM     87  O   UNL     1      13.390   9.405   4.223  1.00  0.00    -0.237 OA
ATOM     88  O   UNL     1      11.719   8.776   2.521  1.00  0.00    -0.237 OA
ATOM     89  O   UNL     1      11.526   7.891   4.800  1.00  0.00    -0.744 OA
ENDBRANCH  83  86
ENDBRANCH  55  79
BRANCH  67  90
ATOM     90  C   UNL     1      18.752   0.531   6.494  1.00  0.00     0.023 A 
ATOM     91  C   UNL     1      19.252   1.457   7.431  1.00  0.00     0.012 A 
ATOM     92  C   UNL     1      19.641  -0.332   5.825  1.00  0.00     0.148 A 
ATOM     93  C   UNL     1      20.622   1.546   7.671  1.00  0.00     0.002 A 
ATOM     94  C   UNL     1      20.998  -0.276   6.111  1.00  0.00     0.091 A 
ATOM     95  F   UNL     1      19.142  -1.191   4.924  1.00  0.00    -0.205 F 
ATOM     96  C   UNL     1      21.492   0.673   7.021  1.00  0.00     0.022 A 
BRANCH  94  97
ATOM     97  S   UNL     1      22.178  -1.427   5.401  1.00  0.00     0.127 S 
ATOM     98  O   UNL     1      22.933  -0.560   4.498  1.00  0.00    -0.237 OA
ATOM     99  O   UNL     1      22.919  -1.875   6.581  1.00  0.00    -0.237 OA
ATOM    100  O   UNL     1      21.388  -2.466   4.753  1.00  0.00    -0.744 OA
ENDBRANCH  94  97
ENDBRANCH  67  90
ENDBRANCH  41  42
ENDBRANCH  34  36
ENDBRANCH  33  34
ENDBRANCH  32  33
ENDBRANCH   1  32
TORSDOF 17
