REMARK SMILES O=C(OCCOC(=O)[C@H]1CCCCN1C(=O)c1nc(C2CC2)n[nH]1)c1ccc(-c2c3nc(c(-c4cccc(S(=O)(=O)[O-])c4F)c4ccc([nH]4)c(-c4cccc(S(=O)(=O)[O-])c4F)c4nc(c(-c5cccc(S(=O)(=O)[O-])c5F)c5ccc2[nH]5)C=C4)C=C3)cc1
REMARK SMILES IDX 4 1 3 2 2 3 1 4 25 5 26 6 87 7 27 8 86 9 28 10 29 11 30 12
REMARK SMILES IDX 80 13 31 14 85 15 79 16 81 17 32 18 84 19 78 20 77 21 33 23
REMARK SMILES IDX 65 24 45 25 64 26 46 27 49 28 63 29 82 30 47 31 48 32 62 34
REMARK SMILES IDX 83 35 50 36 34 37 35 38 43 39 36 40 38 41 44 42 37 43 39 44
REMARK SMILES IDX 40 45 41 46 42 47 66 48 67 49 75 50 68 51 70 52 76 53 69 54
REMARK SMILES IDX 71 55 72 56 73 57 74 58 51 59 52 60 60 61 53 62 55 63 61 64
REMARK SMILES IDX 54 65 56 66 57 67 58 68 59 69 5 70 6 71 7 72 8 73 9 74 10 75
REMARK SMILES IDX 14 76 11 77 13 78 12 79 15 80 16 81 17 82 18 83 24 84 19 85
REMARK SMILES IDX 23 86 20 88 21 89 22 90
REMARK H PARENT 81 22 49 33 24 87
REMARK Flexibility Score: inf
ROOT
ATOM      1  C   UNL     1       4.304   0.285  -6.686  1.00  0.00     0.275 C 
ENDROOT
BRANCH   1   2
ATOM      2  O   UNL     1       5.347   0.094  -5.740  1.00  0.00    -0.458 OA
BRANCH   2   3
ATOM      3  C   UNL     1       5.604   0.964  -4.749  1.00  0.00     0.338 C 
ATOM      4  O   UNL     1       6.696   0.955  -4.187  1.00  0.00    -0.246 OA
BRANCH   3   5
ATOM      5  C   UNL     1       4.548   1.862  -4.202  1.00  0.00     0.060 A 
ATOM      6  C   UNL     1       2.785   1.604  -4.266  1.00  0.00     0.016 A 
ATOM      7  C   UNL     1       5.128   2.851  -2.891  1.00  0.00     0.016 A 
ATOM      8  C   UNL     1       1.709   2.324  -2.804  1.00  0.00     0.010 A 
ATOM      9  C   UNL     1       4.134   3.505  -1.648  1.00  0.00     0.010 A 
ATOM     10  C   UNL     1       2.437   3.352  -1.584  1.00  0.00    -0.014 A 
BRANCH  10  11
ATOM     11  C   UNL     1       1.548   4.474  -1.081  1.00  0.00     0.031 A 
ATOM     12  C   UNL     1       1.901   5.941  -1.331  1.00  0.00     0.074 A 
ATOM     13  C   UNL     1       0.275   4.172  -0.743  1.00  0.00     0.049 A 
ATOM     14  N   UNL     1       1.156   7.004  -1.133  1.00  0.00    -0.248 NA
ATOM     15  C   UNL     1       3.206   6.284  -1.923  1.00  0.00     0.031 C 
ATOM     16  C   UNL     1      -0.255   2.812  -0.618  1.00  0.00     0.029 A 
ATOM     17  N   UNL     1      -0.829   4.964  -0.529  1.00  0.00    -0.354 N 
ATOM     18  C   UNL     1       1.928   8.099  -1.518  1.00  0.00     0.074 A 
ATOM     19  C   UNL     1       3.147   7.592  -2.071  1.00  0.00     0.031 C 
ATOM     20  C   UNL     1      -1.587   2.867  -0.524  1.00  0.00     0.029 A 
ATOM     21  C   UNL     1      -1.967   4.238  -0.259  1.00  0.00     0.049 A 
ATOM     22  H   UNL     1      -0.808   5.947  -0.565  1.00  0.00     0.167 HD
ATOM     23  C   UNL     1       1.700   9.419  -1.338  1.00  0.00     0.034 A 
ATOM     24  C   UNL     1      -3.141   4.580   0.306  1.00  0.00     0.034 A 
ATOM     25  C   UNL     1       0.542   9.914  -0.662  1.00  0.00     0.049 A 
ATOM     26  C   UNL     1      -3.299   6.004   0.711  1.00  0.00     0.074 A 
ATOM     27  C   UNL     1       0.259  11.206  -0.269  1.00  0.00     0.029 A 
ATOM     28  N   UNL     1      -0.497   9.111  -0.218  1.00  0.00    -0.354 N 
ATOM     29  N   UNL     1      -2.490   7.004   0.465  1.00  0.00    -0.248 NA
ATOM     30  C   UNL     1      -4.488   6.352   1.493  1.00  0.00     0.031 C 
ATOM     31  C   UNL     1      -0.904  11.166   0.503  1.00  0.00     0.029 A 
ATOM     32  C   UNL     1      -1.404   9.871   0.489  1.00  0.00     0.049 A 
ATOM     33  H   UNL     1      -0.576   8.143  -0.382  1.00  0.00     0.167 HD
ATOM     34  C   UNL     1      -3.077   8.111   1.046  1.00  0.00     0.074 A 
ATOM     35  C   UNL     1      -4.314   7.658   1.653  1.00  0.00     0.031 C 
ATOM     36  C   UNL     1      -2.631   9.387   1.063  1.00  0.00     0.034 A 
BRANCH  23  37
ATOM     37  C   UNL     1       2.838  10.357  -1.664  1.00  0.00     0.023 A 
ATOM     38  C   UNL     1       3.225  10.619  -2.995  1.00  0.00     0.012 A 
ATOM     39  C   UNL     1       3.593  10.907  -0.607  1.00  0.00     0.148 A 
ATOM     40  C   UNL     1       4.377  11.363  -3.262  1.00  0.00     0.002 A 
ATOM     41  C   UNL     1       4.704  11.692  -0.882  1.00  0.00     0.091 A 
ATOM     42  F   UNL     1       3.237  10.612   0.651  1.00  0.00    -0.205 F 
ATOM     43  C   UNL     1       5.112  11.903  -2.208  1.00  0.00     0.022 A 
BRANCH  41  44
ATOM     44  S   UNL     1       5.672  12.476   0.410  1.00  0.00     0.127 S 
ATOM     45  O   UNL     1       6.947  11.769   0.294  1.00  0.00    -0.237 OA
ATOM     46  O   UNL     1       5.702  13.868  -0.039  1.00  0.00    -0.237 OA
ATOM     47  O   UNL     1       4.947  12.251   1.653  1.00  0.00    -0.744 OA
ENDBRANCH  41  44
ENDBRANCH  23  37
BRANCH  24  48
ATOM     48  C   UNL     1      -4.114   3.515   0.703  1.00  0.00     0.023 A 
ATOM     49  C   UNL     1      -5.394   3.443   0.129  1.00  0.00     0.012 A 
ATOM     50  C   UNL     1      -3.712   2.499   1.601  1.00  0.00     0.148 A 
ATOM     51  C   UNL     1      -6.243   2.371   0.430  1.00  0.00     0.002 A 
ATOM     52  C   UNL     1      -4.520   1.394   1.820  1.00  0.00     0.091 A 
ATOM     53  F   UNL     1      -2.501   2.600   2.168  1.00  0.00    -0.205 F 
ATOM     54  C   UNL     1      -5.798   1.336   1.253  1.00  0.00     0.022 A 
BRANCH  52  55
ATOM     55  S   UNL     1      -3.923  -0.061   2.688  1.00  0.00     0.127 S 
ATOM     56  O   UNL     1      -4.803  -0.101   3.852  1.00  0.00    -0.237 OA
ATOM     57  O   UNL     1      -4.147  -1.111   1.694  1.00  0.00    -0.237 OA
ATOM     58  O   UNL     1      -2.516   0.193   2.966  1.00  0.00    -0.744 OA
ENDBRANCH  52  55
ENDBRANCH  24  48
BRANCH  36  59
ATOM     59  C   UNL     1      -3.533  10.414   1.664  1.00  0.00     0.023 A 
ATOM     60  C   UNL     1      -3.677  10.525   3.057  1.00  0.00     0.012 A 
ATOM     61  C   UNL     1      -4.138  11.350   0.807  1.00  0.00     0.148 A 
ATOM     62  C   UNL     1      -4.434  11.565   3.591  1.00  0.00     0.002 A 
ATOM     63  C   UNL     1      -4.830  12.417   1.348  1.00  0.00     0.091 A 
ATOM     64  F   UNL     1      -3.994  11.190  -0.517  1.00  0.00    -0.205 F 
ATOM     65  C   UNL     1      -4.991  12.520   2.739  1.00  0.00     0.022 A 
BRANCH  63  66
ATOM     66  S   UNL     1      -5.466  13.747   0.329  1.00  0.00     0.127 S 
ATOM     67  O   UNL     1      -6.908  13.604   0.526  1.00  0.00    -0.237 OA
ATOM     68  O   UNL     1      -4.873  14.924   0.962  1.00  0.00    -0.237 OA
ATOM     69  O   UNL     1      -5.000  13.484  -1.026  1.00  0.00    -0.744 OA
ENDBRANCH  63  66
ENDBRANCH  36  59
ENDBRANCH  10  11
ENDBRANCH   3   5
ENDBRANCH   2   3
ENDBRANCH   1   2
BRANCH   1  70
ATOM     70  C   UNL     1       3.201  -0.785  -6.547  1.00  0.00     0.274 C 
BRANCH  70  71
ATOM     71  O   UNL     1       2.422  -0.791  -5.315  1.00  0.00    -0.461 OA
BRANCH  71  72
ATOM     72  C   UNL     1       3.011  -0.971  -4.080  1.00  0.00     0.328 C 
ATOM     73  O   UNL     1       4.052  -1.593  -3.922  1.00  0.00    -0.250 OA
BRANCH  72  74
ATOM     74  C   UNL     1       2.324  -0.029  -2.967  1.00  0.00     0.195 C 
ATOM     75  C   UNL     1       3.389   1.515  -2.465  1.00  0.00     0.037 C 
ATOM     76  N   UNL     1       0.763   0.331  -3.437  1.00  0.00    -0.322 N 
ATOM     77  C   UNL     1       3.046   3.335  -3.674  1.00  0.00     0.005 C 
ATOM     78  C   UNL     1       0.348   1.593  -4.595  1.00  0.00     0.121 C 
ATOM     79  C   UNL     1       1.348   3.222  -4.692  1.00  0.00     0.022 C 
BRANCH  76  80
ATOM     80  C   UNL     1      -0.161  -0.295  -2.547  1.00  0.00     0.291 C 
ATOM     81  O   UNL     1       0.250  -0.940  -1.581  1.00  0.00    -0.265 OA
BRANCH  80  82
ATOM     82  C   UNL     1      -1.573  -0.152  -2.729  1.00  0.00     0.214 A 
ATOM     83  N   UNL     1      -2.207  -0.112  -3.880  1.00  0.00    -0.207 NA
ATOM     84  N   UNL     1      -2.495  -0.208  -1.710  1.00  0.00    -0.255 N 
ATOM     85  C   UNL     1      -3.518  -0.038  -3.498  1.00  0.00     0.154 A 
ATOM     86  N   UNL     1      -3.734   0.021  -2.185  1.00  0.00    -0.158 NA
ATOM     87  H   UNL     1      -2.279  -0.389  -0.767  1.00  0.00     0.192 HD
BRANCH  85  88
ATOM     88  C   UNL     1      -4.640  -0.096  -4.504  1.00  0.00     0.060 C 
ATOM     89  C   UNL     1      -4.258  -0.140  -5.967  1.00  0.00     0.012 C 
ATOM     90  C   UNL     1      -4.794  -1.369  -5.307  1.00  0.00     0.012 C 
ENDBRANCH  85  88
ENDBRANCH  80  82
ENDBRANCH  76  80
ENDBRANCH  72  74
ENDBRANCH  71  72
ENDBRANCH  70  71
ENDBRANCH   1  70
TORSDOF 17
