REMARK SMILES CC1(C)CCN(C(=O)CC(C)(C)C(=O)OCCOC(=O)c2ccc(-c3c4nc(c(-c5cccc(S(=O)(=O)[O-])c5F)c5ccc([nH]5)c(-c5cccc(S(=O)(=O)[O-])c5F)c5nc(c(-c6cccc(S(=O)(=O)[O-])c6F)c6ccc3[nH]6)C=C5)C=C4)cc2)C1
REMARK SMILES IDX 16 1 15 2 13 3 14 4 10 5 11 6 12 7 9 8 7 9 8 10 6 11 1 12
REMARK SMILES IDX 2 13 3 14 4 15 84 16 5 17 17 18 18 19 19 20 20 21 21 22
REMARK SMILES IDX 22 23 83 24 23 25 82 26 24 27 25 28 26 29 76 30 27 31 81 32
REMARK SMILES IDX 75 33 77 34 28 35 80 36 74 37 73 38 29 40 61 41 41 42 60 43
REMARK SMILES IDX 42 44 45 45 59 46 78 47 43 48 44 49 58 51 79 52 46 53 30 54
REMARK SMILES IDX 31 55 39 56 32 57 34 58 40 59 33 60 35 61 36 62 37 63 38 64
REMARK SMILES IDX 62 65 63 66 71 67 64 68 66 69 72 70 65 71 67 72 68 73 69 74
REMARK SMILES IDX 70 75 47 76 48 77 56 78 49 79 51 80 57 81 50 82 52 83 53 84
REMARK SMILES IDX 54 85 55 86
REMARK H PARENT 77 39 45 50
REMARK Flexibility Score: inf
ROOT
ATOM      1  C   UNL     1       1.629   2.854  -4.992  1.00  0.00     0.274 C 
ENDROOT
BRANCH   1   2
ATOM      2  O   UNL     1       1.392   3.513  -3.732  1.00  0.00    -0.462 OA
BRANCH   2   3
ATOM      3  C   UNL     1       1.227   2.712  -2.640  1.00  0.00     0.312 C 
ATOM      4  O   UNL     1       1.227   1.491  -2.692  1.00  0.00    -0.252 OA
BRANCH   3   5
ATOM      5  C   UNL     1       0.825   3.526  -1.395  1.00  0.00     0.071 C 
ATOM      6  C   UNL     1      -0.714   3.493  -1.397  1.00  0.00     0.024 C 
ATOM      7  C   UNL     1       1.245   5.009  -1.501  1.00  0.00     0.024 C 
BRANCH   5   8
ATOM      8  C   UNL     1       1.395   2.974  -0.053  1.00  0.00     0.118 C 
BRANCH   8   9
ATOM      9  C   UNL     1       1.840   1.521  -0.001  1.00  0.00     0.223 C 
ATOM     10  O   UNL     1       3.000   1.230  -0.294  1.00  0.00    -0.275 OA
BRANCH   9  11
ATOM     11  N   UNL     1       0.933   0.570   0.385  1.00  0.00    -0.342 N 
ATOM     12  C   UNL     1      -1.446  -0.453  -1.175  1.00  0.00     0.013 C 
ATOM     13  C   UNL     1      -1.133  -0.529   0.330  1.00  0.00    -0.016 C 
ATOM     14  C   UNL     1      -2.422  -0.789   1.103  1.00  0.00     0.013 C 
ATOM     15  C   UNL     1      -0.039  -1.578   0.610  1.00  0.00     0.030 C 
ATOM     16  C   UNL     1      -0.438   0.746   0.817  1.00  0.00     0.126 C 
ATOM     17  C   UNL     1       1.264  -0.846   0.284  1.00  0.00     0.120 C 
ENDBRANCH   9  11
ENDBRANCH   8   9
ENDBRANCH   5   8
ENDBRANCH   3   5
ENDBRANCH   2   3
ENDBRANCH   1   2
BRANCH   1  18
ATOM     18  C   UNL     1       2.901   3.403  -5.635  1.00  0.00     0.275 C 
BRANCH  18  19
ATOM     19  O   UNL     1       4.036   3.091  -4.809  1.00  0.00    -0.458 OA
BRANCH  19  20
ATOM     20  C   UNL     1       4.481   4.102  -4.033  1.00  0.00     0.338 C 
ATOM     21  O   UNL     1       4.111   5.271  -4.046  1.00  0.00    -0.246 OA
BRANCH  20  22
ATOM     22  C   UNL     1       5.387   3.561  -3.017  1.00  0.00     0.060 A 
ATOM     23  C   UNL     1       4.859   3.317  -1.752  1.00  0.00     0.016 A 
ATOM     24  C   UNL     1       6.743   3.361  -3.267  1.00  0.00     0.016 A 
ATOM     25  C   UNL     1       5.678   2.891  -0.714  1.00  0.00     0.010 A 
ATOM     26  C   UNL     1       7.567   2.915  -2.226  1.00  0.00     0.010 A 
ATOM     27  C   UNL     1       7.042   2.693  -0.938  1.00  0.00    -0.014 A 
BRANCH  27  28
ATOM     28  C   UNL     1       7.922   2.333   0.198  1.00  0.00     0.031 A 
ATOM     29  C   UNL     1       8.849   3.368   0.767  1.00  0.00     0.074 A 
ATOM     30  C   UNL     1       7.872   1.101   0.740  1.00  0.00     0.049 A 
ATOM     31  N   UNL     1       9.766   3.242   1.689  1.00  0.00    -0.248 NA
ATOM     32  C   UNL     1       8.718   4.733   0.229  1.00  0.00     0.031 C 
ATOM     33  C   UNL     1       6.964   0.031   0.328  1.00  0.00     0.029 A 
ATOM     34  N   UNL     1       8.617   0.541   1.749  1.00  0.00    -0.354 N 
ATOM     35  C   UNL     1      10.351   4.495   1.814  1.00  0.00     0.074 A 
ATOM     36  C   UNL     1       9.683   5.371   0.876  1.00  0.00     0.031 C 
ATOM     37  C   UNL     1       7.221  -1.066   1.061  1.00  0.00     0.029 A 
ATOM     38  C   UNL     1       8.335  -0.788   1.964  1.00  0.00     0.049 A 
ATOM     39  H   UNL     1       9.287   1.042   2.267  1.00  0.00     0.167 HD
ATOM     40  C   UNL     1      11.349   4.883   2.642  1.00  0.00     0.034 A 
ATOM     41  C   UNL     1       8.928  -1.684   2.778  1.00  0.00     0.034 A 
ATOM     42  C   UNL     1      11.989   4.021   3.597  1.00  0.00     0.049 A 
ATOM     43  C   UNL     1      10.073  -1.238   3.650  1.00  0.00     0.074 A 
ATOM     44  C   UNL     1      13.011   4.323   4.480  1.00  0.00     0.029 A 
ATOM     45  N   UNL     1      11.669   2.687   3.797  1.00  0.00    -0.354 N 
ATOM     46  N   UNL     1      10.584  -0.039   3.796  1.00  0.00    -0.248 NA
ATOM     47  C   UNL     1      10.712  -2.267   4.484  1.00  0.00     0.031 C 
ATOM     48  C   UNL     1      13.318   3.166   5.206  1.00  0.00     0.029 A 
ATOM     49  C   UNL     1      12.476   2.149   4.785  1.00  0.00     0.049 A 
ATOM     50  H   UNL     1      10.971   2.194   3.308  1.00  0.00     0.167 HD
ATOM     51  C   UNL     1      11.580  -0.162   4.758  1.00  0.00     0.074 A 
ATOM     52  C   UNL     1      11.586  -1.549   5.178  1.00  0.00     0.031 C 
ATOM     53  C   UNL     1      12.428   0.781   5.237  1.00  0.00     0.034 A 
BRANCH  40  54
ATOM     54  C   UNL     1      11.800   6.314   2.556  1.00  0.00     0.023 A 
ATOM     55  C   UNL     1      11.008   7.330   3.126  1.00  0.00     0.012 A 
ATOM     56  C   UNL     1      13.022   6.649   1.941  1.00  0.00     0.148 A 
ATOM     57  C   UNL     1      11.412   8.664   3.061  1.00  0.00     0.002 A 
ATOM     58  C   UNL     1      13.436   7.976   1.913  1.00  0.00     0.091 A 
ATOM     59  F   UNL     1      13.746   5.670   1.381  1.00  0.00    -0.205 F 
ATOM     60  C   UNL     1      12.628   8.985   2.464  1.00  0.00     0.022 A 
BRANCH  58  61
ATOM     61  S   UNL     1      15.016   8.477   1.222  1.00  0.00     0.127 S 
ATOM     62  O   UNL     1      14.605   9.100  -0.036  1.00  0.00    -0.237 OA
ATOM     63  O   UNL     1      15.513   9.413   2.231  1.00  0.00    -0.237 OA
ATOM     64  O   UNL     1      15.800   7.257   1.091  1.00  0.00    -0.744 OA
ENDBRANCH  58  61
ENDBRANCH  40  54
BRANCH  41  65
ATOM     65  C   UNL     1       8.439  -3.092   2.825  1.00  0.00     0.023 A 
ATOM     66  C   UNL     1       7.811  -3.566   3.993  1.00  0.00     0.012 A 
ATOM     67  C   UNL     1       8.589  -3.960   1.726  1.00  0.00     0.148 A 
ATOM     68  C   UNL     1       7.367  -4.886   4.076  1.00  0.00     0.002 A 
ATOM     69  C   UNL     1       8.097  -5.259   1.796  1.00  0.00     0.091 A 
ATOM     70  F   UNL     1       9.214  -3.501   0.632  1.00  0.00    -0.205 F 
ATOM     71  C   UNL     1       7.500  -5.729   2.976  1.00  0.00     0.022 A 
BRANCH  69  72
ATOM     72  S   UNL     1       8.124  -6.376   0.389  1.00  0.00     0.127 S 
ATOM     73  O   UNL     1       9.170  -7.319   0.775  1.00  0.00    -0.237 OA
ATOM     74  O   UNL     1       6.766  -6.922   0.409  1.00  0.00    -0.237 OA
ATOM     75  O   UNL     1       8.416  -5.542  -0.768  1.00  0.00    -0.744 OA
ENDBRANCH  69  72
ENDBRANCH  41  65
BRANCH  53  76
ATOM     76  C   UNL     1      13.420   0.362   6.290  1.00  0.00     0.023 A 
ATOM     77  C   UNL     1      14.537  -0.415   5.924  1.00  0.00     0.012 A 
ATOM     78  C   UNL     1      13.292   0.804   7.622  1.00  0.00     0.148 A 
ATOM     79  C   UNL     1      15.496  -0.769   6.872  1.00  0.00     0.002 A 
ATOM     80  C   UNL     1      14.275   0.485   8.552  1.00  0.00     0.091 A 
ATOM     81  F   UNL     1      12.212   1.525   7.957  1.00  0.00    -0.205 F 
ATOM     82  C   UNL     1      15.373  -0.309   8.181  1.00  0.00     0.022 A 
BRANCH  80  83
ATOM     83  S   UNL     1      14.242   1.113  10.235  1.00  0.00     0.127 S 
ATOM     84  O   UNL     1      13.794  -0.060  10.983  1.00  0.00    -0.237 OA
ATOM     85  O   UNL     1      15.640   1.483  10.460  1.00  0.00    -0.237 OA
ATOM     86  O   UNL     1      13.319   2.240  10.220  1.00  0.00    -0.744 OA
ENDBRANCH  80  83
ENDBRANCH  53  76
ENDBRANCH  27  28
ENDBRANCH  20  22
ENDBRANCH  19  20
ENDBRANCH  18  19
ENDBRANCH   1  18
TORSDOF 17
