REMARK SMILES Cc1cc(C)cc(C[N@@H+]2CCO[C@@H](CC(=O)OCCOC(=O)c3ccc(-c4c5nc(c(-c6cccc(S(=O)(=O)[O-])c6F)c6ccc([nH]6)c(-c6cccc(S(=O)(=O)[O-])c6F)c6nc(c(-c7cccc(S(=O)(=O)[O-])c7F)c7ccc4[nH]7)C=C6)C=C5)cc3)C2)c1
REMARK SMILES IDX 18 1 17 2 15 3 16 4 14 5 13 6 9 7 10 8 86 9 11 11 12 12 8 13
REMARK SMILES IDX 7 14 1 15 2 16 3 17 87 18 4 19 5 20 6 21 19 22 20 23 21 24
REMARK SMILES IDX 22 25 23 26 24 27 85 28 25 29 84 30 26 31 27 32 28 33 78 34
REMARK SMILES IDX 29 35 83 36 77 37 79 38 30 39 82 40 76 41 75 42 31 44 63 45
REMARK SMILES IDX 43 46 62 47 44 48 47 49 61 50 80 51 45 52 46 53 60 55 81 56
REMARK SMILES IDX 48 57 32 58 33 59 41 60 34 61 36 62 42 63 35 64 37 65 38 66
REMARK SMILES IDX 39 67 40 68 64 69 65 70 73 71 66 72 68 73 74 74 67 75 69 76
REMARK SMILES IDX 70 77 71 78 72 79 49 80 50 81 58 82 51 83 53 84 59 85 52 86
REMARK SMILES IDX 54 87 55 88 56 89 57 90
REMARK H PARENT 9 10 79 43 47 54
REMARK Flexibility Score: inf
ROOT
ATOM      1  C   UNL     1       3.968  -3.382   3.895  1.00  0.00     0.274 C 
ENDROOT
BRANCH   1   2
ATOM      2  O   UNL     1       2.530  -3.285   3.840  1.00  0.00    -0.462 OA
BRANCH   2   3
ATOM      3  C   UNL     1       1.982  -2.180   4.412  1.00  0.00     0.308 C 
ATOM      4  O   UNL     1       2.621  -1.296   4.969  1.00  0.00    -0.252 OA
BRANCH   3   5
ATOM      5  C   UNL     1       0.481  -2.215   4.395  1.00  0.00     0.160 C 
BRANCH   5   6
ATOM      6  C   UNL     1      -0.230  -2.186   3.041  1.00  0.00     0.184 C 
ATOM      7  N   UNL     1      -0.864  -3.641   1.020  1.00  0.00    -0.327 N 
ATOM      8  C   UNL     1      -2.254  -3.378   1.390  1.00  0.00     0.291 C 
ATOM      9  C   UNL     1       0.061  -3.419   2.145  1.00  0.00     0.295 C 
ATOM     10  H   UNL     1      -0.822  -4.644   0.839  1.00  0.00     0.348 HD
ATOM     11  C   UNL     1      -2.467  -2.126   2.250  1.00  0.00     0.222 C 
ATOM     12  O   UNL     1      -1.634  -2.155   3.405  1.00  0.00    -0.366 OA
BRANCH   7  13
ATOM     13  C   UNL     1      -0.430  -3.171  -0.300  1.00  0.00     0.299 C 
BRANCH  13  14
ATOM     14  C   UNL     1      -0.366  -1.683  -0.555  1.00  0.00     0.007 A 
ATOM     15  C   UNL     1       2.281   1.026  -1.022  1.00  0.00     0.044 C 
ATOM     16  C   UNL     1       0.955   0.345  -0.877  1.00  0.00    -0.050 A 
ATOM     17  C   UNL     1      -0.220   1.102  -0.906  1.00  0.00     0.006 A 
ATOM     18  C   UNL     1       0.871  -1.041  -0.693  1.00  0.00     0.013 A 
ATOM     19  C   UNL     1      -1.468   0.479  -0.818  1.00  0.00    -0.050 A 
ATOM     20  C   UNL     1      -2.718   1.307  -0.778  1.00  0.00     0.044 C 
ATOM     21  C   UNL     1      -1.528  -0.914  -0.695  1.00  0.00     0.013 A 
ENDBRANCH  13  14
ENDBRANCH   7  13
ENDBRANCH   5   6
ENDBRANCH   3   5
ENDBRANCH   2   3
ENDBRANCH   1   2
BRANCH   1  22
ATOM     22  C   UNL     1       4.652  -2.819   2.643  1.00  0.00     0.275 C 
BRANCH  22  23
ATOM     23  O   UNL     1       4.701  -1.379   2.635  1.00  0.00    -0.458 OA
BRANCH  23  24
ATOM     24  C   UNL     1       3.587  -0.788   2.152  1.00  0.00     0.338 C 
ATOM     25  O   UNL     1       2.605  -1.373   1.712  1.00  0.00    -0.246 OA
BRANCH  24  26
ATOM     26  C   UNL     1       3.628   0.675   2.290  1.00  0.00     0.060 A 
ATOM     27  C   UNL     1       2.481   1.318   2.772  1.00  0.00     0.016 A 
ATOM     28  C   UNL     1       4.726   1.419   1.854  1.00  0.00     0.016 A 
ATOM     29  C   UNL     1       2.426   2.709   2.817  1.00  0.00     0.010 A 
ATOM     30  C   UNL     1       4.668   2.816   1.895  1.00  0.00     0.010 A 
ATOM     31  C   UNL     1       3.517   3.467   2.370  1.00  0.00    -0.014 A 
BRANCH  31  32
ATOM     32  C   UNL     1       3.475   4.945   2.459  1.00  0.00     0.031 A 
ATOM     33  C   UNL     1       3.178   5.784   1.252  1.00  0.00     0.074 A 
ATOM     34  C   UNL     1       3.741   5.524   3.644  1.00  0.00     0.049 A 
ATOM     35  N   UNL     1       3.120   7.087   1.150  1.00  0.00    -0.248 NA
ATOM     36  C   UNL     1       2.908   5.071  -0.004  1.00  0.00     0.031 C 
ATOM     37  C   UNL     1       4.053   4.801   4.878  1.00  0.00     0.029 A 
ATOM     38  N   UNL     1       3.820   6.846   3.997  1.00  0.00    -0.354 N 
ATOM     39  C   UNL     1       2.819   7.352  -0.180  1.00  0.00     0.074 A 
ATOM     40  C   UNL     1       2.713   6.074  -0.851  1.00  0.00     0.031 C 
ATOM     41  C   UNL     1       4.326   5.690   5.846  1.00  0.00     0.029 A 
ATOM     42  C   UNL     1       4.226   7.039   5.295  1.00  0.00     0.049 A 
ATOM     43  H   UNL     1       3.607   7.583   3.381  1.00  0.00     0.167 HD
ATOM     44  C   UNL     1       2.635   8.552  -0.781  1.00  0.00     0.034 A 
ATOM     45  C   UNL     1       4.508   8.175   5.961  1.00  0.00     0.034 A 
ATOM     46  C   UNL     1       2.740   9.818  -0.104  1.00  0.00     0.049 A 
ATOM     47  C   UNL     1       4.320   9.494   5.263  1.00  0.00     0.074 A 
ATOM     48  C   UNL     1       2.525  11.087  -0.613  1.00  0.00     0.029 A 
ATOM     49  N   UNL     1       3.105   9.978   1.224  1.00  0.00    -0.354 N 
ATOM     50  N   UNL     1       3.901   9.727   4.043  1.00  0.00    -0.248 NA
ATOM     51  C   UNL     1       4.611  10.705   6.042  1.00  0.00     0.031 C 
ATOM     52  C   UNL     1       2.779  12.015   0.403  1.00  0.00     0.029 A 
ATOM     53  C   UNL     1       3.137  11.323   1.549  1.00  0.00     0.049 A 
ATOM     54  H   UNL     1       3.312   9.242   1.845  1.00  0.00     0.167 HD
ATOM     55  C   UNL     1       3.848  11.110   3.916  1.00  0.00     0.074 A 
ATOM     56  C   UNL     1       4.261  11.662   5.191  1.00  0.00     0.031 C 
ATOM     57  C   UNL     1       3.503  11.855   2.837  1.00  0.00     0.034 A 
BRANCH  44  58
ATOM     58  C   UNL     1       2.260   8.560  -2.238  1.00  0.00     0.023 A 
ATOM     59  C   UNL     1       0.939   8.240  -2.611  1.00  0.00     0.012 A 
ATOM     60  C   UNL     1       3.180   8.961  -3.227  1.00  0.00     0.148 A 
ATOM     61  C   UNL     1       0.543   8.301  -3.947  1.00  0.00     0.002 A 
ATOM     62  C   UNL     1       2.769   9.050  -4.553  1.00  0.00     0.091 A 
ATOM     63  F   UNL     1       4.438   9.238  -2.856  1.00  0.00    -0.205 F 
ATOM     64  C   UNL     1       1.454   8.715  -4.915  1.00  0.00     0.022 A 
BRANCH  62  65
ATOM     65  S   UNL     1       3.852   9.636  -5.862  1.00  0.00     0.127 S 
ATOM     66  O   UNL     1       4.174   8.392  -6.557  1.00  0.00    -0.237 OA
ATOM     67  O   UNL     1       2.978  10.543  -6.607  1.00  0.00    -0.237 OA
ATOM     68  O   UNL     1       4.969  10.289  -5.192  1.00  0.00    -0.744 OA
ENDBRANCH  62  65
ENDBRANCH  44  58
BRANCH  45  69
ATOM     69  C   UNL     1       4.950   8.102   7.380  1.00  0.00     0.023 A 
ATOM     70  C   UNL     1       4.075   8.519   8.400  1.00  0.00     0.012 A 
ATOM     71  C   UNL     1       6.205   7.565   7.726  1.00  0.00     0.148 A 
ATOM     72  C   UNL     1       4.450   8.418   9.740  1.00  0.00     0.002 A 
ATOM     73  C   UNL     1       6.551   7.417   9.064  1.00  0.00     0.091 A 
ATOM     74  F   UNL     1       7.034   7.194   6.739  1.00  0.00    -0.205 F 
ATOM     75  C   UNL     1       5.680   7.855  10.073  1.00  0.00     0.022 A 
BRANCH  73  76
ATOM     76  S   UNL     1       8.056   6.577   9.571  1.00  0.00     0.127 S 
ATOM     77  O   UNL     1       8.919   7.699   9.930  1.00  0.00    -0.237 OA
ATOM     78  O   UNL     1       7.593   5.770  10.702  1.00  0.00    -0.237 OA
ATOM     79  O   UNL     1       8.471   5.796   8.414  1.00  0.00    -0.744 OA
ENDBRANCH  73  76
ENDBRANCH  45  69
BRANCH  57  80
ATOM     80  C   UNL     1       3.538  13.352   2.987  1.00  0.00     0.023 A 
ATOM     81  C   UNL     1       4.779  14.019   2.998  1.00  0.00     0.012 A 
ATOM     82  C   UNL     1       2.347  14.102   3.039  1.00  0.00     0.148 A 
ATOM     83  C   UNL     1       4.834  15.409   3.084  1.00  0.00     0.002 A 
ATOM     84  C   UNL     1       2.409  15.490   3.082  1.00  0.00     0.091 A 
ATOM     85  F   UNL     1       1.177  13.447   3.048  1.00  0.00    -0.205 F 
ATOM     86  C   UNL     1       3.651  16.145   3.114  1.00  0.00     0.022 A 
BRANCH  84  87
ATOM     87  S   UNL     1       0.936  16.518   3.034  1.00  0.00     0.127 S 
ATOM     88  O   UNL     1       0.830  16.951   4.426  1.00  0.00    -0.237 OA
ATOM     89  O   UNL     1       1.320  17.573   2.095  1.00  0.00    -0.237 OA
ATOM     90  O   UNL     1      -0.137  15.654   2.561  1.00  0.00    -0.744 OA
ENDBRANCH  84  87
ENDBRANCH  57  80
ENDBRANCH  31  32
ENDBRANCH  24  26
ENDBRANCH  23  24
ENDBRANCH  22  23
ENDBRANCH   1  22
TORSDOF 17
