REMARK SMILES [NH3+]C1CC[NH+](CC(=O)Nc2cc(Cl)ccc2C(=O)OCCOC(=O)c2ccc(-c3c4nc(c(-c5cccc(S(=O)(=O)[O-])c5F)c5ccc([nH]5)c(-c5cccc(S(=O)(=O)[O-])c5F)c5nc(c(-c6cccc(S(=O)(=O)[O-])c6F)c6ccc3[nH]6)C=C5)C=C4)cc2)CC1
REMARK SMILES IDX 20 1 19 2 17 3 18 4 16 5 10 6 11 7 12 8 15 9 13 10 14 11
REMARK SMILES IDX 9 12 7 13 8 14 6 16 5 17 2 18 3 19 89 20 4 21 88 22 1 24
REMARK SMILES IDX 21 28 22 29 23 30 24 31 25 32 26 33 87 34 27 35 86 36 28 37
REMARK SMILES IDX 29 38 30 39 80 40 31 41 85 42 79 43 81 44 32 45 84 46 78 47
REMARK SMILES IDX 77 48 33 50 65 51 45 52 64 53 46 54 49 55 63 56 82 57 47 58
REMARK SMILES IDX 48 59 62 61 83 62 50 63 34 64 35 65 43 66 36 67 38 68 44 69
REMARK SMILES IDX 37 70 39 71 40 72 41 73 42 74 66 75 67 76 75 77 68 78 70 79
REMARK SMILES IDX 76 80 69 81 71 82 72 83 73 84 74 85 51 86 52 87 60 88 53 89
REMARK SMILES IDX 55 90 61 91 54 92 56 93 57 94 58 95 59 96
REMARK H PARENT 9 15 5 23 1 25 1 26 1 27 81 49 49 60
REMARK Flexibility Score: inf
ROOT
ATOM      1  C   UNL     1       0.412   5.468  -4.871  1.00  0.00     0.275 C 
ENDROOT
BRANCH   1   2
ATOM      2  O   UNL     1       0.992   5.086  -3.606  1.00  0.00    -0.458 OA
BRANCH   2   3
ATOM      3  C   UNL     1       2.131   4.346  -3.648  1.00  0.00     0.340 C 
ATOM      4  O   UNL     1       2.643   3.881  -4.643  1.00  0.00    -0.246 OA
BRANCH   3   5
ATOM      5  C   UNL     1       2.768   4.296  -2.293  1.00  0.00     0.083 A 
ATOM      6  C   UNL     1       2.064   4.412  -1.067  1.00  0.00     0.057 A 
ATOM      7  C   UNL     1       2.820   4.423   0.108  1.00  0.00     0.047 A 
ATOM      8  C   UNL     1       4.211   4.239   0.085  1.00  0.00     0.043 A 
ATOM      9  C   UNL     1       4.166   4.101  -2.299  1.00  0.00     0.019 A 
ATOM     10  Cl  UNL     1       5.083   4.156   1.567  1.00  0.00    -0.084 Cl
ATOM     11  C   UNL     1       4.890   4.080  -1.113  1.00  0.00     0.021 A 
BRANCH   6  12
ATOM     12  N   UNL     1       0.649   4.428  -1.104  1.00  0.00    -0.320 N 
ATOM     13  C   UNL     1      -0.389   4.200  -0.251  1.00  0.00     0.279 C 
ATOM     14  O   UNL     1      -1.512   4.165  -0.779  1.00  0.00    -0.268 OA
ATOM     15  H   UNL     1       0.322   4.674  -2.000  1.00  0.00     0.170 HD
BRANCH  13  16
ATOM     16  C   UNL     1      -0.267   3.984   1.250  1.00  0.00     0.363 C 
BRANCH  16  17
ATOM     17  N   UNL     1      -0.149   2.597   1.728  1.00  0.00    -0.327 N 
ATOM     18  C   UNL     1      -0.071   0.231  -0.084  1.00  0.00     0.192 C 
ATOM     19  C   UNL     1      -1.403   0.862   0.354  1.00  0.00     0.126 C 
ATOM     20  C   UNL     1       1.069   1.235   0.051  1.00  0.00     0.126 C 
ATOM     21  C   UNL     1      -1.322   1.730   1.618  1.00  0.00     0.268 C 
ATOM     22  C   UNL     1       1.079   1.880   1.432  1.00  0.00     0.268 C 
ATOM     23  H   UNL     1      -0.089   2.832   2.719  1.00  0.00     0.348 HD
BRANCH  18  24
ATOM     24  N   UNL     1       0.250  -0.984   0.675  1.00  0.00    -0.355 N 
ATOM     25  H   UNL     1      -0.514  -1.653   0.583  1.00  0.00     0.344 HD
ATOM     26  H   UNL     1       0.378  -0.747   1.659  1.00  0.00     0.344 HD
ATOM     27  H   UNL     1       1.109  -1.396   0.310  1.00  0.00     0.344 HD
ENDBRANCH  18  24
ENDBRANCH  16  17
ENDBRANCH  13  16
ENDBRANCH   6  12
ENDBRANCH   3   5
ENDBRANCH   2   3
ENDBRANCH   1   2
BRANCH   1  28
ATOM     28  C   UNL     1       0.437   6.991  -4.997  1.00  0.00     0.275 C 
BRANCH  28  29
ATOM     29  O   UNL     1       1.803   7.439  -5.075  1.00  0.00    -0.458 OA
BRANCH  29  30
ATOM     30  C   UNL     1       2.279   8.061  -3.972  1.00  0.00     0.338 C 
ATOM     31  O   UNL     1       1.659   8.373  -2.969  1.00  0.00    -0.246 OA
BRANCH  30  32
ATOM     32  C   UNL     1       3.740   8.194  -4.073  1.00  0.00     0.060 A 
ATOM     33  C   UNL     1       4.499   7.034  -3.986  1.00  0.00     0.016 A 
ATOM     34  C   UNL     1       4.365   9.436  -4.059  1.00  0.00     0.016 A 
ATOM     35  C   UNL     1       5.862   7.105  -3.728  1.00  0.00     0.010 A 
ATOM     36  C   UNL     1       5.763   9.496  -3.960  1.00  0.00     0.010 A 
ATOM     37  C   UNL     1       6.530   8.335  -3.738  1.00  0.00    -0.014 A 
BRANCH  37  38
ATOM     38  C   UNL     1       8.004   8.400  -3.482  1.00  0.00     0.031 A 
ATOM     39  C   UNL     1       8.556   9.356  -2.450  1.00  0.00     0.074 A 
ATOM     40  C   UNL     1       8.864   7.609  -4.161  1.00  0.00     0.049 A 
ATOM     41  N   UNL     1       9.793   9.725  -2.239  1.00  0.00    -0.248 NA
ATOM     42  C   UNL     1       7.583  10.000  -1.552  1.00  0.00     0.031 C 
ATOM     43  C   UNL     1       8.493   6.599  -5.155  1.00  0.00     0.029 A 
ATOM     44  N   UNL     1      10.237   7.527  -4.118  1.00  0.00    -0.354 N 
ATOM     45  C   UNL     1       9.736  10.723  -1.272  1.00  0.00     0.074 A 
ATOM     46  C   UNL     1       8.341  10.883  -0.919  1.00  0.00     0.031 C 
ATOM     47  C   UNL     1       9.593   5.966  -5.583  1.00  0.00     0.029 A 
ATOM     48  C   UNL     1      10.762   6.608  -4.999  1.00  0.00     0.049 A 
ATOM     49  H   UNL     1      10.791   8.074  -3.515  1.00  0.00     0.167 HD
ATOM     50  C   UNL     1      10.749  11.443  -0.731  1.00  0.00     0.034 A 
ATOM     51  C   UNL     1      12.035   6.346  -5.354  1.00  0.00     0.034 A 
ATOM     52  C   UNL     1      12.141  11.212  -1.015  1.00  0.00     0.049 A 
ATOM     53  C   UNL     1      13.140   7.163  -4.751  1.00  0.00     0.074 A 
ATOM     54  C   UNL     1      13.246  11.845  -0.474  1.00  0.00     0.029 A 
ATOM     55  N   UNL     1      12.621  10.268  -1.911  1.00  0.00    -0.354 N 
ATOM     56  N   UNL     1      13.069   8.097  -3.835  1.00  0.00    -0.248 NA
ATOM     57  C   UNL     1      14.501   6.893  -5.235  1.00  0.00     0.031 C 
ATOM     58  C   UNL     1      14.393  11.306  -1.067  1.00  0.00     0.029 A 
ATOM     59  C   UNL     1      14.005  10.312  -1.950  1.00  0.00     0.049 A 
ATOM     60  H   UNL     1      12.060   9.658  -2.442  1.00  0.00     0.167 HD
ATOM     61  C   UNL     1      14.377   8.509  -3.611  1.00  0.00     0.074 A 
ATOM     62  C   UNL     1      15.221   7.706  -4.474  1.00  0.00     0.031 C 
ATOM     63  C   UNL     1      14.836   9.475  -2.778  1.00  0.00     0.034 A 
BRANCH  50  64
ATOM     64  C   UNL     1      10.387  12.567   0.210  1.00  0.00     0.023 A 
ATOM     65  C   UNL     1       9.878  12.293   1.495  1.00  0.00     0.012 A 
ATOM     66  C   UNL     1      10.579  13.908  -0.183  1.00  0.00     0.148 A 
ATOM     67  C   UNL     1       9.515  13.334   2.352  1.00  0.00     0.002 A 
ATOM     68  C   UNL     1      10.264  14.938   0.695  1.00  0.00     0.091 A 
ATOM     69  F   UNL     1      11.046  14.154  -1.415  1.00  0.00    -0.205 F 
ATOM     70  C   UNL     1       9.716  14.654   1.956  1.00  0.00     0.022 A 
BRANCH  68  71
ATOM     71  S   UNL     1      10.569  16.665   0.303  1.00  0.00     0.127 S 
ATOM     72  O   UNL     1       9.217  17.149   0.028  1.00  0.00    -0.237 OA
ATOM     73  O   UNL     1      11.153  17.167   1.548  1.00  0.00    -0.237 OA
ATOM     74  O   UNL     1      11.480  16.662  -0.833  1.00  0.00    -0.744 OA
ENDBRANCH  68  71
ENDBRANCH  50  64
BRANCH  51  75
ATOM     75  C   UNL     1      12.327   5.263  -6.339  1.00  0.00     0.023 A 
ATOM     76  C   UNL     1      12.998   4.103  -5.906  1.00  0.00     0.012 A 
ATOM     77  C   UNL     1      11.905   5.350  -7.681  1.00  0.00     0.148 A 
ATOM     78  C   UNL     1      13.256   3.057  -6.794  1.00  0.00     0.002 A 
ATOM     79  C   UNL     1      12.107   4.279  -8.542  1.00  0.00     0.091 A 
ATOM     80  F   UNL     1      11.286   6.470  -8.079  1.00  0.00    -0.205 F 
ATOM     81  C   UNL     1      12.797   3.138  -8.106  1.00  0.00     0.022 A 
BRANCH  79  82
ATOM     82  S   UNL     1      11.424   4.233 -10.203  1.00  0.00     0.127 S 
ATOM     83  O   UNL     1      12.631   4.270 -11.024  1.00  0.00    -0.237 OA
ATOM     84  O   UNL     1      10.718   2.951 -10.201  1.00  0.00    -0.237 OA
ATOM     85  O   UNL     1      10.555   5.398 -10.306  1.00  0.00    -0.744 OA
ENDBRANCH  79  82
ENDBRANCH  51  75
BRANCH  63  86
ATOM     86  C   UNL     1      16.325   9.687  -2.718  1.00  0.00     0.023 A 
ATOM     87  C   UNL     1      16.995  10.304  -3.793  1.00  0.00     0.012 A 
ATOM     88  C   UNL     1      17.050   9.328  -1.565  1.00  0.00     0.148 A 
ATOM     89  C   UNL     1      18.370  10.529  -3.734  1.00  0.00     0.002 A 
ATOM     90  C   UNL     1      18.410   9.603  -1.492  1.00  0.00     0.091 A 
ATOM     91  F   UNL     1      16.398   8.722  -0.562  1.00  0.00    -0.205 F 
ATOM     92  C   UNL     1      19.074  10.191  -2.581  1.00  0.00     0.022 A 
BRANCH  90  93
ATOM     93  S   UNL     1      19.376   9.293  -0.010  1.00  0.00     0.127 S 
ATOM     94  O   UNL     1      20.199   8.158  -0.423  1.00  0.00    -0.237 OA
ATOM     95  O   UNL     1      20.106  10.550   0.152  1.00  0.00    -0.237 OA
ATOM     96  O   UNL     1      18.413   9.014   1.047  1.00  0.00    -0.744 OA
ENDBRANCH  90  93
ENDBRANCH  63  86
ENDBRANCH  37  38
ENDBRANCH  30  32
ENDBRANCH  29  30
ENDBRANCH  28  29
ENDBRANCH   1  28
TORSDOF 18
