REMARK SMILES Cn1ccc(NC(=O)[C@@H]2CCCC[C@@H]2C(=O)OCCOC(=O)c2ccc(-c3c4nc(c(-c5cccc(S(=O)(=O)[O-])c5F)c5ccc([nH]5)c(-c5cccc(S(=O)(=O)[O-])c5F)c5nc(c(-c6cccc(S(=O)(=O)[O-])c6F)c6ccc3[nH]6)C=C5)C=C4)cc2)n1
REMARK SMILES IDX 19 1 18 2 17 3 15 4 16 5 14 6 9 7 10 8 11 9 13 10 12 11 7 12
REMARK SMILES IDX 6 13 8 15 5 16 1 17 2 18 3 19 86 20 4 21 20 22 21 23 22 24
REMARK SMILES IDX 23 25 24 26 85 27 25 28 84 29 26 30 27 31 28 32 78 33 29 34
REMARK SMILES IDX 83 35 77 36 79 37 30 38 82 39 76 40 75 41 31 43 63 44 43 45
REMARK SMILES IDX 62 46 44 47 47 48 61 49 80 50 45 51 46 52 60 54 81 55 48 56
REMARK SMILES IDX 32 57 33 58 41 59 34 60 36 61 42 62 35 63 37 64 38 65 39 66
REMARK SMILES IDX 40 67 64 68 65 69 73 70 66 71 68 72 74 73 67 74 69 75 70 76
REMARK SMILES IDX 71 77 72 78 49 79 50 80 58 81 51 82 53 83 59 84 52 85 54 86
REMARK SMILES IDX 55 87 56 88 57 89
REMARK H PARENT 6 14 79 42 47 53
REMARK Flexibility Score: inf
ROOT
ATOM      1  C   UNL     1       2.531   3.426   4.476  1.00  0.00     0.275 C 
ENDROOT
BRANCH   1   2
ATOM      2  C   UNL     1       2.393   2.315   3.444  1.00  0.00     0.274 C 
BRANCH   2   3
ATOM      3  O   UNL     1       1.785   2.816   2.235  1.00  0.00    -0.462 OA
BRANCH   3   4
ATOM      4  C   UNL     1       0.512   2.416   1.999  1.00  0.00     0.309 C 
ATOM      5  O   UNL     1      -0.160   1.753   2.784  1.00  0.00    -0.252 OA
BRANCH   4   6
ATOM      6  C   UNL     1      -0.023   2.817   0.633  1.00  0.00     0.111 C 
ATOM      7  C   UNL     1       0.991   3.232  -0.460  1.00  0.00     0.093 C 
ATOM      8  C   UNL     1       1.246   4.757  -0.411  1.00  0.00     0.014 C 
ATOM      9  C   UNL     1      -0.043   5.567  -0.473  1.00  0.00     0.001 C 
ATOM     10  C   UNL     1      -1.260   3.724   0.704  1.00  0.00     0.016 C 
ATOM     11  C   UNL     1      -0.948   5.210   0.690  1.00  0.00     0.001 C 
BRANCH   7  12
ATOM     12  C   UNL     1       2.346   2.494  -0.453  1.00  0.00     0.229 C 
ATOM     13  N   UNL     1       2.455   1.137  -0.496  1.00  0.00    -0.309 N 
ATOM     14  H   UNL     1       3.372   0.793  -0.395  1.00  0.00     0.171 HD
ATOM     15  O   UNL     1       3.415   3.116  -0.392  1.00  0.00    -0.274 OA
BRANCH  13  16
ATOM     16  C   UNL     1       1.494   0.175  -0.657  1.00  0.00     0.154 A 
ATOM     17  C   UNL     1      -1.844  -0.724  -0.830  1.00  0.00     0.173 C 
ATOM     18  N   UNL     1      -0.401  -0.739  -0.830  1.00  0.00    -0.274 N 
ATOM     19  C   UNL     1       0.418  -1.750  -0.427  1.00  0.00     0.110 A 
ATOM     20  N   UNL     1       0.266   0.389  -1.120  1.00  0.00    -0.155 NA
ATOM     21  C   UNL     1       1.673  -1.189  -0.329  1.00  0.00     0.068 A 
ENDBRANCH  13  16
ENDBRANCH   7  12
ENDBRANCH   4   6
ENDBRANCH   3   4
ENDBRANCH   2   3
ENDBRANCH   1   2
BRANCH   1  22
ATOM     22  O   UNL     1       1.230   3.964   4.748  1.00  0.00    -0.458 OA
BRANCH  22  23
ATOM     23  C   UNL     1       1.106   5.304   4.626  1.00  0.00     0.338 C 
ATOM     24  O   UNL     1       2.016   6.110   4.477  1.00  0.00    -0.246 OA
BRANCH  23  25
ATOM     25  C   UNL     1      -0.321   5.689   4.640  1.00  0.00     0.060 A 
ATOM     26  C   UNL     1      -1.300   4.841   4.120  1.00  0.00     0.016 A 
ATOM     27  C   UNL     1      -0.675   6.972   5.059  1.00  0.00     0.016 A 
ATOM     28  C   UNL     1      -2.594   5.315   3.902  1.00  0.00     0.010 A 
ATOM     29  C   UNL     1      -2.003   7.398   4.952  1.00  0.00     0.010 A 
ATOM     30  C   UNL     1      -2.975   6.594   4.331  1.00  0.00    -0.014 A 
BRANCH  30  31
ATOM     31  C   UNL     1      -4.362   7.108   4.121  1.00  0.00     0.031 A 
ATOM     32  C   UNL     1      -4.584   8.458   3.482  1.00  0.00     0.074 A 
ATOM     33  C   UNL     1      -5.433   6.398   4.532  1.00  0.00     0.049 A 
ATOM     34  N   UNL     1      -5.658   9.204   3.480  1.00  0.00    -0.248 NA
ATOM     35  C   UNL     1      -3.439   9.060   2.777  1.00  0.00     0.031 C 
ATOM     36  C   UNL     1      -5.390   5.071   5.146  1.00  0.00     0.029 A 
ATOM     37  N   UNL     1      -6.774   6.705   4.511  1.00  0.00    -0.354 N 
ATOM     38  C   UNL     1      -5.290  10.403   2.879  1.00  0.00     0.074 A 
ATOM     39  C   UNL     1      -3.901  10.271   2.494  1.00  0.00     0.031 C 
ATOM     40  C   UNL     1      -6.639   4.663   5.411  1.00  0.00     0.029 A 
ATOM     41  C   UNL     1      -7.566   5.741   5.091  1.00  0.00     0.049 A 
ATOM     42  H   UNL     1      -7.132   7.535   4.120  1.00  0.00     0.167 HD
ATOM     43  C   UNL     1      -6.041  11.510   2.669  1.00  0.00     0.034 A 
ATOM     44  C   UNL     1      -8.880   5.735   5.392  1.00  0.00     0.034 A 
ATOM     45  C   UNL     1      -7.451  11.595   2.943  1.00  0.00     0.049 A 
ATOM     46  C   UNL     1      -9.706   6.953   5.096  1.00  0.00     0.074 A 
ATOM     47  C   UNL     1      -8.309  12.659   2.720  1.00  0.00     0.029 A 
ATOM     48  N   UNL     1      -8.219  10.568   3.468  1.00  0.00    -0.354 N 
ATOM     49  N   UNL     1      -9.340   8.079   4.535  1.00  0.00    -0.248 NA
ATOM     50  C   UNL     1     -11.125   6.902   5.476  1.00  0.00     0.031 C 
ATOM     51  C   UNL     1      -9.598  12.271   3.101  1.00  0.00     0.029 A 
ATOM     52  C   UNL     1      -9.542  10.966   3.562  1.00  0.00     0.049 A 
ATOM     53  H   UNL     1      -7.875   9.685   3.734  1.00  0.00     0.167 HD
ATOM     54  C   UNL     1     -10.480   8.871   4.494  1.00  0.00     0.074 A 
ATOM     55  C   UNL     1     -11.559   8.081   5.051  1.00  0.00     0.031 C 
ATOM     56  C   UNL     1     -10.614  10.151   4.068  1.00  0.00     0.034 A 
BRANCH  43  57
ATOM     57  C   UNL     1      -5.368  12.724   2.084  1.00  0.00     0.023 A 
ATOM     58  C   UNL     1      -5.086  12.773   0.706  1.00  0.00     0.012 A 
ATOM     59  C   UNL     1      -5.098  13.851   2.887  1.00  0.00     0.148 A 
ATOM     60  C   UNL     1      -4.528  13.919   0.138  1.00  0.00     0.002 A 
ATOM     61  C   UNL     1      -4.578  15.003   2.307  1.00  0.00     0.091 A 
ATOM     62  F   UNL     1      -5.349  13.776   4.202  1.00  0.00    -0.205 F 
ATOM     63  C   UNL     1      -4.287  15.037   0.934  1.00  0.00     0.022 A 
BRANCH  61  64
ATOM     64  S   UNL     1      -4.315  16.514   3.244  1.00  0.00     0.127 S 
ATOM     65  O   UNL     1      -2.869  16.483   3.457  1.00  0.00    -0.237 OA
ATOM     66  O   UNL     1      -4.770  17.546   2.312  1.00  0.00    -0.237 OA
ATOM     67  O   UNL     1      -5.133  16.384   4.442  1.00  0.00    -0.744 OA
ENDBRANCH  61  64
ENDBRANCH  43  57
BRANCH  44  68
ATOM     68  C   UNL     1      -9.483   4.520   6.011  1.00  0.00     0.023 A 
ATOM     69  C   UNL     1     -10.370   3.730   5.256  1.00  0.00     0.012 A 
ATOM     70  C   UNL     1      -9.117   4.095   7.303  1.00  0.00     0.148 A 
ATOM     71  C   UNL     1     -10.881   2.540   5.777  1.00  0.00     0.002 A 
ATOM     72  C   UNL     1      -9.572   2.873   7.786  1.00  0.00     0.091 A 
ATOM     73  F   UNL     1      -8.301   4.875   8.027  1.00  0.00    -0.205 F 
ATOM     74  C   UNL     1     -10.466   2.101   7.032  1.00  0.00     0.022 A 
BRANCH  72  75
ATOM     75  S   UNL     1      -8.917   2.172   9.306  1.00  0.00     0.127 S 
ATOM     76  O   UNL     1      -9.913   2.591  10.287  1.00  0.00    -0.237 OA
ATOM     77  O   UNL     1      -8.906   0.738   9.013  1.00  0.00    -0.237 OA
ATOM     78  O   UNL     1      -7.588   2.755   9.443  1.00  0.00    -0.744 OA
ENDBRANCH  72  75
ENDBRANCH  44  68
BRANCH  56  79
ATOM     79  C   UNL     1     -11.976  10.776   4.181  1.00  0.00     0.023 A 
ATOM     80  C   UNL     1     -12.421  11.230   5.438  1.00  0.00     0.012 A 
ATOM     81  C   UNL     1     -12.786  10.967   3.047  1.00  0.00     0.148 A 
ATOM     82  C   UNL     1     -13.666  11.844   5.568  1.00  0.00     0.002 A 
ATOM     83  C   UNL     1     -14.012  11.610   3.178  1.00  0.00     0.091 A 
ATOM     84  F   UNL     1     -12.355  10.505   1.864  1.00  0.00    -0.205 F 
ATOM     85  C   UNL     1     -14.456  12.044   4.438  1.00  0.00     0.022 A 
BRANCH  83  86
ATOM     86  S   UNL     1     -15.053  11.966   1.758  1.00  0.00     0.127 S 
ATOM     87  O   UNL     1     -16.021  10.872   1.816  1.00  0.00    -0.237 OA
ATOM     88  O   UNL     1     -15.602  13.283   2.087  1.00  0.00    -0.237 OA
ATOM     89  O   UNL     1     -14.160  11.961   0.607  1.00  0.00    -0.744 OA
ENDBRANCH  83  86
ENDBRANCH  56  79
ENDBRANCH  30  31
ENDBRANCH  23  25
ENDBRANCH  22  23
ENDBRANCH   1  22
TORSDOF 16
