REMARK SMILES CC(C)C[C@@H](CNC(=O)[C@@H]1CCOC1)C(=O)OCCOC(=O)c1ccc(-c2c3nc(c(-c4cccc(S(=O)(=O)[O-])c4F)c4ccc([nH]4)c(-c4cccc(S(=O)(=O)[O-])c4F)c4nc(c(-c5cccc(S(=O)(=O)[O-])c5F)c5ccc2[nH]5)C=C4)C=C3)cc1
REMARK SMILES IDX 18 1 17 2 15 3 16 4 5 5 4 6 2 7 1 8 3 9 6 10 7 11 8 12 9 14
REMARK SMILES IDX 10 15 11 16 14 17 12 18 13 19 19 20 20 21 21 22 22 23 23 24
REMARK SMILES IDX 24 25 85 26 25 27 84 28 26 29 27 30 28 31 78 32 29 33 83 34
REMARK SMILES IDX 77 35 79 36 30 37 82 38 76 39 75 40 31 42 63 43 43 44 62 45
REMARK SMILES IDX 44 46 47 47 61 48 80 49 45 50 46 51 60 53 81 54 48 55 32 56
REMARK SMILES IDX 33 57 41 58 34 59 36 60 42 61 35 62 37 63 38 64 39 65 40 66
REMARK SMILES IDX 64 67 65 68 73 69 66 70 68 71 74 72 67 73 69 74 70 75 71 76
REMARK SMILES IDX 72 77 49 78 50 79 58 80 51 81 53 82 59 83 52 84 54 85 55 86
REMARK SMILES IDX 56 87 57 88
REMARK H PARENT 7 13 79 41 47 52
REMARK Flexibility Score: inf
ROOT
ATOM      1  C   UNL     1      -5.022  -1.905  -0.314  1.00  0.00     0.274 C 
ENDROOT
BRANCH   1   2
ATOM      2  O   UNL     1      -3.587  -2.021  -0.217  1.00  0.00    -0.462 OA
BRANCH   2   3
ATOM      3  C   UNL     1      -2.890  -1.218  -1.059  1.00  0.00     0.310 C 
ATOM      4  O   UNL     1      -3.399  -0.437  -1.854  1.00  0.00    -0.252 OA
BRANCH   3   5
ATOM      5  C   UNL     1      -1.388  -1.382  -0.971  1.00  0.00     0.118 C 
BRANCH   5   6
ATOM      6  C   UNL     1      -0.863  -1.785   0.417  1.00  0.00     0.020 C 
BRANCH   6   7
ATOM      7  C   UNL     1       0.655  -1.561   0.635  1.00  0.00    -0.017 C 
ATOM      8  C   UNL     1       1.114  -0.134   0.317  1.00  0.00     0.007 C 
ATOM      9  C   UNL     1       1.027  -1.889   2.084  1.00  0.00     0.007 C 
ENDBRANCH   6   7
ENDBRANCH   5   6
BRANCH   5  10
ATOM     10  C   UNL     1      -0.894  -2.226  -2.143  1.00  0.00     0.131 C 
BRANCH  10  11
ATOM     11  N   UNL     1      -1.498  -3.538  -2.237  1.00  0.00    -0.355 N 
ATOM     12  C   UNL     1      -2.246  -4.152  -3.182  1.00  0.00     0.225 C 
ATOM     13  H   UNL     1      -1.329  -4.102  -1.448  1.00  0.00     0.163 HD
ATOM     14  O   UNL     1      -2.580  -5.316  -2.913  1.00  0.00    -0.275 OA
BRANCH  12  15
ATOM     15  C   UNL     1      -2.766  -3.541  -4.480  1.00  0.00     0.106 C 
ATOM     16  C   UNL     1      -2.073  -2.426  -5.222  1.00  0.00     0.044 C 
ATOM     17  C   UNL     1      -4.191  -3.050  -4.308  1.00  0.00     0.173 C 
ATOM     18  C   UNL     1      -2.931  -1.202  -4.973  1.00  0.00     0.161 C 
ATOM     19  O   UNL     1      -4.239  -1.661  -4.636  1.00  0.00    -0.381 OA
ENDBRANCH  12  15
ENDBRANCH  10  11
ENDBRANCH   5  10
ENDBRANCH   3   5
ENDBRANCH   2   3
ENDBRANCH   1   2
BRANCH   1  20
ATOM     20  C   UNL     1      -5.606  -0.874   0.660  1.00  0.00     0.275 C 
BRANCH  20  21
ATOM     21  O   UNL     1      -5.254   0.479   0.315  1.00  0.00    -0.458 OA
BRANCH  21  22
ATOM     22  C   UNL     1      -4.116   0.938   0.888  1.00  0.00     0.338 C 
ATOM     23  O   UNL     1      -3.409   0.346   1.687  1.00  0.00    -0.246 OA
BRANCH  22  24
ATOM     24  C   UNL     1      -3.732   2.232   0.301  1.00  0.00     0.060 A 
ATOM     25  C   UNL     1      -2.495   2.310  -0.346  1.00  0.00     0.016 A 
ATOM     26  C   UNL     1      -4.514   3.373   0.472  1.00  0.00     0.016 A 
ATOM     27  C   UNL     1      -2.020   3.526  -0.819  1.00  0.00     0.010 A 
ATOM     28  C   UNL     1      -4.030   4.602   0.011  1.00  0.00     0.010 A 
ATOM     29  C   UNL     1      -2.773   4.685  -0.616  1.00  0.00    -0.014 A 
BRANCH  29  30
ATOM     30  C   UNL     1      -2.187   6.000  -0.957  1.00  0.00     0.031 A 
ATOM     31  C   UNL     1      -1.629   6.855   0.143  1.00  0.00     0.074 A 
ATOM     32  C   UNL     1      -2.149   6.414  -2.235  1.00  0.00     0.049 A 
ATOM     33  N   UNL     1      -1.162   8.073   0.086  1.00  0.00    -0.248 NA
ATOM     34  C   UNL     1      -1.590   6.255   1.488  1.00  0.00     0.031 C 
ATOM     35  C   UNL     1      -2.625   5.647  -3.385  1.00  0.00     0.029 A 
ATOM     36  N   UNL     1      -1.710   7.596  -2.775  1.00  0.00    -0.354 N 
ATOM     37  C   UNL     1      -0.820   8.406   1.390  1.00  0.00     0.074 A 
ATOM     38  C   UNL     1      -1.121   7.258   2.217  1.00  0.00     0.031 C 
ATOM     39  C   UNL     1      -2.483   6.392  -4.494  1.00  0.00     0.029 A 
ATOM     40  C   UNL     1      -1.942   7.698  -4.126  1.00  0.00     0.049 A 
ATOM     41  H   UNL     1      -1.273   8.303  -2.246  1.00  0.00     0.167 HD
ATOM     42  C   UNL     1      -0.294   9.564   1.854  1.00  0.00     0.034 A 
ATOM     43  C   UNL     1      -1.768   8.741  -4.961  1.00  0.00     0.034 A 
ATOM     44  C   UNL     1       0.035  10.687   1.020  1.00  0.00     0.049 A 
ATOM     45  C   UNL     1      -1.202  10.026  -4.416  1.00  0.00     0.074 A 
ATOM     46  C   UNL     1       0.596  11.897   1.387  1.00  0.00     0.029 A 
ATOM     47  N   UNL     1      -0.171  10.739  -0.350  1.00  0.00    -0.354 N 
ATOM     48  N   UNL     1      -0.810  10.302  -3.195  1.00  0.00    -0.248 NA
ATOM     49  C   UNL     1      -1.034  11.135  -5.366  1.00  0.00     0.031 C 
ATOM     50  C   UNL     1       0.721  12.685   0.238  1.00  0.00     0.029 A 
ATOM     51  C   UNL     1       0.249  11.961  -0.846  1.00  0.00     0.049 A 
ATOM     52  H   UNL     1      -0.558  10.014  -0.891  1.00  0.00     0.167 HD
ATOM     53  C   UNL     1      -0.322  11.604  -3.235  1.00  0.00     0.074 A 
ATOM     54  C   UNL     1      -0.450  12.054  -4.607  1.00  0.00     0.031 C 
ATOM     55  C   UNL     1       0.169  12.365  -2.227  1.00  0.00     0.034 A 
BRANCH  42  56
ATOM     56  C   UNL     1      -0.025   9.661   3.330  1.00  0.00     0.023 A 
ATOM     57  C   UNL     1       1.086   8.992   3.881  1.00  0.00     0.012 A 
ATOM     58  C   UNL     1      -0.849  10.441   4.165  1.00  0.00     0.148 A 
ATOM     59  C   UNL     1       1.358   9.075   5.247  1.00  0.00     0.002 A 
ATOM     60  C   UNL     1      -0.550  10.548   5.519  1.00  0.00     0.091 A 
ATOM     61  F   UNL     1      -1.918  11.044   3.628  1.00  0.00    -0.205 F 
ATOM     62  C   UNL     1       0.547   9.860   6.062  1.00  0.00     0.022 A 
BRANCH  60  63
ATOM     63  S   UNL     1      -1.502  11.588   6.632  1.00  0.00     0.127 S 
ATOM     64  O   UNL     1      -2.303  10.597   7.350  1.00  0.00    -0.237 OA
ATOM     65  O   UNL     1      -0.457  12.223   7.436  1.00  0.00    -0.237 OA
ATOM     66  O   UNL     1      -2.247  12.503   5.780  1.00  0.00    -0.744 OA
ENDBRANCH  60  63
ENDBRANCH  42  56
BRANCH  43  67
ATOM     67  C   UNL     1      -2.110   8.600  -6.404  1.00  0.00     0.023 A 
ATOM     68  C   UNL     1      -1.077   8.573  -7.360  1.00  0.00     0.012 A 
ATOM     69  C   UNL     1      -3.445   8.455  -6.830  1.00  0.00     0.148 A 
ATOM     70  C   UNL     1      -1.368   8.425  -8.717  1.00  0.00     0.002 A 
ATOM     71  C   UNL     1      -3.724   8.254  -8.177  1.00  0.00     0.091 A 
ATOM     72  F   UNL     1      -4.416   8.507  -5.907  1.00  0.00    -0.205 F 
ATOM     73  C   UNL     1      -2.689   8.253  -9.123  1.00  0.00     0.022 A 
BRANCH  71  74
ATOM     74  S   UNL     1      -5.382   7.898  -8.771  1.00  0.00     0.127 S 
ATOM     75  O   UNL     1      -5.744   9.155  -9.419  1.00  0.00    -0.237 OA
ATOM     76  O   UNL     1      -5.144   6.779  -9.684  1.00  0.00    -0.237 OA
ATOM     77  O   UNL     1      -6.154   7.548  -7.586  1.00  0.00    -0.744 OA
ENDBRANCH  71  74
ENDBRANCH  43  67
BRANCH  55  78
ATOM     78  C   UNL     1       0.636  13.755  -2.566  1.00  0.00     0.023 A 
ATOM     79  C   UNL     1      -0.313  14.770  -2.796  1.00  0.00     0.012 A 
ATOM     80  C   UNL     1       2.008  14.074  -2.568  1.00  0.00     0.148 A 
ATOM     81  C   UNL     1       0.098  16.079  -3.046  1.00  0.00     0.002 A 
ATOM     82  C   UNL     1       2.409  15.389  -2.776  1.00  0.00     0.091 A 
ATOM     83  F   UNL     1       2.896  13.089  -2.368  1.00  0.00    -0.205 F 
ATOM     84  C   UNL     1       1.456  16.390  -3.023  1.00  0.00     0.022 A 
BRANCH  82  85
ATOM     85  S   UNL     1       4.131  15.890  -2.671  1.00  0.00     0.127 S 
ATOM     86  O   UNL     1       4.489  16.024  -4.082  1.00  0.00    -0.237 OA
ATOM     87  O   UNL     1       4.046  17.156  -1.941  1.00  0.00    -0.237 OA
ATOM     88  O   UNL     1       4.811  14.824  -1.947  1.00  0.00    -0.744 OA
ENDBRANCH  82  85
ENDBRANCH  55  78
ENDBRANCH  29  30
ENDBRANCH  22  24
ENDBRANCH  21  22
ENDBRANCH  20  21
ENDBRANCH   1  20
TORSDOF 19
