REMARK SMILES O=C(OCCOC(=O)[C@H](NC(=O)[C@H]1CC(=O)N(CC2CC2)C1)c1ccccc1C(F)(F)F)c1ccc(-c2c3nc(c(-c4cccc(S(=O)(=O)[O-])c4F)c4ccc([nH]4)c(-c4cccc(S(=O)(=O)[O-])c4F)c4nc(c(-c5cccc(S(=O)(=O)[O-])c5F)c5ccc2[nH]5)C=C4)C=C3)cc1
REMARK SMILES IDX 5 1 4 2 3 3 2 4 1 5 33 6 34 7 95 8 35 9 94 10 36 11 37 12
REMARK SMILES IDX 38 13 88 14 39 15 93 16 87 17 89 18 40 19 92 20 86 21 85 22
REMARK SMILES IDX 41 24 73 25 53 26 72 27 54 28 57 29 71 30 90 31 55 32 56 33
REMARK SMILES IDX 70 35 91 36 58 37 42 38 43 39 51 40 44 41 46 42 52 43 45 44
REMARK SMILES IDX 47 45 48 46 49 47 50 48 74 49 75 50 83 51 76 52 78 53 84 54
REMARK SMILES IDX 77 55 79 56 80 57 81 58 82 59 59 60 60 61 68 62 61 63 63 64
REMARK SMILES IDX 69 65 62 66 64 67 65 68 66 69 67 70 6 71 7 72 8 73 9 74
REMARK SMILES IDX 23 75 24 76 28 77 25 78 27 79 26 80 29 81 30 82 31 83 32 84
REMARK SMILES IDX 10 85 11 86 12 88 13 89 14 90 22 91 15 92 17 93 16 94 18 95
REMARK SMILES IDX 19 96 20 97 21 98
REMARK H PARENT 89 23 57 34 10 87
REMARK Flexibility Score: inf
ROOT
ATOM      1  C   UNL     1       1.381  -4.771   0.996  1.00  0.00     0.274 C 
ENDROOT
BRANCH   1   2
ATOM      2  C   UNL     1       0.649  -5.877   1.753  1.00  0.00     0.275 C 
BRANCH   2   3
ATOM      3  O   UNL     1       1.238  -6.233   3.032  1.00  0.00    -0.458 OA
BRANCH   3   4
ATOM      4  C   UNL     1       2.177  -7.130   3.432  1.00  0.00     0.338 C 
ATOM      5  O   UNL     1       2.454  -7.186   4.630  1.00  0.00    -0.246 OA
BRANCH   4   6
ATOM      6  C   UNL     1       3.026  -7.942   2.495  1.00  0.00     0.060 A 
ATOM      7  C   UNL     1       2.653  -8.343   1.221  1.00  0.00     0.016 A 
ATOM      8  C   UNL     1       4.351  -8.225   2.891  1.00  0.00     0.016 A 
ATOM      9  C   UNL     1       3.639  -8.701   0.286  1.00  0.00     0.010 A 
ATOM     10  C   UNL     1       5.348  -8.493   1.925  1.00  0.00     0.010 A 
ATOM     11  C   UNL     1       5.008  -8.532   0.568  1.00  0.00    -0.014 A 
BRANCH  11  12
ATOM     12  C   UNL     1       6.089  -8.473  -0.518  1.00  0.00     0.031 A 
ATOM     13  C   UNL     1       6.479  -9.922  -0.978  1.00  0.00     0.074 A 
ATOM     14  C   UNL     1       6.550  -7.403  -1.348  1.00  0.00     0.049 A 
ATOM     15  N   UNL     1       7.207 -10.365  -1.981  1.00  0.00    -0.248 NA
ATOM     16  C   UNL     1       5.776 -11.016  -0.262  1.00  0.00     0.031 C 
ATOM     17  C   UNL     1       6.005  -5.579  -2.356  1.00  0.00     0.029 A 
ATOM     18  N   UNL     1       8.171  -7.801  -2.214  1.00  0.00    -0.354 N 
ATOM     19  C   UNL     1       7.012 -11.750  -2.034  1.00  0.00     0.074 A 
ATOM     20  C   UNL     1       6.083 -12.081  -0.979  1.00  0.00     0.031 C 
ATOM     21  C   UNL     1       7.217  -5.242  -3.526  1.00  0.00     0.029 A 
ATOM     22  C   UNL     1       8.602  -6.564  -3.494  1.00  0.00     0.049 A 
ATOM     23  H   UNL     1       8.726  -8.587  -2.003  1.00  0.00     0.167 HD
ATOM     24  C   UNL     1       7.513 -12.705  -2.857  1.00  0.00     0.034 A 
ATOM     25  C   UNL     1       9.935  -6.326  -3.758  1.00  0.00     0.034 A 
ATOM     26  C   UNL     1       8.515 -12.537  -3.872  1.00  0.00     0.049 A 
ATOM     27  C   UNL     1      10.674  -7.524  -4.262  1.00  0.00     0.074 A 
ATOM     28  C   UNL     1       9.010 -13.511  -4.729  1.00  0.00     0.029 A 
ATOM     29  N   UNL     1       9.250 -11.393  -4.107  1.00  0.00    -0.354 N 
ATOM     30  N   UNL     1      10.285  -8.769  -4.301  1.00  0.00    -0.248 NA
ATOM     31  C   UNL     1      11.917  -7.248  -5.006  1.00  0.00     0.031 C 
ATOM     32  C   UNL     1      10.097 -12.982  -5.423  1.00  0.00     0.029 A 
ATOM     33  C   UNL     1      10.224 -11.655  -5.063  1.00  0.00     0.049 A 
ATOM     34  H   UNL     1       9.107 -10.525  -3.666  1.00  0.00     0.167 HD
ATOM     35  C   UNL     1      11.182  -9.403  -5.144  1.00  0.00     0.074 A 
ATOM     36  C   UNL     1      12.124  -8.409  -5.604  1.00  0.00     0.031 C 
ATOM     37  C   UNL     1      11.177 -10.694  -5.537  1.00  0.00     0.034 A 
BRANCH  24  38
ATOM     38  C   UNL     1       7.003 -14.114  -2.662  1.00  0.00     0.023 A 
ATOM     39  C   UNL     1       5.737 -14.487  -3.159  1.00  0.00     0.012 A 
ATOM     40  C   UNL     1       7.824 -15.080  -2.050  1.00  0.00     0.148 A 
ATOM     41  C   UNL     1       5.287 -15.800  -3.025  1.00  0.00     0.002 A 
ATOM     42  C   UNL     1       7.389 -16.394  -1.964  1.00  0.00     0.091 A 
ATOM     43  F   UNL     1       9.015 -14.692  -1.574  1.00  0.00    -0.205 F 
ATOM     44  C   UNL     1       6.116 -16.754  -2.438  1.00  0.00     0.022 A 
BRANCH  42  45
ATOM     45  S   UNL     1       8.414 -17.708  -1.299  1.00  0.00     0.127 S 
ATOM     46  O   UNL     1       7.642 -18.116  -0.126  1.00  0.00    -0.237 OA
ATOM     47  O   UNL     1       8.415 -18.675  -2.397  1.00  0.00    -0.237 OA
ATOM     48  O   UNL     1       9.707 -17.106  -1.008  1.00  0.00    -0.744 OA
ENDBRANCH  42  45
ENDBRANCH  24  38
BRANCH  25  49
ATOM     49  C   UNL     1      10.655  -5.003  -3.881  1.00  0.00     0.023 A 
ATOM     50  C   UNL     1      10.437  -4.174  -4.987  1.00  0.00     0.012 A 
ATOM     51  C   UNL     1      11.677  -4.607  -2.955  1.00  0.00     0.148 A 
ATOM     52  C   UNL     1      11.111  -2.950  -5.111  1.00  0.00     0.002 A 
ATOM     53  C   UNL     1      12.239  -3.323  -3.009  1.00  0.00     0.091 A 
ATOM     54  F   UNL     1      12.098  -5.479  -2.031  1.00  0.00    -0.205 F 
ATOM     55  C   UNL     1      11.959  -2.498  -4.099  1.00  0.00     0.022 A 
BRANCH  53  56
ATOM     56  S   UNL     1      13.055  -2.530  -1.584  1.00  0.00     0.127 S 
ATOM     57  O   UNL     1      14.460  -2.538  -1.973  1.00  0.00    -0.237 OA
ATOM     58  O   UNL     1      12.435  -1.200  -1.583  1.00  0.00    -0.237 OA
ATOM     59  O   UNL     1      12.704  -3.333  -0.421  1.00  0.00    -0.744 OA
ENDBRANCH  53  56
ENDBRANCH  25  49
BRANCH  37  60
ATOM     60  C   UNL     1      12.192 -11.101  -6.565  1.00  0.00     0.023 A 
ATOM     61  C   UNL     1      13.565 -11.106  -6.248  1.00  0.00     0.012 A 
ATOM     62  C   UNL     1      11.779 -11.465  -7.861  1.00  0.00     0.148 A 
ATOM     63  C   UNL     1      14.514 -11.412  -7.221  1.00  0.00     0.002 A 
ATOM     64  C   UNL     1      12.726 -11.835  -8.806  1.00  0.00     0.091 A 
ATOM     65  F   UNL     1      10.470 -11.427  -8.151  1.00  0.00    -0.205 F 
ATOM     66  C   UNL     1      14.094 -11.788  -8.495  1.00  0.00     0.022 A 
BRANCH  64  67
ATOM     67  S   UNL     1      12.277 -12.423 -10.441  1.00  0.00     0.127 S 
ATOM     68  O   UNL     1      12.844 -11.384 -11.300  1.00  0.00    -0.237 OA
ATOM     69  O   UNL     1      12.969 -13.711 -10.501  1.00  0.00    -0.237 OA
ATOM     70  O   UNL     1      10.823 -12.511 -10.458  1.00  0.00    -0.744 OA
ENDBRANCH  64  67
ENDBRANCH  37  60
ENDBRANCH  11  12
ENDBRANCH   4   6
ENDBRANCH   3   4
ENDBRANCH   2   3
ENDBRANCH   1   2
BRANCH   1  71
ATOM     71  O   UNL     1       2.748  -5.121   0.811  1.00  0.00    -0.460 OA
BRANCH  71  72
ATOM     72  C   UNL     1       3.640  -4.610   1.705  1.00  0.00     0.333 C 
ATOM     73  O   UNL     1       3.355  -3.825   2.602  1.00  0.00    -0.249 OA
BRANCH  72  74
ATOM     74  C   UNL     1       5.010  -5.281   1.533  1.00  0.00     0.224 C 
BRANCH  74  75
ATOM     75  C   UNL     1       5.309  -5.699  -0.056  1.00  0.00    -0.002 A 
ATOM     76  C   UNL     1       4.311  -6.552  -1.230  1.00  0.00     0.007 A 
ATOM     77  C   UNL     1       6.792  -5.285  -0.392  1.00  0.00     0.061 A 
ATOM     78  C   UNL     1       4.846  -7.302  -2.731  1.00  0.00     0.000 A 
ATOM     79  C   UNL     1       7.640  -5.988  -1.724  1.00  0.00     0.013 A 
ATOM     80  C   UNL     1       6.566  -7.114  -3.128  1.00  0.00     0.001 A 
BRANCH  77  81
ATOM     81  C   UNL     1       6.791  -3.857   0.075  1.00  0.00     0.416 C 
ATOM     82  F   UNL     1       7.346  -4.026   1.221  1.00  0.00    -0.166 F 
ATOM     83  F   UNL     1       7.417  -2.770  -0.318  1.00  0.00    -0.166 F 
ATOM     84  F   UNL     1       5.541  -3.343   0.331  1.00  0.00    -0.166 F 
ENDBRANCH  77  81
ENDBRANCH  74  75
BRANCH  74  85
ATOM     85  N   UNL     1       6.057  -4.603   2.704  1.00  0.00    -0.339 N 
ATOM     86  C   UNL     1       7.324  -4.216   3.215  1.00  0.00     0.226 C 
ATOM     87  H   UNL     1       5.439  -4.331   3.420  1.00  0.00     0.164 HD
ATOM     88  O   UNL     1       7.228  -3.711   4.356  1.00  0.00    -0.275 OA
BRANCH  86  89
ATOM     89  C   UNL     1       8.922  -4.129   2.554  1.00  0.00     0.107 C 
ATOM     90  C   UNL     1       9.494  -5.368   1.876  1.00  0.00     0.115 C 
ATOM     91  C   UNL     1       9.345  -2.991   1.513  1.00  0.00     0.133 C 
ATOM     92  C   UNL     1       9.833  -4.971   0.440  1.00  0.00     0.223 C 
ATOM     93  N   UNL     1       9.445  -3.640   0.193  1.00  0.00    -0.342 N 
ATOM     94  O   UNL     1      10.299  -5.783  -0.342  1.00  0.00    -0.275 OA
BRANCH  93  95
ATOM     95  C   UNL     1       9.533  -2.892  -1.149  1.00  0.00     0.123 C 
BRANCH  95  96
ATOM     96  C   UNL     1       8.412  -2.516  -2.267  1.00  0.00     0.008 C 
ATOM     97  C   UNL     1       6.859  -2.244  -2.387  1.00  0.00     0.006 C 
ATOM     98  C   UNL     1       7.808  -1.111  -2.240  1.00  0.00     0.006 C 
ENDBRANCH  95  96
ENDBRANCH  93  95
ENDBRANCH  86  89
ENDBRANCH  74  85
ENDBRANCH  72  74
ENDBRANCH  71  72
ENDBRANCH   1  71
TORSDOF 20
