REMARK SMILES C[C@H]1OCC[C@H]1C(=O)N1CCCC[C@@H]1CC(=O)OCCOC(=O)c1ccc(-c2c3nc(c(-c4cccc(S(=O)(=O)[O-])c4F)c4ccc([nH]4)c(-c4cccc(S(=O)(=O)[O-])c4F)c4nc(c(-c5cccc(S(=O)(=O)[O-])c5F)c5ccc2[nH]5)C=C4)C=C3)cc1
REMARK SMILES IDX 19 1 18 2 16 3 17 4 15 5 14 6 9 7 10 8 11 9 13 10 12 11 7 12
REMARK SMILES IDX 8 13 6 14 1 15 2 16 3 17 4 18 5 19 20 20 21 21 22 22 23 23
REMARK SMILES IDX 24 24 25 25 86 26 26 27 85 28 27 29 28 30 29 31 79 32 30 33
REMARK SMILES IDX 84 34 78 35 80 36 31 37 83 38 77 39 76 40 32 42 64 43 44 44
REMARK SMILES IDX 63 45 45 46 48 47 62 48 81 49 46 50 47 51 61 53 82 54 49 55
REMARK SMILES IDX 33 56 34 57 42 58 35 59 37 60 43 61 36 62 38 63 39 64 40 65
REMARK SMILES IDX 41 66 65 67 66 68 74 69 67 70 69 71 75 72 68 73 70 74 71 75
REMARK SMILES IDX 72 76 73 77 50 78 51 79 59 80 52 81 54 82 60 83 53 84 55 85
REMARK SMILES IDX 56 86 57 87 58 88
REMARK H PARENT 80 41 48 52
REMARK Flexibility Score: inf
ROOT
ATOM      1  C   UNL     1       4.466   3.226  -2.934  1.00  0.00     0.274 C 
ENDROOT
BRANCH   1   2
ATOM      2  O   UNL     1       3.603   2.073  -2.975  1.00  0.00    -0.462 OA
BRANCH   2   3
ATOM      3  C   UNL     1       3.522   1.376  -1.818  1.00  0.00     0.307 C 
ATOM      4  O   UNL     1       4.154   1.646  -0.801  1.00  0.00    -0.252 OA
BRANCH   3   5
ATOM      5  C   UNL     1       2.610   0.181  -1.870  1.00  0.00     0.147 C 
BRANCH   5   6
ATOM      6  C   UNL     1       1.573   0.068  -2.994  1.00  0.00     0.096 C 
ATOM      7  N   UNL     1       0.432  -0.826  -2.631  1.00  0.00    -0.339 N 
ATOM      8  C   UNL     1      -0.578  -0.990  -3.674  1.00  0.00     0.120 C 
ATOM      9  C   UNL     1       0.047  -1.465  -4.985  1.00  0.00     0.022 C 
ATOM     10  C   UNL     1       2.216  -0.395  -4.314  1.00  0.00     0.026 C 
ATOM     11  C   UNL     1       1.170  -0.533  -5.421  1.00  0.00     0.004 C 
BRANCH   7  12
ATOM     12  C   UNL     1       0.605  -1.890  -1.753  1.00  0.00     0.228 C 
ATOM     13  O   UNL     1       1.542  -2.680  -1.885  1.00  0.00    -0.274 OA
BRANCH  12  14
ATOM     14  C   UNL     1      -0.338  -1.982  -0.534  1.00  0.00     0.109 C 
ATOM     15  C   UNL     1       1.692  -1.541   1.098  1.00  0.00     0.039 C 
ATOM     16  C   UNL     1       0.237  -1.322   0.722  1.00  0.00     0.127 C 
ATOM     17  O   UNL     1      -0.046   0.077   0.560  1.00  0.00    -0.378 OA
ATOM     18  C   UNL     1      -1.262   0.193  -0.196  1.00  0.00     0.161 C 
ATOM     19  C   UNL     1      -1.650  -1.214  -0.615  1.00  0.00     0.044 C 
ENDBRANCH  12  14
ENDBRANCH   7  12
ENDBRANCH   5   6
ENDBRANCH   3   5
ENDBRANCH   2   3
ENDBRANCH   1   2
BRANCH   1  20
ATOM     20  C   UNL     1       3.661   4.522  -2.854  1.00  0.00     0.275 C 
BRANCH  20  21
ATOM     21  O   UNL     1       2.867   4.587  -1.656  1.00  0.00    -0.458 OA
BRANCH  21  22
ATOM     22  C   UNL     1       1.573   4.224  -1.806  1.00  0.00     0.338 C 
ATOM     23  O   UNL     1       1.025   3.842  -2.831  1.00  0.00    -0.246 OA
BRANCH  22  24
ATOM     24  C   UNL     1       0.875   4.305  -0.518  1.00  0.00     0.060 A 
ATOM     25  C   UNL     1       0.810   3.167   0.281  1.00  0.00     0.016 A 
ATOM     26  C   UNL     1       0.159   5.452  -0.172  1.00  0.00     0.016 A 
ATOM     27  C   UNL     1      -0.029   3.151   1.396  1.00  0.00     0.010 A 
ATOM     28  C   UNL     1      -0.642   5.446   0.978  1.00  0.00     0.010 A 
ATOM     29  C   UNL     1      -0.778   4.281   1.754  1.00  0.00    -0.014 A 
BRANCH  29  30
ATOM     30  C   UNL     1      -1.734   4.223   2.898  1.00  0.00     0.031 A 
ATOM     31  C   UNL     1      -3.207   4.459   2.673  1.00  0.00     0.074 A 
ATOM     32  C   UNL     1      -1.297   3.954   4.145  1.00  0.00     0.049 A 
ATOM     33  N   UNL     1      -4.168   4.596   3.552  1.00  0.00    -0.248 NA
ATOM     34  C   UNL     1      -3.661   4.562   1.276  1.00  0.00     0.031 C 
ATOM     35  C   UNL     1       0.091   3.679   4.514  1.00  0.00     0.029 A 
ATOM     36  N   UNL     1      -1.978   3.877   5.337  1.00  0.00    -0.354 N 
ATOM     37  C   UNL     1      -5.319   4.875   2.824  1.00  0.00     0.074 A 
ATOM     38  C   UNL     1      -4.942   4.869   1.426  1.00  0.00     0.031 C 
ATOM     39  C   UNL     1       0.159   3.449   5.834  1.00  0.00     0.029 A 
ATOM     40  C   UNL     1      -1.167   3.624   6.419  1.00  0.00     0.049 A 
ATOM     41  H   UNL     1      -2.954   3.992   5.409  1.00  0.00     0.167 HD
ATOM     42  C   UNL     1      -6.576   5.102   3.273  1.00  0.00     0.034 A 
ATOM     43  C   UNL     1      -1.446   3.569   7.737  1.00  0.00     0.034 A 
ATOM     44  C   UNL     1      -6.976   5.024   4.653  1.00  0.00     0.049 A 
ATOM     45  C   UNL     1      -2.854   3.804   8.207  1.00  0.00     0.074 A 
ATOM     46  C   UNL     1      -8.238   5.206   5.194  1.00  0.00     0.029 A 
ATOM     47  N   UNL     1      -6.132   4.720   5.708  1.00  0.00    -0.354 N 
ATOM     48  N   UNL     1      -3.934   4.027   7.499  1.00  0.00    -0.248 NA
ATOM     49  C   UNL     1      -3.085   3.771   9.659  1.00  0.00     0.031 C 
ATOM     50  C   UNL     1      -8.157   5.009   6.577  1.00  0.00     0.029 A 
ATOM     51  C   UNL     1      -6.845   4.703   6.896  1.00  0.00     0.049 A 
ATOM     52  H   UNL     1      -5.167   4.543   5.626  1.00  0.00     0.167 HD
ATOM     53  C   UNL     1      -4.972   4.149   8.416  1.00  0.00     0.074 A 
ATOM     54  C   UNL     1      -4.399   3.940   9.729  1.00  0.00     0.031 C 
ATOM     55  C   UNL     1      -6.277   4.438   8.192  1.00  0.00     0.034 A 
BRANCH  42  56
ATOM     56  C   UNL     1      -7.638   5.423   2.256  1.00  0.00     0.023 A 
ATOM     57  C   UNL     1      -8.205   4.385   1.492  1.00  0.00     0.012 A 
ATOM     58  C   UNL     1      -8.129   6.736   2.114  1.00  0.00     0.148 A 
ATOM     59  C   UNL     1      -9.232   4.651   0.587  1.00  0.00     0.002 A 
ATOM     60  C   UNL     1      -9.176   6.988   1.234  1.00  0.00     0.091 A 
ATOM     61  F   UNL     1      -7.559   7.715   2.831  1.00  0.00    -0.205 F 
ATOM     62  C   UNL     1      -9.724   5.949   0.466  1.00  0.00     0.022 A 
BRANCH  60  63
ATOM     63  S   UNL     1      -9.919   8.616   1.070  1.00  0.00     0.127 S 
ATOM     64  O   UNL     1      -9.314   9.093  -0.173  1.00  0.00    -0.237 OA
ATOM     65  O   UNL     1     -11.345   8.302   0.971  1.00  0.00    -0.237 OA
ATOM     66  O   UNL     1      -9.546   9.344   2.275  1.00  0.00    -0.744 OA
ENDBRANCH  60  63
ENDBRANCH  42  56
BRANCH  43  67
ATOM     67  C   UNL     1      -0.359   3.252   8.707  1.00  0.00     0.023 A 
ATOM     68  C   UNL     1      -0.371   2.013   9.375  1.00  0.00     0.012 A 
ATOM     69  C   UNL     1       0.705   4.145   8.936  1.00  0.00     0.148 A 
ATOM     70  C   UNL     1       0.650   1.675  10.263  1.00  0.00     0.002 A 
ATOM     71  C   UNL     1       1.750   3.777   9.776  1.00  0.00     0.091 A 
ATOM     72  F   UNL     1       0.684   5.336   8.320  1.00  0.00    -0.205 F 
ATOM     73  C   UNL     1       1.718   2.549  10.451  1.00  0.00     0.022 A 
BRANCH  71  74
ATOM     74  S   UNL     1       3.223   4.792   9.940  1.00  0.00     0.127 S 
ATOM     75  O   UNL     1       2.947   5.529  11.169  1.00  0.00    -0.237 OA
ATOM     76  O   UNL     1       4.284   3.789  10.049  1.00  0.00    -0.237 OA
ATOM     77  O   UNL     1       3.278   5.580   8.715  1.00  0.00    -0.744 OA
ENDBRANCH  71  74
ENDBRANCH  43  67
BRANCH  55  78
ATOM     78  C   UNL     1      -7.184   4.537   9.388  1.00  0.00     0.023 A 
ATOM     79  C   UNL     1      -7.132   5.689  10.197  1.00  0.00     0.012 A 
ATOM     80  C   UNL     1      -8.130   3.534   9.672  1.00  0.00     0.148 A 
ATOM     81  C   UNL     1      -7.991   5.831  11.286  1.00  0.00     0.002 A 
ATOM     82  C   UNL     1      -9.009   3.698  10.739  1.00  0.00     0.091 A 
ATOM     83  F   UNL     1      -8.150   2.434   8.905  1.00  0.00    -0.205 F 
ATOM     84  C   UNL     1      -8.936   4.841  11.550  1.00  0.00     0.022 A 
BRANCH  82  85
ATOM     85  S   UNL     1     -10.305   2.505  11.095  1.00  0.00     0.127 S 
ATOM     86  O   UNL     1      -9.711   1.735  12.186  1.00  0.00    -0.237 OA
ATOM     87  O   UNL     1     -11.424   3.361  11.493  1.00  0.00    -0.237 OA
ATOM     88  O   UNL     1     -10.522   1.778   9.851  1.00  0.00    -0.744 OA
ENDBRANCH  82  85
ENDBRANCH  55  78
ENDBRANCH  29  30
ENDBRANCH  22  24
ENDBRANCH  21  22
ENDBRANCH  20  21
ENDBRANCH   1  20
TORSDOF 17
