REMARK SMILES C[C@H]1CS(=O)(=O)N(c2cccc(C(=O)Nc3ccc(O)c(C(=O)OCCOC(=O)c4ccc(-c5c6nc(c(-c7cccc(S(=O)(=O)[O-])c7F)c7ccc([nH]7)c(-c7cccc(S(=O)(=O)[O-])c7F)c7nc(c(-c8cccc(S(=O)(=O)[O-])c8F)c8ccc5[nH]8)C=C7)C=C6)cc4)c3)c2)C1=O
REMARK SMILES IDX 25 1 24 2 22 3 23 4 21 5 16 6 17 7 93 8 18 9 19 10 15 11
REMARK SMILES IDX 13 12 14 13 12 15 8 16 9 17 94 18 10 19 11 20 7 21 1 22 2 23
REMARK SMILES IDX 3 24 95 25 4 26 96 27 5 28 6 29 20 30 26 32 27 33 28 34
REMARK SMILES IDX 29 35 30 36 31 37 92 38 32 39 91 40 33 41 34 42 35 43 85 44
REMARK SMILES IDX 36 45 90 46 84 47 86 48 37 49 89 50 83 51 82 52 38 54 70 55
REMARK SMILES IDX 50 56 69 57 51 58 54 59 68 60 87 61 52 62 53 63 67 65 88 66
REMARK SMILES IDX 55 67 39 68 40 69 48 70 41 71 43 72 49 73 42 74 44 75 45 76
REMARK SMILES IDX 46 77 47 78 71 79 72 80 80 81 73 82 75 83 81 84 74 85 76 86
REMARK SMILES IDX 77 87 78 88 79 89 56 90 57 91 65 92 58 93 60 94 66 95 59 96
REMARK SMILES IDX 61 97 62 98 63 99 64 100
REMARK H PARENT 15 14 20 31 86 53 54 64
REMARK Flexibility Score: inf
ROOT
ATOM      1  C   UNL     1       2.630  -2.587  -2.563  1.00  0.00     0.275 C 
ENDROOT
BRANCH   1   2
ATOM      2  O   UNL     1       2.226  -1.975  -3.809  1.00  0.00    -0.458 OA
BRANCH   2   3
ATOM      3  C   UNL     1       1.862  -0.679  -3.698  1.00  0.00     0.342 C 
ATOM      4  O   UNL     1       1.914  -0.016  -2.671  1.00  0.00    -0.246 OA
BRANCH   3   5
ATOM      5  C   UNL     1       1.353  -0.056  -4.935  1.00  0.00     0.103 A 
ATOM      6  C   UNL     1       0.282  -0.211  -7.080  1.00  0.00     0.042 A 
ATOM      7  C   UNL     1       0.242   1.181  -7.196  1.00  0.00     0.030 A 
ATOM      8  C   UNL     1       0.960  -0.829  -6.024  1.00  0.00     0.045 A 
ATOM      9  C   UNL     1       0.636   1.955  -6.112  1.00  0.00     0.049 A 
ATOM     10  C   UNL     1       1.105   1.329  -4.963  1.00  0.00     0.130 A 
BRANCH   6  11
ATOM     11  N   UNL     1      -0.557  -0.938  -7.930  1.00  0.00    -0.322 N 
ATOM     12  C   UNL     1      -1.460  -1.934  -7.598  1.00  0.00     0.255 C 
ATOM     13  O   UNL     1      -2.015  -2.552  -8.510  1.00  0.00    -0.269 OA
ATOM     14  H   UNL     1      -0.497  -0.713  -8.887  1.00  0.00     0.170 HD
BRANCH  12  15
ATOM     15  C   UNL     1      -1.847  -2.251  -6.179  1.00  0.00     0.042 A 
ATOM     16  C   UNL     1      -2.066  -1.710  -3.799  1.00  0.00     0.061 A 
ATOM     17  C   UNL     1      -2.482  -3.019  -3.553  1.00  0.00     0.027 A 
ATOM     18  C   UNL     1      -1.841  -1.317  -5.127  1.00  0.00     0.041 A 
ATOM     19  C   UNL     1      -2.612  -3.930  -4.605  1.00  0.00     0.003 A 
ATOM     20  C   UNL     1      -2.273  -3.555  -5.907  1.00  0.00     0.014 A 
BRANCH  16  21
ATOM     21  N   UNL     1      -1.828  -0.796  -2.724  1.00  0.00    -0.207 N 
ATOM     22  C   UNL     1       0.447   0.394  -0.228  1.00  0.00     0.019 C 
ATOM     23  C   UNL     1      -0.983   0.010  -0.593  1.00  0.00     0.094 C 
ATOM     24  C   UNL     1      -1.748   1.208  -1.164  1.00  0.00     0.173 C 
ATOM     25  C   UNL     1      -1.040  -1.134  -1.604  1.00  0.00     0.244 C 
ATOM     26  S   UNL     1      -2.656   0.649  -2.589  1.00  0.00     0.242 S 
ATOM     27  O   UNL     1      -0.497  -2.218  -1.434  1.00  0.00    -0.273 OA
ATOM     28  O   UNL     1      -4.018   0.351  -2.193  1.00  0.00    -0.206 OA
ATOM     29  O   UNL     1      -2.350   1.491  -3.718  1.00  0.00    -0.206 OA
ENDBRANCH  16  21
ENDBRANCH  12  15
ENDBRANCH   6  11
BRANCH  10  30
ATOM     30  O   UNL     1       1.237   2.146  -3.872  1.00  0.00    -0.507 OA
ATOM     31  H   UNL     1       1.058   3.063  -3.949  1.00  0.00     0.293 HD
ENDBRANCH  10  30
ENDBRANCH   3   5
ENDBRANCH   2   3
ENDBRANCH   1   2
BRANCH   1  32
ATOM     32  C   UNL     1       4.128  -2.430  -2.268  1.00  0.00     0.275 C 
BRANCH  32  33
ATOM     33  O   UNL     1       4.481  -1.077  -1.907  1.00  0.00    -0.458 OA
BRANCH  33  34
ATOM     34  C   UNL     1       4.998  -0.322  -2.909  1.00  0.00     0.338 C 
ATOM     35  O   UNL     1       5.258  -0.700  -4.039  1.00  0.00    -0.246 OA
BRANCH  34  36
ATOM     36  C   UNL     1       4.978   1.108  -2.530  1.00  0.00     0.060 A 
ATOM     37  C   UNL     1       4.219   1.953  -3.342  1.00  0.00     0.016 A 
ATOM     38  C   UNL     1       5.688   1.642  -1.455  1.00  0.00     0.016 A 
ATOM     39  C   UNL     1       4.079   3.305  -3.046  1.00  0.00     0.010 A 
ATOM     40  C   UNL     1       5.619   3.025  -1.204  1.00  0.00     0.010 A 
ATOM     41  C   UNL     1       4.807   3.862  -1.994  1.00  0.00    -0.014 A 
BRANCH  41  42
ATOM     42  C   UNL     1       4.889   5.341  -1.909  1.00  0.00     0.031 A 
ATOM     43  C   UNL     1       5.983   6.026  -2.680  1.00  0.00     0.074 A 
ATOM     44  C   UNL     1       3.984   6.076  -1.237  1.00  0.00     0.049 A 
ATOM     45  N   UNL     1       6.304   7.292  -2.722  1.00  0.00    -0.248 NA
ATOM     46  C   UNL     1       6.821   5.161  -3.528  1.00  0.00     0.031 C 
ATOM     47  C   UNL     1       2.816   5.550  -0.534  1.00  0.00     0.029 A 
ATOM     48  N   UNL     1       3.921   7.433  -1.026  1.00  0.00    -0.354 N 
ATOM     49  C   UNL     1       7.404   7.371  -3.566  1.00  0.00     0.074 A 
ATOM     50  C   UNL     1       7.687   6.029  -4.026  1.00  0.00     0.031 C 
ATOM     51  C   UNL     1       2.174   6.570   0.066  1.00  0.00     0.029 A 
ATOM     52  C   UNL     1       2.908   7.812  -0.177  1.00  0.00     0.049 A 
ATOM     53  H   UNL     1       4.542   8.073  -1.444  1.00  0.00     0.167 HD
ATOM     54  C   UNL     1       8.121   8.461  -3.925  1.00  0.00     0.034 A 
ATOM     55  C   UNL     1       2.634   9.014   0.373  1.00  0.00     0.034 A 
ATOM     56  C   UNL     1       7.841   9.795  -3.472  1.00  0.00     0.049 A 
ATOM     57  C   UNL     1       3.503  10.201   0.028  1.00  0.00     0.074 A 
ATOM     58  C   UNL     1       8.513  10.964  -3.780  1.00  0.00     0.029 A 
ATOM     59  N   UNL     1       6.819  10.136  -2.601  1.00  0.00    -0.354 N 
ATOM     60  N   UNL     1       4.512  10.275  -0.806  1.00  0.00    -0.248 NA
ATOM     61  C   UNL     1       3.181  11.478   0.686  1.00  0.00     0.031 C 
ATOM     62  C   UNL     1       7.923  12.007  -3.059  1.00  0.00     0.029 A 
ATOM     63  C   UNL     1       6.852  11.496  -2.345  1.00  0.00     0.049 A 
ATOM     64  H   UNL     1       6.167   9.505  -2.220  1.00  0.00     0.167 HD
ATOM     65  C   UNL     1       4.917  11.607  -0.804  1.00  0.00     0.074 A 
ATOM     66  C   UNL     1       4.034  12.310   0.103  1.00  0.00     0.031 C 
ATOM     67  C   UNL     1       5.934  12.195  -1.482  1.00  0.00     0.034 A 
BRANCH  54  68
ATOM     68  C   UNL     1       9.303   8.243  -4.829  1.00  0.00     0.023 A 
ATOM     69  C   UNL     1       9.109   7.922  -6.187  1.00  0.00     0.012 A 
ATOM     70  C   UNL     1      10.612   8.383  -4.329  1.00  0.00     0.148 A 
ATOM     71  C   UNL     1      10.202   7.707  -7.026  1.00  0.00     0.002 A 
ATOM     72  C   UNL     1      11.695   8.218  -5.181  1.00  0.00     0.091 A 
ATOM     73  F   UNL     1      10.772   8.662  -3.027  1.00  0.00    -0.205 F 
ATOM     74  C   UNL     1      11.493   7.865  -6.526  1.00  0.00     0.022 A 
BRANCH  72  75
ATOM     75  S   UNL     1      13.390   8.477  -4.652  1.00  0.00     0.127 S 
ATOM     76  O   UNL     1      13.930   7.120  -4.716  1.00  0.00    -0.237 OA
ATOM     77  O   UNL     1      13.896   9.384  -5.682  1.00  0.00    -0.237 OA
ATOM     78  O   UNL     1      13.313   9.053  -3.317  1.00  0.00    -0.744 OA
ENDBRANCH  72  75
ENDBRANCH  54  68
BRANCH  55  79
ATOM     79  C   UNL     1       1.500   9.168   1.333  1.00  0.00     0.023 A 
ATOM     80  C   UNL     1       0.400   9.982   0.998  1.00  0.00     0.012 A 
ATOM     81  C   UNL     1       1.523   8.534   2.591  1.00  0.00     0.148 A 
ATOM     82  C   UNL     1      -0.635  10.192   1.912  1.00  0.00     0.002 A 
ATOM     83  C   UNL     1       0.461   8.698   3.472  1.00  0.00     0.091 A 
ATOM     84  F   UNL     1       2.588   7.782   2.903  1.00  0.00    -0.205 F 
ATOM     85  C   UNL     1      -0.609   9.544   3.144  1.00  0.00     0.022 A 
BRANCH  83  86
ATOM     86  S   UNL     1       0.350   7.807   5.028  1.00  0.00     0.127 S 
ATOM     87  O   UNL     1       0.458   8.890   6.003  1.00  0.00    -0.237 OA
ATOM     88  O   UNL     1      -0.976   7.197   4.927  1.00  0.00    -0.237 OA
ATOM     89  O   UNL     1       1.452   6.855   5.019  1.00  0.00    -0.744 OA
ENDBRANCH  83  86
ENDBRANCH  55  79
BRANCH  67  90
ATOM     90  C   UNL     1       6.126  13.683  -1.327  1.00  0.00     0.023 A 
ATOM     91  C   UNL     1       6.623  14.213  -0.120  1.00  0.00     0.012 A 
ATOM     92  C   UNL     1       5.895  14.548  -2.417  1.00  0.00     0.148 A 
ATOM     93  C   UNL     1       6.854  15.583   0.011  1.00  0.00     0.002 A 
ATOM     94  C   UNL     1       6.179  15.902  -2.297  1.00  0.00     0.091 A 
ATOM     95  F   UNL     1       5.410  14.027  -3.553  1.00  0.00    -0.205 F 
ATOM     96  C   UNL     1       6.645  16.424  -1.080  1.00  0.00     0.022 A 
BRANCH  94  97
ATOM     97  S   UNL     1       6.040  17.044  -3.677  1.00  0.00     0.127 S 
ATOM     98  O   UNL     1       4.898  17.863  -3.272  1.00  0.00    -0.237 OA
ATOM     99  O   UNL     1       7.329  17.735  -3.639  1.00  0.00    -0.237 OA
ATOM    100  O   UNL     1       5.827  16.223  -4.861  1.00  0.00    -0.744 OA
ENDBRANCH  94  97
ENDBRANCH  67  90
ENDBRANCH  41  42
ENDBRANCH  34  36
ENDBRANCH  33  34
ENDBRANCH  32  33
ENDBRANCH   1  32
TORSDOF 18
