REMARK SMILES O=C(C[NH+]1CCC(C(=O)OCCOC(=O)c2ccc(-c3c4nc(c(-c5cccc(S(=O)(=O)[O-])c5F)c5ccc([nH]5)c(-c5cccc(S(=O)(=O)[O-])c5F)c5nc(c(-c6cccc(S(=O)(=O)[O-])c6F)c6ccc3[nH]6)C=C5)C=C4)cc2)CC1)Nc1ccccc1Oc1ccccc1
REMARK SMILES IDX 11 1 10 2 8 3 9 4 7 5 4 6 5 7 80 8 6 10 79 11 3 12 2 13 1 14
REMARK SMILES IDX 81 15 82 17 83 18 87 19 84 20 86 21 85 22 88 23 89 24 90 25
REMARK SMILES IDX 94 26 91 27 93 28 92 29 12 30 13 31 14 32 15 33 16 34 17 35
REMARK SMILES IDX 78 36 18 37 77 38 19 39 20 40 21 41 71 42 22 43 76 44 70 45
REMARK SMILES IDX 72 46 23 47 75 48 69 49 68 50 24 52 56 53 36 54 55 55 37 56
REMARK SMILES IDX 40 57 54 58 73 59 38 60 39 61 53 63 74 64 41 65 25 66 26 67
REMARK SMILES IDX 34 68 27 69 29 70 35 71 28 72 30 73 31 74 32 75 33 76 57 77
REMARK SMILES IDX 58 78 66 79 59 80 61 81 67 82 60 83 62 84 63 85 64 86 65 87
REMARK SMILES IDX 42 88 43 89 51 90 44 91 46 92 52 93 45 94 47 95 48 96 49 97
REMARK SMILES IDX 50 98
REMARK H PARENT 4 9 81 16 72 51 40 62
REMARK Flexibility Score: inf
ROOT
ATOM      1  C   UNL     1       7.175   4.798   4.880  1.00  0.00     0.274 C 
ENDROOT
BRANCH   1   2
ATOM      2  O   UNL     1       6.443   4.127   3.842  1.00  0.00    -0.462 OA
BRANCH   2   3
ATOM      3  C   UNL     1       6.348   4.776   2.654  1.00  0.00     0.309 C 
ATOM      4  O   UNL     1       6.738   5.917   2.442  1.00  0.00    -0.252 OA
BRANCH   3   5
ATOM      5  C   UNL     1       5.663   3.942   1.593  1.00  0.00     0.110 C 
ATOM      6  N   UNL     1       3.598   2.051   0.861  1.00  0.00    -0.327 N 
ATOM      7  C   UNL     1       5.008   1.647   0.786  1.00  0.00     0.263 C 
ATOM      8  C   UNL     1       3.461   3.468   0.491  1.00  0.00     0.263 C 
ATOM      9  H   UNL     1       3.283   1.912   1.822  1.00  0.00     0.348 HD
ATOM     10  C   UNL     1       5.820   2.434   1.803  1.00  0.00     0.077 C 
ATOM     11  C   UNL     1       4.198   4.349   1.490  1.00  0.00     0.077 C 
BRANCH   6  12
ATOM     12  C   UNL     1       2.758   1.230  -0.027  1.00  0.00     0.363 C 
BRANCH  12  13
ATOM     13  C   UNL     1       1.979   0.179   0.766  1.00  0.00     0.279 C 
ATOM     14  O   UNL     1       0.810   0.347   1.111  1.00  0.00    -0.268 OA
ATOM     15  N   UNL     1       2.710  -0.966   1.015  1.00  0.00    -0.318 N 
ATOM     16  H   UNL     1       3.689  -0.882   1.063  1.00  0.00     0.170 HD
BRANCH  15  17
ATOM     17  C   UNL     1       2.153  -2.244   1.206  1.00  0.00     0.084 A 
ATOM     18  C   UNL     1       2.794  -3.058   2.153  1.00  0.00     0.030 A 
ATOM     19  C   UNL     1       1.040  -2.749   0.508  1.00  0.00     0.150 A 
ATOM     20  C   UNL     1       2.275  -4.310   2.488  1.00  0.00     0.002 A 
ATOM     21  C   UNL     1       0.528  -4.009   0.858  1.00  0.00     0.049 A 
ATOM     22  C   UNL     1       1.134  -4.781   1.849  1.00  0.00     0.004 A 
BRANCH  19  23
ATOM     23  O   UNL     1       0.320  -2.131  -0.492  1.00  0.00    -0.455 OA
BRANCH  23  24
ATOM     24  C   UNL     1       0.942  -1.451  -1.512  1.00  0.00     0.127 A 
ATOM     25  C   UNL     1       0.255  -0.319  -1.969  1.00  0.00     0.047 A 
ATOM     26  C   UNL     1       2.158  -1.803  -2.097  1.00  0.00     0.047 A 
ATOM     27  C   UNL     1       0.812   0.504  -2.947  1.00  0.00     0.004 A 
ATOM     28  C   UNL     1       2.716  -0.978  -3.083  1.00  0.00     0.004 A 
ATOM     29  C   UNL     1       2.051   0.180  -3.497  1.00  0.00     0.000 A 
ENDBRANCH  23  24
ENDBRANCH  19  23
ENDBRANCH  15  17
ENDBRANCH  12  13
ENDBRANCH   6  12
ENDBRANCH   3   5
ENDBRANCH   2   3
ENDBRANCH   1   2
BRANCH   1  30
ATOM     30  C   UNL     1       8.595   4.241   4.985  1.00  0.00     0.275 C 
BRANCH  30  31
ATOM     31  O   UNL     1       9.361   4.530   3.800  1.00  0.00    -0.458 OA
BRANCH  31  32
ATOM     32  C   UNL     1       9.475   3.516   2.914  1.00  0.00     0.338 C 
ATOM     33  O   UNL     1       9.038   2.378   3.028  1.00  0.00    -0.246 OA
BRANCH  32  34
ATOM     34  C   UNL     1      10.120   4.001   1.687  1.00  0.00     0.060 A 
ATOM     35  C   UNL     1       9.341   4.144   0.537  1.00  0.00     0.016 A 
ATOM     36  C   UNL     1      11.494   4.231   1.643  1.00  0.00     0.016 A 
ATOM     37  C   UNL     1       9.927   4.518  -0.669  1.00  0.00     0.010 A 
ATOM     38  C   UNL     1      12.083   4.613   0.434  1.00  0.00     0.010 A 
ATOM     39  C   UNL     1      11.306   4.748  -0.732  1.00  0.00    -0.014 A 
BRANCH  39  40
ATOM     40  C   UNL     1      11.948   5.088  -2.024  1.00  0.00     0.031 A 
ATOM     41  C   UNL     1      12.840   4.085  -2.697  1.00  0.00     0.074 A 
ATOM     42  C   UNL     1      11.755   6.302  -2.573  1.00  0.00     0.049 A 
ATOM     43  N   UNL     1      13.610   4.235  -3.742  1.00  0.00    -0.248 NA
ATOM     44  C   UNL     1      12.873   2.735  -2.111  1.00  0.00     0.031 C 
ATOM     45  C   UNL     1      10.893   7.349  -2.025  1.00  0.00     0.029 A 
ATOM     46  N   UNL     1      12.297   6.869  -3.699  1.00  0.00    -0.354 N 
ATOM     47  C   UNL     1      14.263   3.020  -3.907  1.00  0.00     0.074 A 
ATOM     48  C   UNL     1      13.788   2.138  -2.863  1.00  0.00     0.031 C 
ATOM     49  C   UNL     1      10.984   8.441  -2.800  1.00  0.00     0.029 A 
ATOM     50  C   UNL     1      11.946   8.188  -3.870  1.00  0.00     0.049 A 
ATOM     51  H   UNL     1      12.881   6.380  -4.324  1.00  0.00     0.167 HD
ATOM     52  C   UNL     1      15.172   2.672  -4.848  1.00  0.00     0.034 A 
ATOM     53  C   UNL     1      12.380   9.100  -4.761  1.00  0.00     0.034 A 
ATOM     54  C   UNL     1      15.603   3.538  -5.912  1.00  0.00     0.049 A 
ATOM     55  C   UNL     1      13.397   8.690  -5.792  1.00  0.00     0.074 A 
ATOM     56  C   UNL     1      16.487   3.263  -6.940  1.00  0.00     0.029 A 
ATOM     57  N   UNL     1      15.182   4.848  -6.085  1.00  0.00    -0.354 N 
ATOM     58  N   UNL     1      13.947   7.515  -5.985  1.00  0.00    -0.248 NA
ATOM     59  C   UNL     1      13.840   9.722  -6.740  1.00  0.00     0.031 C 
ATOM     60  C   UNL     1      16.608   4.412  -7.731  1.00  0.00     0.029 A 
ATOM     61  C   UNL     1      15.790   5.397  -7.201  1.00  0.00     0.049 A 
ATOM     62  H   UNL     1      14.544   5.318  -5.501  1.00  0.00     0.167 HD
ATOM     63  C   UNL     1      14.780   7.660  -7.088  1.00  0.00     0.074 A 
ATOM     64  C   UNL     1      14.645   9.031  -7.536  1.00  0.00     0.031 C 
ATOM     65  C   UNL     1      15.598   6.746  -7.667  1.00  0.00     0.034 A 
BRANCH  52  66
ATOM     66  C   UNL     1      15.746   1.283  -4.786  1.00  0.00     0.023 A 
ATOM     67  C   UNL     1      14.970   0.189  -5.217  1.00  0.00     0.012 A 
ATOM     68  C   UNL     1      17.069   1.068  -4.353  1.00  0.00     0.148 A 
ATOM     69  C   UNL     1      15.494  -1.103  -5.196  1.00  0.00     0.002 A 
ATOM     70  C   UNL     1      17.596  -0.218  -4.368  1.00  0.00     0.091 A 
ATOM     71  F   UNL     1      17.780   2.119  -3.921  1.00  0.00    -0.205 F 
ATOM     72  C   UNL     1      16.809  -1.305  -4.781  1.00  0.00     0.022 A 
BRANCH  70  73
ATOM     73  S   UNL     1      19.299  -0.566  -3.914  1.00  0.00     0.127 S 
ATOM     74  O   UNL     1      19.136  -1.163  -2.590  1.00  0.00    -0.237 OA
ATOM     75  O   UNL     1      19.715  -1.503  -4.959  1.00  0.00    -0.237 OA
ATOM     76  O   UNL     1      19.989   0.717  -3.946  1.00  0.00    -0.744 OA
ENDBRANCH  70  73
ENDBRANCH  52  66
BRANCH  53  77
ATOM     77  C   UNL     1      11.836  10.487  -4.726  1.00  0.00     0.023 A 
ATOM     78  C   UNL     1      10.986  10.923  -5.760  1.00  0.00     0.012 A 
ATOM     79  C   UNL     1      12.122  11.360  -3.658  1.00  0.00     0.148 A 
ATOM     80  C   UNL     1      10.443  12.208  -5.739  1.00  0.00     0.002 A 
ATOM     81  C   UNL     1      11.534  12.619  -3.615  1.00  0.00     0.091 A 
ATOM     82  F   UNL     1      12.955  10.938  -2.696  1.00  0.00    -0.205 F 
ATOM     83  C   UNL     1      10.706  13.051  -4.662  1.00  0.00     0.022 A 
BRANCH  81  84
ATOM     84  S   UNL     1      11.713  13.710  -2.198  1.00  0.00     0.127 S 
ATOM     85  O   UNL     1      12.666  14.697  -2.699  1.00  0.00    -0.237 OA
ATOM     86  O   UNL     1      10.348  14.206  -2.019  1.00  0.00    -0.237 OA
ATOM     87  O   UNL     1      12.186  12.860  -1.113  1.00  0.00    -0.744 OA
ENDBRANCH  81  84
ENDBRANCH  53  77
BRANCH  65  88
ATOM     88  C   UNL     1      16.395   7.183  -8.866  1.00  0.00     0.023 A 
ATOM     89  C   UNL     1      17.530   7.998  -8.686  1.00  0.00     0.012 A 
ATOM     90  C   UNL     1      16.074   6.715 -10.155  1.00  0.00     0.148 A 
ATOM     91  C   UNL     1      18.322   8.357  -9.776  1.00  0.00     0.002 A 
ATOM     92  C   UNL     1      16.892   7.043 -11.230  1.00  0.00     0.091 A 
ATOM     93  F   UNL     1      14.978   5.958 -10.306  1.00  0.00    -0.205 F 
ATOM     94  C   UNL     1      18.012   7.870 -11.043  1.00  0.00     0.022 A 
BRANCH  92  95
ATOM     95  S   UNL     1      16.617   6.385 -12.879  1.00  0.00     0.127 S 
ATOM     96  O   UNL     1      16.049   7.541 -13.570  1.00  0.00    -0.237 OA
ATOM     97  O   UNL     1      17.970   6.024 -13.303  1.00  0.00    -0.237 OA
ATOM     98  O   UNL     1      15.718   5.251 -12.710  1.00  0.00    -0.744 OA
ENDBRANCH  92  95
ENDBRANCH  65  88
ENDBRANCH  39  40
ENDBRANCH  32  34
ENDBRANCH  31  32
ENDBRANCH  30  31
ENDBRANCH   1  30
TORSDOF 19
