REMARK SMILES O=C(/C=C/c1ccc(O)c(O)c1)OCCOC(=O)c1ccc(-c2c3nc(c(-c4cccc(S(=O)(=O)[O-])c4F)c4ccc([nH]4)c(-c4cccc(S(=O)(=O)[O-])c4F)c4nc(c(-c5cccc(S(=O)(=O)[O-])c5F)c5ccc2[nH]5)C=C4)C=C3)cc1
REMARK SMILES IDX 15 1 14 2 13 3 2 4 1 5 3 6 4 7 5 8 6 9 12 10 7 11 10 12 8 13
REMARK SMILES IDX 11 14 9 16 16 18 17 19 18 20 19 21 20 22 81 23 21 24 80 25
REMARK SMILES IDX 22 26 23 27 24 28 74 29 25 30 79 31 73 32 75 33 26 34 78 35
REMARK SMILES IDX 72 36 71 37 27 39 59 40 39 41 58 42 40 43 43 44 57 45 76 46
REMARK SMILES IDX 41 47 42 48 56 50 77 51 44 52 28 53 29 54 37 55 30 56 32 57
REMARK SMILES IDX 38 58 31 59 33 60 34 61 35 62 36 63 60 64 61 65 69 66 62 67
REMARK SMILES IDX 64 68 70 69 63 70 65 71 66 72 67 73 68 74 45 75 46 76 54 77
REMARK SMILES IDX 47 78 49 79 55 80 48 81 50 82 51 83 52 84 53 85
REMARK H PARENT 11 15 9 17 75 38 43 49
REMARK Flexibility Score: inf
ROOT
ATOM      1  C   UNL     1       4.347   1.618   1.031  1.00  0.00     0.275 C 
ENDROOT
BRANCH   1   2
ATOM      2  C   UNL     1       4.307   1.296  -0.466  1.00  0.00     0.275 C 
BRANCH   2   3
ATOM      3  O   UNL     1       3.068   0.744  -0.956  1.00  0.00    -0.459 OA
BRANCH   3   4
ATOM      4  C   UNL     1       2.686  -0.552  -1.024  1.00  0.00     0.330 C 
ATOM      5  O   UNL     1       1.669  -0.865  -1.638  1.00  0.00    -0.247 OA
BRANCH   4   6
ATOM      6  C   UNL     1       3.357  -1.589  -0.221  1.00  0.00     0.094 C 
ATOM      7  C   UNL     1       4.668  -1.809  -0.057  1.00  0.00     0.016 C 
BRANCH   7   8
ATOM      8  C   UNL     1       5.185  -2.754   0.942  1.00  0.00    -0.021 A 
ATOM      9  C   UNL     1       4.728  -4.076   1.044  1.00  0.00     0.012 A 
ATOM     10  C   UNL     1       6.173  -2.298   1.827  1.00  0.00     0.058 A 
ATOM     11  C   UNL     1       5.247  -4.936   2.021  1.00  0.00     0.051 A 
ATOM     12  C   UNL     1       6.678  -3.155   2.794  1.00  0.00     0.157 A 
ATOM     13  C   UNL     1       6.223  -4.466   2.890  1.00  0.00     0.157 A 
BRANCH  12  14
ATOM     14  O   UNL     1       7.625  -2.694   3.663  1.00  0.00    -0.504 OA
ATOM     15  H   UNL     1       7.974  -3.263   4.321  1.00  0.00     0.293 HD
ENDBRANCH  12  14
BRANCH  13  16
ATOM     16  O   UNL     1       6.772  -5.256   3.861  1.00  0.00    -0.504 OA
ATOM     17  H   UNL     1       6.491  -6.145   3.956  1.00  0.00     0.293 HD
ENDBRANCH  13  16
ENDBRANCH   7   8
ENDBRANCH   4   6
ENDBRANCH   3   4
ENDBRANCH   2   3
ENDBRANCH   1   2
BRANCH   1  18
ATOM     18  O   UNL     1       3.949   0.519   1.859  1.00  0.00    -0.458 OA
BRANCH  18  19
ATOM     19  C   UNL     1       2.639   0.529   2.214  1.00  0.00     0.338 C 
ATOM     20  O   UNL     1       1.828   1.402   1.946  1.00  0.00    -0.246 OA
BRANCH  19  21
ATOM     21  C   UNL     1       2.263  -0.744   2.870  1.00  0.00     0.060 A 
ATOM     22  C   UNL     1       0.988  -1.255   2.595  1.00  0.00     0.016 A 
ATOM     23  C   UNL     1       3.110  -1.418   3.755  1.00  0.00     0.016 A 
ATOM     24  C   UNL     1       0.534  -2.399   3.252  1.00  0.00     0.010 A 
ATOM     25  C   UNL     1       2.656  -2.573   4.405  1.00  0.00     0.010 A 
ATOM     26  C   UNL     1       1.347  -3.041   4.196  1.00  0.00    -0.014 A 
BRANCH  26  27
ATOM     27  C   UNL     1       0.752  -4.088   5.069  1.00  0.00     0.031 A 
ATOM     28  C   UNL     1       0.369  -3.734   6.483  1.00  0.00     0.074 A 
ATOM     29  C   UNL     1       0.505  -5.329   4.607  1.00  0.00     0.049 A 
ATOM     30  N   UNL     1      -0.259  -4.455   7.377  1.00  0.00    -0.248 NA
ATOM     31  C   UNL     1       0.744  -2.390   6.953  1.00  0.00     0.031 C 
ATOM     32  C   UNL     1       0.834  -5.816   3.269  1.00  0.00     0.029 A 
ATOM     33  N   UNL     1      -0.082  -6.407   5.223  1.00  0.00    -0.354 N 
ATOM     34  C   UNL     1      -0.337  -3.664   8.517  1.00  0.00     0.074 A 
ATOM     35  C   UNL     1       0.333  -2.418   8.212  1.00  0.00     0.031 C 
ATOM     36  C   UNL     1       0.446  -7.100   3.166  1.00  0.00     0.029 A 
ATOM     37  C   UNL     1      -0.152  -7.528   4.430  1.00  0.00     0.049 A 
ATOM     38  H   UNL     1      -0.422  -6.380   6.147  1.00  0.00     0.167 HD
ATOM     39  C   UNL     1      -0.931  -3.932   9.704  1.00  0.00     0.034 A 
ATOM     40  C   UNL     1      -0.648  -8.755   4.691  1.00  0.00     0.034 A 
ATOM     41  C   UNL     1      -1.618  -5.157  10.011  1.00  0.00     0.049 A 
ATOM     42  C   UNL     1      -1.303  -9.030   6.022  1.00  0.00     0.074 A 
ATOM     43  C   UNL     1      -2.301  -5.493  11.167  1.00  0.00     0.029 A 
ATOM     44  N   UNL     1      -1.699  -6.253   9.168  1.00  0.00    -0.354 N 
ATOM     45  N   UNL     1      -1.500  -8.219   7.033  1.00  0.00    -0.248 NA
ATOM     46  C   UNL     1      -1.848 -10.382   6.228  1.00  0.00     0.031 C 
ATOM     47  C   UNL     1      -2.766  -6.806  11.036  1.00  0.00     0.029 A 
ATOM     48  C   UNL     1      -2.408  -7.272   9.781  1.00  0.00     0.049 A 
ATOM     49  H   UNL     1      -1.309  -6.300   8.265  1.00  0.00     0.167 HD
ATOM     50  C   UNL     1      -2.237  -8.942   7.967  1.00  0.00     0.074 A 
ATOM     51  C   UNL     1      -2.460 -10.254   7.398  1.00  0.00     0.031 C 
ATOM     52  C   UNL     1      -2.684  -8.554   9.187  1.00  0.00     0.034 A 
BRANCH  39  53
ATOM     53  C   UNL     1      -0.883  -2.862  10.763  1.00  0.00     0.023 A 
ATOM     54  C   UNL     1      -1.659  -1.694  10.615  1.00  0.00     0.012 A 
ATOM     55  C   UNL     1      -0.110  -3.035  11.928  1.00  0.00     0.148 A 
ATOM     56  C   UNL     1      -1.638  -0.699  11.591  1.00  0.00     0.002 A 
ATOM     57  C   UNL     1      -0.131  -2.061  12.918  1.00  0.00     0.091 A 
ATOM     58  F   UNL     1       0.638  -4.142  12.040  1.00  0.00    -0.205 F 
ATOM     59  C   UNL     1      -0.883  -0.887  12.746  1.00  0.00     0.022 A 
BRANCH  57  60
ATOM     60  S   UNL     1       0.741  -2.250  14.476  1.00  0.00     0.127 S 
ATOM     61  O   UNL     1       1.827  -1.282  14.325  1.00  0.00    -0.237 OA
ATOM     62  O   UNL     1      -0.282  -1.870  15.450  1.00  0.00    -0.237 OA
ATOM     63  O   UNL     1       1.151  -3.645  14.540  1.00  0.00    -0.744 OA
ENDBRANCH  57  60
ENDBRANCH  39  53
BRANCH  40  64
ATOM     64  C   UNL     1      -0.603  -9.817   3.646  1.00  0.00     0.023 A 
ATOM     65  C   UNL     1      -1.801 -10.268   3.057  1.00  0.00     0.012 A 
ATOM     66  C   UNL     1       0.618 -10.390   3.243  1.00  0.00     0.148 A 
ATOM     67  C   UNL     1      -1.788 -11.299   2.117  1.00  0.00     0.002 A 
ATOM     68  C   UNL     1       0.629 -11.378   2.266  1.00  0.00     0.091 A 
ATOM     69  F   UNL     1       1.745  -9.957   3.826  1.00  0.00    -0.205 F 
ATOM     70  C   UNL     1      -0.574 -11.848   1.716  1.00  0.00     0.022 A 
BRANCH  68  71
ATOM     71  S   UNL     1       2.155 -12.052   1.601  1.00  0.00     0.127 S 
ATOM     72  O   UNL     1       2.132 -13.416   2.122  1.00  0.00    -0.237 OA
ATOM     73  O   UNL     1       1.931 -11.936   0.159  1.00  0.00    -0.237 OA
ATOM     74  O   UNL     1       3.218 -11.197   2.113  1.00  0.00    -0.744 OA
ENDBRANCH  68  71
ENDBRANCH  40  64
BRANCH  52  75
ATOM     75  C   UNL     1      -3.523  -9.528   9.978  1.00  0.00     0.023 A 
ATOM     76  C   UNL     1      -2.937 -10.680  10.539  1.00  0.00     0.012 A 
ATOM     77  C   UNL     1      -4.886  -9.262  10.222  1.00  0.00     0.148 A 
ATOM     78  C   UNL     1      -3.702 -11.572  11.292  1.00  0.00     0.002 A 
ATOM     79  C   UNL     1      -5.629 -10.127  11.018  1.00  0.00     0.091 A 
ATOM     80  F   UNL     1      -5.435  -8.172   9.667  1.00  0.00    -0.205 F 
ATOM     81  C   UNL     1      -5.043 -11.290  11.541  1.00  0.00     0.022 A 
BRANCH  79  82
ATOM     82  S   UNL     1      -7.334  -9.785  11.472  1.00  0.00     0.127 S 
ATOM     83  O   UNL     1      -8.065 -10.711  10.609  1.00  0.00    -0.237 OA
ATOM     84  O   UNL     1      -7.354 -10.133  12.894  1.00  0.00    -0.237 OA
ATOM     85  O   UNL     1      -7.543  -8.370  11.197  1.00  0.00    -0.744 OA
ENDBRANCH  79  82
ENDBRANCH  52  75
ENDBRANCH  26  27
ENDBRANCH  19  21
ENDBRANCH  18  19
ENDBRANCH   1  18
TORSDOF 17
