REMARK SMILES CCOc1ccccc1NC(=O)[C@H]1[C@@H]2C=C[C@@H]([C@@H]3C[C@H]23)[C@@H]1C(=O)OCCOC(=O)c1ccc(-c2c3nc(c(-c4cccc(S(=O)(=O)[O-])c4F)c4ccc([nH]4)c(-c4cccc(S(=O)(=O)[O-])c4F)c4nc(c(-c5cccc(S(=O)(=O)[O-])c5F)c5ccc2[nH]5)C=C4)C=C3)cc1
REMARK SMILES IDX 25 1 24 2 22 3 23 4 21 5 13 6 14 7 15 8 20 9 17 10 16 11
REMARK SMILES IDX 18 12 19 13 11 14 10 15 12 17 9 18 4 19 5 20 6 21 8 22 7 23
REMARK SMILES IDX 3 24 2 25 1 26 26 27 27 28 28 29 29 30 30 31 31 32 92 33
REMARK SMILES IDX 32 34 91 35 33 36 34 37 35 38 85 39 36 40 90 41 84 42 86 43
REMARK SMILES IDX 37 44 89 45 83 46 82 47 38 49 70 50 50 51 69 52 51 53 54 54
REMARK SMILES IDX 68 55 87 56 52 57 53 58 67 60 88 61 55 62 39 63 40 64 48 65
REMARK SMILES IDX 41 66 43 67 49 68 42 69 44 70 45 71 46 72 47 73 71 74 72 75
REMARK SMILES IDX 80 76 73 77 75 78 81 79 74 80 76 81 77 82 78 83 79 84 56 85
REMARK SMILES IDX 57 86 65 87 58 88 60 89 66 90 59 91 61 92 62 93 63 94 64 95
REMARK H PARENT 10 16 86 48 54 59
REMARK Flexibility Score: inf
ROOT
ATOM      1  C   UNL     1       7.707  -1.084   1.044  1.00  0.00     0.274 C 
ENDROOT
BRANCH   1   2
ATOM      2  O   UNL     1       6.999  -0.029   0.361  1.00  0.00    -0.462 OA
BRANCH   2   3
ATOM      3  C   UNL     1       6.260   0.801   1.146  1.00  0.00     0.310 C 
ATOM      4  O   UNL     1       6.298   0.786   2.371  1.00  0.00    -0.252 OA
BRANCH   3   5
ATOM      5  C   UNL     1       5.298   1.695   0.376  1.00  0.00     0.119 C 
ATOM      6  C   UNL     1       4.798   1.026  -0.946  1.00  0.00     0.101 C 
ATOM      7  C   UNL     1       5.114   2.040  -2.110  1.00  0.00     0.028 C 
ATOM      8  C   UNL     1       6.627   2.292  -2.068  1.00  0.00    -0.026 C 
ATOM      9  C   UNL     1       4.420   3.401  -1.860  1.00  0.00     0.001 C 
ATOM     10  C   UNL     1       5.948   3.084   0.094  1.00  0.00     0.030 C 
ATOM     11  C   UNL     1       7.059   2.852  -0.923  1.00  0.00    -0.026 C 
ATOM     12  C   UNL     1       4.928   4.021  -0.567  1.00  0.00     0.001 C 
ATOM     13  C   UNL     1       3.457   3.761  -0.746  1.00  0.00     0.009 C 
BRANCH   6  14
ATOM     14  C   UNL     1       3.325   0.627  -1.046  1.00  0.00     0.229 C 
ATOM     15  N   UNL     1       2.525   0.276  -0.013  1.00  0.00    -0.323 N 
ATOM     16  H   UNL     1       1.577   0.286  -0.279  1.00  0.00     0.170 HD
ATOM     17  O   UNL     1       2.769   0.624  -2.155  1.00  0.00    -0.274 OA
BRANCH  15  18
ATOM     18  C   UNL     1       2.668  -0.096   1.330  1.00  0.00     0.083 A 
ATOM     19  C   UNL     1       1.568   0.131   2.170  1.00  0.00     0.142 A 
ATOM     20  C   UNL     1       1.675   0.038   3.557  1.00  0.00     0.048 A 
ATOM     21  C   UNL     1       2.865  -0.414   4.113  1.00  0.00     0.004 A 
ATOM     22  C   UNL     1       3.784  -0.699   1.880  1.00  0.00     0.030 A 
ATOM     23  C   UNL     1       3.896  -0.833   3.273  1.00  0.00     0.002 A 
BRANCH  19  24
ATOM     24  O   UNL     1       0.356   0.461   1.613  1.00  0.00    -0.492 OA
BRANCH  24  25
ATOM     25  C   UNL     1      -0.397  -0.740   1.363  1.00  0.00     0.226 C 
ATOM     26  C   UNL     1      -0.579  -0.938  -0.134  1.00  0.00     0.049 C 
ENDBRANCH  24  25
ENDBRANCH  19  24
ENDBRANCH  15  18
ENDBRANCH   6  14
ENDBRANCH   3   5
ENDBRANCH   2   3
ENDBRANCH   1   2
BRANCH   1  27
ATOM     27  C   UNL     1       9.182  -0.749   1.236  1.00  0.00     0.275 C 
BRANCH  27  28
ATOM     28  O   UNL     1       9.298   0.470   1.982  1.00  0.00    -0.458 OA
BRANCH  28  29
ATOM     29  C   UNL     1      10.017   1.456   1.397  1.00  0.00     0.338 C 
ATOM     30  O   UNL     1      10.696   1.370   0.389  1.00  0.00    -0.246 OA
BRANCH  29  31
ATOM     31  C   UNL     1       9.815   2.724   2.129  1.00  0.00     0.060 A 
ATOM     32  C   UNL     1       8.542   3.079   2.566  1.00  0.00     0.016 A 
ATOM     33  C   UNL     1      10.861   3.631   2.264  1.00  0.00     0.016 A 
ATOM     34  C   UNL     1       8.271   4.360   3.021  1.00  0.00     0.010 A 
ATOM     35  C   UNL     1      10.616   4.881   2.842  1.00  0.00     0.010 A 
ATOM     36  C   UNL     1       9.309   5.274   3.189  1.00  0.00    -0.014 A 
BRANCH  36  37
ATOM     37  C   UNL     1       9.020   6.647   3.678  1.00  0.00     0.031 A 
ATOM     38  C   UNL     1       9.461   7.828   2.859  1.00  0.00     0.074 A 
ATOM     39  C   UNL     1       8.374   6.839   4.847  1.00  0.00     0.049 A 
ATOM     40  N   UNL     1       9.559   9.082   3.208  1.00  0.00    -0.248 NA
ATOM     41  C   UNL     1       9.868   7.559   1.468  1.00  0.00     0.031 C 
ATOM     42  C   UNL     1       7.840   5.782   5.711  1.00  0.00     0.029 A 
ATOM     43  N   UNL     1       8.068   7.996   5.521  1.00  0.00    -0.354 N 
ATOM     44  C   UNL     1      10.146   9.728   2.127  1.00  0.00     0.074 A 
ATOM     45  C   UNL     1      10.341   8.739   1.091  1.00  0.00     0.031 C 
ATOM     46  C   UNL     1       7.257   6.337   6.783  1.00  0.00     0.029 A 
ATOM     47  C   UNL     1       7.470   7.777   6.742  1.00  0.00     0.049 A 
ATOM     48  H   UNL     1       8.257   8.895   5.165  1.00  0.00     0.167 HD
ATOM     49  C   UNL     1      10.496  11.030   2.020  1.00  0.00     0.034 A 
ATOM     50  C   UNL     1       7.185   8.628   7.745  1.00  0.00     0.034 A 
ATOM     51  C   UNL     1      10.196  12.021   3.017  1.00  0.00     0.049 A 
ATOM     52  C   UNL     1       7.560  10.075   7.585  1.00  0.00     0.074 A 
ATOM     53  C   UNL     1      10.459  13.379   2.987  1.00  0.00     0.029 A 
ATOM     54  N   UNL     1       9.546  11.764   4.214  1.00  0.00    -0.354 N 
ATOM     55  N   UNL     1       8.104  10.677   6.555  1.00  0.00    -0.248 NA
ATOM     56  C   UNL     1       7.287  10.959   8.726  1.00  0.00     0.031 C 
ATOM     57  C   UNL     1       9.972  13.942   4.171  1.00  0.00     0.029 A 
ATOM     58  C   UNL     1       9.398  12.936   4.932  1.00  0.00     0.049 A 
ATOM     59  H   UNL     1       9.236  10.877   4.509  1.00  0.00     0.167 HD
ATOM     60  C   UNL     1       8.227  12.011   6.917  1.00  0.00     0.074 A 
ATOM     61  C   UNL     1       7.666  12.137   8.248  1.00  0.00     0.031 C 
ATOM     62  C   UNL     1       8.782  13.039   6.229  1.00  0.00     0.034 A 
BRANCH  49  63
ATOM     63  C   UNL     1      11.240  11.466   0.788  1.00  0.00     0.023 A 
ATOM     64  C   UNL     1      10.553  11.653  -0.426  1.00  0.00     0.012 A 
ATOM     65  C   UNL     1      12.616  11.763   0.861  1.00  0.00     0.148 A 
ATOM     66  C   UNL     1      11.229  12.115  -1.556  1.00  0.00     0.002 A 
ATOM     67  C   UNL     1      13.274  12.260  -0.258  1.00  0.00     0.091 A 
ATOM     68  F   UNL     1      13.254  11.553   2.021  1.00  0.00    -0.205 F 
ATOM     69  C   UNL     1      12.583  12.429  -1.469  1.00  0.00     0.022 A 
BRANCH  67  70
ATOM     70  S   UNL     1      14.998  12.762  -0.226  1.00  0.00     0.127 S 
ATOM     71  O   UNL     1      15.620  11.738  -1.065  1.00  0.00    -0.237 OA
ATOM     72  O   UNL     1      14.942  14.093  -0.830  1.00  0.00    -0.237 OA
ATOM     73  O   UNL     1      15.398  12.745   1.174  1.00  0.00    -0.744 OA
ENDBRANCH  67  70
ENDBRANCH  49  63
BRANCH  50  74
ATOM     74  C   UNL     1       6.530   8.133   8.991  1.00  0.00     0.023 A 
ATOM     75  C   UNL     1       5.223   8.555   9.300  1.00  0.00     0.012 A 
ATOM     76  C   UNL     1       7.175   7.224   9.854  1.00  0.00     0.148 A 
ATOM     77  C   UNL     1       4.582   8.101  10.454  1.00  0.00     0.002 A 
ATOM     78  C   UNL     1       6.506   6.724  10.965  1.00  0.00     0.091 A 
ATOM     79  F   UNL     1       8.433   6.853   9.570  1.00  0.00    -0.205 F 
ATOM     80  C   UNL     1       5.216   7.174  11.278  1.00  0.00     0.022 A 
BRANCH  78  81
ATOM     81  S   UNL     1       7.209   5.407  11.965  1.00  0.00     0.127 S 
ATOM     82  O   UNL     1       7.842   6.154  13.047  1.00  0.00    -0.237 OA
ATOM     83  O   UNL     1       6.025   4.641  12.356  1.00  0.00    -0.237 OA
ATOM     84  O   UNL     1       8.104   4.691  11.064  1.00  0.00    -0.744 OA
ENDBRANCH  78  81
ENDBRANCH  50  74
BRANCH  62  85
ATOM     85  C   UNL     1       8.785  14.386   6.893  1.00  0.00     0.023 A 
ATOM     86  C   UNL     1       9.699  14.644   7.933  1.00  0.00     0.012 A 
ATOM     87  C   UNL     1       7.931  15.412   6.447  1.00  0.00     0.148 A 
ATOM     88  C   UNL     1       9.742  15.896   8.541  1.00  0.00     0.002 A 
ATOM     89  C   UNL     1       8.009  16.671   7.029  1.00  0.00     0.091 A 
ATOM     90  F   UNL     1       7.052  15.137   5.472  1.00  0.00    -0.205 F 
ATOM     91  C   UNL     1       8.906  16.912   8.082  1.00  0.00     0.022 A 
BRANCH  89  92
ATOM     92  S   UNL     1       7.031  18.054   6.434  1.00  0.00     0.127 S 
ATOM     93  O   UNL     1       5.953  18.104   7.420  1.00  0.00    -0.237 OA
ATOM     94  O   UNL     1       7.978  19.167   6.508  1.00  0.00    -0.237 OA
ATOM     95  O   UNL     1       6.631  17.699   5.078  1.00  0.00    -0.744 OA
ENDBRANCH  89  92
ENDBRANCH  62  85
ENDBRANCH  36  37
ENDBRANCH  29  31
ENDBRANCH  28  29
ENDBRANCH  27  28
ENDBRANCH   1  27
TORSDOF 18
