REMARK SMILES O=C(OCCOC(=O)c1nccnc1C(=O)Nc1ccc2c(c1)OCO2)c1ccc(-c2c3nc(c(-c4cccc(S(=O)(=O)[O-])c4F)c4ccc([nH]4)c(-c4cccc(S(=O)(=O)[O-])c4F)c4nc(c(-c5cccc(S(=O)(=O)[O-])c5F)c5ccc2[nH]5)C=C4)C=C3)cc1
REMARK SMILES IDX 4 1 3 2 2 3 1 4 27 5 28 6 89 7 29 8 88 9 30 10 31 11 32 12
REMARK SMILES IDX 82 13 33 14 87 15 81 16 83 17 34 18 86 19 80 20 79 21 35 23
REMARK SMILES IDX 67 24 47 25 66 26 48 27 51 28 65 29 84 30 49 31 50 32 64 34
REMARK SMILES IDX 85 35 52 36 36 37 37 38 45 39 38 40 40 41 46 42 39 43 41 44
REMARK SMILES IDX 42 45 43 46 44 47 68 48 69 49 77 50 70 51 72 52 78 53 71 54
REMARK SMILES IDX 73 55 74 56 75 57 76 58 53 59 54 60 62 61 55 62 57 63 63 64
REMARK SMILES IDX 56 65 58 66 59 67 60 68 61 69 5 70 6 71 7 72 8 73 9 74 10 75
REMARK SMILES IDX 14 76 11 77 13 78 12 79 15 80 16 81 17 82 18 84 19 85 23 86
REMARK SMILES IDX 20 87 22 88 21 89 24 90 26 91 25 92
REMARK H PARENT 83 22 51 33 17 83
REMARK Flexibility Score: inf
ROOT
ATOM      1  C   UNL     1       4.887  -0.241  -0.909  1.00  0.00     0.275 C 
ENDROOT
BRANCH   1   2
ATOM      2  O   UNL     1       3.709  -1.086  -0.887  1.00  0.00    -0.458 OA
BRANCH   2   3
ATOM      3  C   UNL     1       3.407  -2.056   0.015  1.00  0.00     0.338 C 
ATOM      4  O   UNL     1       2.641  -2.974  -0.263  1.00  0.00    -0.246 OA
BRANCH   3   5
ATOM      5  C   UNL     1       3.899  -1.895   1.398  1.00  0.00     0.060 A 
ATOM      6  C   UNL     1       5.264  -1.823   1.669  1.00  0.00     0.016 A 
ATOM      7  C   UNL     1       2.967  -1.748   2.436  1.00  0.00     0.016 A 
ATOM      8  C   UNL     1       5.692  -1.425   2.929  1.00  0.00     0.010 A 
ATOM      9  C   UNL     1       3.398  -1.398   3.719  1.00  0.00     0.010 A 
ATOM     10  C   UNL     1       4.765  -1.206   3.959  1.00  0.00    -0.014 A 
BRANCH  10  11
ATOM     11  C   UNL     1       5.309  -1.067   5.325  1.00  0.00     0.031 A 
ATOM     12  C   UNL     1       5.816  -2.321   5.953  1.00  0.00     0.074 A 
ATOM     13  C   UNL     1       5.510   0.122   5.919  1.00  0.00     0.049 A 
ATOM     14  N   UNL     1       6.656  -2.446   6.938  1.00  0.00    -0.248 NA
ATOM     15  C   UNL     1       5.431  -3.587   5.304  1.00  0.00     0.031 C 
ATOM     16  C   UNL     1       5.198   1.414   5.333  1.00  0.00     0.029 A 
ATOM     17  N   UNL     1       6.032   0.444   7.144  1.00  0.00    -0.354 N 
ATOM     18  C   UNL     1       6.991  -3.787   6.954  1.00  0.00     0.074 A 
ATOM     19  C   UNL     1       6.229  -4.446   5.917  1.00  0.00     0.031 C 
ATOM     20  C   UNL     1       5.416   2.389   6.230  1.00  0.00     0.029 A 
ATOM     21  C   UNL     1       5.965   1.788   7.436  1.00  0.00     0.049 A 
ATOM     22  H   UNL     1       6.418  -0.222   7.758  1.00  0.00     0.167 HD
ATOM     23  C   UNL     1       7.890  -4.402   7.748  1.00  0.00     0.034 A 
ATOM     24  C   UNL     1       6.334   2.454   8.546  1.00  0.00     0.034 A 
ATOM     25  C   UNL     1       8.510  -3.761   8.867  1.00  0.00     0.049 A 
ATOM     26  C   UNL     1       7.104   1.683   9.582  1.00  0.00     0.074 A 
ATOM     27  C   UNL     1       9.320  -4.314   9.837  1.00  0.00     0.029 A 
ATOM     28  N   UNL     1       8.322  -2.426   9.203  1.00  0.00    -0.354 N 
ATOM     29  N   UNL     1       7.518   0.439   9.530  1.00  0.00    -0.248 NA
ATOM     30  C   UNL     1       7.523   2.408  10.788  1.00  0.00     0.031 C 
ATOM     31  C   UNL     1       9.578  -3.323  10.791  1.00  0.00     0.029 A 
ATOM     32  C   UNL     1       8.963  -2.143  10.393  1.00  0.00     0.049 A 
ATOM     33  H   UNL     1       7.807  -1.777   8.671  1.00  0.00     0.167 HD
ATOM     34  C   UNL     1       8.295   0.246  10.662  1.00  0.00     0.074 A 
ATOM     35  C   UNL     1       8.288   1.504  11.386  1.00  0.00     0.031 C 
ATOM     36  C   UNL     1       8.960  -0.866  11.062  1.00  0.00     0.034 A 
BRANCH  23  37
ATOM     37  C   UNL     1       8.171  -5.835   7.424  1.00  0.00     0.023 A 
ATOM     38  C   UNL     1       9.014  -6.142   6.335  1.00  0.00     0.012 A 
ATOM     39  C   UNL     1       7.516  -6.867   8.113  1.00  0.00     0.148 A 
ATOM     40  C   UNL     1       9.176  -7.462   5.918  1.00  0.00     0.002 A 
ATOM     41  C   UNL     1       7.698  -8.181   7.705  1.00  0.00     0.091 A 
ATOM     42  F   UNL     1       6.683  -6.538   9.110  1.00  0.00    -0.205 F 
ATOM     43  C   UNL     1       8.519  -8.481   6.604  1.00  0.00     0.022 A 
BRANCH  41  44
ATOM     44  S   UNL     1       6.892  -9.561   8.519  1.00  0.00     0.127 S 
ATOM     45  O   UNL     1       5.975 -10.023   7.478  1.00  0.00    -0.237 OA
ATOM     46  O   UNL     1       8.018 -10.456   8.784  1.00  0.00    -0.237 OA
ATOM     47  O   UNL     1       6.255  -9.012   9.708  1.00  0.00    -0.744 OA
ENDBRANCH  41  44
ENDBRANCH  23  37
BRANCH  24  48
ATOM     48  C   UNL     1       6.034   3.906   8.708  1.00  0.00     0.023 A 
ATOM     49  C   UNL     1       7.073   4.856   8.724  1.00  0.00     0.012 A 
ATOM     50  C   UNL     1       4.705   4.348   8.871  1.00  0.00     0.148 A 
ATOM     51  C   UNL     1       6.798   6.210   8.937  1.00  0.00     0.002 A 
ATOM     52  C   UNL     1       4.434   5.701   9.050  1.00  0.00     0.091 A 
ATOM     53  F   UNL     1       3.725   3.431   8.871  1.00  0.00    -0.205 F 
ATOM     54  C   UNL     1       5.480   6.633   9.096  1.00  0.00     0.022 A 
BRANCH  52  55
ATOM     55  S   UNL     1       2.754   6.327   9.187  1.00  0.00     0.127 S 
ATOM     56  O   UNL     1       2.641   6.567  10.623  1.00  0.00    -0.237 OA
ATOM     57  O   UNL     1       2.805   7.535   8.363  1.00  0.00    -0.237 OA
ATOM     58  O   UNL     1       1.903   5.273   8.647  1.00  0.00    -0.744 OA
ENDBRANCH  52  55
ENDBRANCH  24  48
BRANCH  36  59
ATOM     59  C   UNL     1       9.756  -0.770  12.331  1.00  0.00     0.023 A 
ATOM     60  C   UNL     1       9.093  -0.762  13.572  1.00  0.00     0.012 A 
ATOM     61  C   UNL     1      11.162  -0.810  12.287  1.00  0.00     0.148 A 
ATOM     62  C   UNL     1       9.824  -0.780  14.758  1.00  0.00     0.002 A 
ATOM     63  C   UNL     1      11.881  -0.884  13.470  1.00  0.00     0.091 A 
ATOM     64  F   UNL     1      11.767  -0.790  11.089  1.00  0.00    -0.205 F 
ATOM     65  C   UNL     1      11.215  -0.858  14.707  1.00  0.00     0.022 A 
BRANCH  63  66
ATOM     66  S   UNL     1      13.662  -1.109  13.488  1.00  0.00     0.127 S 
ATOM     67  O   UNL     1      14.127   0.228  13.851  1.00  0.00    -0.237 OA
ATOM     68  O   UNL     1      13.837  -2.121  14.529  1.00  0.00    -0.237 OA
ATOM     69  O   UNL     1      14.020  -1.557  12.149  1.00  0.00    -0.744 OA
ENDBRANCH  63  66
ENDBRANCH  36  59
ENDBRANCH  10  11
ENDBRANCH   3   5
ENDBRANCH   2   3
ENDBRANCH   1   2
BRANCH   1  70
ATOM     70  C   UNL     1       4.986   0.854   0.153  1.00  0.00     0.275 C 
BRANCH  70  71
ATOM     71  O   UNL     1       3.774   0.945   0.901  1.00  0.00    -0.457 OA
BRANCH  71  72
ATOM     72  C   UNL     1       3.795   1.887   1.867  1.00  0.00     0.359 C 
ATOM     73  O   UNL     1       4.728   2.653   2.066  1.00  0.00    -0.244 OA
BRANCH  72  74
ATOM     74  C   UNL     1       2.526   1.887   2.648  1.00  0.00     0.179 A 
ATOM     75  N   UNL     1       2.682   2.395   3.910  1.00  0.00    -0.245 NA
ATOM     76  C   UNL     1       1.311   1.377   2.229  1.00  0.00     0.161 A 
ATOM     77  C   UNL     1       1.673   2.217   4.788  1.00  0.00     0.132 A 
ATOM     78  N   UNL     1       0.285   1.209   3.133  1.00  0.00    -0.247 NA
ATOM     79  C   UNL     1       0.505   1.599   4.410  1.00  0.00     0.132 A 
BRANCH  76  80
ATOM     80  C   UNL     1       0.960   0.810   0.903  1.00  0.00     0.276 C 
ATOM     81  O   UNL     1       0.469  -0.328   0.899  1.00  0.00    -0.267 OA
ATOM     82  N   UNL     1       0.979   1.433  -0.326  1.00  0.00    -0.320 N 
ATOM     83  H   UNL     1       0.387   0.968  -0.960  1.00  0.00     0.170 HD
BRANCH  82  84
ATOM     84  C   UNL     1       1.591   2.537  -0.940  1.00  0.00     0.045 A 
ATOM     85  C   UNL     1       2.467   3.428  -0.318  1.00  0.00     0.030 A 
ATOM     86  C   UNL     1       1.412   2.642  -2.330  1.00  0.00     0.076 A 
ATOM     87  C   UNL     1       3.359   4.211  -1.061  1.00  0.00     0.053 A 
ATOM     88  C   UNL     1       2.228   3.501  -3.040  1.00  0.00     0.167 A 
ATOM     89  C   UNL     1       3.219   4.221  -2.425  1.00  0.00     0.165 A 
ATOM     90  O   UNL     1       2.201   3.706  -4.384  1.00  0.00    -0.454 OA
ATOM     91  O   UNL     1       3.982   4.921  -3.302  1.00  0.00    -0.454 OA
ATOM     92  C   UNL     1       3.322   4.602  -4.543  1.00  0.00     0.468 C 
ENDBRANCH  82  84
ENDBRANCH  76  80
ENDBRANCH  72  74
ENDBRANCH  71  72
ENDBRANCH  70  71
ENDBRANCH   1  70
TORSDOF 16
