REMARK SMILES Cc1nn(C)c(=O)c(C(=O)N[C@H](C)CC(=O)OCCOC(=O)c2ccc(-c3c4nc(c(-c5cccc(S(=O)(=O)[O-])c5F)c5ccc([nH]5)c(-c5cccc(S(=O)(=O)[O-])c5F)c5nc(c(-c6cccc(S(=O)(=O)[O-])c6F)c6ccc3[nH]6)C=C5)C=C4)cc2)c1C
REMARK SMILES IDX 18 1 17 2 15 3 16 4 14 5 12 6 13 7 11 8 9 9 10 10 8 12 1 13
REMARK SMILES IDX 2 14 3 15 86 16 4 17 87 18 5 19 6 20 7 21 19 22 20 23 21 24
REMARK SMILES IDX 22 25 23 26 24 27 85 28 25 29 84 30 26 31 27 32 28 33 78 34
REMARK SMILES IDX 29 35 83 36 77 37 79 38 30 39 82 40 76 41 75 42 31 44 63 45
REMARK SMILES IDX 43 46 62 47 44 48 47 49 61 50 80 51 45 52 46 53 60 55 81 56
REMARK SMILES IDX 48 57 32 58 33 59 41 60 34 61 36 62 42 63 35 64 37 65 38 66
REMARK SMILES IDX 39 67 40 68 64 69 65 70 73 71 66 72 68 73 74 74 67 75 69 76
REMARK SMILES IDX 70 77 71 78 72 79 49 80 50 81 58 82 51 83 53 84 59 85 52 86
REMARK SMILES IDX 54 87 55 88 56 89 57 90
REMARK H PARENT 11 11 79 43 47 54
REMARK Flexibility Score: inf
ROOT
ATOM      1  C   UNL     1      -5.192  -2.966  -1.290  1.00  0.00     0.274 C 
ENDROOT
BRANCH   1   2
ATOM      2  O   UNL     1      -4.523  -2.227  -2.335  1.00  0.00    -0.462 OA
BRANCH   2   3
ATOM      3  C   UNL     1      -5.023  -0.991  -2.599  1.00  0.00     0.307 C 
ATOM      4  O   UNL     1      -6.053  -0.541  -2.111  1.00  0.00    -0.252 OA
BRANCH   3   5
ATOM      5  C   UNL     1      -4.192  -0.195  -3.581  1.00  0.00     0.147 C 
BRANCH   5   6
ATOM      6  C   UNL     1      -2.746  -0.671  -3.754  1.00  0.00     0.090 C 
ATOM      7  C   UNL     1      -2.677  -1.940  -4.618  1.00  0.00     0.031 C 
BRANCH   6   8
ATOM      8  N   UNL     1      -1.898   0.352  -4.373  1.00  0.00    -0.349 N 
ATOM      9  C   UNL     1      -1.341   1.496  -3.882  1.00  0.00     0.257 C 
ATOM     10  O   UNL     1      -0.559   2.110  -4.606  1.00  0.00    -0.269 OA
ATOM     11  H   UNL     1      -1.692   0.182  -5.321  1.00  0.00     0.164 HD
BRANCH   9  12
ATOM     12  C   UNL     1      -1.700   1.999  -2.532  1.00  0.00     0.111 A 
ATOM     13  C   UNL     1      -3.071   1.690   1.729  1.00  0.00     0.069 C 
ATOM     14  C   UNL     1      -1.794   2.216   0.053  1.00  0.00     0.062 A 
ATOM     15  N   UNL     1      -1.158   3.414  -0.173  1.00  0.00    -0.175 NA
ATOM     16  C   UNL     1      -1.382   1.392  -1.367  1.00  0.00    -0.010 A 
ATOM     17  N   UNL     1      -1.304   4.049  -1.399  1.00  0.00    -0.232 N 
ATOM     18  C   UNL     1      -0.233   0.405  -1.350  1.00  0.00     0.047 C 
ATOM     19  C   UNL     1      -1.213   5.502  -1.363  1.00  0.00     0.178 C 
ATOM     20  C   UNL     1      -1.980   3.447  -2.450  1.00  0.00     0.279 A 
ATOM     21  O   UNL     1      -2.624   4.027  -3.318  1.00  0.00    -0.267 OA
ENDBRANCH   9  12
ENDBRANCH   6   8
ENDBRANCH   5   6
ENDBRANCH   3   5
ENDBRANCH   2   3
ENDBRANCH   1   2
BRANCH   1  22
ATOM     22  C   UNL     1      -4.406  -2.863   0.012  1.00  0.00     0.275 C 
BRANCH  22  23
ATOM     23  O   UNL     1      -4.072  -1.486   0.237  1.00  0.00    -0.458 OA
BRANCH  23  24
ATOM     24  C   UNL     1      -2.755  -1.214   0.215  1.00  0.00     0.338 C 
ATOM     25  O   UNL     1      -1.826  -1.998   0.148  1.00  0.00    -0.246 OA
BRANCH  24  26
ATOM     26  C   UNL     1      -2.572   0.230   0.382  1.00  0.00     0.060 A 
ATOM     27  C   UNL     1      -3.756   1.476  -0.210  1.00  0.00     0.016 A 
ATOM     28  C   UNL     1      -1.241   0.721   1.481  1.00  0.00     0.016 A 
ATOM     29  C   UNL     1      -3.635   3.177   0.385  1.00  0.00     0.010 A 
ATOM     30  C   UNL     1      -1.160   2.401   2.111  1.00  0.00     0.010 A 
ATOM     31  C   UNL     1      -2.369   3.652   1.617  1.00  0.00    -0.014 A 
BRANCH  31  32
ATOM     32  C   UNL     1      -2.217   5.073   2.088  1.00  0.00     0.031 A 
ATOM     33  C   UNL     1      -0.841   5.709   2.263  1.00  0.00     0.074 A 
ATOM     34  C   UNL     1      -3.322   5.809   2.332  1.00  0.00     0.049 A 
ATOM     35  N   UNL     1      -0.533   6.908   2.703  1.00  0.00    -0.248 NA
ATOM     36  C   UNL     1       0.353   4.911   1.942  1.00  0.00     0.031 C 
ATOM     37  C   UNL     1      -4.700   5.319   2.288  1.00  0.00     0.029 A 
ATOM     38  N   UNL     1      -3.470   7.137   2.662  1.00  0.00    -0.354 N 
ATOM     39  C   UNL     1       0.862   6.956   2.759  1.00  0.00     0.074 A 
ATOM     40  C   UNL     1       1.350   5.662   2.374  1.00  0.00     0.031 C 
ATOM     41  C   UNL     1      -5.549   6.336   2.483  1.00  0.00     0.029 A 
ATOM     42  C   UNL     1      -4.784   7.542   2.762  1.00  0.00     0.049 A 
ATOM     43  H   UNL     1      -2.708   7.742   2.812  1.00  0.00     0.167 HD
ATOM     44  C   UNL     1       1.686   7.995   3.030  1.00  0.00     0.034 A 
ATOM     45  C   UNL     1      -5.323   8.741   3.059  1.00  0.00     0.034 A 
ATOM     46  C   UNL     1       1.213   9.319   3.300  1.00  0.00     0.049 A 
ATOM     47  C   UNL     1      -4.396   9.891   3.332  1.00  0.00     0.074 A 
ATOM     48  C   UNL     1       1.951  10.463   3.533  1.00  0.00     0.029 A 
ATOM     49  N   UNL     1      -0.124   9.676   3.347  1.00  0.00    -0.354 N 
ATOM     50  N   UNL     1      -3.085   9.914   3.294  1.00  0.00    -0.248 NA
ATOM     51  C   UNL     1      -5.012  11.178   3.679  1.00  0.00     0.031 C 
ATOM     52  C   UNL     1       1.055  11.513   3.743  1.00  0.00     0.029 A 
ATOM     53  C   UNL     1      -0.237  11.025   3.618  1.00  0.00     0.049 A 
ATOM     54  H   UNL     1      -0.880   9.061   3.209  1.00  0.00     0.167 HD
ATOM     55  C   UNL     1      -2.717  11.215   3.607  1.00  0.00     0.074 A 
ATOM     56  C   UNL     1      -3.946  11.961   3.794  1.00  0.00     0.031 C 
ATOM     57  C   UNL     1      -1.478  11.742   3.756  1.00  0.00     0.034 A 
BRANCH  44  58
ATOM     58  C   UNL     1       3.179   7.759   2.977  1.00  0.00     0.023 A 
ATOM     59  C   UNL     1       3.811   7.544   1.733  1.00  0.00     0.012 A 
ATOM     60  C   UNL     1       3.964   7.795   4.147  1.00  0.00     0.148 A 
ATOM     61  C   UNL     1       5.187   7.329   1.658  1.00  0.00     0.002 A 
ATOM     62  C   UNL     1       5.343   7.629   4.059  1.00  0.00     0.091 A 
ATOM     63  F   UNL     1       3.349   7.984   5.323  1.00  0.00    -0.205 F 
ATOM     64  C   UNL     1       5.954   7.382   2.818  1.00  0.00     0.022 A 
BRANCH  62  65
ATOM     65  S   UNL     1       6.436   7.758   5.480  1.00  0.00     0.127 S 
ATOM     66  O   UNL     1       6.956   6.394   5.579  1.00  0.00    -0.237 OA
ATOM     67  O   UNL     1       7.411   8.750   5.026  1.00  0.00    -0.237 OA
ATOM     68  O   UNL     1       5.602   8.184   6.595  1.00  0.00    -0.744 OA
ENDBRANCH  62  65
ENDBRANCH  44  58
BRANCH  45  69
ATOM     69  C   UNL     1      -6.809   8.908   3.045  1.00  0.00     0.023 A 
ATOM     70  C   UNL     1      -7.409   9.685   2.036  1.00  0.00     0.012 A 
ATOM     71  C   UNL     1      -7.638   8.218   3.955  1.00  0.00     0.148 A 
ATOM     72  C   UNL     1      -8.800   9.773   1.933  1.00  0.00     0.002 A 
ATOM     73  C   UNL     1      -9.020   8.253   3.804  1.00  0.00     0.091 A 
ATOM     74  F   UNL     1      -7.055   7.502   4.927  1.00  0.00    -0.205 F 
ATOM     75  C   UNL     1      -9.604   9.042   2.803  1.00  0.00     0.022 A 
BRANCH  73  76
ATOM     76  S   UNL     1     -10.118   7.202   4.765  1.00  0.00     0.127 S 
ATOM     77  O   UNL     1     -10.761   8.168   5.651  1.00  0.00    -0.237 OA
ATOM     78  O   UNL     1     -10.987   6.641   3.729  1.00  0.00    -0.237 OA
ATOM     79  O   UNL     1      -9.255   6.222   5.412  1.00  0.00    -0.744 OA
ENDBRANCH  73  76
ENDBRANCH  45  69
BRANCH  57  80
ATOM     80  C   UNL     1      -1.373  13.187   4.154  1.00  0.00     0.023 A 
ATOM     81  C   UNL     1      -1.636  13.550   5.488  1.00  0.00     0.012 A 
ATOM     82  C   UNL     1      -0.868  14.143   3.253  1.00  0.00     0.148 A 
ATOM     83  C   UNL     1      -1.408  14.854   5.920  1.00  0.00     0.002 A 
ATOM     84  C   UNL     1      -0.593  15.426   3.704  1.00  0.00     0.091 A 
ATOM     85  F   UNL     1      -0.635  13.769   1.987  1.00  0.00    -0.205 F 
ATOM     86  C   UNL     1      -0.872  15.786   5.034  1.00  0.00     0.022 A 
BRANCH  84  87
ATOM     87  S   UNL     1       0.208  16.659   2.674  1.00  0.00     0.127 S 
ATOM     88  O   UNL     1      -0.865  17.634   2.489  1.00  0.00    -0.237 OA
ATOM     89  O   UNL     1       1.304  17.112   3.531  1.00  0.00    -0.237 OA
ATOM     90  O   UNL     1       0.630  15.963   1.465  1.00  0.00    -0.744 OA
ENDBRANCH  84  87
ENDBRANCH  57  80
ENDBRANCH  31  32
ENDBRANCH  24  26
ENDBRANCH  23  24
ENDBRANCH  22  23
ENDBRANCH   1  22
TORSDOF 17
