REMARK SMILES Cc1ccnc(C(=O)c2[nH]c3ccc(OC(F)(F)F)cc3c2CC(=O)OCCOC(=O)c2ccc(-c3c4nc(c(-c5cccc(S(=O)(=O)[O-])c5F)c5ccc([nH]5)c(-c5cccc(S(=O)(=O)[O-])c5F)c5nc(c(-c6cccc(S(=O)(=O)[O-])c6F)c6ccc3[nH]6)C=C5)C=C4)cc2)c1
REMARK SMILES IDX 27 1 26 2 24 3 25 4 23 5 22 6 9 7 10 8 11 9 21 11 12 12
REMARK SMILES IDX 20 13 13 14 14 15 7 16 8 17 6 18 1 19 2 20 3 21 95 22 4 23
REMARK SMILES IDX 5 24 15 25 16 26 17 27 18 28 19 29 28 30 29 31 30 32 31 33
REMARK SMILES IDX 32 34 33 35 94 36 34 37 93 38 35 39 36 40 37 41 87 42 38 43
REMARK SMILES IDX 92 44 86 45 88 46 39 47 91 48 85 49 84 50 40 52 72 53 52 54
REMARK SMILES IDX 71 55 53 56 56 57 70 58 89 59 54 60 55 61 69 63 90 64 57 65
REMARK SMILES IDX 41 66 42 67 50 68 43 69 45 70 51 71 44 72 46 73 47 74 48 75
REMARK SMILES IDX 49 76 73 77 74 78 82 79 75 80 77 81 83 82 76 83 78 84 79 85
REMARK SMILES IDX 80 86 81 87 58 88 59 89 67 90 60 91 62 92 68 93 61 94 63 95
REMARK SMILES IDX 64 96 65 97 66 98
REMARK H PARENT 10 10 88 51 56 62
REMARK Flexibility Score: inf
ROOT
ATOM      1  C   UNL     1       5.187  -5.370   0.613  1.00  0.00     0.274 C 
ENDROOT
BRANCH   1   2
ATOM      2  O   UNL     1       3.750  -5.250   0.502  1.00  0.00    -0.462 OA
BRANCH   2   3
ATOM      3  C   UNL     1       3.071  -5.106   1.667  1.00  0.00     0.310 C 
ATOM      4  O   UNL     1       3.586  -5.225   2.777  1.00  0.00    -0.252 OA
BRANCH   3   5
ATOM      5  C   UNL     1       1.639  -4.637   1.526  1.00  0.00     0.161 C 
BRANCH   5   6
ATOM      6  C   UNL     1       0.862  -4.972   0.292  1.00  0.00     0.000 A 
ATOM      7  C   UNL     1       0.702  -4.208  -0.865  1.00  0.00     0.093 A 
ATOM      8  N   UNL     1      -0.144  -4.902  -1.694  1.00  0.00    -0.352 N 
ATOM      9  C   UNL     1      -0.673  -5.990  -1.058  1.00  0.00     0.046 A 
ATOM     10  H   UNL     1      -0.344  -4.649  -2.624  1.00  0.00     0.167 HD
ATOM     11  C   UNL     1      -0.011  -6.111   0.159  1.00  0.00     0.008 A 
ATOM     12  C   UNL     1      -1.675  -6.864  -1.476  1.00  0.00     0.030 A 
ATOM     13  C   UNL     1      -0.341  -7.211   0.981  1.00  0.00     0.057 A 
ATOM     14  C   UNL     1      -2.003  -7.927  -0.629  1.00  0.00     0.049 A 
ATOM     15  C   UNL     1      -1.335  -8.119   0.580  1.00  0.00     0.130 A 
BRANCH   7  16
ATOM     16  C   UNL     1       1.252  -2.945  -1.336  1.00  0.00     0.227 C 
ATOM     17  O   UNL     1       1.967  -2.929  -2.338  1.00  0.00    -0.285 OA
BRANCH  16  18
ATOM     18  C   UNL     1       0.697  -1.641  -0.805  1.00  0.00     0.113 A 
ATOM     19  C   UNL     1      -2.561  -0.193   0.509  1.00  0.00     0.044 C 
ATOM     20  C   UNL     1      -1.156  -0.326   0.002  1.00  0.00    -0.047 A 
ATOM     21  C   UNL     1      -0.433   0.820  -0.332  1.00  0.00     0.023 A 
ATOM     22  C   UNL     1      -0.569  -1.580  -0.218  1.00  0.00     0.036 A 
ATOM     23  C   UNL     1       0.828   0.671  -0.881  1.00  0.00     0.112 A 
ATOM     24  N   UNL     1       1.398  -0.524  -1.136  1.00  0.00    -0.253 NA
ENDBRANCH  16  18
ENDBRANCH   7  16
BRANCH  15  25
ATOM     25  O   UNL     1      -1.558  -9.140   1.464  1.00  0.00    -0.406 OA
BRANCH  25  26
ATOM     26  C   UNL     1      -2.551 -10.093   1.128  1.00  0.00     0.573 C 
ATOM     27  F   UNL     1      -3.772  -9.519   1.045  1.00  0.00    -0.132 F 
ATOM     28  F   UNL     1      -2.268 -10.714  -0.038  1.00  0.00    -0.132 F 
ATOM     29  F   UNL     1      -2.599 -11.035   2.097  1.00  0.00    -0.132 F 
ENDBRANCH  25  26
ENDBRANCH  15  25
ENDBRANCH   5   6
ENDBRANCH   3   5
ENDBRANCH   2   3
ENDBRANCH   1   2
BRANCH   1  30
ATOM     30  C   UNL     1       5.905  -4.081   0.184  1.00  0.00     0.275 C 
BRANCH  30  31
ATOM     31  O   UNL     1       5.676  -2.980   1.090  1.00  0.00    -0.458 OA
BRANCH  31  32
ATOM     32  C   UNL     1       4.548  -2.294   0.816  1.00  0.00     0.338 C 
ATOM     33  O   UNL     1       3.735  -2.562  -0.060  1.00  0.00    -0.246 OA
BRANCH  32  34
ATOM     34  C   UNL     1       4.263  -1.219   1.762  1.00  0.00     0.060 A 
ATOM     35  C   UNL     1       3.239  -1.440   2.681  1.00  0.00     0.016 A 
ATOM     36  C   UNL     1       4.779   0.062   1.564  1.00  0.00     0.016 A 
ATOM     37  C   UNL     1       2.659  -0.367   3.341  1.00  0.00     0.010 A 
ATOM     38  C   UNL     1       4.250   1.132   2.296  1.00  0.00     0.010 A 
ATOM     39  C   UNL     1       3.164   0.930   3.163  1.00  0.00    -0.014 A 
BRANCH  39  40
ATOM     40  C   UNL     1       2.564   2.031   3.955  1.00  0.00     0.031 A 
ATOM     41  C   UNL     1       1.751   3.117   3.311  1.00  0.00     0.074 A 
ATOM     42  C   UNL     1       2.709   1.996   5.293  1.00  0.00     0.049 A 
ATOM     43  N   UNL     1       1.058   4.070   3.881  1.00  0.00    -0.248 NA
ATOM     44  C   UNL     1       1.693   3.136   1.842  1.00  0.00     0.031 C 
ATOM     45  C   UNL     1       3.486   0.993   6.025  1.00  0.00     0.029 A 
ATOM     46  N   UNL     1       2.205   2.809   6.274  1.00  0.00    -0.354 N 
ATOM     47  C   UNL     1       0.480   4.797   2.849  1.00  0.00     0.074 A 
ATOM     48  C   UNL     1       0.917   4.188   1.610  1.00  0.00     0.031 C 
ATOM     49  C   UNL     1       3.391   1.237   7.339  1.00  0.00     0.029 A 
ATOM     50  C   UNL     1       2.584   2.434   7.541  1.00  0.00     0.049 A 
ATOM     51  H   UNL     1       1.629   3.586   6.090  1.00  0.00     0.167 HD
ATOM     52  C   UNL     1      -0.353   5.861   2.928  1.00  0.00     0.034 A 
ATOM     53  C   UNL     1       2.322   2.998   8.735  1.00  0.00     0.034 A 
ATOM     54  C   UNL     1      -0.768   6.478   4.161  1.00  0.00     0.049 A 
ATOM     55  C   UNL     1       1.443   4.212   8.784  1.00  0.00     0.074 A 
ATOM     56  C   UNL     1      -1.615   7.558   4.342  1.00  0.00     0.029 A 
ATOM     57  N   UNL     1      -0.353   6.082   5.423  1.00  0.00    -0.354 N 
ATOM     58  N   UNL     1       0.804   4.807   7.806  1.00  0.00    -0.248 NA
ATOM     59  C   UNL     1       1.232   4.821  10.104  1.00  0.00     0.031 C 
ATOM     60  C   UNL     1      -1.701   7.822   5.714  1.00  0.00     0.029 A 
ATOM     61  C   UNL     1      -0.910   6.905   6.387  1.00  0.00     0.049 A 
ATOM     62  H   UNL     1       0.251   5.326   5.607  1.00  0.00     0.167 HD
ATOM     63  C   UNL     1       0.107   5.855   8.391  1.00  0.00     0.074 A 
ATOM     64  C   UNL     1       0.372   5.789   9.815  1.00  0.00     0.031 C 
ATOM     65  C   UNL     1      -0.662   6.803   7.802  1.00  0.00     0.034 A 
BRANCH  52  66
ATOM     66  C   UNL     1      -0.921   6.402   1.644  1.00  0.00     0.023 A 
ATOM     67  C   UNL     1      -2.025   5.747   1.062  1.00  0.00     0.012 A 
ATOM     68  C   UNL     1      -0.426   7.582   1.058  1.00  0.00     0.148 A 
ATOM     69  C   UNL     1      -2.624   6.254  -0.091  1.00  0.00     0.002 A 
ATOM     70  C   UNL     1      -1.042   8.094  -0.079  1.00  0.00     0.091 A 
ATOM     71  F   UNL     1       0.639   8.175   1.617  1.00  0.00    -0.205 F 
ATOM     72  C   UNL     1      -2.139   7.431  -0.656  1.00  0.00     0.022 A 
BRANCH  70  73
ATOM     73  S   UNL     1      -0.522   9.626  -0.862  1.00  0.00     0.127 S 
ATOM     74  O   UNL     1       0.077   9.132  -2.101  1.00  0.00    -0.237 OA
ATOM     75  O   UNL     1      -1.792  10.331  -1.036  1.00  0.00    -0.237 OA
ATOM     76  O   UNL     1       0.402  10.257   0.070  1.00  0.00    -0.744 OA
ENDBRANCH  70  73
ENDBRANCH  52  66
BRANCH  53  77
ATOM     77  C   UNL     1       2.876   2.384   9.971  1.00  0.00     0.023 A 
ATOM     78  C   UNL     1       2.011   1.752  10.883  1.00  0.00     0.012 A 
ATOM     79  C   UNL     1       4.263   2.365  10.215  1.00  0.00     0.148 A 
ATOM     80  C   UNL     1       2.518   1.123  12.021  1.00  0.00     0.002 A 
ATOM     81  C   UNL     1       4.764   1.684  11.318  1.00  0.00     0.091 A 
ATOM     82  F   UNL     1       5.076   2.994   9.353  1.00  0.00    -0.205 F 
ATOM     83  C   UNL     1       3.894   1.074  12.231  1.00  0.00     0.022 A 
BRANCH  81  84
ATOM     84  S   UNL     1       6.535   1.466  11.527  1.00  0.00     0.127 S 
ATOM     85  O   UNL     1       6.908   2.676  12.252  1.00  0.00    -0.237 OA
ATOM     86  O   UNL     1       6.619   0.231  12.307  1.00  0.00    -0.237 OA
ATOM     87  O   UNL     1       7.045   1.340  10.166  1.00  0.00    -0.744 OA
ENDBRANCH  81  84
ENDBRANCH  53  77
BRANCH  65  88
ATOM     88  C   UNL     1      -1.254   7.854   8.700  1.00  0.00     0.023 A 
ATOM     89  C   UNL     1      -0.422   8.876   9.201  1.00  0.00     0.012 A 
ATOM     90  C   UNL     1      -2.623   7.856   9.022  1.00  0.00     0.148 A 
ATOM     91  C   UNL     1      -0.940   9.866  10.034  1.00  0.00     0.002 A 
ATOM     92  C   UNL     1      -3.139   8.869   9.823  1.00  0.00     0.091 A 
ATOM     93  F   UNL     1      -3.397   6.862   8.560  1.00  0.00    -0.205 F 
ATOM     94  C   UNL     1      -2.300   9.869  10.337  1.00  0.00     0.022 A 
BRANCH  92  95
ATOM     95  S   UNL     1      -4.898   8.962  10.177  1.00  0.00     0.127 S 
ATOM     96  O   UNL     1      -5.007   8.152  11.388  1.00  0.00    -0.237 OA
ATOM     97  O   UNL     1      -5.113  10.396  10.383  1.00  0.00    -0.237 OA
ATOM     98  O   UNL     1      -5.550   8.429   8.987  1.00  0.00    -0.744 OA
ENDBRANCH  92  95
ENDBRANCH  65  88
ENDBRANCH  39  40
ENDBRANCH  32  34
ENDBRANCH  31  32
ENDBRANCH  30  31
ENDBRANCH   1  30
TORSDOF 19
