REMARK SMILES COCc1cc(SCC(=O)OCCOC(=O)c2ccc(-c3c4nc(c(-c5cccc(S(=O)(=O)[O-])c5F)c5ccc([nH]5)c(-c5cccc(S(=O)(=O)[O-])c5F)c5nc(c(-c6cccc(S(=O)(=O)[O-])c6F)c6ccc3[nH]6)C=C5)C=C4)cc2)nc(-c2cccnc2)n1
REMARK SMILES IDX 12 1 11 2 9 3 10 4 8 5 7 6 6 7 4 8 5 9 88 10 81 11 80 12
REMARK SMILES IDX 3 13 2 14 1 15 82 16 83 17 87 18 84 19 86 20 85 21 13 22
REMARK SMILES IDX 14 23 15 24 16 25 17 26 18 27 79 28 19 29 78 30 20 31 21 32
REMARK SMILES IDX 22 33 72 34 23 35 77 36 71 37 73 38 24 39 76 40 70 41 69 42
REMARK SMILES IDX 25 44 57 45 37 46 56 47 38 48 41 49 55 50 74 51 39 52 40 53
REMARK SMILES IDX 54 55 75 56 42 57 26 58 27 59 35 60 28 61 30 62 36 63 29 64
REMARK SMILES IDX 31 65 32 66 33 67 34 68 58 69 59 70 67 71 60 72 62 73 68 74
REMARK SMILES IDX 61 75 63 76 64 77 65 78 66 79 43 80 44 81 52 82 45 83 47 84
REMARK SMILES IDX 53 85 46 86 48 87 49 88 50 89 51 90
REMARK H PARENT 73 43 41 54
REMARK Flexibility Score: inf
ROOT
ATOM      1  C   UNL     1      -1.377  -3.794   0.186  1.00  0.00     0.274 C 
ENDROOT
BRANCH   1   2
ATOM      2  O   UNL     1      -0.825  -3.292   1.424  1.00  0.00    -0.461 OA
BRANCH   2   3
ATOM      3  C   UNL     1       0.424  -3.725   1.733  1.00  0.00     0.316 C 
ATOM      4  O   UNL     1       1.101  -4.435   0.993  1.00  0.00    -0.251 OA
BRANCH   3   5
ATOM      5  C   UNL     1       0.992  -3.210   3.041  1.00  0.00     0.199 C 
BRANCH   5   6
ATOM      6  S   UNL     1      -0.218  -2.687   4.289  1.00  0.00    -0.094 SA
BRANCH   6   7
ATOM      7  C   UNL     1      -0.170  -0.900   4.231  1.00  0.00     0.101 A 
ATOM      8  C   UNL     1      -0.028   1.189   3.140  1.00  0.00     0.071 A 
ATOM      9  C   UNL     1       0.178  -0.178   3.111  1.00  0.00     0.062 A 
ATOM     10  N   UNL     1      -0.485   1.806   4.242  1.00  0.00    -0.230 NA
ATOM     11  C   UNL     1      -0.747   1.036   5.306  1.00  0.00     0.162 A 
ATOM     12  N   UNL     1      -0.602  -0.299   5.356  1.00  0.00    -0.222 NA
BRANCH   8  13
ATOM     13  C   UNL     1       0.127   2.031   1.896  1.00  0.00     0.215 C 
BRANCH  13  14
ATOM     14  O   UNL     1      -1.170   2.232   1.329  1.00  0.00    -0.378 OA
ATOM     15  C   UNL     1      -1.122   2.542  -0.053  1.00  0.00     0.195 C 
ENDBRANCH  13  14
ENDBRANCH   8  13
BRANCH  11  16
ATOM     16  C   UNL     1      -1.222   1.730   6.493  1.00  0.00     0.038 A 
ATOM     17  C   UNL     1      -0.630   1.554   7.748  1.00  0.00     0.015 A 
ATOM     18  C   UNL     1      -2.261   2.656   6.414  1.00  0.00     0.123 A 
ATOM     19  C   UNL     1      -1.067   2.307   8.835  1.00  0.00     0.021 A 
ATOM     20  N   UNL     1      -2.732   3.382   7.460  1.00  0.00    -0.264 NA
ATOM     21  C   UNL     1      -2.109   3.200   8.642  1.00  0.00     0.111 A 
ENDBRANCH  11  16
ENDBRANCH   6   7
ENDBRANCH   5   6
ENDBRANCH   3   5
ENDBRANCH   2   3
ENDBRANCH   1   2
BRANCH   1  22
ATOM     22  C   UNL     1      -1.257  -2.801  -0.973  1.00  0.00     0.275 C 
BRANCH  22  23
ATOM     23  O   UNL     1       0.097  -2.344  -1.156  1.00  0.00    -0.458 OA
BRANCH  23  24
ATOM     24  C   UNL     1       0.328  -1.179  -0.519  1.00  0.00     0.338 C 
ATOM     25  O   UNL     1      -0.480  -0.567   0.161  1.00  0.00    -0.246 OA
BRANCH  24  26
ATOM     26  C   UNL     1       1.693  -0.664  -0.666  1.00  0.00     0.060 A 
ATOM     27  C   UNL     1       2.736  -1.197   0.097  1.00  0.00     0.016 A 
ATOM     28  C   UNL     1       1.855   0.546  -1.345  1.00  0.00     0.016 A 
ATOM     29  C   UNL     1       3.939  -0.491   0.209  1.00  0.00     0.010 A 
ATOM     30  C   UNL     1       3.062   1.236  -1.251  1.00  0.00     0.010 A 
ATOM     31  C   UNL     1       4.106   0.732  -0.462  1.00  0.00    -0.014 A 
BRANCH  31  32
ATOM     32  C   UNL     1       5.421   1.411  -0.511  1.00  0.00     0.031 A 
ATOM     33  C   UNL     1       5.701   2.671   0.254  1.00  0.00     0.074 A 
ATOM     34  C   UNL     1       6.314   0.937  -1.397  1.00  0.00     0.049 A 
ATOM     35  N   UNL     1       6.767   3.428   0.219  1.00  0.00    -0.248 NA
ATOM     36  C   UNL     1       4.654   3.148   1.170  1.00  0.00     0.031 C 
ATOM     37  C   UNL     1       6.107  -0.246  -2.236  1.00  0.00     0.029 A 
ATOM     38  N   UNL     1       7.537   1.416  -1.785  1.00  0.00    -0.354 N 
ATOM     39  C   UNL     1       6.520   4.483   1.089  1.00  0.00     0.074 A 
ATOM     40  C   UNL     1       5.195   4.269   1.636  1.00  0.00     0.031 C 
ATOM     41  C   UNL     1       7.143  -0.372  -3.075  1.00  0.00     0.029 A 
ATOM     42  C   UNL     1       8.075   0.726  -2.844  1.00  0.00     0.049 A 
ATOM     43  H   UNL     1       7.984   2.178  -1.350  1.00  0.00     0.167 HD
ATOM     44  C   UNL     1       7.335   5.518   1.411  1.00  0.00     0.034 A 
ATOM     45  C   UNL     1       9.185   0.958  -3.567  1.00  0.00     0.034 A 
ATOM     46  C   UNL     1       8.661   5.699   0.874  1.00  0.00     0.049 A 
ATOM     47  C   UNL     1      10.073   2.101  -3.186  1.00  0.00     0.074 A 
ATOM     48  C   UNL     1       9.611   6.645   1.222  1.00  0.00     0.029 A 
ATOM     49  N   UNL     1       9.219   4.931  -0.138  1.00  0.00    -0.354 N 
ATOM     50  N   UNL     1       9.905   2.984  -2.232  1.00  0.00    -0.248 NA
ATOM     51  C   UNL     1      11.319   2.258  -3.945  1.00  0.00     0.031 C 
ATOM     52  C   UNL     1      10.739   6.454   0.412  1.00  0.00     0.029 A 
ATOM     53  C   UNL     1      10.491   5.389  -0.439  1.00  0.00     0.049 A 
ATOM     54  H   UNL     1       8.774   4.171  -0.578  1.00  0.00     0.167 HD
ATOM     55  C   UNL     1      11.039   3.783  -2.250  1.00  0.00     0.074 A 
ATOM     56  C   UNL     1      11.890   3.273  -3.308  1.00  0.00     0.031 C 
ATOM     57  C   UNL     1      11.343   4.847  -1.467  1.00  0.00     0.034 A 
BRANCH  44  58
ATOM     58  C   UNL     1       6.854   6.507   2.442  1.00  0.00     0.023 A 
ATOM     59  C   UNL     1       6.880   6.146   3.804  1.00  0.00     0.012 A 
ATOM     60  C   UNL     1       6.473   7.815   2.084  1.00  0.00     0.148 A 
ATOM     61  C   UNL     1       6.518   7.064   4.791  1.00  0.00     0.002 A 
ATOM     62  C   UNL     1       6.142   8.734   3.077  1.00  0.00     0.091 A 
ATOM     63  F   UNL     1       6.427   8.140   0.784  1.00  0.00    -0.205 F 
ATOM     64  C   UNL     1       6.159   8.360   4.429  1.00  0.00     0.022 A 
BRANCH  62  65
ATOM     65  S   UNL     1       5.743  10.442   2.682  1.00  0.00     0.127 S 
ATOM     66  O   UNL     1       4.289  10.387   2.552  1.00  0.00    -0.237 OA
ATOM     67  O   UNL     1       6.221  11.167   3.861  1.00  0.00    -0.237 OA
ATOM     68  O   UNL     1       6.485  10.734   1.462  1.00  0.00    -0.744 OA
ENDBRANCH  62  65
ENDBRANCH  44  58
BRANCH  45  69
ATOM     69  C   UNL     1       9.531   0.007  -4.655  1.00  0.00     0.023 A 
ATOM     70  C   UNL     1      10.527  -0.958  -4.422  1.00  0.00     0.012 A 
ATOM     71  C   UNL     1       8.778  -0.047  -5.844  1.00  0.00     0.148 A 
ATOM     72  C   UNL     1      10.765  -1.967  -5.354  1.00  0.00     0.002 A 
ATOM     73  C   UNL     1       8.985  -1.085  -6.744  1.00  0.00     0.091 A 
ATOM     74  F   UNL     1       7.841   0.891  -6.048  1.00  0.00    -0.205 F 
ATOM     75  C   UNL     1       9.983  -2.042  -6.505  1.00  0.00     0.022 A 
BRANCH  73  76
ATOM     76  S   UNL     1       7.912  -1.342  -8.163  1.00  0.00     0.127 S 
ATOM     77  O   UNL     1       8.734  -0.834  -9.257  1.00  0.00    -0.237 OA
ATOM     78  O   UNL     1       7.728  -2.795  -8.153  1.00  0.00    -0.237 OA
ATOM     79  O   UNL     1       6.699  -0.590  -7.871  1.00  0.00    -0.744 OA
ENDBRANCH  73  76
ENDBRANCH  45  69
BRANCH  57  80
ATOM     80  C   UNL     1      12.659   5.526  -1.721  1.00  0.00     0.023 A 
ATOM     81  C   UNL     1      12.781   6.406  -2.815  1.00  0.00     0.012 A 
ATOM     82  C   UNL     1      13.758   5.328  -0.865  1.00  0.00     0.148 A 
ATOM     83  C   UNL     1      13.986   7.060  -3.066  1.00  0.00     0.002 A 
ATOM     84  C   UNL     1      14.947   6.008  -1.103  1.00  0.00     0.091 A 
ATOM     85  F   UNL     1      13.633   4.464   0.154  1.00  0.00    -0.205 F 
ATOM     86  C   UNL     1      15.066   6.869  -2.206  1.00  0.00     0.022 A 
BRANCH  84  87
ATOM     87  S   UNL     1      16.353   5.857   0.005  1.00  0.00     0.127 S 
ATOM     88  O   UNL     1      17.129   4.798  -0.636  1.00  0.00    -0.237 OA
ATOM     89  O   UNL     1      16.962   7.186  -0.064  1.00  0.00    -0.237 OA
ATOM     90  O   UNL     1      15.784   5.531   1.306  1.00  0.00    -0.744 OA
ENDBRANCH  84  87
ENDBRANCH  57  80
ENDBRANCH  31  32
ENDBRANCH  24  26
ENDBRANCH  23  24
ENDBRANCH  22  23
ENDBRANCH   1  22
TORSDOF 19
