REMARK SMILES CC(C)(CC(=O)OCCOC(=O)c1ccc(-c2c3nc(c(-c4cccc(S(=O)(=O)[O-])c4F)c4ccc([nH]4)c(-c4cccc(S(=O)(=O)[O-])c4F)c4nc(c(-c5cccc(S(=O)(=O)[O-])c5F)c5ccc2[nH]5)C=C4)C=C3)cc1)Cc1nc([C@@]2(C)CCCO2)no1
REMARK SMILES IDX 8 1 7 2 5 3 6 4 4 5 2 6 1 7 3 8 76 9 77 10 78 11 87 12 79 13
REMARK SMILES IDX 86 14 80 15 81 16 82 17 85 18 83 19 84 20 9 21 10 22 11 23
REMARK SMILES IDX 12 24 13 25 14 26 75 27 15 28 74 29 16 30 17 31 18 32 68 33
REMARK SMILES IDX 19 34 73 35 67 36 69 37 20 38 72 39 66 40 65 41 21 43 53 44
REMARK SMILES IDX 33 45 52 46 34 47 37 48 51 49 70 50 35 51 36 52 50 54 71 55
REMARK SMILES IDX 38 56 22 57 23 58 31 59 24 60 26 61 32 62 25 63 27 64 28 65
REMARK SMILES IDX 29 66 30 67 54 68 55 69 63 70 56 71 58 72 64 73 57 74 59 75
REMARK SMILES IDX 60 76 61 77 62 78 39 79 40 80 48 81 41 82 43 83 49 84 42 85
REMARK SMILES IDX 44 86 45 87 46 88 47 89
REMARK H PARENT 69 42 37 53
REMARK Flexibility Score: inf
ROOT
ATOM      1  C   UNL     1      -2.497   1.897  -1.241  1.00  0.00     0.274 C 
ENDROOT
BRANCH   1   2
ATOM      2  O   UNL     1      -1.286   1.199  -0.870  1.00  0.00    -0.462 OA
BRANCH   2   3
ATOM      3  C   UNL     1      -1.462   0.062  -0.160  1.00  0.00     0.306 C 
ATOM      4  O   UNL     1      -2.519  -0.254   0.382  1.00  0.00    -0.252 OA
BRANCH   3   5
ATOM      5  C   UNL     1      -0.275  -0.886  -0.141  1.00  0.00     0.129 C 
BRANCH   5   6
ATOM      6  C   UNL     1       1.187  -0.514  -0.528  1.00  0.00    -0.016 C 
ATOM      7  C   UNL     1       1.637   0.789   0.142  1.00  0.00     0.012 C 
ATOM      8  C   UNL     1       2.044  -1.658   0.112  1.00  0.00     0.012 C 
BRANCH   6   9
ATOM      9  C   UNL     1       1.532  -0.594  -2.053  1.00  0.00     0.107 C 
BRANCH   9  10
ATOM     10  C   UNL     1       1.258   0.544  -2.978  1.00  0.00     0.227 A 
ATOM     11  N   UNL     1       0.847   0.488  -4.227  1.00  0.00    -0.193 NA
ATOM     12  O   UNL     1       1.591   1.809  -2.594  1.00  0.00    -0.339 OA
ATOM     13  C   UNL     1       0.812   1.808  -4.602  1.00  0.00     0.203 A 
ATOM     14  N   UNL     1       1.274   2.653  -3.663  1.00  0.00    -0.059 NA
BRANCH  13  15
ATOM     15  C   UNL     1       0.218   2.269  -5.916  1.00  0.00     0.128 C 
ATOM     16  C   UNL     1      -0.307   1.081  -6.744  1.00  0.00     0.051 C 
ATOM     17  C   UNL     1      -0.908   3.295  -5.705  1.00  0.00     0.046 C 
ATOM     18  O   UNL     1       1.197   2.943  -6.754  1.00  0.00    -0.367 OA
ATOM     19  C   UNL     1      -0.844   4.145  -6.948  1.00  0.00     0.032 C 
ATOM     20  C   UNL     1       0.637   4.167  -7.244  1.00  0.00     0.161 C 
ENDBRANCH  13  15
ENDBRANCH   9  10
ENDBRANCH   6   9
ENDBRANCH   5   6
ENDBRANCH   3   5
ENDBRANCH   2   3
ENDBRANCH   1   2
BRANCH   1  21
ATOM     21  C   UNL     1      -2.736   1.822  -2.757  1.00  0.00     0.275 C 
BRANCH  21  22
ATOM     22  O   UNL     1      -3.287   0.573  -3.233  1.00  0.00    -0.458 OA
BRANCH  22  23
ATOM     23  C   UNL     1      -2.412  -0.448  -3.249  1.00  0.00     0.338 C 
ATOM     24  O   UNL     1      -1.280  -0.449  -2.796  1.00  0.00    -0.246 OA
BRANCH  23  25
ATOM     25  C   UNL     1      -2.876  -1.678  -3.860  1.00  0.00     0.060 A 
ATOM     26  C   UNL     1      -2.796  -2.837  -3.077  1.00  0.00     0.016 A 
ATOM     27  C   UNL     1      -3.067  -1.736  -5.239  1.00  0.00     0.016 A 
ATOM     28  C   UNL     1      -2.915  -4.079  -3.682  1.00  0.00     0.010 A 
ATOM     29  C   UNL     1      -3.192  -2.983  -5.842  1.00  0.00     0.010 A 
ATOM     30  C   UNL     1      -3.117  -4.152  -5.066  1.00  0.00    -0.014 A 
BRANCH  30  31
ATOM     31  C   UNL     1      -3.437  -5.447  -5.690  1.00  0.00     0.031 A 
ATOM     32  C   UNL     1      -2.421  -6.217  -6.468  1.00  0.00     0.074 A 
ATOM     33  C   UNL     1      -4.716  -5.849  -5.596  1.00  0.00     0.049 A 
ATOM     34  N   UNL     1      -2.588  -7.314  -7.157  1.00  0.00    -0.248 NA
ATOM     35  C   UNL     1      -1.045  -5.697  -6.481  1.00  0.00     0.031 C 
ATOM     36  C   UNL     1      -5.766  -5.125  -4.873  1.00  0.00     0.029 A 
ATOM     37  N   UNL     1      -5.361  -6.923  -6.141  1.00  0.00    -0.354 N 
ATOM     38  C   UNL     1      -1.348  -7.610  -7.705  1.00  0.00     0.074 A 
ATOM     39  C   UNL     1      -0.433  -6.578  -7.265  1.00  0.00     0.031 C 
ATOM     40  C   UNL     1      -6.934  -5.752  -5.057  1.00  0.00     0.029 A 
ATOM     41  C   UNL     1      -6.716  -6.903  -5.923  1.00  0.00     0.049 A 
ATOM     42  H   UNL     1      -4.901  -7.638  -6.638  1.00  0.00     0.167 HD
ATOM     43  C   UNL     1      -1.016  -8.660  -8.492  1.00  0.00     0.034 A 
ATOM     44  C   UNL     1      -7.683  -7.712  -6.392  1.00  0.00     0.034 A 
ATOM     45  C   UNL     1      -1.948  -9.681  -8.898  1.00  0.00     0.049 A 
ATOM     46  C   UNL     1      -7.282  -8.875  -7.244  1.00  0.00     0.074 A 
ATOM     47  C   UNL     1      -1.710 -10.813  -9.658  1.00  0.00     0.029 A 
ATOM     48  N   UNL     1      -3.299  -9.690  -8.580  1.00  0.00    -0.354 N 
ATOM     49  N   UNL     1      -6.082  -9.211  -7.657  1.00  0.00    -0.248 NA
ATOM     50  C   UNL     1      -8.347  -9.792  -7.664  1.00  0.00     0.031 C 
ATOM     51  C   UNL     1      -2.917 -11.508  -9.794  1.00  0.00     0.029 A 
ATOM     52  C   UNL     1      -3.908 -10.807  -9.124  1.00  0.00     0.049 A 
ATOM     53  H   UNL     1      -3.756  -9.002  -8.045  1.00  0.00     0.167 HD
ATOM     54  C   UNL     1      -6.241 -10.393  -8.363  1.00  0.00     0.074 A 
ATOM     55  C   UNL     1      -7.654 -10.721  -8.312  1.00  0.00     0.031 C 
ATOM     56  C   UNL     1      -5.307 -11.132  -9.009  1.00  0.00     0.034 A 
BRANCH  43  57
ATOM     57  C   UNL     1       0.419  -8.799  -8.918  1.00  0.00     0.023 A 
ATOM     58  C   UNL     1       1.348  -9.350  -8.014  1.00  0.00     0.012 A 
ATOM     59  C   UNL     1       0.834  -8.474 -10.223  1.00  0.00     0.148 A 
ATOM     60  C   UNL     1       2.671  -9.569  -8.399  1.00  0.00     0.002 A 
ATOM     61  C   UNL     1       2.150  -8.718 -10.608  1.00  0.00     0.091 A 
ATOM     62  F   UNL     1      -0.054  -7.921 -11.062  1.00  0.00    -0.205 F 
ATOM     63  C   UNL     1       3.069  -9.264  -9.698  1.00  0.00     0.022 A 
BRANCH  61  64
ATOM     64  S   UNL     1       2.719  -8.405 -12.285  1.00  0.00     0.127 S 
ATOM     65  O   UNL     1       3.303  -7.072 -12.158  1.00  0.00    -0.237 OA
ATOM     66  O   UNL     1       3.693  -9.477 -12.498  1.00  0.00    -0.237 OA
ATOM     67  O   UNL     1       1.530  -8.505 -13.121  1.00  0.00    -0.744 OA
ENDBRANCH  61  64
ENDBRANCH  43  57
BRANCH  44  68
ATOM     68  C   UNL     1      -9.086  -7.460  -5.975  1.00  0.00     0.023 A 
ATOM     69  C   UNL     1      -9.661  -8.277  -4.986  1.00  0.00     0.012 A 
ATOM     70  C   UNL     1      -9.793  -6.333  -6.435  1.00  0.00     0.148 A 
ATOM     71  C   UNL     1     -10.919  -7.976  -4.462  1.00  0.00     0.002 A 
ATOM     72  C   UNL     1     -11.023  -6.009  -5.872  1.00  0.00     0.091 A 
ATOM     73  F   UNL     1      -9.235  -5.568  -7.385  1.00  0.00    -0.205 F 
ATOM     74  C   UNL     1     -11.592  -6.834  -4.892  1.00  0.00     0.022 A 
BRANCH  72  75
ATOM     75  S   UNL     1     -11.841  -4.461  -6.277  1.00  0.00     0.127 S 
ATOM     76  O   UNL     1     -12.640  -4.832  -7.439  1.00  0.00    -0.237 OA
ATOM     77  O   UNL     1     -12.613  -4.177  -5.066  1.00  0.00    -0.237 OA
ATOM     78  O   UNL     1     -10.749  -3.523  -6.512  1.00  0.00    -0.744 OA
ENDBRANCH  72  75
ENDBRANCH  44  68
BRANCH  56  79
ATOM     79  C   UNL     1      -5.784 -12.373  -9.704  1.00  0.00     0.023 A 
ATOM     80  C   UNL     1      -6.375 -12.261 -10.976  1.00  0.00     0.012 A 
ATOM     81  C   UNL     1      -5.585 -13.644  -9.135  1.00  0.00     0.148 A 
ATOM     82  C   UNL     1      -6.776 -13.402 -11.669  1.00  0.00     0.002 A 
ATOM     83  C   UNL     1      -5.962 -14.778  -9.844  1.00  0.00     0.091 A 
ATOM     84  F   UNL     1      -5.046 -13.723  -7.909  1.00  0.00    -0.205 F 
ATOM     85  C   UNL     1      -6.560 -14.659 -11.109  1.00  0.00     0.022 A 
BRANCH  83  86
ATOM     86  S   UNL     1      -5.653 -16.431  -9.212  1.00  0.00     0.127 S 
ATOM     87  O   UNL     1      -6.942 -16.767  -8.612  1.00  0.00    -0.237 OA
ATOM     88  O   UNL     1      -5.332 -17.182 -10.427  1.00  0.00    -0.237 OA
ATOM     89  O   UNL     1      -4.538 -16.291  -8.285  1.00  0.00    -0.744 OA
ENDBRANCH  83  86
ENDBRANCH  56  79
ENDBRANCH  30  31
ENDBRANCH  23  25
ENDBRANCH  22  23
ENDBRANCH  21  22
ENDBRANCH   1  21
TORSDOF 18
