REMARK SMILES O=C(OCCOC(=O)[C@@H](CCOCCO)c1cccc(F)c1)c1ccc(-c2c3nc(c(-c4cccc(S(=O)(=O)[O-])c4F)c4ccc([nH]4)c(-c4cccc(S(=O)(=O)[O-])c4F)c4nc(c(-c5cccc(S(=O)(=O)[O-])c5F)c5ccc2[nH]5)C=C4)C=C3)cc1
REMARK SMILES IDX 6 1 5 2 4 3 3 4 2 5 1 6 23 7 24 8 85 9 25 10 84 11 26 12
REMARK SMILES IDX 27 13 28 14 78 15 29 16 83 17 77 18 79 19 30 20 82 21 76 22
REMARK SMILES IDX 75 23 31 25 63 26 43 27 62 28 44 29 47 30 61 31 80 32 45 33
REMARK SMILES IDX 46 34 60 36 81 37 48 38 32 39 33 40 41 41 34 42 36 43 42 44
REMARK SMILES IDX 35 45 37 46 38 47 39 48 40 49 64 50 65 51 73 52 66 53 68 54
REMARK SMILES IDX 74 55 67 56 69 57 70 58 71 59 72 60 49 61 50 62 58 63 51 64
REMARK SMILES IDX 53 65 59 66 52 67 54 68 55 69 56 70 57 71 7 72 8 73 9 74
REMARK SMILES IDX 10 75 11 76 12 77 13 78 14 79 15 80 16 82 17 83 22 84 18 85
REMARK SMILES IDX 20 86 19 87 21 88
REMARK H PARENT 79 24 47 35 15 81
REMARK Flexibility Score: inf
ROOT
ATOM      1  O   UNL     1       2.559   0.562   1.536  1.00  0.00    -0.462 OA
ENDROOT
BRANCH   1   2
ATOM      2  C   UNL     1       3.366   1.661   1.107  1.00  0.00     0.274 C 
BRANCH   2   3
ATOM      3  C   UNL     1       4.111   1.348  -0.203  1.00  0.00     0.275 C 
BRANCH   3   4
ATOM      4  O   UNL     1       3.292   0.724  -1.224  1.00  0.00    -0.458 OA
BRANCH   4   5
ATOM      5  C   UNL     1       3.130  -0.572  -1.604  1.00  0.00     0.338 C 
ATOM      6  O   UNL     1       2.144  -0.849  -2.288  1.00  0.00    -0.246 OA
BRANCH   5   7
ATOM      7  C   UNL     1       4.010  -1.718  -1.175  1.00  0.00     0.060 A 
ATOM      8  C   UNL     1       5.328  -1.613  -0.725  1.00  0.00     0.016 A 
ATOM      9  C   UNL     1       3.390  -2.987  -1.075  1.00  0.00     0.016 A 
ATOM     10  C   UNL     1       5.918  -2.659   0.025  1.00  0.00     0.010 A 
ATOM     11  C   UNL     1       3.976  -4.028  -0.324  1.00  0.00     0.010 A 
ATOM     12  C   UNL     1       5.217  -3.843   0.312  1.00  0.00    -0.014 A 
BRANCH  12  13
ATOM     13  C   UNL     1       5.876  -4.958   1.071  1.00  0.00     0.031 A 
ATOM     14  C   UNL     1       6.543  -5.989   0.214  1.00  0.00     0.074 A 
ATOM     15  C   UNL     1       5.906  -5.112   2.421  1.00  0.00     0.049 A 
ATOM     16  N   UNL     1       7.275  -7.007   0.568  1.00  0.00    -0.248 NA
ATOM     17  C   UNL     1       6.330  -5.865  -1.240  1.00  0.00     0.031 C 
ATOM     18  C   UNL     1       5.226  -4.287   3.402  1.00  0.00     0.029 A 
ATOM     19  N   UNL     1       6.534  -6.044   3.231  1.00  0.00    -0.354 N 
ATOM     20  C   UNL     1       7.597  -7.648  -0.616  1.00  0.00     0.074 A 
ATOM     21  C   UNL     1       6.939  -6.944  -1.690  1.00  0.00     0.031 C 
ATOM     22  C   UNL     1       5.474  -4.695   4.651  1.00  0.00     0.029 A 
ATOM     23  C   UNL     1       6.338  -5.848   4.590  1.00  0.00     0.049 A 
ATOM     24  H   UNL     1       7.075  -6.784   2.871  1.00  0.00     0.167 HD
ATOM     25  C   UNL     1       8.395  -8.720  -0.801  1.00  0.00     0.034 A 
ATOM     26  C   UNL     1       6.786  -6.496   5.686  1.00  0.00     0.034 A 
ATOM     27  C   UNL     1       8.996  -9.452   0.269  1.00  0.00     0.049 A 
ATOM     28  C   UNL     1       7.672  -7.682   5.464  1.00  0.00     0.074 A 
ATOM     29  C   UNL     1       9.817 -10.557   0.194  1.00  0.00     0.029 A 
ATOM     30  N   UNL     1       8.804  -9.172   1.614  1.00  0.00    -0.354 N 
ATOM     31  N   UNL     1       8.075  -8.187   4.324  1.00  0.00    -0.248 NA
ATOM     32  C   UNL     1       8.178  -8.381   6.652  1.00  0.00     0.031 C 
ATOM     33  C   UNL     1      10.090 -10.974   1.499  1.00  0.00     0.029 A 
ATOM     34  C   UNL     1       9.487 -10.092   2.385  1.00  0.00     0.049 A 
ATOM     35  H   UNL     1       8.263  -8.429   1.967  1.00  0.00     0.167 HD
ATOM     36  C   UNL     1       8.900  -9.249   4.652  1.00  0.00     0.074 A 
ATOM     37  C   UNL     1       8.950  -9.310   6.101  1.00  0.00     0.031 C 
ATOM     38  C   UNL     1       9.549 -10.099   3.825  1.00  0.00     0.034 A 
BRANCH  25  39
ATOM     39  C   UNL     1       8.611  -9.133  -2.227  1.00  0.00     0.023 A 
ATOM     40  C   UNL     1       9.353  -8.297  -3.090  1.00  0.00     0.012 A 
ATOM     41  C   UNL     1       7.994 -10.288  -2.735  1.00  0.00     0.148 A 
ATOM     42  C   UNL     1       9.417  -8.570  -4.454  1.00  0.00     0.002 A 
ATOM     43  C   UNL     1       8.109 -10.582  -4.085  1.00  0.00     0.091 A 
ATOM     44  F   UNL     1       7.268 -11.045  -1.900  1.00  0.00    -0.205 F 
ATOM     45  C   UNL     1       8.799  -9.714  -4.950  1.00  0.00     0.022 A 
BRANCH  43  46
ATOM     46  S   UNL     1       7.398 -12.057  -4.816  1.00  0.00     0.127 S 
ATOM     47  O   UNL     1       6.415 -11.487  -5.736  1.00  0.00    -0.237 OA
ATOM     48  O   UNL     1       8.562 -12.662  -5.461  1.00  0.00    -0.237 OA
ATOM     49  O   UNL     1       6.838 -12.826  -3.713  1.00  0.00    -0.744 OA
ENDBRANCH  43  46
ENDBRANCH  25  39
BRANCH  26  50
ATOM     50  C   UNL     1       6.477  -5.997   7.069  1.00  0.00     0.023 A 
ATOM     51  C   UNL     1       7.507  -5.402   7.830  1.00  0.00     0.012 A 
ATOM     52  C   UNL     1       5.180  -6.061   7.624  1.00  0.00     0.148 A 
ATOM     53  C   UNL     1       7.259  -4.900   9.111  1.00  0.00     0.002 A 
ATOM     54  C   UNL     1       4.930  -5.522   8.886  1.00  0.00     0.091 A 
ATOM     55  F   UNL     1       4.208  -6.625   6.894  1.00  0.00    -0.205 F 
ATOM     56  C   UNL     1       5.972  -4.951   9.634  1.00  0.00     0.022 A 
BRANCH  54  57
ATOM     57  S   UNL     1       3.296  -5.455   9.638  1.00  0.00     0.127 S 
ATOM     58  O   UNL     1       3.507  -6.180  10.886  1.00  0.00    -0.237 OA
ATOM     59  O   UNL     1       3.102  -4.016   9.793  1.00  0.00    -0.237 OA
ATOM     60  O   UNL     1       2.393  -6.107   8.693  1.00  0.00    -0.744 OA
ENDBRANCH  54  57
ENDBRANCH  26  50
BRANCH  38  61
ATOM     61  C   UNL     1      10.422 -11.148   4.442  1.00  0.00     0.023 A 
ATOM     62  C   UNL     1       9.850 -12.300   5.010  1.00  0.00     0.012 A 
ATOM     63  C   UNL     1      11.816 -11.060   4.275  1.00  0.00     0.148 A 
ATOM     64  C   UNL     1      10.662 -13.362   5.398  1.00  0.00     0.002 A 
ATOM     65  C   UNL     1      12.611 -12.146   4.604  1.00  0.00     0.091 A 
ATOM     66  F   UNL     1      12.327  -9.934   3.755  1.00  0.00    -0.205 F 
ATOM     67  C   UNL     1      12.037 -13.295   5.173  1.00  0.00     0.022 A 
BRANCH  65  68
ATOM     68  S   UNL     1      14.361 -12.197   4.214  1.00  0.00     0.127 S 
ATOM     69  O   UNL     1      14.962 -12.185   5.547  1.00  0.00    -0.237 OA
ATOM     70  O   UNL     1      14.478 -13.469   3.501  1.00  0.00    -0.237 OA
ATOM     71  O   UNL     1      14.631 -11.019   3.401  1.00  0.00    -0.744 OA
ENDBRANCH  65  68
ENDBRANCH  38  61
ENDBRANCH  12  13
ENDBRANCH   5   7
ENDBRANCH   4   5
ENDBRANCH   3   4
ENDBRANCH   2   3
ENDBRANCH   1   2
BRANCH   1  72
ATOM     72  C   UNL     1       1.877   0.696   2.717  1.00  0.00     0.313 C 
ATOM     73  O   UNL     1       1.706   1.774   3.272  1.00  0.00    -0.252 OA
BRANCH  72  74
ATOM     74  C   UNL     1       1.359  -0.661   3.251  1.00  0.00     0.131 C 
BRANCH  74  75
ATOM     75  C   UNL     1       1.708  -1.734   2.243  1.00  0.00     0.048 C 
BRANCH  75  76
ATOM     76  C   UNL     1       3.186  -2.008   1.994  1.00  0.00     0.161 C 
BRANCH  76  77
ATOM     77  O   UNL     1       4.372  -1.287   2.298  1.00  0.00    -0.379 OA
BRANCH  77  78
ATOM     78  C   UNL     1       4.738  -0.833   3.587  1.00  0.00     0.188 C 
BRANCH  78  79
ATOM     79  C   UNL     1       6.226  -0.441   3.601  1.00  0.00     0.184 C 
BRANCH  79  80
ATOM     80  O   UNL     1       6.603   0.133   2.348  1.00  0.00    -0.394 OA
ATOM     81  H   UNL     1       6.459  -0.513   1.639  1.00  0.00     0.210 HD
ENDBRANCH  79  80
ENDBRANCH  78  79
ENDBRANCH  77  78
ENDBRANCH  76  77
ENDBRANCH  75  76
ENDBRANCH  74  75
BRANCH  74  82
ATOM     82  C   UNL     1       1.798  -1.114   4.648  1.00  0.00    -0.031 A 
ATOM     83  C   UNL     1       2.360  -0.235   5.584  1.00  0.00     0.005 A 
ATOM     84  C   UNL     1       1.734  -2.480   5.008  1.00  0.00     0.043 A 
ATOM     85  C   UNL     1       2.984  -0.721   6.741  1.00  0.00     0.003 A 
ATOM     86  C   UNL     1       2.363  -2.953   6.151  1.00  0.00     0.123 A 
ATOM     87  C   UNL     1       3.014  -2.087   7.008  1.00  0.00     0.039 A 
ATOM     88  F   UNL     1       2.402  -4.272   6.364  1.00  0.00    -0.207 F 
ENDBRANCH  74  82
ENDBRANCH  72  74
ENDBRANCH   1  72
TORSDOF 21
