REMARK SMILES O=C(CCC(=O)OCCOC(=O)c1ccc(-c2c3nc(c(-c4cccc(S(=O)(=O)[O-])c4F)c4ccc([nH]4)c(-c4cccc(S(=O)(=O)[O-])c4F)c4nc(c(-c5cccc(S(=O)(=O)[O-])c5F)c5ccc2[nH]5)C=C4)C=C3)cc1)Nc1ncccn1
REMARK SMILES IDX 8 1 7 2 5 3 6 4 4 5 3 6 2 7 1 8 76 9 77 11 78 12 82 13 79 14
REMARK SMILES IDX 81 15 80 16 9 17 10 18 11 19 12 20 13 21 14 22 75 23 15 24
REMARK SMILES IDX 74 25 16 26 17 27 18 28 68 29 19 30 73 31 67 32 69 33 20 34
REMARK SMILES IDX 72 35 66 36 65 37 21 39 53 40 33 41 52 42 34 43 37 44 51 45
REMARK SMILES IDX 70 46 35 47 36 48 50 50 71 51 38 52 22 53 23 54 31 55 24 56
REMARK SMILES IDX 26 57 32 58 25 59 27 60 28 61 29 62 30 63 54 64 55 65 63 66
REMARK SMILES IDX 56 67 58 68 64 69 57 70 59 71 60 72 61 73 62 74 39 75 40 76
REMARK SMILES IDX 48 77 41 78 43 79 49 80 42 81 44 82 45 83 46 84 47 85
REMARK H PARENT 76 10 69 38 37 49
REMARK Flexibility Score: inf
ROOT
ATOM      1  C   UNL     1       5.654   2.448   0.349  1.00  0.00     0.274 C 
ENDROOT
BRANCH   1   2
ATOM      2  O   UNL     1       4.533   1.709  -0.185  1.00  0.00    -0.462 OA
BRANCH   2   3
ATOM      3  C   UNL     1       4.508   1.456  -1.518  1.00  0.00     0.306 C 
ATOM      4  O   UNL     1       5.362   1.829  -2.311  1.00  0.00    -0.252 OA
BRANCH   3   5
ATOM      5  C   UNL     1       3.250   0.720  -1.944  1.00  0.00     0.132 C 
BRANCH   5   6
ATOM      6  C   UNL     1       2.793  -0.427  -1.041  1.00  0.00     0.112 C 
BRANCH   6   7
ATOM      7  C   UNL     1       1.802   0.035   0.016  1.00  0.00     0.227 C 
ATOM      8  O   UNL     1       0.605  -0.205  -0.099  1.00  0.00    -0.275 OA
ATOM      9  N   UNL     1       2.398   0.797   0.981  1.00  0.00    -0.295 N 
ATOM     10  H   UNL     1       3.382   0.802   0.996  1.00  0.00     0.173 HD
BRANCH   9  11
ATOM     11  C   UNL     1       1.761   1.561   1.935  1.00  0.00     0.229 A 
ATOM     12  N   UNL     1       2.455   2.658   2.288  1.00  0.00    -0.221 NA
ATOM     13  N   UNL     1       0.552   1.244   2.405  1.00  0.00    -0.221 NA
ATOM     14  C   UNL     1       1.828   3.529   3.097  1.00  0.00     0.117 A 
ATOM     15  C   UNL     1       0.001   2.110   3.272  1.00  0.00     0.117 A 
ATOM     16  C   UNL     1       0.587   3.299   3.634  1.00  0.00     0.040 A 
ENDBRANCH   9  11
ENDBRANCH   6   7
ENDBRANCH   5   6
ENDBRANCH   3   5
ENDBRANCH   2   3
ENDBRANCH   1   2
BRANCH   1  17
ATOM     17  C   UNL     1       6.547   1.530   1.186  1.00  0.00     0.275 C 
BRANCH  17  18
ATOM     18  O   UNL     1       7.235   0.595   0.339  1.00  0.00    -0.458 OA
BRANCH  18  19
ATOM     19  C   UNL     1       6.609  -0.592   0.161  1.00  0.00     0.338 C 
ATOM     20  O   UNL     1       5.591  -0.975   0.706  1.00  0.00    -0.246 OA
BRANCH  19  21
ATOM     21  C   UNL     1       7.275  -1.311  -0.934  1.00  0.00     0.060 A 
ATOM     22  C   UNL     1       6.640  -1.384  -2.177  1.00  0.00     0.016 A 
ATOM     23  C   UNL     1       8.513  -1.916  -0.727  1.00  0.00     0.016 A 
ATOM     24  C   UNL     1       7.255  -2.050  -3.233  1.00  0.00     0.010 A 
ATOM     25  C   UNL     1       9.134  -2.572  -1.791  1.00  0.00     0.010 A 
ATOM     26  C   UNL     1       8.512  -2.639  -3.051  1.00  0.00    -0.014 A 
BRANCH  26  27
ATOM     27  C   UNL     1       9.205  -3.294  -4.185  1.00  0.00     0.031 A 
ATOM     28  C   UNL     1       9.403  -4.779  -4.193  1.00  0.00     0.074 A 
ATOM     29  C   UNL     1       9.714  -2.533  -5.172  1.00  0.00     0.049 A 
ATOM     30  N   UNL     1      10.093  -5.515  -5.024  1.00  0.00    -0.248 NA
ATOM     31  C   UNL     1       8.748  -5.536  -3.115  1.00  0.00     0.031 C 
ATOM     32  C   UNL     1       9.592  -1.077  -5.260  1.00  0.00     0.029 A 
ATOM     33  N   UNL     1      10.472  -2.874  -6.264  1.00  0.00    -0.354 N 
ATOM     34  C   UNL     1       9.992  -6.816  -4.552  1.00  0.00     0.074 A 
ATOM     35  C   UNL     1       9.176  -6.768  -3.356  1.00  0.00     0.031 C 
ATOM     36  C   UNL     1      10.285  -0.644  -6.323  1.00  0.00     0.029 A 
ATOM     37  C   UNL     1      10.937  -1.784  -6.961  1.00  0.00     0.049 A 
ATOM     38  H   UNL     1      10.664  -3.804  -6.522  1.00  0.00     0.167 HD
ATOM     39  C   UNL     1      10.526  -7.948  -5.072  1.00  0.00     0.034 A 
ATOM     40  C   UNL     1      11.829  -1.703  -7.968  1.00  0.00     0.034 A 
ATOM     41  C   UNL     1      11.329  -7.983  -6.266  1.00  0.00     0.049 A 
ATOM     42  C   UNL     1      12.431  -2.967  -8.513  1.00  0.00     0.074 A 
ATOM     43  C   UNL     1      11.864  -9.084  -6.911  1.00  0.00     0.029 A 
ATOM     44  N   UNL     1      11.735  -6.866  -6.982  1.00  0.00    -0.354 N 
ATOM     45  N   UNL     1      12.229  -4.206  -8.134  1.00  0.00    -0.248 NA
ATOM     46  C   UNL     1      13.364  -2.828  -9.640  1.00  0.00     0.031 C 
ATOM     47  C   UNL     1      12.628  -8.629  -7.992  1.00  0.00     0.029 A 
ATOM     48  C   UNL     1      12.537  -7.247  -8.045  1.00  0.00     0.049 A 
ATOM     49  H   UNL     1      11.489  -5.937  -6.766  1.00  0.00     0.167 HD
ATOM     50  C   UNL     1      12.992  -4.996  -8.985  1.00  0.00     0.074 A 
ATOM     51  C   UNL     1      13.641  -4.096  -9.918  1.00  0.00     0.031 C 
ATOM     52  C   UNL     1      13.152  -6.343  -8.986  1.00  0.00     0.034 A 
BRANCH  39  53
ATOM     53  C   UNL     1      10.255  -9.241  -4.348  1.00  0.00     0.023 A 
ATOM     54  C   UNL     1       8.958  -9.796  -4.361  1.00  0.00     0.012 A 
ATOM     55  C   UNL     1      11.289  -9.923  -3.677  1.00  0.00     0.148 A 
ATOM     56  C   UNL     1       8.686 -10.983  -3.680  1.00  0.00     0.002 A 
ATOM     57  C   UNL     1      11.020 -11.129  -3.040  1.00  0.00     0.091 A 
ATOM     58  F   UNL     1      12.511  -9.371  -3.655  1.00  0.00    -0.205 F 
ATOM     59  C   UNL     1       9.717 -11.652  -3.028  1.00  0.00     0.022 A 
BRANCH  57  60
ATOM     60  S   UNL     1      12.299 -12.104  -2.239  1.00  0.00     0.127 S 
ATOM     61  O   UNL     1      11.989 -11.893  -0.826  1.00  0.00    -0.237 OA
ATOM     62  O   UNL     1      12.011 -13.452  -2.730  1.00  0.00    -0.237 OA
ATOM     63  O   UNL     1      13.567 -11.552  -2.692  1.00  0.00    -0.744 OA
ENDBRANCH  57  60
ENDBRANCH  39  53
BRANCH  40  64
ATOM     64  C   UNL     1      12.200  -0.367  -8.511  1.00  0.00     0.023 A 
ATOM     65  C   UNL     1      11.768   0.010  -9.795  1.00  0.00     0.012 A 
ATOM     66  C   UNL     1      12.925   0.555  -7.729  1.00  0.00     0.148 A 
ATOM     67  C   UNL     1      12.068   1.276 -10.300  1.00  0.00     0.002 A 
ATOM     68  C   UNL     1      13.169   1.833  -8.214  1.00  0.00     0.091 A 
ATOM     69  F   UNL     1      13.337   0.169  -6.513  1.00  0.00    -0.205 F 
ATOM     70  C   UNL     1      12.755   2.191  -9.506  1.00  0.00     0.022 A 
BRANCH  68  71
ATOM     71  S   UNL     1      13.925   3.119  -7.212  1.00  0.00     0.127 S 
ATOM     72  O   UNL     1      15.196   3.326  -7.900  1.00  0.00    -0.237 OA
ATOM     73  O   UNL     1      12.963   4.212  -7.352  1.00  0.00    -0.237 OA
ATOM     74  O   UNL     1      14.020   2.569  -5.866  1.00  0.00    -0.744 OA
ENDBRANCH  68  71
ENDBRANCH  40  64
BRANCH  52  75
ATOM     75  C   UNL     1      14.054  -6.938 -10.037  1.00  0.00     0.023 A 
ATOM     76  C   UNL     1      15.450  -6.771  -9.940  1.00  0.00     0.012 A 
ATOM     77  C   UNL     1      13.523  -7.727 -11.077  1.00  0.00     0.148 A 
ATOM     78  C   UNL     1      16.301  -7.356 -10.876  1.00  0.00     0.002 A 
ATOM     79  C   UNL     1      14.380  -8.349 -11.977  1.00  0.00     0.091 A 
ATOM     80  F   UNL     1      12.191  -7.860 -11.162  1.00  0.00    -0.205 F 
ATOM     81  C   UNL     1      15.768  -8.155 -11.886  1.00  0.00     0.022 A 
BRANCH  79  82
ATOM     82  S   UNL     1      13.796  -9.471 -13.252  1.00  0.00     0.127 S 
ATOM     83  O   UNL     1      14.080  -8.713 -14.470  1.00  0.00    -0.237 OA
ATOM     84  O   UNL     1      14.651 -10.641 -13.049  1.00  0.00    -0.237 OA
ATOM     85  O   UNL     1      12.383  -9.697 -12.977  1.00  0.00    -0.744 OA
ENDBRANCH  79  82
ENDBRANCH  52  75
ENDBRANCH  26  27
ENDBRANCH  19  21
ENDBRANCH  18  19
ENDBRANCH  17  18
ENDBRANCH   1  17
TORSDOF 17
