REMARK SMILES COc1ncccc1C[C@H](C(=O)OCCOC(=O)c1ccc(-c2c3nc(c(-c4cccc(S(=O)(=O)[O-])c4F)c4ccc([nH]4)c(-c4cccc(S(=O)(=O)[O-])c4F)c4nc(c(-c5cccc(S(=O)(=O)[O-])c5F)c5ccc2[nH]5)C=C4)C=C3)cc1)c1ccc(F)cc1
REMARK SMILES IDX 14 1 13 2 11 3 12 4 10 5 9 6 8 7 3 8 4 9 5 10 7 11 6 12 2 13
REMARK SMILES IDX 1 14 82 15 83 16 88 17 84 18 87 19 85 20 86 21 15 22 16 23
REMARK SMILES IDX 17 24 18 25 19 26 20 27 81 28 21 29 80 30 22 31 23 32 24 33
REMARK SMILES IDX 74 34 25 35 79 36 73 37 75 38 26 39 78 40 72 41 71 42 27 44
REMARK SMILES IDX 59 45 39 46 58 47 40 48 43 49 57 50 76 51 41 52 42 53 56 55
REMARK SMILES IDX 77 56 44 57 28 58 29 59 37 60 30 61 32 62 38 63 31 64 33 65
REMARK SMILES IDX 34 66 35 67 36 68 60 69 61 70 69 71 62 72 64 73 70 74 63 75
REMARK SMILES IDX 65 76 66 77 67 78 68 79 45 80 46 81 54 82 47 83 49 84 55 85
REMARK SMILES IDX 48 86 50 87 51 88 52 89 53 90
REMARK H PARENT 75 43 43 54
REMARK Flexibility Score: inf
ROOT
ATOM      1  C   UNL     1       3.786  -2.699  -2.423  1.00  0.00     0.274 C 
ENDROOT
BRANCH   1   2
ATOM      2  O   UNL     1       3.438  -1.302  -2.558  1.00  0.00    -0.462 OA
BRANCH   2   3
ATOM      3  C   UNL     1       2.824  -0.768  -1.465  1.00  0.00     0.313 C 
ATOM      4  O   UNL     1       2.609  -1.392  -0.431  1.00  0.00    -0.252 OA
BRANCH   3   5
ATOM      5  C   UNL     1       2.386   0.684  -1.685  1.00  0.00     0.134 C 
BRANCH   5   6
ATOM      6  C   UNL     1       1.152   0.831  -0.745  1.00  0.00     0.061 C 
BRANCH   6   7
ATOM      7  C   UNL     1       0.229   1.999  -0.960  1.00  0.00     0.015 A 
ATOM      8  C   UNL     1       0.262   3.211  -0.259  1.00  0.00     0.216 A 
ATOM      9  N   UNL     1      -0.577   4.233  -0.546  1.00  0.00    -0.222 NA
ATOM     10  C   UNL     1      -1.488   4.064  -1.525  1.00  0.00     0.115 A 
ATOM     11  C   UNL     1      -0.736   1.867  -1.976  1.00  0.00     0.011 A 
ATOM     12  C   UNL     1      -1.605   2.909  -2.267  1.00  0.00     0.021 A 
BRANCH   8  13
ATOM     13  O   UNL     1       1.241   3.601   0.603  1.00  0.00    -0.481 OA
ATOM     14  C   UNL     1       1.527   2.762   1.709  1.00  0.00     0.280 C 
ENDBRANCH   8  13
ENDBRANCH   6   7
ENDBRANCH   5   6
BRANCH   5  15
ATOM     15  C   UNL     1       3.473   1.728  -1.423  1.00  0.00    -0.033 A 
ATOM     16  C   UNL     1       4.725   1.393  -0.895  1.00  0.00     0.007 A 
ATOM     17  C   UNL     1       3.224   3.092  -1.657  1.00  0.00     0.007 A 
ATOM     18  C   UNL     1       5.626   2.374  -0.471  1.00  0.00     0.039 A 
ATOM     19  C   UNL     1       4.111   4.080  -1.216  1.00  0.00     0.039 A 
ATOM     20  C   UNL     1       5.295   3.711  -0.601  1.00  0.00     0.123 A 
ATOM     21  F   UNL     1       6.131   4.651  -0.141  1.00  0.00    -0.207 F 
ENDBRANCH   5  15
ENDBRANCH   3   5
ENDBRANCH   2   3
ENDBRANCH   1   2
BRANCH   1  22
ATOM     22  C   UNL     1       5.207  -2.877  -1.886  1.00  0.00     0.275 C 
BRANCH  22  23
ATOM     23  O   UNL     1       5.311  -2.308  -0.572  1.00  0.00    -0.458 OA
BRANCH  23  24
ATOM     24  C   UNL     1       6.577  -2.058  -0.153  1.00  0.00     0.338 C 
ATOM     25  O   UNL     1       7.591  -2.379  -0.750  1.00  0.00    -0.246 OA
BRANCH  24  26
ATOM     26  C   UNL     1       6.574  -1.220   1.083  1.00  0.00     0.060 A 
ATOM     27  C   UNL     1       5.400  -0.686   1.627  1.00  0.00     0.016 A 
ATOM     28  C   UNL     1       7.803  -0.859   1.643  1.00  0.00     0.016 A 
ATOM     29  C   UNL     1       5.464   0.293   2.625  1.00  0.00     0.010 A 
ATOM     30  C   UNL     1       7.856   0.046   2.710  1.00  0.00     0.010 A 
ATOM     31  C   UNL     1       6.692   0.671   3.187  1.00  0.00    -0.014 A 
BRANCH  31  32
ATOM     32  C   UNL     1       6.787   1.715   4.253  1.00  0.00     0.031 A 
ATOM     33  C   UNL     1       7.685   2.917   4.073  1.00  0.00     0.074 A 
ATOM     34  C   UNL     1       6.111   1.577   5.412  1.00  0.00     0.049 A 
ATOM     35  N   UNL     1       8.075   3.802   4.956  1.00  0.00    -0.248 NA
ATOM     36  C   UNL     1       8.224   3.148   2.724  1.00  0.00     0.031 C 
ATOM     37  C   UNL     1       5.183   0.492   5.729  1.00  0.00     0.029 A 
ATOM     38  N   UNL     1       6.123   2.346   6.552  1.00  0.00    -0.354 N 
ATOM     39  C   UNL     1       8.948   4.654   4.287  1.00  0.00     0.074 A 
ATOM     40  C   UNL     1       9.028   4.184   2.921  1.00  0.00     0.031 C 
ATOM     41  C   UNL     1       4.705   0.668   6.970  1.00  0.00     0.029 A 
ATOM     42  C   UNL     1       5.361   1.825   7.572  1.00  0.00     0.049 A 
ATOM     43  H   UNL     1       6.627   3.188   6.630  1.00  0.00     0.167 HD
ATOM     44  C   UNL     1       9.618   5.735   4.758  1.00  0.00     0.034 A 
ATOM     45  C   UNL     1       5.237   2.193   8.863  1.00  0.00     0.034 A 
ATOM     46  C   UNL     1       9.501   6.244   6.099  1.00  0.00     0.049 A 
ATOM     47  C   UNL     1       6.024   3.364   9.377  1.00  0.00     0.074 A 
ATOM     48  C   UNL     1      10.121   7.349   6.658  1.00  0.00     0.029 A 
ATOM     49  N   UNL     1       8.704   5.692   7.089  1.00  0.00    -0.354 N 
ATOM     50  N   UNL     1       6.827   4.169   8.726  1.00  0.00    -0.248 NA
ATOM     51  C   UNL     1       5.884   3.680  10.806  1.00  0.00     0.031 C 
ATOM     52  C   UNL     1       9.709   7.457   7.992  1.00  0.00     0.029 A 
ATOM     53  C   UNL     1       8.820   6.428   8.258  1.00  0.00     0.049 A 
ATOM     54  H   UNL     1       8.139   4.894   6.979  1.00  0.00     0.167 HD
ATOM     55  C   UNL     1       7.269   5.101   9.658  1.00  0.00     0.074 A 
ATOM     56  C   UNL     1       6.628   4.773  10.915  1.00  0.00     0.031 C 
ATOM     57  C   UNL     1       8.142   6.125   9.491  1.00  0.00     0.034 A 
BRANCH  44  58
ATOM     58  C   UNL     1      10.526   6.467   3.803  1.00  0.00     0.023 A 
ATOM     59  C   UNL     1       9.972   7.301   2.812  1.00  0.00     0.012 A 
ATOM     60  C   UNL     1      11.928   6.380   3.926  1.00  0.00     0.148 A 
ATOM     61  C   UNL     1      10.796   8.015   1.942  1.00  0.00     0.002 A 
ATOM     62  C   UNL     1      12.743   7.125   3.080  1.00  0.00     0.091 A 
ATOM     63  F   UNL     1      12.441   5.561   4.856  1.00  0.00    -0.205 F 
ATOM     64  C   UNL     1      12.179   7.936   2.083  1.00  0.00     0.022 A 
BRANCH  62  65
ATOM     65  S   UNL     1      14.533   7.137   3.243  1.00  0.00     0.127 S 
ATOM     66  O   UNL     1      14.934   6.216   2.181  1.00  0.00    -0.237 OA
ATOM     67  O   UNL     1      14.863   8.540   2.989  1.00  0.00    -0.237 OA
ATOM     68  O   UNL     1      14.807   6.693   4.603  1.00  0.00    -0.744 OA
ENDBRANCH  62  65
ENDBRANCH  44  58
BRANCH  45  69
ATOM     69  C   UNL     1       4.309   1.439   9.753  1.00  0.00     0.023 A 
ATOM     70  C   UNL     1       3.126   2.059  10.196  1.00  0.00     0.012 A 
ATOM     71  C   UNL     1       4.551   0.095  10.099  1.00  0.00     0.148 A 
ATOM     72  C   UNL     1       2.202   1.356  10.970  1.00  0.00     0.002 A 
ATOM     73  C   UNL     1       3.596  -0.620  10.811  1.00  0.00     0.091 A 
ATOM     74  F   UNL     1       5.699  -0.469   9.697  1.00  0.00    -0.205 F 
ATOM     75  C   UNL     1       2.427   0.013  11.261  1.00  0.00     0.022 A 
BRANCH  73  76
ATOM     76  S   UNL     1       3.733  -2.392  11.073  1.00  0.00     0.127 S 
ATOM     77  O   UNL     1       4.119  -2.459  12.480  1.00  0.00    -0.237 OA
ATOM     78  O   UNL     1       2.373  -2.851  10.784  1.00  0.00    -0.237 OA
ATOM     79  O   UNL     1       4.730  -2.849  10.114  1.00  0.00    -0.744 OA
ENDBRANCH  73  76
ENDBRANCH  45  69
BRANCH  57  80
ATOM     80  C   UNL     1       8.440   6.985  10.690  1.00  0.00     0.023 A 
ATOM     81  C   UNL     1       9.273   6.490  11.713  1.00  0.00     0.012 A 
ATOM     82  C   UNL     1       7.936   8.298  10.783  1.00  0.00     0.148 A 
ATOM     83  C   UNL     1       9.575   7.276  12.824  1.00  0.00     0.002 A 
ATOM     84  C   UNL     1       8.274   9.090  11.875  1.00  0.00     0.091 A 
ATOM     85  F   UNL     1       7.126   8.744   9.812  1.00  0.00    -0.205 F 
ATOM     86  C   UNL     1       9.084   8.578  12.901  1.00  0.00     0.022 A 
BRANCH  84  87
ATOM     87  S   UNL     1       7.749  10.803  12.008  1.00  0.00     0.127 S 
ATOM     88  O   UNL     1       6.624  10.699  12.936  1.00  0.00    -0.237 OA
ATOM     89  O   UNL     1       8.936  11.456  12.562  1.00  0.00    -0.237 OA
ATOM     90  O   UNL     1       7.414  11.220  10.653  1.00  0.00    -0.744 OA
ENDBRANCH  84  87
ENDBRANCH  57  80
ENDBRANCH  31  32
ENDBRANCH  24  26
ENDBRANCH  23  24
ENDBRANCH  22  23
ENDBRANCH   1  22
TORSDOF 18
