REMARK SMILES Cc1cc(C)n([C@@H](C(=O)OCCOC(=O)c2ccc(-c3c4nc(c(-c5cccc(S(=O)(=O)[O-])c5F)c5ccc([nH]5)c(-c5cccc(S(=O)(=O)[O-])c5F)c5nc(c(-c6cccc(S(=O)(=O)[O-])c6F)c6ccc3[nH]6)C=C5)C=C4)cc2)C(C)C)n1
REMARK SMILES IDX 12 1 11 2 10 3 8 4 9 5 7 6 6 7 1 8 2 9 3 10 82 11 4 12 5 13
REMARK SMILES IDX 79 14 80 15 81 16 13 17 14 18 15 19 16 20 17 21 78 22 18 23
REMARK SMILES IDX 77 24 19 25 20 26 21 27 71 28 22 29 76 30 70 31 72 32 23 33
REMARK SMILES IDX 75 34 69 35 68 36 24 38 56 39 36 40 55 41 37 42 40 43 54 44
REMARK SMILES IDX 73 45 38 46 39 47 53 49 74 50 41 51 25 52 26 53 34 54 27 55
REMARK SMILES IDX 29 56 35 57 28 58 30 59 31 60 32 61 33 62 57 63 58 64 66 65
REMARK SMILES IDX 59 66 61 67 67 68 60 69 62 70 63 71 64 72 65 73 42 74 43 75
REMARK SMILES IDX 51 76 44 77 46 78 52 79 45 80 47 81 48 82 49 83 50 84
REMARK H PARENT 72 37 40 48
REMARK Flexibility Score: inf
ROOT
ATOM      1  C   UNL     1       2.625  -1.359  -6.968  1.00  0.00     0.275 C 
ENDROOT
BRANCH   1   2
ATOM      2  C   UNL     1       2.271   0.077  -6.591  1.00  0.00     0.274 C 
BRANCH   2   3
ATOM      3  O   UNL     1       1.435   0.056  -5.414  1.00  0.00    -0.460 OA
BRANCH   3   4
ATOM      4  C   UNL     1       0.203   0.627  -5.531  1.00  0.00     0.331 C 
ATOM      5  O   UNL     1      -0.107   1.362  -6.469  1.00  0.00    -0.250 OA
BRANCH   4   6
ATOM      6  C   UNL     1      -0.764   0.286  -4.393  1.00  0.00     0.219 C 
BRANCH   6   7
ATOM      7  N   UNL     1      -0.111  -0.321  -3.213  1.00  0.00    -0.255 N 
ATOM      8  C   UNL     1       1.101   0.375   0.065  1.00  0.00     0.069 C 
ATOM      9  C   UNL     1       0.683  -0.211  -1.225  1.00  0.00     0.060 A 
ATOM     10  C   UNL     1       0.639  -1.569  -1.548  1.00  0.00     0.048 A 
ATOM     11  N   UNL     1       0.260   0.554  -2.232  1.00  0.00    -0.177 NA
ATOM     12  C   UNL     1       0.083  -1.633  -2.808  1.00  0.00     0.037 A 
ATOM     13  C   UNL     1      -0.237  -2.889  -3.518  1.00  0.00     0.066 C 
ENDBRANCH   6   7
BRANCH   6  14
ATOM     14  C   UNL     1      -2.133  -0.353  -4.791  1.00  0.00     0.019 C 
ATOM     15  C   UNL     1      -3.153  -0.172  -3.658  1.00  0.00     0.010 C 
ATOM     16  C   UNL     1      -2.751   0.190  -6.088  1.00  0.00     0.010 C 
ENDBRANCH   6  14
ENDBRANCH   4   6
ENDBRANCH   3   4
ENDBRANCH   2   3
ENDBRANCH   1   2
BRANCH   1  17
ATOM     17  O   UNL     1       1.659  -2.005  -7.818  1.00  0.00    -0.458 OA
BRANCH  17  18
ATOM     18  C   UNL     1       0.506  -2.362  -7.221  1.00  0.00     0.338 C 
ATOM     19  O   UNL     1      -0.215  -1.645  -6.547  1.00  0.00    -0.246 OA
BRANCH  18  20
ATOM     20  C   UNL     1       0.300  -3.805  -7.239  1.00  0.00     0.060 A 
ATOM     21  C   UNL     1      -0.714  -4.303  -6.408  1.00  0.00     0.016 A 
ATOM     22  C   UNL     1       1.199  -4.649  -7.887  1.00  0.00     0.016 A 
ATOM     23  C   UNL     1      -0.717  -5.634  -6.075  1.00  0.00     0.010 A 
ATOM     24  C   UNL     1       1.144  -5.998  -7.621  1.00  0.00     0.010 A 
ATOM     25  C   UNL     1       0.227  -6.470  -6.677  1.00  0.00    -0.014 A 
BRANCH  25  26
ATOM     26  C   UNL     1       0.007  -7.900  -6.549  1.00  0.00     0.031 A 
ATOM     27  C   UNL     1      -1.332  -8.285  -7.091  1.00  0.00     0.074 A 
ATOM     28  C   UNL     1       0.992  -8.737  -6.168  1.00  0.00     0.049 A 
ATOM     29  N   UNL     1      -2.298  -8.885  -6.476  1.00  0.00    -0.248 NA
ATOM     30  C   UNL     1      -1.727  -7.724  -8.403  1.00  0.00     0.031 C 
ATOM     31  C   UNL     1       2.388  -8.394  -5.883  1.00  0.00     0.029 A 
ATOM     32  N   UNL     1       1.006 -10.096  -6.142  1.00  0.00    -0.354 N 
ATOM     33  C   UNL     1      -3.306  -9.014  -7.431  1.00  0.00     0.074 A 
ATOM     34  C   UNL     1      -3.009  -8.079  -8.478  1.00  0.00     0.031 C 
ATOM     35  C   UNL     1       3.150  -9.501  -6.023  1.00  0.00     0.029 A 
ATOM     36  C   UNL     1       2.285 -10.635  -6.293  1.00  0.00     0.049 A 
ATOM     37  H   UNL     1       0.196 -10.645  -6.027  1.00  0.00     0.167 HD
ATOM     38  C   UNL     1      -4.103 -10.115  -7.455  1.00  0.00     0.034 A 
ATOM     39  C   UNL     1       2.595 -11.884  -6.733  1.00  0.00     0.034 A 
ATOM     40  C   UNL     1      -4.124 -10.772  -6.176  1.00  0.00     0.049 A 
ATOM     41  C   UNL     1       1.369 -12.709  -6.617  1.00  0.00     0.074 A 
ATOM     42  C   UNL     1      -4.429 -10.368  -4.890  1.00  0.00     0.029 A 
ATOM     43  N   UNL     1      -3.375 -11.915  -6.049  1.00  0.00    -0.354 N 
ATOM     44  N   UNL     1       0.819 -13.016  -5.476  1.00  0.00    -0.248 NA
ATOM     45  C   UNL     1       0.493 -12.772  -7.777  1.00  0.00     0.031 C 
ATOM     46  C   UNL     1      -3.442 -10.991  -4.073  1.00  0.00     0.029 A 
ATOM     47  C   UNL     1      -2.660 -11.812  -4.886  1.00  0.00     0.049 A 
ATOM     48  H   UNL     1      -3.356 -12.671  -6.679  1.00  0.00     0.167 HD
ATOM     49  C   UNL     1      -0.539 -12.831  -5.697  1.00  0.00     0.074 A 
ATOM     50  C   UNL     1      -0.688 -12.771  -7.152  1.00  0.00     0.031 C 
ATOM     51  C   UNL     1      -1.367 -12.427  -4.689  1.00  0.00     0.034 A 
BRANCH  38  52
ATOM     52  C   UNL     1      -4.500 -10.819  -8.733  1.00  0.00     0.023 A 
ATOM     53  C   UNL     1      -5.443 -11.863  -8.634  1.00  0.00     0.012 A 
ATOM     54  C   UNL     1      -3.804 -10.703  -9.961  1.00  0.00     0.148 A 
ATOM     55  C   UNL     1      -5.649 -12.764  -9.685  1.00  0.00     0.002 A 
ATOM     56  C   UNL     1      -4.078 -11.541 -11.033  1.00  0.00     0.091 A 
ATOM     57  F   UNL     1      -2.761  -9.878 -10.070  1.00  0.00    -0.205 F 
ATOM     58  C   UNL     1      -4.977 -12.597 -10.890  1.00  0.00     0.022 A 
BRANCH  56  59
ATOM     59  S   UNL     1      -3.272 -11.323 -12.626  1.00  0.00     0.127 S 
ATOM     60  O   UNL     1      -2.376 -12.475 -12.659  1.00  0.00    -0.237 OA
ATOM     61  O   UNL     1      -4.409 -11.392 -13.544  1.00  0.00    -0.237 OA
ATOM     62  O   UNL     1      -2.632 -10.015 -12.567  1.00  0.00    -0.744 OA
ENDBRANCH  56  59
ENDBRANCH  38  52
BRANCH  39  63
ATOM     63  C   UNL     1       3.753 -12.335  -7.549  1.00  0.00     0.023 A 
ATOM     64  C   UNL     1       4.068 -13.709  -7.619  1.00  0.00     0.012 A 
ATOM     65  C   UNL     1       4.379 -11.470  -8.474  1.00  0.00     0.148 A 
ATOM     66  C   UNL     1       4.952 -14.203  -8.588  1.00  0.00     0.002 A 
ATOM     67  C   UNL     1       5.266 -11.962  -9.427  1.00  0.00     0.091 A 
ATOM     68  F   UNL     1       4.033 -10.176  -8.485  1.00  0.00    -0.205 F 
ATOM     69  C   UNL     1       5.547 -13.331  -9.496  1.00  0.00     0.022 A 
BRANCH  67  70
ATOM     70  S   UNL     1       6.052 -10.892 -10.641  1.00  0.00     0.127 S 
ATOM     71  O   UNL     1       7.454 -11.299 -10.540  1.00  0.00    -0.237 OA
ATOM     72  O   UNL     1       5.385 -11.293 -11.876  1.00  0.00    -0.237 OA
ATOM     73  O   UNL     1       5.793  -9.528 -10.195  1.00  0.00    -0.744 OA
ENDBRANCH  67  70
ENDBRANCH  39  63
BRANCH  51  74
ATOM     74  C   UNL     1      -0.826 -12.409  -3.282  1.00  0.00     0.023 A 
ATOM     75  C   UNL     1       0.242 -11.581  -2.874  1.00  0.00     0.012 A 
ATOM     76  C   UNL     1      -1.538 -13.125  -2.307  1.00  0.00     0.148 A 
ATOM     77  C   UNL     1       0.603 -11.490  -1.525  1.00  0.00     0.002 A 
ATOM     78  C   UNL     1      -1.208 -12.995  -0.966  1.00  0.00     0.091 A 
ATOM     79  F   UNL     1      -2.552 -13.905  -2.711  1.00  0.00    -0.205 F 
ATOM     80  C   UNL     1      -0.132 -12.187  -0.569  1.00  0.00     0.022 A 
BRANCH  78  81
ATOM     81  S   UNL     1      -2.198 -13.773   0.311  1.00  0.00     0.127 S 
ATOM     82  O   UNL     1      -1.347 -14.889   0.717  1.00  0.00    -0.237 OA
ATOM     83  O   UNL     1      -2.324 -12.705   1.305  1.00  0.00    -0.237 OA
ATOM     84  O   UNL     1      -3.457 -14.141  -0.326  1.00  0.00    -0.744 OA
ENDBRANCH  78  81
ENDBRANCH  51  74
ENDBRANCH  25  26
ENDBRANCH  18  20
ENDBRANCH  17  18
ENDBRANCH   1  17
TORSDOF 16
