REMARK SMILES O=C(Cc1c[nH]c(=O)n(Cc2ccccc2)c1=O)OCCOC(=O)c1ccc(-c2c3nc(c(-c4cccc(S(=O)(=O)[O-])c4F)c4ccc([nH]4)c(-c4cccc(S(=O)(=O)[O-])c4F)c4nc(c(-c5cccc(S(=O)(=O)[O-])c5F)c5ccc2[nH]5)C=C4)C=C3)cc1
REMARK SMILES IDX 20 1 19 2 2 3 1 4 3 5 4 6 5 7 17 8 6 9 9 10 18 11 7 12 8 14
REMARK SMILES IDX 10 15 11 16 12 17 16 18 13 19 15 20 14 21 21 22 22 23 23 24
REMARK SMILES IDX 24 25 25 26 26 27 87 28 27 29 86 30 28 31 29 32 30 33 80 34
REMARK SMILES IDX 31 35 85 36 79 37 81 38 32 39 84 40 78 41 77 42 33 44 65 45
REMARK SMILES IDX 45 46 64 47 46 48 49 49 63 50 82 51 47 52 48 53 62 55 83 56
REMARK SMILES IDX 50 57 34 58 35 59 43 60 36 61 38 62 44 63 37 64 39 65 40 66
REMARK SMILES IDX 41 67 42 68 66 69 67 70 75 71 68 72 70 73 76 74 69 75 71 76
REMARK SMILES IDX 72 77 73 78 74 79 51 80 52 81 60 82 53 83 55 84 61 85 54 86
REMARK SMILES IDX 56 87 57 88 58 89 59 90
REMARK H PARENT 6 13 81 43 49 54
REMARK Flexibility Score: inf
ROOT
ATOM      1  C   UNL     1       4.073   1.119  -0.803  1.00  0.00     0.274 C 
ENDROOT
BRANCH   1   2
ATOM      2  O   UNL     1       2.730   0.616  -0.942  1.00  0.00    -0.462 OA
BRANCH   2   3
ATOM      3  C   UNL     1       2.449  -0.693  -0.691  1.00  0.00     0.310 C 
ATOM      4  O   UNL     1       1.745  -1.335  -1.462  1.00  0.00    -0.252 OA
BRANCH   3   5
ATOM      5  C   UNL     1       2.942  -1.240   0.638  1.00  0.00     0.165 C 
BRANCH   5   6
ATOM      6  C   UNL     1       3.941  -2.343   0.532  1.00  0.00     0.045 A 
ATOM      7  C   UNL     1       5.259  -2.158   0.662  1.00  0.00     0.097 A 
ATOM      8  C   UNL     1       3.434  -3.736   0.432  1.00  0.00     0.260 A 
ATOM      9  N   UNL     1       6.126  -3.201   0.645  1.00  0.00    -0.314 N 
ATOM     10  N   UNL     1       4.394  -4.734   0.372  1.00  0.00    -0.256 N 
ATOM     11  O   UNL     1       2.223  -3.939   0.442  1.00  0.00    -0.269 OA
ATOM     12  C   UNL     1       5.752  -4.509   0.508  1.00  0.00     0.328 A 
ATOM     13  H   UNL     1       7.086  -3.004   0.738  1.00  0.00     0.171 HD
ATOM     14  O   UNL     1       6.622  -5.377   0.507  1.00  0.00    -0.248 OA
BRANCH  10  15
ATOM     15  C   UNL     1       3.944  -6.094   0.127  1.00  0.00     0.166 C 
BRANCH  15  16
ATOM     16  C   UNL     1       3.843  -6.337  -1.365  1.00  0.00    -0.028 A 
ATOM     17  C   UNL     1       4.999  -6.560  -2.128  1.00  0.00     0.005 A 
ATOM     18  C   UNL     1       2.607  -6.236  -2.018  1.00  0.00     0.005 A 
ATOM     19  C   UNL     1       4.923  -6.664  -3.516  1.00  0.00     0.000 A 
ATOM     20  C   UNL     1       2.531  -6.353  -3.406  1.00  0.00     0.000 A 
ATOM     21  C   UNL     1       3.689  -6.560  -4.154  1.00  0.00     0.000 A 
ENDBRANCH  15  16
ENDBRANCH  10  15
ENDBRANCH   5   6
ENDBRANCH   3   5
ENDBRANCH   2   3
ENDBRANCH   1   2
BRANCH   1  22
ATOM     22  C   UNL     1       4.163   2.268   0.206  1.00  0.00     0.275 C 
BRANCH  22  23
ATOM     23  O   UNL     1       3.885   1.804   1.539  1.00  0.00    -0.458 OA
BRANCH  23  24
ATOM     24  C   UNL     1       2.598   1.952   1.957  1.00  0.00     0.338 C 
ATOM     25  O   UNL     1       1.717   2.553   1.367  1.00  0.00    -0.246 OA
BRANCH  24  26
ATOM     26  C   UNL     1       2.362   1.079   3.137  1.00  0.00     0.060 A 
ATOM     27  C   UNL     1       3.370   0.796   4.065  1.00  0.00     0.016 A 
ATOM     28  C   UNL     1       1.107   0.468   3.267  1.00  0.00     0.016 A 
ATOM     29  C   UNL     1       3.115  -0.084   5.122  1.00  0.00     0.010 A 
ATOM     30  C   UNL     1       0.853  -0.409   4.328  1.00  0.00     0.010 A 
ATOM     31  C   UNL     1       1.851  -0.683   5.272  1.00  0.00    -0.014 A 
BRANCH  31  32
ATOM     32  C   UNL     1       1.538  -1.443   6.510  1.00  0.00     0.031 A 
ATOM     33  C   UNL     1       1.458  -2.942   6.543  1.00  0.00     0.074 A 
ATOM     34  C   UNL     1       1.303  -0.742   7.636  1.00  0.00     0.049 A 
ATOM     35  N   UNL     1       1.348  -3.725   7.586  1.00  0.00    -0.248 NA
ATOM     36  C   UNL     1       1.501  -3.654   5.258  1.00  0.00     0.031 C 
ATOM     37  C   UNL     1       1.273   0.720   7.720  1.00  0.00     0.029 A 
ATOM     38  N   UNL     1       1.048  -1.156   8.919  1.00  0.00    -0.354 N 
ATOM     39  C   UNL     1       1.300  -5.021   7.091  1.00  0.00     0.074 A 
ATOM     40  C   UNL     1       1.381  -4.920   5.648  1.00  0.00     0.031 C 
ATOM     41  C   UNL     1       1.041   1.080   8.991  1.00  0.00     0.029 A 
ATOM     42  C   UNL     1       0.899  -0.121   9.810  1.00  0.00     0.049 A 
ATOM     43  H   UNL     1       0.978  -2.104   9.176  1.00  0.00     0.167 HD
ATOM     44  C   UNL     1       1.217  -6.185   7.781  1.00  0.00     0.034 A 
ATOM     45  C   UNL     1       0.695  -0.126  11.142  1.00  0.00     0.034 A 
ATOM     46  C   UNL     1       1.155  -6.285   9.216  1.00  0.00     0.049 A 
ATOM     47  C   UNL     1       0.634  -1.430  11.882  1.00  0.00     0.074 A 
ATOM     48  C   UNL     1       1.181  -7.430   9.996  1.00  0.00     0.029 A 
ATOM     49  N   UNL     1       1.028  -5.215  10.086  1.00  0.00    -0.354 N 
ATOM     50  N   UNL     1       0.790  -2.644  11.416  1.00  0.00    -0.248 NA
ATOM     51  C   UNL     1       0.401  -1.366  13.333  1.00  0.00     0.031 C 
ATOM     52  C   UNL     1       1.050  -7.054  11.335  1.00  0.00     0.029 A 
ATOM     53  C   UNL     1       0.955  -5.674  11.391  1.00  0.00     0.049 A 
ATOM     54  H   UNL     1       0.994  -4.269   9.817  1.00  0.00     0.167 HD
ATOM     55  C   UNL     1       0.700  -3.487  12.517  1.00  0.00     0.074 A 
ATOM     56  C   UNL     1       0.483  -2.647  13.676  1.00  0.00     0.031 C 
ATOM     57  C   UNL     1       0.783  -4.838  12.551  1.00  0.00     0.034 A 
BRANCH  44  58
ATOM     58  C   UNL     1       1.264  -7.478   7.013  1.00  0.00     0.023 A 
ATOM     59  C   UNL     1       2.514  -7.966   6.584  1.00  0.00     0.012 A 
ATOM     60  C   UNL     1       0.116  -8.280   6.863  1.00  0.00     0.148 A 
ATOM     61  C   UNL     1       2.622  -9.233   6.013  1.00  0.00     0.002 A 
ATOM     62  C   UNL     1       0.235  -9.553   6.316  1.00  0.00     0.091 A 
ATOM     63  F   UNL     1      -1.062  -7.791   7.277  1.00  0.00    -0.205 F 
ATOM     64  C   UNL     1       1.486 -10.029   5.889  1.00  0.00     0.022 A 
BRANCH  62  65
ATOM     65  S   UNL     1      -1.152 -10.687   6.174  1.00  0.00     0.127 S 
ATOM     66  O   UNL     1      -1.311 -10.775   4.722  1.00  0.00    -0.237 OA
ATOM     67  O   UNL     1      -0.625 -11.897   6.803  1.00  0.00    -0.237 OA
ATOM     68  O   UNL     1      -2.260 -10.061   6.882  1.00  0.00    -0.744 OA
ENDBRANCH  62  65
ENDBRANCH  44  58
BRANCH  45  69
ATOM     69  C   UNL     1       0.647   1.171  11.864  1.00  0.00     0.023 A 
ATOM     70  C   UNL     1       1.781   1.590  12.585  1.00  0.00     0.012 A 
ATOM     71  C   UNL     1      -0.467   2.025  11.762  1.00  0.00     0.148 A 
ATOM     72  C   UNL     1       1.806   2.842  13.198  1.00  0.00     0.002 A 
ATOM     73  C   UNL     1      -0.420   3.286  12.344  1.00  0.00     0.091 A 
ATOM     74  F   UNL     1      -1.529   1.599  11.065  1.00  0.00    -0.205 F 
ATOM     75  C   UNL     1       0.711   3.692  13.069  1.00  0.00     0.022 A 
BRANCH  73  76
ATOM     76  S   UNL     1      -1.734   4.494  12.148  1.00  0.00     0.127 S 
ATOM     77  O   UNL     1      -2.167   4.690  13.529  1.00  0.00    -0.237 OA
ATOM     78  O   UNL     1      -1.012   5.624  11.562  1.00  0.00    -0.237 OA
ATOM     79  O   UNL     1      -2.715   3.876  11.268  1.00  0.00    -0.744 OA
ENDBRANCH  73  76
ENDBRANCH  45  69
BRANCH  57  80
ATOM     80  C   UNL     1       0.649  -5.530  13.880  1.00  0.00     0.023 A 
ATOM     81  C   UNL     1      -0.634  -5.733  14.425  1.00  0.00     0.012 A 
ATOM     82  C   UNL     1       1.771  -6.102  14.512  1.00  0.00     0.148 A 
ATOM     83  C   UNL     1      -0.798  -6.495  15.581  1.00  0.00     0.002 A 
ATOM     84  C   UNL     1       1.596  -6.888  15.645  1.00  0.00     0.091 A 
ATOM     85  F   UNL     1       2.981  -5.889  13.975  1.00  0.00    -0.205 F 
ATOM     86  C   UNL     1       0.313  -7.082  16.183  1.00  0.00     0.022 A 
BRANCH  84  87
ATOM     87  S   UNL     1       2.952  -7.747  16.453  1.00  0.00     0.127 S 
ATOM     88  O   UNL     1       2.962  -7.115  17.772  1.00  0.00    -0.237 OA
ATOM     89  O   UNL     1       2.487  -9.133  16.443  1.00  0.00    -0.237 OA
ATOM     90  O   UNL     1       4.135  -7.493  15.641  1.00  0.00    -0.744 OA
ENDBRANCH  84  87
ENDBRANCH  57  80
ENDBRANCH  31  32
ENDBRANCH  24  26
ENDBRANCH  23  24
ENDBRANCH  22  23
ENDBRANCH   1  22
TORSDOF 17
