REMARK SMILES Cc1c(CC(=O)OCCOC(=O)c2ccc(-c3c4nc(c(-c5cccc(S(=O)(=O)[O-])c5F)c5ccc([nH]5)c(-c5cccc(S(=O)(=O)[O-])c5F)c5nc(c(-c6cccc(S(=O)(=O)[O-])c6F)c6ccc3[nH]6)C=C5)C=C4)cc2)c2ccccc2n1C(=O)c1ccc(Cl)cc1
REMARK SMILES IDX 8 1 7 2 5 3 6 4 4 5 3 6 1 7 2 8 82 9 76 10 81 11 77 12 80 13
REMARK SMILES IDX 78 14 79 15 83 16 84 17 85 18 86 19 91 20 87 21 90 22 88 23
REMARK SMILES IDX 89 24 9 25 10 26 11 27 12 28 13 29 14 30 75 31 15 32 74 33
REMARK SMILES IDX 16 34 17 35 18 36 68 37 19 38 73 39 67 40 69 41 20 42 72 43
REMARK SMILES IDX 66 44 65 45 21 47 53 48 33 49 52 50 34 51 37 52 51 53 70 54
REMARK SMILES IDX 35 55 36 56 50 58 71 59 38 60 22 61 23 62 31 63 24 64 26 65
REMARK SMILES IDX 32 66 25 67 27 68 28 69 29 70 30 71 54 72 55 73 63 74 56 75
REMARK SMILES IDX 58 76 64 77 57 78 59 79 60 80 61 81 62 82 39 83 40 84 48 85
REMARK SMILES IDX 41 86 43 87 49 88 42 89 44 90 45 91 46 92 47 93
REMARK H PARENT 69 46 37 57
REMARK Flexibility Score: inf
ROOT
ATOM      1  C   UNL     1       3.727  -3.621   3.272  1.00  0.00     0.274 C 
ENDROOT
BRANCH   1   2
ATOM      2  O   UNL     1       2.855  -3.039   2.279  1.00  0.00    -0.462 OA
BRANCH   2   3
ATOM      3  C   UNL     1       3.459  -2.293   1.319  1.00  0.00     0.310 C 
ATOM      4  O   UNL     1       4.672  -2.103   1.268  1.00  0.00    -0.252 OA
BRANCH   3   5
ATOM      5  C   UNL     1       2.530  -1.691   0.295  1.00  0.00     0.160 C 
BRANCH   5   6
ATOM      6  C   UNL     1       1.039  -1.853   0.445  1.00  0.00    -0.008 A 
ATOM      7  C   UNL     1       0.372   0.660   0.324  1.00  0.00     0.065 C 
ATOM      8  C   UNL     1       0.119  -0.812   0.439  1.00  0.00     0.028 A 
ATOM      9  N   UNL     1      -1.171  -1.342   0.532  1.00  0.00    -0.280 N 
ATOM     10  C   UNL     1       0.281  -3.066   0.402  1.00  0.00     0.004 A 
ATOM     11  C   UNL     1      -1.077  -2.731   0.361  1.00  0.00     0.056 A 
ATOM     12  C   UNL     1       0.627  -4.432   0.329  1.00  0.00     0.010 A 
ATOM     13  C   UNL     1      -2.054  -3.737   0.163  1.00  0.00     0.027 A 
ATOM     14  C   UNL     1      -0.338  -5.426   0.153  1.00  0.00     0.001 A 
ATOM     15  C   UNL     1      -1.670  -5.076   0.064  1.00  0.00     0.002 A 
BRANCH   9  16
ATOM     16  C   UNL     1      -2.362  -0.594   0.741  1.00  0.00     0.262 C 
ATOM     17  O   UNL     1      -2.312   0.634   0.785  1.00  0.00    -0.268 OA
BRANCH  16  18
ATOM     18  C   UNL     1      -3.690  -1.182   0.944  1.00  0.00     0.040 A 
ATOM     19  C   UNL     1      -3.961  -1.927   2.097  1.00  0.00     0.015 A 
ATOM     20  C   UNL     1      -4.654  -1.015  -0.055  1.00  0.00     0.015 A 
ATOM     21  C   UNL     1      -5.196  -2.562   2.220  1.00  0.00     0.021 A 
ATOM     22  C   UNL     1      -5.887  -1.652   0.076  1.00  0.00     0.021 A 
ATOM     23  C   UNL     1      -6.148  -2.430   1.206  1.00  0.00     0.041 A 
ATOM     24  Cl  UNL     1      -7.653  -3.253   1.342  1.00  0.00    -0.084 Cl
ENDBRANCH  16  18
ENDBRANCH   9  16
ENDBRANCH   5   6
ENDBRANCH   3   5
ENDBRANCH   2   3
ENDBRANCH   1   2
BRANCH   1  25
ATOM     25  C   UNL     1       3.925  -5.117   3.011  1.00  0.00     0.275 C 
BRANCH  25  26
ATOM     26  O   UNL     1       4.762  -5.274   1.858  1.00  0.00    -0.458 OA
BRANCH  26  27
ATOM     27  C   UNL     1       4.200  -5.824   0.755  1.00  0.00     0.338 C 
ATOM     28  O   UNL     1       3.223  -6.550   0.703  1.00  0.00    -0.246 OA
BRANCH  27  29
ATOM     29  C   UNL     1       4.795  -5.102  -0.384  1.00  0.00     0.060 A 
ATOM     30  C   UNL     1       6.168  -4.858  -0.414  1.00  0.00     0.016 A 
ATOM     31  C   UNL     1       3.935  -4.489  -1.304  1.00  0.00     0.016 A 
ATOM     32  C   UNL     1       6.662  -3.917  -1.304  1.00  0.00     0.010 A 
ATOM     33  C   UNL     1       4.424  -3.514  -2.162  1.00  0.00     0.010 A 
ATOM     34  C   UNL     1       5.782  -3.212  -2.140  1.00  0.00    -0.014 A 
BRANCH  34  35
ATOM     35  C   UNL     1       6.369  -2.412  -3.197  1.00  0.00     0.031 A 
ATOM     36  C   UNL     1       6.771  -3.227  -4.364  1.00  0.00     0.074 A 
ATOM     37  C   UNL     1       6.567  -1.085  -3.250  1.00  0.00     0.049 A 
ATOM     38  N   UNL     1       7.955  -3.684  -4.600  1.00  0.00    -0.248 NA
ATOM     39  C   UNL     1       5.733  -3.692  -5.288  1.00  0.00     0.031 C 
ATOM     40  C   UNL     1       6.008  -0.015  -2.433  1.00  0.00     0.029 A 
ATOM     41  N   UNL     1       7.318  -0.421  -4.175  1.00  0.00    -0.354 N 
ATOM     42  C   UNL     1       7.859  -4.341  -5.816  1.00  0.00     0.074 A 
ATOM     43  C   UNL     1       6.452  -4.452  -6.115  1.00  0.00     0.031 C 
ATOM     44  C   UNL     1       6.280   1.175  -3.027  1.00  0.00     0.029 A 
ATOM     45  C   UNL     1       7.155   0.953  -4.171  1.00  0.00     0.049 A 
ATOM     46  H   UNL     1       7.926  -0.883  -4.796  1.00  0.00     0.167 HD
ATOM     47  C   UNL     1       8.954  -4.574  -6.586  1.00  0.00     0.034 A 
ATOM     48  C   UNL     1       7.677   1.802  -5.089  1.00  0.00     0.034 A 
ATOM     49  C   UNL     1      10.186  -4.327  -5.887  1.00  0.00     0.049 A 
ATOM     50  C   UNL     1       8.871   1.130  -5.671  1.00  0.00     0.074 A 
ATOM     51  C   UNL     1      10.751  -4.787  -4.713  1.00  0.00     0.029 A 
ATOM     52  N   UNL     1      10.880  -3.187  -6.214  1.00  0.00    -0.354 N 
ATOM     53  N   UNL     1       9.977   0.898  -5.017  1.00  0.00    -0.248 NA
ATOM     54  C   UNL     1       8.731   0.411  -6.928  1.00  0.00     0.031 C 
ATOM     55  C   UNL     1      11.412  -3.655  -4.154  1.00  0.00     0.029 A 
ATOM     56  C   UNL     1      11.227  -2.586  -5.033  1.00  0.00     0.049 A 
ATOM     57  H   UNL     1      11.087  -2.865  -7.121  1.00  0.00     0.167 HD
ATOM     58  C   UNL     1      10.467  -0.285  -5.555  1.00  0.00     0.074 A 
ATOM     59  C   UNL     1       9.731  -0.464  -6.802  1.00  0.00     0.031 C 
ATOM     60  C   UNL     1      11.217  -1.154  -4.814  1.00  0.00     0.034 A 
BRANCH  47  61
ATOM     61  C   UNL     1       8.911  -4.735  -8.075  1.00  0.00     0.023 A 
ATOM     62  C   UNL     1      10.024  -5.326  -8.707  1.00  0.00     0.012 A 
ATOM     63  C   UNL     1       7.940  -4.125  -8.898  1.00  0.00     0.148 A 
ATOM     64  C   UNL     1      10.167  -5.303 -10.096  1.00  0.00     0.002 A 
ATOM     65  C   UNL     1       8.042  -4.184 -10.281  1.00  0.00     0.091 A 
ATOM     66  F   UNL     1       6.981  -3.368  -8.351  1.00  0.00    -0.205 F 
ATOM     67  C   UNL     1       9.166  -4.749 -10.886  1.00  0.00     0.022 A 
BRANCH  65  68
ATOM     68  S   UNL     1       6.729  -3.549 -11.326  1.00  0.00     0.127 S 
ATOM     69  O   UNL     1       7.236  -2.223 -11.664  1.00  0.00    -0.237 OA
ATOM     70  O   UNL     1       6.723  -4.511 -12.429  1.00  0.00    -0.237 OA
ATOM     71  O   UNL     1       5.534  -3.596 -10.493  1.00  0.00    -0.744 OA
ENDBRANCH  65  68
ENDBRANCH  47  61
BRANCH  48  72
ATOM     72  C   UNL     1       7.160   3.081  -5.639  1.00  0.00     0.023 A 
ATOM     73  C   UNL     1       8.003   3.864  -6.458  1.00  0.00     0.012 A 
ATOM     74  C   UNL     1       5.787   3.411  -5.610  1.00  0.00     0.148 A 
ATOM     75  C   UNL     1       7.495   4.894  -7.259  1.00  0.00     0.002 A 
ATOM     76  C   UNL     1       5.288   4.451  -6.393  1.00  0.00     0.091 A 
ATOM     77  F   UNL     1       4.945   2.650  -4.899  1.00  0.00    -0.205 F 
ATOM     78  C   UNL     1       6.135   5.184  -7.232  1.00  0.00     0.022 A 
BRANCH  76  79
ATOM     79  S   UNL     1       3.540   4.872  -6.382  1.00  0.00     0.127 S 
ATOM     80  O   UNL     1       3.562   6.324  -6.568  1.00  0.00    -0.237 OA
ATOM     81  O   UNL     1       3.034   4.117  -7.525  1.00  0.00    -0.237 OA
ATOM     82  O   UNL     1       3.057   4.452  -5.072  1.00  0.00    -0.744 OA
ENDBRANCH  76  79
ENDBRANCH  48  72
BRANCH  60  83
ATOM     83  C   UNL     1      11.790  -0.691  -3.498  1.00  0.00     0.023 A 
ATOM     84  C   UNL     1      10.963  -0.280  -2.433  1.00  0.00     0.012 A 
ATOM     85  C   UNL     1      13.164  -0.888  -3.257  1.00  0.00     0.148 A 
ATOM     86  C   UNL     1      11.495  -0.058  -1.160  1.00  0.00     0.002 A 
ATOM     87  C   UNL     1      13.680  -0.713  -1.978  1.00  0.00     0.091 A 
ATOM     88  F   UNL     1      13.934  -1.293  -4.279  1.00  0.00    -0.205 F 
ATOM     89  C   UNL     1      12.849  -0.289  -0.929  1.00  0.00     0.022 A 
BRANCH  87  90
ATOM     90  S   UNL     1      15.381  -1.121  -1.568  1.00  0.00     0.127 S 
ATOM     91  O   UNL     1      15.946   0.192  -1.262  1.00  0.00    -0.237 OA
ATOM     92  O   UNL     1      15.218  -2.001  -0.410  1.00  0.00    -0.237 OA
ATOM     93  O   UNL     1      15.937  -1.777  -2.745  1.00  0.00    -0.744 OA
ENDBRANCH  87  90
ENDBRANCH  60  83
ENDBRANCH  34  35
ENDBRANCH  27  29
ENDBRANCH  26  27
ENDBRANCH  25  26
ENDBRANCH   1  25
TORSDOF 17
