REMARK SMILES C[C@H]([C@@H](C)C(=O)OCCOC(=O)c1ccc(-c2c3nc(c(-c4cccc(S(=O)(=O)[O-])c4F)c4ccc([nH]4)c(-c4cccc(S(=O)(=O)[O-])c4F)c4nc(c(-c5cccc(S(=O)(=O)[O-])c5F)c5ccc2[nH]5)C=C4)C=C3)cc1)[S@@](=O)c1ccc2ccccc2c1
REMARK SMILES IDX 8 1 7 2 5 3 6 4 3 5 4 6 2 7 1 8 76 9 77 10 78 11 79 12 87 13
REMARK SMILES IDX 80 14 86 15 81 16 85 17 82 18 84 19 83 20 9 21 10 22 11 23
REMARK SMILES IDX 12 24 13 25 14 26 75 27 15 28 74 29 16 30 17 31 18 32 68 33
REMARK SMILES IDX 19 34 73 35 67 36 69 37 20 38 72 39 66 40 65 41 21 43 53 44
REMARK SMILES IDX 33 45 52 46 34 47 37 48 51 49 70 50 35 51 36 52 50 54 71 55
REMARK SMILES IDX 38 56 22 57 23 58 31 59 24 60 26 61 32 62 25 63 27 64 28 65
REMARK SMILES IDX 29 66 30 67 54 68 55 69 63 70 56 71 58 72 64 73 57 74 59 75
REMARK SMILES IDX 60 76 61 77 62 78 39 79 40 80 48 81 41 82 43 83 49 84 42 85
REMARK SMILES IDX 44 86 45 87 46 88 47 89
REMARK H PARENT 69 42 37 53
REMARK Flexibility Score: inf
ROOT
ATOM      1  C   UNL     1       3.355  -0.530  -2.898  1.00  0.00     0.274 C 
ENDROOT
BRANCH   1   2
ATOM      2  O   UNL     1       2.609  -1.001  -1.756  1.00  0.00    -0.462 OA
BRANCH   2   3
ATOM      3  C   UNL     1       2.410  -0.107  -0.758  1.00  0.00     0.309 C 
ATOM      4  O   UNL     1       2.946   0.996  -0.714  1.00  0.00    -0.252 OA
BRANCH   3   5
ATOM      5  C   UNL     1       1.405  -0.555   0.302  1.00  0.00     0.112 C 
ATOM      6  C   UNL     1       2.077  -0.402   1.671  1.00  0.00     0.021 C 
BRANCH   5   7
ATOM      7  C   UNL     1       0.720  -1.921   0.057  1.00  0.00     0.095 C 
ATOM      8  C   UNL     1       1.115  -3.037   1.023  1.00  0.00     0.023 C 
BRANCH   7   9
ATOM      9  S   UNL     1      -1.130  -1.788  -0.102  1.00  0.00     0.057 S 
ATOM     10  O   UNL     1      -1.699  -3.159   0.128  1.00  0.00    -0.254 OA
BRANCH   9  11
ATOM     11  C   UNL     1      -1.588  -0.831   1.357  1.00  0.00     0.040 A 
ATOM     12  C   UNL     1      -2.003   0.494   1.195  1.00  0.00     0.018 A 
ATOM     13  C   UNL     1      -1.630  -1.408   2.629  1.00  0.00     0.026 A 
ATOM     14  C   UNL     1      -2.416   1.249   2.296  1.00  0.00     0.010 A 
ATOM     15  C   UNL     1      -2.034  -0.660   3.749  1.00  0.00    -0.017 A 
ATOM     16  C   UNL     1      -2.434   0.685   3.580  1.00  0.00    -0.018 A 
ATOM     17  C   UNL     1      -2.060  -1.227   5.033  1.00  0.00     0.009 A 
ATOM     18  C   UNL     1      -2.856   1.423   4.698  1.00  0.00     0.009 A 
ATOM     19  C   UNL     1      -2.476  -0.478   6.135  1.00  0.00     0.001 A 
ATOM     20  C   UNL     1      -2.876   0.844   5.968  1.00  0.00     0.001 A 
ENDBRANCH   9  11
ENDBRANCH   7   9
ENDBRANCH   5   7
ENDBRANCH   3   5
ENDBRANCH   2   3
ENDBRANCH   1   2
BRANCH   1  21
ATOM     21  C   UNL     1       2.423  -0.118  -4.045  1.00  0.00     0.275 C 
BRANCH  21  22
ATOM     22  O   UNL     1       1.742   1.125  -3.783  1.00  0.00    -0.458 OA
BRANCH  22  23
ATOM     23  C   UNL     1       0.581   1.013  -3.102  1.00  0.00     0.338 C 
ATOM     24  O   UNL     1       0.063  -0.020  -2.693  1.00  0.00    -0.246 OA
BRANCH  23  25
ATOM     25  C   UNL     1       0.041   2.338  -2.771  1.00  0.00     0.060 A 
ATOM     26  C   UNL     1      -0.131   2.651  -1.421  1.00  0.00     0.016 A 
ATOM     27  C   UNL     1      -0.395   3.219  -3.761  1.00  0.00     0.016 A 
ATOM     28  C   UNL     1      -0.785   3.817  -1.048  1.00  0.00     0.010 A 
ATOM     29  C   UNL     1      -1.023   4.411  -3.384  1.00  0.00     0.010 A 
ATOM     30  C   UNL     1      -1.242   4.706  -2.026  1.00  0.00    -0.014 A 
BRANCH  30  31
ATOM     31  C   UNL     1      -1.956   5.936  -1.611  1.00  0.00     0.031 A 
ATOM     32  C   UNL     1      -3.428   6.081  -1.871  1.00  0.00     0.074 A 
ATOM     33  C   UNL     1      -1.274   6.915  -0.986  1.00  0.00     0.049 A 
ATOM     34  N   UNL     1      -4.211   7.096  -1.617  1.00  0.00    -0.248 NA
ATOM     35  C   UNL     1      -4.109   4.938  -2.500  1.00  0.00     0.031 C 
ATOM     36  C   UNL     1       0.156   6.877  -0.672  1.00  0.00     0.029 A 
ATOM     37  N   UNL     1      -1.688   8.134  -0.515  1.00  0.00    -0.354 N 
ATOM     38  C   UNL     1      -5.465   6.737  -2.096  1.00  0.00     0.074 A 
ATOM     39  C   UNL     1      -5.340   5.407  -2.651  1.00  0.00     0.031 C 
ATOM     40  C   UNL     1       0.501   8.024  -0.067  1.00  0.00     0.029 A 
ATOM     41  C   UNL     1      -0.669   8.892   0.013  1.00  0.00     0.049 A 
ATOM     42  H   UNL     1      -2.623   8.438  -0.552  1.00  0.00     0.167 HD
ATOM     43  C   UNL     1      -6.617   7.448  -2.063  1.00  0.00     0.034 A 
ATOM     44  C   UNL     1      -0.673  10.153   0.486  1.00  0.00     0.034 A 
ATOM     45  C   UNL     1      -6.744   8.751  -1.467  1.00  0.00     0.049 A 
ATOM     46  C   UNL     1      -1.968  10.918   0.507  1.00  0.00     0.074 A 
ATOM     47  C   UNL     1      -7.881   9.529  -1.336  1.00  0.00     0.029 A 
ATOM     48  N   UNL     1      -5.700   9.471  -0.906  1.00  0.00    -0.354 N 
ATOM     49  N   UNL     1      -3.165  10.523   0.146  1.00  0.00    -0.248 NA
ATOM     50  C   UNL     1      -1.918  12.294   1.022  1.00  0.00     0.031 C 
ATOM     51  C   UNL     1      -7.521  10.726  -0.707  1.00  0.00     0.029 A 
ATOM     52  C   UNL     1      -6.163  10.688  -0.435  1.00  0.00     0.049 A 
ATOM     53  H   UNL     1      -4.767   9.162  -0.851  1.00  0.00     0.167 HD
ATOM     54  C   UNL     1      -4.015  11.589   0.415  1.00  0.00     0.074 A 
ATOM     55  C   UNL     1      -3.199  12.638   0.992  1.00  0.00     0.031 C 
ATOM     56  C   UNL     1      -5.346  11.698   0.187  1.00  0.00     0.034 A 
BRANCH  43  57
ATOM     57  C   UNL     1      -7.846   6.820  -2.663  1.00  0.00     0.023 A 
ATOM     58  C   UNL     1      -8.520   5.801  -1.961  1.00  0.00     0.012 A 
ATOM     59  C   UNL     1      -8.367   7.280  -3.888  1.00  0.00     0.148 A 
ATOM     60  C   UNL     1      -9.683   5.234  -2.481  1.00  0.00     0.002 A 
ATOM     61  C   UNL     1      -9.547   6.734  -4.381  1.00  0.00     0.091 A 
ATOM     62  F   UNL     1      -7.696   8.231  -4.552  1.00  0.00    -0.205 F 
ATOM     63  C   UNL     1     -10.202   5.707  -3.683  1.00  0.00     0.022 A 
BRANCH  61  64
ATOM     64  S   UNL     1     -10.326   7.327  -5.888  1.00  0.00     0.127 S 
ATOM     65  O   UNL     1     -10.014   6.249  -6.825  1.00  0.00    -0.237 OA
ATOM     66  O   UNL     1     -11.735   7.407  -5.499  1.00  0.00    -0.237 OA
ATOM     67  O   UNL     1      -9.706   8.612  -6.179  1.00  0.00    -0.744 OA
ENDBRANCH  61  64
ENDBRANCH  43  57
BRANCH  44  68
ATOM     68  C   UNL     1       0.585  10.752   1.013  1.00  0.00     0.023 A 
ATOM     69  C   UNL     1       0.710  10.989   2.395  1.00  0.00     0.012 A 
ATOM     70  C   UNL     1       1.668  11.049   0.163  1.00  0.00     0.148 A 
ATOM     71  C   UNL     1       1.884  11.533   2.918  1.00  0.00     0.002 A 
ATOM     72  C   UNL     1       2.854  11.539   0.698  1.00  0.00     0.091 A 
ATOM     73  F   UNL     1       1.521  10.838  -1.153  1.00  0.00    -0.205 F 
ATOM     74  C   UNL     1       2.959  11.795   2.073  1.00  0.00     0.022 A 
BRANCH  72  75
ATOM     75  S   UNL     1       4.326  11.773  -0.305  1.00  0.00     0.127 S 
ATOM     76  O   UNL     1       4.340  13.222  -0.483  1.00  0.00    -0.237 OA
ATOM     77  O   UNL     1       5.378  11.248   0.566  1.00  0.00    -0.237 OA
ATOM     78  O   UNL     1       4.102  10.984  -1.510  1.00  0.00    -0.744 OA
ENDBRANCH  72  75
ENDBRANCH  44  68
BRANCH  56  79
ATOM     79  C   UNL     1      -6.015  12.987   0.582  1.00  0.00     0.023 A 
ATOM     80  C   UNL     1      -5.824  14.139  -0.207  1.00  0.00     0.012 A 
ATOM     81  C   UNL     1      -6.889  13.040   1.685  1.00  0.00     0.148 A 
ATOM     82  C   UNL     1      -6.471  15.331   0.112  1.00  0.00     0.002 A 
ATOM     83  C   UNL     1      -7.564  14.220   1.972  1.00  0.00     0.091 A 
ATOM     84  F   UNL     1      -7.040  11.940   2.437  1.00  0.00    -0.205 F 
ATOM     85  C   UNL     1      -7.350  15.369   1.193  1.00  0.00     0.022 A 
BRANCH  83  86
ATOM     86  S   UNL     1      -8.780  14.329   3.290  1.00  0.00     0.127 S 
ATOM     87  O   UNL     1      -8.030  15.026   4.332  1.00  0.00    -0.237 OA
ATOM     88  O   UNL     1      -9.844  15.122   2.671  1.00  0.00    -0.237 OA
ATOM     89  O   UNL     1      -9.157  12.956   3.596  1.00  0.00    -0.744 OA
ENDBRANCH  83  86
ENDBRANCH  56  79
ENDBRANCH  30  31
ENDBRANCH  23  25
ENDBRANCH  22  23
ENDBRANCH  21  22
ENDBRANCH   1  21
TORSDOF 17
