REMARK SMILES Nc1cc(C(=O)OCCOC(=O)c2ccc(-c3c4nc(c(-c5cccc(S(=O)(=O)[O-])c5F)c5ccc([nH]5)c(-c5cccc(S(=O)(=O)[O-])c5F)c5nc(c(-c6cccc(S(=O)(=O)[O-])c6F)c6ccc3[nH]6)C=C5)C=C4)cc2)c(Cl)cc1Cl
REMARK SMILES IDX 9 1 8 2 7 3 5 4 6 5 4 6 2 7 3 8 79 9 78 10 80 11 76 12 77 13
REMARK SMILES IDX 1 14 10 17 11 18 12 19 13 20 14 21 75 22 15 23 74 24 16 25
REMARK SMILES IDX 17 26 18 27 68 28 19 29 73 30 67 31 69 32 20 33 72 34 66 35
REMARK SMILES IDX 65 36 21 38 53 39 33 40 52 41 34 42 37 43 51 44 70 45 35 46
REMARK SMILES IDX 36 47 50 49 71 50 38 51 22 52 23 53 31 54 24 55 26 56 32 57
REMARK SMILES IDX 25 58 27 59 28 60 29 61 30 62 54 63 55 64 63 65 56 66 58 67
REMARK SMILES IDX 64 68 57 69 59 70 60 71 61 72 62 73 39 74 40 75 48 76 41 77
REMARK SMILES IDX 43 78 49 79 42 80 44 81 45 82 46 83 47 84
REMARK H PARENT 1 15 1 16 69 37 37 48
REMARK Flexibility Score: inf
ROOT
ATOM      1  C   UNL     1       1.383  -3.571  -6.244  1.00  0.00     0.275 C 
ENDROOT
BRANCH   1   2
ATOM      2  C   UNL     1       2.343  -2.563  -5.603  1.00  0.00     0.275 C 
BRANCH   2   3
ATOM      3  O   UNL     1       1.745  -1.891  -4.473  1.00  0.00    -0.458 OA
BRANCH   3   4
ATOM      4  C   UNL     1       1.525  -0.554  -4.600  1.00  0.00     0.339 C 
ATOM      5  O   UNL     1       1.784   0.106  -5.592  1.00  0.00    -0.246 OA
BRANCH   4   6
ATOM      6  C   UNL     1       0.886  -0.018  -3.362  1.00  0.00     0.080 A 
ATOM      7  C   UNL     1       0.601  -0.143  -0.936  1.00  0.00     0.051 A 
ATOM      8  C   UNL     1       1.199  -0.597  -2.118  1.00  0.00     0.044 A 
ATOM      9  C   UNL     1      -0.454   0.778  -1.032  1.00  0.00     0.065 A 
ATOM     10  C   UNL     1      -0.747   1.392  -2.246  1.00  0.00     0.044 A 
ATOM     11  Cl  UNL     1      -1.354   1.243   0.369  1.00  0.00    -0.082 Cl
ATOM     12  C   UNL     1      -0.016   1.058  -3.390  1.00  0.00     0.057 A 
ATOM     13  Cl  UNL     1      -0.261   2.078  -4.764  1.00  0.00    -0.083 Cl
BRANCH   7  14
ATOM     14  N   UNL     1       0.990  -0.687   0.287  1.00  0.00    -0.398 N 
ATOM     15  H   UNL     1       1.734  -1.331   0.325  1.00  0.00     0.156 HD
ATOM     16  H   UNL     1       0.522  -0.427   1.113  1.00  0.00     0.156 HD
ENDBRANCH   7  14
ENDBRANCH   4   6
ENDBRANCH   3   4
ENDBRANCH   2   3
ENDBRANCH   1   2
BRANCH   1  17
ATOM     17  O   UNL     1       0.300  -2.907  -6.919  1.00  0.00    -0.458 OA
BRANCH  17  18
ATOM     18  C   UNL     1      -0.829  -2.765  -6.184  1.00  0.00     0.338 C 
ATOM     19  O   UNL     1      -1.038  -3.203  -5.066  1.00  0.00    -0.246 OA
BRANCH  18  20
ATOM     20  C   UNL     1      -1.713  -1.803  -6.858  1.00  0.00     0.060 A 
ATOM     21  C   UNL     1      -2.373  -2.078  -8.054  1.00  0.00     0.016 A 
ATOM     22  C   UNL     1      -1.903  -0.582  -6.217  1.00  0.00     0.016 A 
ATOM     23  C   UNL     1      -3.204  -1.096  -8.615  1.00  0.00     0.010 A 
ATOM     24  C   UNL     1      -2.719   0.396  -6.776  1.00  0.00     0.010 A 
ATOM     25  C   UNL     1      -3.375   0.153  -7.985  1.00  0.00    -0.014 A 
BRANCH  25  26
ATOM     26  C   UNL     1      -4.326   1.171  -8.500  1.00  0.00     0.031 A 
ATOM     27  C   UNL     1      -3.854   2.496  -9.037  1.00  0.00     0.074 A 
ATOM     28  C   UNL     1      -5.646   0.932  -8.376  1.00  0.00     0.049 A 
ATOM     29  N   UNL     1      -4.563   3.469  -9.551  1.00  0.00    -0.248 NA
ATOM     30  C   UNL     1      -2.411   2.778  -8.974  1.00  0.00     0.031 C 
ATOM     31  C   UNL     1      -6.228  -0.258  -7.750  1.00  0.00     0.029 A 
ATOM     32  N   UNL     1      -6.734   1.680  -8.747  1.00  0.00    -0.354 N 
ATOM     33  C   UNL     1      -3.661   4.478  -9.867  1.00  0.00     0.074 A 
ATOM     34  C   UNL     1      -2.353   4.013  -9.459  1.00  0.00     0.031 C 
ATOM     35  C   UNL     1      -7.565  -0.173  -7.806  1.00  0.00     0.029 A 
ATOM     36  C   UNL     1      -7.936   1.081  -8.456  1.00  0.00     0.049 A 
ATOM     37  H   UNL     1      -6.661   2.561  -9.180  1.00  0.00     0.167 HD
ATOM     38  C   UNL     1      -3.900   5.668 -10.470  1.00  0.00     0.034 A 
ATOM     39  C   UNL     1      -9.199   1.482  -8.698  1.00  0.00     0.034 A 
ATOM     40  C   UNL     1      -5.202   6.115 -10.890  1.00  0.00     0.049 A 
ATOM     41  C   UNL     1      -9.436   2.775  -9.421  1.00  0.00     0.074 A 
ATOM     42  C   UNL     1      -5.530   7.264 -11.590  1.00  0.00     0.029 A 
ATOM     43  N   UNL     1      -6.390   5.445 -10.644  1.00  0.00    -0.354 N 
ATOM     44  N   UNL     1      -8.556   3.643  -9.856  1.00  0.00    -0.248 NA
ATOM     45  C   UNL     1     -10.831   3.130  -9.720  1.00  0.00     0.031 C 
ATOM     46  C   UNL     1      -6.917   7.296 -11.753  1.00  0.00     0.029 A 
ATOM     47  C   UNL     1      -7.451   6.155 -11.178  1.00  0.00     0.049 A 
ATOM     48  H   UNL     1      -6.467   4.591 -10.161  1.00  0.00     0.167 HD
ATOM     49  C   UNL     1      -9.284   4.630 -10.506  1.00  0.00     0.074 A 
ATOM     50  C   UNL     1     -10.680   4.252 -10.413  1.00  0.00     0.031 C 
ATOM     51  C   UNL     1      -8.832   5.750 -11.118  1.00  0.00     0.034 A 
BRANCH  38  52
ATOM     52  C   UNL     1      -2.727   6.551 -10.805  1.00  0.00     0.023 A 
ATOM     53  C   UNL     1      -1.915   6.209 -11.905  1.00  0.00     0.012 A 
ATOM     54  C   UNL     1      -2.513   7.776 -10.142  1.00  0.00     0.148 A 
ATOM     55  C   UNL     1      -0.903   7.066 -12.336  1.00  0.00     0.002 A 
ATOM     56  C   UNL     1      -1.520   8.639 -10.595  1.00  0.00     0.091 A 
ATOM     57  F   UNL     1      -3.297   8.082  -9.098  1.00  0.00    -0.205 F 
ATOM     58  C   UNL     1      -0.714   8.284 -11.689  1.00  0.00     0.022 A 
BRANCH  56  59
ATOM     59  S   UNL     1      -1.226  10.258  -9.873  1.00  0.00     0.127 S 
ATOM     60  O   UNL     1       0.128  10.103  -9.341  1.00  0.00    -0.237 OA
ATOM     61  O   UNL     1      -1.324  11.136 -11.039  1.00  0.00    -0.237 OA
ATOM     62  O   UNL     1      -2.264  10.450  -8.870  1.00  0.00    -0.744 OA
ENDBRANCH  56  59
ENDBRANCH  38  52
BRANCH  39  63
ATOM     63  C   UNL     1     -10.321   0.573  -8.343  1.00  0.00     0.023 A 
ATOM     64  C   UNL     1     -10.929  -0.189  -9.359  1.00  0.00     0.012 A 
ATOM     65  C   UNL     1     -10.712   0.383  -7.005  1.00  0.00     0.148 A 
ATOM     66  C   UNL     1     -11.913  -1.126  -9.048  1.00  0.00     0.002 A 
ATOM     67  C   UNL     1     -11.667  -0.579  -6.698  1.00  0.00     0.091 A 
ATOM     68  F   UNL     1     -10.110   1.118  -6.059  1.00  0.00    -0.205 F 
ATOM     69  C   UNL     1     -12.274  -1.329  -7.718  1.00  0.00     0.022 A 
BRANCH  67  70
ATOM     70  S   UNL     1     -12.130  -0.984  -5.011  1.00  0.00     0.127 S 
ATOM     71  O   UNL     1     -13.545  -0.622  -4.995  1.00  0.00    -0.237 OA
ATOM     72  O   UNL     1     -11.860  -2.421  -4.965  1.00  0.00    -0.237 OA
ATOM     73  O   UNL     1     -11.270  -0.176  -4.157  1.00  0.00    -0.744 OA
ENDBRANCH  67  70
ENDBRANCH  39  63
BRANCH  51  74
ATOM     74  C   UNL     1      -9.837   6.656 -11.774  1.00  0.00     0.023 A 
ATOM     75  C   UNL     1     -10.610   7.527 -10.983  1.00  0.00     0.012 A 
ATOM     76  C   UNL     1      -9.920   6.731 -13.178  1.00  0.00     0.148 A 
ATOM     77  C   UNL     1     -11.459   8.457 -11.582  1.00  0.00     0.002 A 
ATOM     78  C   UNL     1     -10.741   7.682 -13.769  1.00  0.00     0.091 A 
ATOM     79  F   UNL     1      -9.177   5.884 -13.906  1.00  0.00    -0.205 F 
ATOM     80  C   UNL     1     -11.515   8.543 -12.973  1.00  0.00     0.022 A 
BRANCH  78  81
ATOM     81  S   UNL     1     -10.830   7.917 -15.547  1.00  0.00     0.127 S 
ATOM     82  O   UNL     1     -12.209   7.521 -15.831  1.00  0.00    -0.237 OA
ATOM     83  O   UNL     1     -10.566   9.349 -15.683  1.00  0.00    -0.237 OA
ATOM     84  O   UNL     1      -9.809   7.051 -16.123  1.00  0.00    -0.744 OA
ENDBRANCH  78  81
ENDBRANCH  51  74
ENDBRANCH  25  26
ENDBRANCH  18  20
ENDBRANCH  17  18
ENDBRANCH   1  17
TORSDOF 15
