REMARK SMILES CSc1ccc(CNc2ccc(N3CCOCC3)c(C(=O)OCCOC(=O)c3ccc(-c4c5nc(c(-c6cccc(S(=O)(=O)[O-])c6F)c6ccc([nH]6)c(-c6cccc(S(=O)(=O)[O-])c6F)c6nc(c(-c7cccc(S(=O)(=O)[O-])c7F)c7ccc4[nH]7)C=C6)C=C5)cc3)c2)cc1
REMARK SMILES IDX 23 1 22 2 20 3 21 4 19 5 9 6 10 7 91 8 11 9 12 10 8 11 7 13
REMARK SMILES IDX 6 14 3 15 4 16 93 17 5 18 92 19 2 20 1 21 13 22 14 23 18 24
REMARK SMILES IDX 15 25 17 26 16 27 24 28 25 29 26 30 27 31 28 32 29 33 90 34
REMARK SMILES IDX 30 35 89 36 31 37 32 38 33 39 83 40 34 41 88 42 82 43 84 44
REMARK SMILES IDX 35 45 87 46 81 47 80 48 36 50 68 51 48 52 67 53 49 54 52 55
REMARK SMILES IDX 66 56 85 57 50 58 51 59 65 61 86 62 53 63 37 64 38 65 46 66
REMARK SMILES IDX 39 67 41 68 47 69 40 70 42 71 43 72 44 73 45 74 69 75 70 76
REMARK SMILES IDX 78 77 71 78 73 79 79 80 72 81 74 82 75 83 76 84 77 85 54 86
REMARK SMILES IDX 55 87 63 88 56 89 58 90 64 91 57 92 59 93 60 94 61 95 62 96
REMARK H PARENT 8 12 84 49 52 60
REMARK Flexibility Score: inf
ROOT
ATOM      1  C   UNL     1       2.121  -2.966 -12.233  1.00  0.00     0.275 C 
ENDROOT
BRANCH   1   2
ATOM      2  O   UNL     1       3.073  -3.034 -11.152  1.00  0.00    -0.458 OA
BRANCH   2   3
ATOM      3  C   UNL     1       2.905  -4.056 -10.272  1.00  0.00     0.340 C 
ATOM      4  O   UNL     1       1.958  -4.825 -10.241  1.00  0.00    -0.246 OA
BRANCH   3   5
ATOM      5  C   UNL     1       3.936  -3.971  -9.218  1.00  0.00     0.085 A 
ATOM      6  C   UNL     1       4.351  -2.693  -7.180  1.00  0.00     0.035 A 
ATOM      7  C   UNL     1       5.291  -3.661  -6.823  1.00  0.00     0.028 A 
ATOM      8  C   UNL     1       3.741  -2.832  -8.417  1.00  0.00     0.043 A 
ATOM      9  C   UNL     1       5.550  -4.773  -7.650  1.00  0.00     0.029 A 
ATOM     10  C   UNL     1       4.853  -4.982  -8.849  1.00  0.00     0.052 A 
BRANCH   6  11
ATOM     11  N   UNL     1       3.966  -1.713  -6.284  1.00  0.00    -0.381 N 
ATOM     12  H   UNL     1       4.610  -1.412  -5.603  1.00  0.00     0.160 HD
BRANCH  11  13
ATOM     13  C   UNL     1       2.642  -1.112  -6.313  1.00  0.00     0.148 C 
BRANCH  13  14
ATOM     14  C   UNL     1       2.030  -1.150  -4.934  1.00  0.00    -0.029 A 
ATOM     15  C   UNL     1       0.866  -1.250  -2.370  1.00  0.00     0.007 A 
ATOM     16  C   UNL     1       1.179  -2.430  -3.051  1.00  0.00     0.015 A 
ATOM     17  C   UNL     1       1.110  -0.022  -2.995  1.00  0.00     0.015 A 
ATOM     18  C   UNL     1       1.755  -2.382  -4.322  1.00  0.00     0.007 A 
ATOM     19  C   UNL     1       1.692   0.029  -4.265  1.00  0.00     0.007 A 
BRANCH  15  20
ATOM     20  S   UNL     1       0.125  -1.381  -0.750  1.00  0.00    -0.130 SA
ATOM     21  C   UNL     1       0.913   0.006   0.111  1.00  0.00     0.091 C 
ENDBRANCH  15  20
ENDBRANCH  13  14
ENDBRANCH  11  13
ENDBRANCH   6  11
BRANCH  10  22
ATOM     22  N   UNL     1       4.984  -6.242  -9.446  1.00  0.00    -0.366 N 
ATOM     23  C   UNL     1       6.138  -6.540 -10.894  1.00  0.00     0.145 C 
ATOM     24  C   UNL     1       3.599  -7.231  -9.202  1.00  0.00     0.145 C 
ATOM     25  C   UNL     1       5.327  -7.919 -12.419  1.00  0.00     0.181 C 
ATOM     26  C   UNL     1       2.948  -8.333 -10.520  1.00  0.00     0.181 C 
ATOM     27  O   UNL     1       3.711  -8.659 -11.987  1.00  0.00    -0.378 OA
ENDBRANCH  10  22
ENDBRANCH   3   5
ENDBRANCH   2   3
ENDBRANCH   1   2
BRANCH   1  28
ATOM     28  C   UNL     1       2.855  -3.189 -13.548  1.00  0.00     0.275 C 
BRANCH  28  29
ATOM     29  O   UNL     1       3.451  -4.493 -13.484  1.00  0.00    -0.458 OA
BRANCH  29  30
ATOM     30  C   UNL     1       4.753  -4.472 -13.151  1.00  0.00     0.338 C 
ATOM     31  O   UNL     1       5.523  -3.526 -13.169  1.00  0.00    -0.246 OA
BRANCH  30  32
ATOM     32  C   UNL     1       5.172  -5.781 -12.673  1.00  0.00     0.060 A 
ATOM     33  C   UNL     1       4.323  -6.689 -11.433  1.00  0.00     0.016 A 
ATOM     34  C   UNL     1       6.755  -6.300 -13.079  1.00  0.00     0.016 A 
ATOM     35  C   UNL     1       5.262  -8.179 -10.557  1.00  0.00     0.010 A 
ATOM     36  C   UNL     1       7.548  -7.639 -12.347  1.00  0.00     0.010 A 
ATOM     37  C   UNL     1       6.888  -8.619 -11.088  1.00  0.00    -0.014 A 
BRANCH  37  38
ATOM     38  C   UNL     1       7.591  -9.853 -10.598  1.00  0.00     0.031 A 
ATOM     39  C   UNL     1       9.092  -9.898 -10.397  1.00  0.00     0.074 A 
ATOM     40  C   UNL     1       6.889 -10.993 -10.407  1.00  0.00     0.049 A 
ATOM     41  N   UNL     1       9.857 -10.932 -10.138  1.00  0.00    -0.248 NA
ATOM     42  C   UNL     1       9.845  -8.647 -10.565  1.00  0.00     0.031 C 
ATOM     43  C   UNL     1       5.477 -11.175 -10.720  1.00  0.00     0.029 A 
ATOM     44  N   UNL     1       7.252 -12.223  -9.907  1.00  0.00    -0.354 N 
ATOM     45  C   UNL     1      11.171 -10.477 -10.216  1.00  0.00     0.074 A 
ATOM     46  C   UNL     1      11.102  -9.073 -10.556  1.00  0.00     0.031 C 
ATOM     47  C   UNL     1       5.051 -12.361 -10.279  1.00  0.00     0.029 A 
ATOM     48  C   UNL     1       6.196 -13.106  -9.792  1.00  0.00     0.049 A 
ATOM     49  H   UNL     1       8.175 -12.452  -9.655  1.00  0.00     0.167 HD
ATOM     50  C   UNL     1      12.326 -11.156 -10.000  1.00  0.00     0.034 A 
ATOM     51  C   UNL     1       6.136 -14.391  -9.394  1.00  0.00     0.034 A 
ATOM     52  C   UNL     1      12.381 -12.522  -9.542  1.00  0.00     0.049 A 
ATOM     53  C   UNL     1       7.413 -15.078  -9.031  1.00  0.00     0.074 A 
ATOM     54  C   UNL     1      13.494 -13.267  -9.191  1.00  0.00     0.029 A 
ATOM     55  N   UNL     1      11.279 -13.342  -9.351  1.00  0.00    -0.354 N 
ATOM     56  N   UNL     1       8.632 -14.598  -9.047  1.00  0.00    -0.248 NA
ATOM     57  C   UNL     1       7.315 -16.479  -8.605  1.00  0.00     0.031 C 
ATOM     58  C   UNL     1      13.065 -14.541  -8.800  1.00  0.00     0.029 A 
ATOM     59  C   UNL     1      11.683 -14.582  -8.882  1.00  0.00     0.049 A 
ATOM     60  H   UNL     1      10.345 -13.081  -9.523  1.00  0.00     0.167 HD
ATOM     61  C   UNL     1       9.451 -15.639  -8.641  1.00  0.00     0.074 A 
ATOM     62  C   UNL     1       8.582 -16.760  -8.336  1.00  0.00     0.031 C 
ATOM     63  C   UNL     1      10.803 -15.675  -8.561  1.00  0.00     0.034 A 
BRANCH  50  64
ATOM     64  C   UNL     1      13.636 -10.426 -10.201  1.00  0.00     0.023 A 
ATOM     65  C   UNL     1      14.027  -9.415  -9.299  1.00  0.00     0.012 A 
ATOM     66  C   UNL     1      14.518 -10.793 -11.240  1.00  0.00     0.148 A 
ATOM     67  C   UNL     1      15.248  -8.755  -9.449  1.00  0.00     0.002 A 
ATOM     68  C   UNL     1      15.755 -10.165 -11.355  1.00  0.00     0.091 A 
ATOM     69  F   UNL     1      14.131 -11.747 -12.099  1.00  0.00    -0.205 F 
ATOM     70  C   UNL     1      16.115  -9.137 -10.469  1.00  0.00     0.022 A 
BRANCH  68  71
ATOM     71  S   UNL     1      16.981 -10.643 -12.580  1.00  0.00     0.127 S 
ATOM     72  O   UNL     1      16.961  -9.493 -13.482  1.00  0.00    -0.237 OA
ATOM     73  O   UNL     1      18.195 -10.761 -11.771  1.00  0.00    -0.237 OA
ATOM     74  O   UNL     1      16.510 -11.896 -13.153  1.00  0.00    -0.744 OA
ENDBRANCH  68  71
ENDBRANCH  50  64
BRANCH  51  75
ATOM     75  C   UNL     1       4.816 -15.085  -9.309  1.00  0.00     0.023 A 
ATOM     76  C   UNL     1       4.288 -15.419  -8.047  1.00  0.00     0.012 A 
ATOM     77  C   UNL     1       4.037 -15.325 -10.459  1.00  0.00     0.148 A 
ATOM     78  C   UNL     1       3.014 -15.980  -7.933  1.00  0.00     0.002 A 
ATOM     79  C   UNL     1       2.739 -15.808 -10.332  1.00  0.00     0.091 A 
ATOM     80  F   UNL     1       4.563 -15.033 -11.657  1.00  0.00    -0.205 F 
ATOM     81  C   UNL     1       2.232 -16.153  -9.071  1.00  0.00     0.022 A 
BRANCH  79  82
ATOM     82  S   UNL     1       1.607 -15.868 -11.727  1.00  0.00     0.127 S 
ATOM     83  O   UNL     1       1.587 -17.295 -12.035  1.00  0.00    -0.237 OA
ATOM     84  O   UNL     1       0.371 -15.345 -11.142  1.00  0.00    -0.237 OA
ATOM     85  O   UNL     1       2.198 -15.003 -12.740  1.00  0.00    -0.744 OA
ENDBRANCH  79  82
ENDBRANCH  51  75
BRANCH  63  86
ATOM     86  C   UNL     1      11.415 -16.971  -8.108  1.00  0.00     0.023 A 
ATOM     87  C   UNL     1      11.428 -18.079  -8.979  1.00  0.00     0.012 A 
ATOM     88  C   UNL     1      11.989 -17.084  -6.829  1.00  0.00     0.148 A 
ATOM     89  C   UNL     1      11.965 -19.296  -8.565  1.00  0.00     0.002 A 
ATOM     90  C   UNL     1      12.566 -18.286  -6.441  1.00  0.00     0.091 A 
ATOM     91  F   UNL     1      11.943 -16.024  -6.010  1.00  0.00    -0.205 F 
ATOM     92  C   UNL     1      12.542 -19.397  -7.301  1.00  0.00     0.022 A 
BRANCH  90  93
ATOM     93  S   UNL     1      13.403 -18.480  -4.866  1.00  0.00     0.127 S 
ATOM     94  O   UNL     1      12.439 -19.278  -4.112  1.00  0.00    -0.237 OA
ATOM     95  O   UNL     1      14.622 -19.195  -5.248  1.00  0.00    -0.237 OA
ATOM     96  O   UNL     1      13.629 -17.131  -4.365  1.00  0.00    -0.744 OA
ENDBRANCH  90  93
ENDBRANCH  63  86
ENDBRANCH  37  38
ENDBRANCH  30  32
ENDBRANCH  29  30
ENDBRANCH  28  29
ENDBRANCH   1  28
TORSDOF 19
