REMARK SMILES CCCC(=O)Nc1cccc(C(=O)N[C@@H](C(=O)OCCOC(=O)c2ccc(-c3c4nc(c(-c5cccc(S(=O)(=O)[O-])c5F)c5ccc([nH]5)c(-c5cccc(S(=O)(=O)[O-])c5F)c5nc(c(-c6cccc(S(=O)(=O)[O-])c6F)c6ccc3[nH]6)C=C5)C=C4)cc2)C2=C(C)N=N[C@@H]2C)c1
REMARK SMILES IDX 19 1 18 2 16 3 17 4 15 5 14 6 12 7 13 8 11 10 7 11 8 12
REMARK SMILES IDX 94 13 9 14 10 15 6 16 4 17 5 18 3 20 2 21 1 22 87 23 88 24
REMARK SMILES IDX 92 25 89 26 90 27 91 28 93 29 20 30 21 31 22 32 23 33 24 34
REMARK SMILES IDX 25 35 86 36 26 37 85 38 27 39 28 40 29 41 79 42 30 43 84 44
REMARK SMILES IDX 78 45 80 46 31 47 83 48 77 49 76 50 32 52 64 53 44 54 63 55
REMARK SMILES IDX 45 56 48 57 62 58 81 59 46 60 47 61 61 63 82 64 49 65 33 66
REMARK SMILES IDX 34 67 42 68 35 69 37 70 43 71 36 72 38 73 39 74 40 75 41 76
REMARK SMILES IDX 65 77 66 78 74 79 67 80 69 81 75 82 68 83 70 84 71 85 72 86
REMARK SMILES IDX 73 87 50 88 51 89 59 90 52 91 54 92 60 93 53 94 55 95 56 96
REMARK SMILES IDX 57 97 58 98
REMARK H PARENT 14 9 6 19 80 51 48 62
REMARK Flexibility Score: inf
ROOT
ATOM      1  C   UNL     1      -3.493  -1.366   1.635  1.00  0.00     0.274 C 
ENDROOT
BRANCH   1   2
ATOM      2  O   UNL     1      -2.072  -1.147   1.738  1.00  0.00    -0.460 OA
BRANCH   2   3
ATOM      3  C   UNL     1      -1.599   0.038   1.251  1.00  0.00     0.333 C 
ATOM      4  O   UNL     1      -2.311   0.905   0.759  1.00  0.00    -0.249 OA
BRANCH   3   5
ATOM      5  C   UNL     1      -0.043   0.130   1.331  1.00  0.00     0.223 C 
BRANCH   5   6
ATOM      6  N   UNL     1       0.501  -1.108   1.893  1.00  0.00    -0.335 N 
ATOM      7  C   UNL     1       1.092  -2.195   1.290  1.00  0.00     0.252 C 
ATOM      8  O   UNL     1       1.312  -3.206   1.952  1.00  0.00    -0.269 OA
ATOM      9  H   UNL     1       0.432  -1.175   2.873  1.00  0.00     0.165 HD
BRANCH   7  10
ATOM     10  C   UNL     1       1.576  -2.144  -0.111  1.00  0.00     0.041 A 
ATOM     11  C   UNL     1       1.467  -1.246  -2.337  1.00  0.00     0.041 A 
ATOM     12  C   UNL     1       2.775  -1.663  -2.586  1.00  0.00     0.026 A 
ATOM     13  C   UNL     1       0.827  -1.595  -1.149  1.00  0.00     0.040 A 
ATOM     14  C   UNL     1       3.462  -2.391  -1.615  1.00  0.00     0.003 A 
ATOM     15  C   UNL     1       2.876  -2.603  -0.366  1.00  0.00     0.014 A 
BRANCH  11  16
ATOM     16  N   UNL     1       0.772  -0.414  -3.216  1.00  0.00    -0.326 N 
ATOM     17  C   UNL     1       1.072   0.889  -3.523  1.00  0.00     0.224 C 
ATOM     18  O   UNL     1       0.245   1.534  -4.173  1.00  0.00    -0.275 OA
ATOM     19  H   UNL     1      -0.015  -0.802  -3.662  1.00  0.00     0.169 HD
BRANCH  17  20
ATOM     20  C   UNL     1       2.336   1.552  -2.994  1.00  0.00     0.100 C 
BRANCH  20  21
ATOM     21  C   UNL     1       2.210   1.989  -1.534  1.00  0.00     0.006 C 
ATOM     22  C   UNL     1       3.294   1.428  -0.626  1.00  0.00     0.004 C 
ENDBRANCH  20  21
ENDBRANCH  17  20
ENDBRANCH  11  16
ENDBRANCH   7  10
ENDBRANCH   5   6
BRANCH   5  23
ATOM     23  C   UNL     1       0.473   1.350   2.023  1.00  0.00     0.012 C 
ATOM     24  C   UNL     1       0.353   2.635   1.647  1.00  0.00     0.064 C 
ATOM     25  C   UNL     1       1.224   1.406   3.316  1.00  0.00     0.156 C 
ATOM     26  C   UNL     1      -0.369   3.242   0.487  1.00  0.00     0.069 C 
ATOM     27  N   UNL     1       0.962   3.497   2.522  1.00  0.00    -0.160 NA
ATOM     28  N   UNL     1       1.424   2.868   3.507  1.00  0.00    -0.181 NA
ATOM     29  C   UNL     1       2.611   0.776   3.333  1.00  0.00     0.040 C 
ENDBRANCH   5  23
ENDBRANCH   3   5
ENDBRANCH   2   3
ENDBRANCH   1   2
BRANCH   1  30
ATOM     30  C   UNL     1      -4.173  -1.168   2.986  1.00  0.00     0.275 C 
BRANCH  30  31
ATOM     31  O   UNL     1      -4.023   0.199   3.410  1.00  0.00    -0.458 OA
BRANCH  31  32
ATOM     32  C   UNL     1      -3.328   0.389   4.551  1.00  0.00     0.338 C 
ATOM     33  O   UNL     1      -2.855  -0.480   5.279  1.00  0.00    -0.246 OA
BRANCH  32  34
ATOM     34  C   UNL     1      -3.110   1.822   4.793  1.00  0.00     0.060 A 
ATOM     35  C   UNL     1      -2.428   2.567   3.839  1.00  0.00     0.016 A 
ATOM     36  C   UNL     1      -3.390   2.384   6.037  1.00  0.00     0.016 A 
ATOM     37  C   UNL     1      -1.886   3.803   4.182  1.00  0.00     0.010 A 
ATOM     38  C   UNL     1      -2.933   3.678   6.334  1.00  0.00     0.010 A 
ATOM     39  C   UNL     1      -2.094   4.373   5.443  1.00  0.00    -0.014 A 
BRANCH  39  40
ATOM     40  C   UNL     1      -1.320   5.586   5.871  1.00  0.00     0.031 A 
ATOM     41  C   UNL     1      -0.558   5.560   7.180  1.00  0.00     0.074 A 
ATOM     42  C   UNL     1      -1.203   6.690   5.101  1.00  0.00     0.049 A 
ATOM     43  N   UNL     1      -0.047   6.553   7.864  1.00  0.00    -0.248 NA
ATOM     44  C   UNL     1      -0.373   4.246   7.817  1.00  0.00     0.031 C 
ATOM     45  C   UNL     1      -1.782   6.874   3.771  1.00  0.00     0.029 A 
ATOM     46  N   UNL     1      -0.527   7.869   5.325  1.00  0.00    -0.354 N 
ATOM     47  C   UNL     1       0.387   6.003   9.066  1.00  0.00     0.074 A 
ATOM     48  C   UNL     1       0.116   4.583   9.001  1.00  0.00     0.031 C 
ATOM     49  C   UNL     1      -1.371   8.046   3.265  1.00  0.00     0.029 A 
ATOM     50  C   UNL     1      -0.602   8.760   4.279  1.00  0.00     0.049 A 
ATOM     51  H   UNL     1      -0.035   8.056   6.157  1.00  0.00     0.167 HD
ATOM     52  C   UNL     1       0.959   6.619  10.127  1.00  0.00     0.034 A 
ATOM     53  C   UNL     1      -0.144  10.023   4.156  1.00  0.00     0.034 A 
ATOM     54  C   UNL     1       1.382   7.994  10.134  1.00  0.00     0.049 A 
ATOM     55  C   UNL     1       0.541  10.679   5.324  1.00  0.00     0.074 A 
ATOM     56  C   UNL     1       1.980   8.707  11.159  1.00  0.00     0.029 A 
ATOM     57  N   UNL     1       1.305   8.848   9.046  1.00  0.00    -0.354 N 
ATOM     58  N   UNL     1       0.869  10.169   6.486  1.00  0.00    -0.248 NA
ATOM     59  C   UNL     1       0.907  12.095   5.167  1.00  0.00     0.031 C 
ATOM     60  C   UNL     1       2.275   9.991  10.685  1.00  0.00     0.029 A 
ATOM     61  C   UNL     1       1.863  10.073   9.365  1.00  0.00     0.049 A 
ATOM     62  H   UNL     1       0.910   8.617   8.174  1.00  0.00     0.167 HD
ATOM     63  C   UNL     1       1.490  11.194   7.191  1.00  0.00     0.074 A 
ATOM     64  C   UNL     1       1.525  12.345   6.314  1.00  0.00     0.031 C 
ATOM     65  C   UNL     1       1.959  11.191   8.463  1.00  0.00     0.034 A 
BRANCH  52  66
ATOM     66  C   UNL     1       1.159   5.806  11.378  1.00  0.00     0.023 A 
ATOM     67  C   UNL     1       2.199   4.860  11.456  1.00  0.00     0.012 A 
ATOM     68  C   UNL     1       0.319   6.004  12.493  1.00  0.00     0.148 A 
ATOM     69  C   UNL     1       2.374   4.096  12.611  1.00  0.00     0.002 A 
ATOM     70  C   UNL     1       0.528   5.270  13.654  1.00  0.00     0.091 A 
ATOM     71  F   UNL     1      -0.684   6.888  12.393  1.00  0.00    -0.205 F 
ATOM     72  C   UNL     1       1.546   4.307  13.711  1.00  0.00     0.022 A 
BRANCH  70  73
ATOM     73  S   UNL     1      -0.450   5.548  15.136  1.00  0.00     0.127 S 
ATOM     74  O   UNL     1      -1.466   4.504  15.024  1.00  0.00    -0.237 OA
ATOM     75  O   UNL     1       0.527   5.333  16.206  1.00  0.00    -0.237 OA
ATOM     76  O   UNL     1      -0.929   6.919  15.033  1.00  0.00    -0.744 OA
ENDBRANCH  70  73
ENDBRANCH  52  66
BRANCH  53  77
ATOM     77  C   UNL     1      -0.314  10.759   2.868  1.00  0.00     0.023 A 
ATOM     78  C   UNL     1       0.828  11.086   2.109  1.00  0.00     0.012 A 
ATOM     79  C   UNL     1      -1.585  11.110   2.375  1.00  0.00     0.148 A 
ATOM     80  C   UNL     1       0.706  11.761   0.893  1.00  0.00     0.002 A 
ATOM     81  C   UNL     1      -1.704  11.719   1.132  1.00  0.00     0.091 A 
ATOM     82  F   UNL     1      -2.659  10.825   3.126  1.00  0.00    -0.205 F 
ATOM     83  C   UNL     1      -0.559  12.062   0.397  1.00  0.00     0.022 A 
BRANCH  81  84
ATOM     84  S   UNL     1      -3.299  11.998   0.354  1.00  0.00     0.127 S 
ATOM     85  O   UNL     1      -3.450  13.444   0.489  1.00  0.00    -0.237 OA
ATOM     86  O   UNL     1      -3.058  11.529  -1.012  1.00  0.00    -0.237 OA
ATOM     87  O   UNL     1      -4.246  11.185   1.105  1.00  0.00    -0.744 OA
ENDBRANCH  81  84
ENDBRANCH  53  77
BRANCH  65  88
ATOM     88  C   UNL     1       2.583  12.459   8.981  1.00  0.00     0.023 A 
ATOM     89  C   UNL     1       1.758  13.544   9.337  1.00  0.00     0.012 A 
ATOM     90  C   UNL     1       3.974  12.554   9.178  1.00  0.00     0.148 A 
ATOM     91  C   UNL     1       2.310  14.714   9.856  1.00  0.00     0.002 A 
ATOM     92  C   UNL     1       4.514  13.710   9.734  1.00  0.00     0.091 A 
ATOM     93  F   UNL     1       4.748  11.522   8.811  1.00  0.00    -0.205 F 
ATOM     94  C   UNL     1       3.685  14.793  10.065  1.00  0.00     0.022 A 
BRANCH  92  95
ATOM     95  S   UNL     1       6.265  13.851  10.111  1.00  0.00     0.127 S 
ATOM     96  O   UNL     1       6.763  14.591   8.953  1.00  0.00    -0.237 OA
ATOM     97  O   UNL     1       6.261  14.611  11.363  1.00  0.00    -0.237 OA
ATOM     98  O   UNL     1       6.747  12.483  10.246  1.00  0.00    -0.744 OA
ENDBRANCH  92  95
ENDBRANCH  65  88
ENDBRANCH  39  40
ENDBRANCH  32  34
ENDBRANCH  31  32
ENDBRANCH  30  31
ENDBRANCH   1  30
TORSDOF 20
