REMARK SMILES C[NH2+]C[C@H](C)C(=O)N[C@H](Cc1ccccc1)C(=O)OCCOC(=O)c1ccc(-c2c3nc(c(-c4cccc(S(=O)(=O)[O-])c4F)c4ccc([nH]4)c(-c4cccc(S(=O)(=O)[O-])c4F)c4nc(c(-c5cccc(S(=O)(=O)[O-])c5F)c5ccc2[nH]5)C=C4)C=C3)cc1
REMARK SMILES IDX 20 1 19 2 17 3 18 4 9 5 8 6 6 7 7 8 4 10 5 11 3 12 2 13 1 14
REMARK SMILES IDX 10 17 11 18 12 19 16 20 13 21 15 22 14 23 21 24 22 25 23 26
REMARK SMILES IDX 24 27 25 28 26 29 87 30 27 31 86 32 28 33 29 34 30 35 80 36
REMARK SMILES IDX 31 37 85 38 79 39 81 40 32 41 84 42 78 43 77 44 33 46 65 47
REMARK SMILES IDX 45 48 64 49 46 50 49 51 63 52 82 53 47 54 48 55 62 57 83 58
REMARK SMILES IDX 50 59 34 60 35 61 43 62 36 63 38 64 44 65 37 66 39 67 40 68
REMARK SMILES IDX 41 69 42 70 66 71 67 72 75 73 68 74 70 75 76 76 69 77 71 78
REMARK SMILES IDX 72 79 73 80 74 81 51 82 52 83 60 84 53 85 55 86 61 87 54 88
REMARK SMILES IDX 56 89 57 90 58 91 59 92
REMARK H PARENT 8 9 2 15 2 16 81 45 49 56
REMARK Flexibility Score: inf
ROOT
ATOM      1  C   UNL     1      -4.877   5.772   1.507  1.00  0.00     0.274 C 
ENDROOT
BRANCH   1   2
ATOM      2  O   UNL     1      -4.535   4.461   0.987  1.00  0.00    -0.461 OA
BRANCH   2   3
ATOM      3  C   UNL     1      -3.351   4.418   0.325  1.00  0.00     0.329 C 
ATOM      4  O   UNL     1      -2.650   5.417   0.145  1.00  0.00    -0.250 OA
BRANCH   3   5
ATOM      5  C   UNL     1      -3.024   3.086  -0.414  1.00  0.00     0.196 C 
BRANCH   5   6
ATOM      6  N   UNL     1      -3.157   3.676  -1.772  1.00  0.00    -0.342 N 
ATOM      7  C   UNL     1      -3.949   3.574  -2.855  1.00  0.00     0.229 C 
ATOM      8  O   UNL     1      -3.990   4.496  -3.670  1.00  0.00    -0.275 OA
ATOM      9  H   UNL     1      -2.451   4.345  -1.926  1.00  0.00     0.164 HD
BRANCH   7  10
ATOM     10  C   UNL     1      -4.665   2.305  -3.108  1.00  0.00     0.130 C 
ATOM     11  C   UNL     1      -3.524   1.272  -3.226  1.00  0.00     0.024 C 
BRANCH  10  12
ATOM     12  C   UNL     1      -5.929   2.164  -2.218  1.00  0.00     0.273 C 
BRANCH  12  13
ATOM     13  N   UNL     1      -6.330   3.117  -1.177  1.00  0.00    -0.348 N 
ATOM     14  C   UNL     1      -6.826   4.396  -1.638  1.00  0.00     0.330 C 
ATOM     15  H   UNL     1      -7.064   2.680  -0.620  1.00  0.00     0.346 HD
ATOM     16  H   UNL     1      -5.478   3.327  -0.656  1.00  0.00     0.346 HD
ENDBRANCH  12  13
ENDBRANCH  10  12
ENDBRANCH   7  10
ENDBRANCH   5   6
BRANCH   5  17
ATOM     17  C   UNL     1      -3.620   1.775   0.259  1.00  0.00     0.072 C 
BRANCH  17  18
ATOM     18  C   UNL     1      -3.252   0.311  -0.085  1.00  0.00    -0.045 A 
ATOM     19  C   UNL     1      -2.152  -0.339   0.489  1.00  0.00     0.004 A 
ATOM     20  C   UNL     1      -4.070  -0.514  -0.882  1.00  0.00     0.004 A 
ATOM     21  C   UNL     1      -1.856  -1.690   0.194  1.00  0.00     0.000 A 
ATOM     22  C   UNL     1      -3.744  -1.826  -1.249  1.00  0.00     0.000 A 
ATOM     23  C   UNL     1      -2.626  -2.421  -0.708  1.00  0.00     0.000 A 
ENDBRANCH  17  18
ENDBRANCH   5  17
ENDBRANCH   3   5
ENDBRANCH   2   3
ENDBRANCH   1   2
BRANCH   1  24
ATOM     24  C   UNL     1      -4.471   5.958   2.976  1.00  0.00     0.275 C 
BRANCH  24  25
ATOM     25  O   UNL     1      -3.049   5.864   3.165  1.00  0.00    -0.458 OA
BRANCH  25  26
ATOM     26  C   UNL     1      -2.584   4.611   3.320  1.00  0.00     0.338 C 
ATOM     27  O   UNL     1      -3.252   3.572   3.361  1.00  0.00    -0.246 OA
BRANCH  26  28
ATOM     28  C   UNL     1      -1.127   4.582   3.237  1.00  0.00     0.060 A 
ATOM     29  C   UNL     1      -0.549   4.135   2.049  1.00  0.00     0.016 A 
ATOM     30  C   UNL     1      -0.334   4.840   4.347  1.00  0.00     0.016 A 
ATOM     31  C   UNL     1       0.802   3.892   1.952  1.00  0.00     0.010 A 
ATOM     32  C   UNL     1       1.043   4.637   4.246  1.00  0.00     0.010 A 
ATOM     33  C   UNL     1       1.609   4.140   3.055  1.00  0.00    -0.014 A 
BRANCH  33  34
ATOM     34  C   UNL     1       3.036   3.794   2.961  1.00  0.00     0.031 A 
ATOM     35  C   UNL     1       3.568   2.674   3.795  1.00  0.00     0.074 A 
ATOM     36  C   UNL     1       3.824   4.470   2.107  1.00  0.00     0.049 A 
ATOM     37  N   UNL     1       4.803   2.298   3.974  1.00  0.00    -0.248 NA
ATOM     38  C   UNL     1       2.576   1.876   4.536  1.00  0.00     0.031 C 
ATOM     39  C   UNL     1       3.377   5.540   1.211  1.00  0.00     0.029 A 
ATOM     40  N   UNL     1       5.168   4.373   1.871  1.00  0.00    -0.354 N 
ATOM     41  C   UNL     1       4.748   1.268   4.902  1.00  0.00     0.074 A 
ATOM     42  C   UNL     1       3.356   1.075   5.245  1.00  0.00     0.031 C 
ATOM     43  C   UNL     1       4.436   6.023   0.546  1.00  0.00     0.029 A 
ATOM     44  C   UNL     1       5.636   5.345   1.021  1.00  0.00     0.049 A 
ATOM     45  H   UNL     1       5.741   3.678   2.270  1.00  0.00     0.167 HD
ATOM     46  C   UNL     1       5.773   0.551   5.416  1.00  0.00     0.034 A 
ATOM     47  C   UNL     1       6.898   5.691   0.712  1.00  0.00     0.034 A 
ATOM     48  C   UNL     1       7.146   0.752   5.038  1.00  0.00     0.049 A 
ATOM     49  C   UNL     1       8.023   4.904   1.318  1.00  0.00     0.074 A 
ATOM     50  C   UNL     1       8.268   0.070   5.470  1.00  0.00     0.029 A 
ATOM     51  N   UNL     1       7.584   1.720   4.144  1.00  0.00    -0.354 N 
ATOM     52  N   UNL     1       7.964   3.897   2.156  1.00  0.00    -0.248 NA
ATOM     53  C   UNL     1       9.383   5.281   0.919  1.00  0.00     0.031 C 
ATOM     54  C   UNL     1       9.387   0.650   4.864  1.00  0.00     0.029 A 
ATOM     55  C   UNL     1       8.961   1.664   4.019  1.00  0.00     0.049 A 
ATOM     56  H   UNL     1       7.000   2.353   3.667  1.00  0.00     0.167 HD
ATOM     57  C   UNL     1       9.277   3.499   2.367  1.00  0.00     0.074 A 
ATOM     58  C   UNL     1      10.107   4.364   1.550  1.00  0.00     0.031 C 
ATOM     59  C   UNL     1       9.757   2.516   3.170  1.00  0.00     0.034 A 
BRANCH  46  60
ATOM     60  C   UNL     1       5.435  -0.492   6.448  1.00  0.00     0.023 A 
ATOM     61  C   UNL     1       4.727  -1.654   6.078  1.00  0.00     0.012 A 
ATOM     62  C   UNL     1       5.812  -0.314   7.793  1.00  0.00     0.148 A 
ATOM     63  C   UNL     1       4.355  -2.595   7.037  1.00  0.00     0.002 A 
ATOM     64  C   UNL     1       5.483  -1.282   8.735  1.00  0.00     0.091 A 
ATOM     65  F   UNL     1       6.459   0.810   8.134  1.00  0.00    -0.205 F 
ATOM     66  C   UNL     1       4.739  -2.413   8.362  1.00  0.00     0.022 A 
BRANCH  64  67
ATOM     67  S   UNL     1       6.002  -1.175  10.450  1.00  0.00     0.127 S 
ATOM     68  O   UNL     1       4.741  -0.864  11.122  1.00  0.00    -0.237 OA
ATOM     69  O   UNL     1       6.510  -2.524  10.702  1.00  0.00    -0.237 OA
ATOM     70  O   UNL     1       7.013  -0.128  10.498  1.00  0.00    -0.744 OA
ENDBRANCH  64  67
ENDBRANCH  46  60
BRANCH  47  71
ATOM     71  C   UNL     1       7.137   6.841  -0.202  1.00  0.00     0.023 A 
ATOM     72  C   UNL     1       7.628   6.612  -1.500  1.00  0.00     0.012 A 
ATOM     73  C   UNL     1       6.806   8.154   0.190  1.00  0.00     0.148 A 
ATOM     74  C   UNL     1       7.802   7.675  -2.387  1.00  0.00     0.002 A 
ATOM     75  C   UNL     1       6.926   9.198  -0.718  1.00  0.00     0.091 A 
ATOM     76  F   UNL     1       6.346   8.348   1.434  1.00  0.00    -0.205 F 
ATOM     77  C   UNL     1       7.440   8.963  -2.002  1.00  0.00     0.022 A 
BRANCH  75  78
ATOM     78  S   UNL     1       6.355  10.863  -0.357  1.00  0.00     0.127 S 
ATOM     79  O   UNL     1       7.608  11.613  -0.347  1.00  0.00    -0.237 OA
ATOM     80  O   UNL     1       5.483  11.133  -1.500  1.00  0.00    -0.237 OA
ATOM     81  O   UNL     1       5.664  10.777   0.922  1.00  0.00    -0.744 OA
ENDBRANCH  75  78
ENDBRANCH  47  71
BRANCH  59  82
ATOM     82  C   UNL     1      11.247   2.297   3.174  1.00  0.00     0.023 A 
ATOM     83  C   UNL     1      12.096   3.232   3.797  1.00  0.00     0.012 A 
ATOM     84  C   UNL     1      11.794   1.125   2.618  1.00  0.00     0.148 A 
ATOM     85  C   UNL     1      13.473   3.019   3.836  1.00  0.00     0.002 A 
ATOM     86  C   UNL     1      13.159   0.893   2.709  1.00  0.00     0.091 A 
ATOM     87  F   UNL     1      10.968   0.259   2.013  1.00  0.00    -0.205 F 
ATOM     88  C   UNL     1      14.003   1.845   3.304  1.00  0.00     0.022 A 
BRANCH  86  89
ATOM     89  S   UNL     1      13.915  -0.635   2.145  1.00  0.00     0.127 S 
ATOM     90  O   UNL     1      14.662  -0.183   0.972  1.00  0.00    -0.237 OA
ATOM     91  O   UNL     1      14.745  -1.010   3.290  1.00  0.00    -0.237 OA
ATOM     92  O   UNL     1      12.816  -1.551   1.869  1.00  0.00    -0.744 OA
ENDBRANCH  86  89
ENDBRANCH  59  82
ENDBRANCH  33  34
ENDBRANCH  26  28
ENDBRANCH  25  26
ENDBRANCH  24  25
ENDBRANCH   1  24
TORSDOF 20
