REMARK SMILES O=C(OCCOC(=O)[C@H](c1c[nH]c2ccc(Cl)cc12)[NH+]1CCN(c2cccc(Cl)c2)CC1)c1ccc(-c2c3nc(c(-c4cccc(S(=O)(=O)[O-])c4F)c4ccc([nH]4)c(-c4cccc(S(=O)(=O)[O-])c4F)c4nc(c(-c5cccc(S(=O)(=O)[O-])c5F)c5ccc2[nH]5)C=C4)C=C3)cc1
REMARK SMILES IDX 4 1 3 2 2 3 1 4 33 5 34 6 95 7 35 8 94 9 36 10 37 11 38 12
REMARK SMILES IDX 88 13 39 14 93 15 87 16 89 17 40 18 92 19 86 20 85 21 41 23
REMARK SMILES IDX 73 24 53 25 72 26 54 27 57 28 71 29 90 30 55 31 56 32 70 34
REMARK SMILES IDX 91 35 58 36 42 37 43 38 51 39 44 40 46 41 52 42 45 43 47 44
REMARK SMILES IDX 48 45 49 46 50 47 74 48 75 49 83 50 76 51 78 52 84 53 77 54
REMARK SMILES IDX 79 55 80 56 81 57 82 58 59 59 60 60 68 61 61 62 63 63 69 64
REMARK SMILES IDX 62 65 64 66 65 67 66 68 67 69 5 70 6 71 7 72 8 73 9 74 20 75
REMARK SMILES IDX 21 76 32 77 22 79 31 80 23 81 24 82 25 83 30 84 26 85 28 86
REMARK SMILES IDX 27 87 29 88 10 89 11 90 19 91 12 92 13 93 18 94 14 96 16 97
REMARK SMILES IDX 15 98 17 99
REMARK H PARENT 89 22 57 33 20 78 12 95
REMARK Flexibility Score: inf
ROOT
ATOM      1  C   UNL     1       2.110   4.427   2.738  1.00  0.00     0.275 C 
ENDROOT
BRANCH   1   2
ATOM      2  O   UNL     1       1.465   3.139   2.812  1.00  0.00    -0.458 OA
BRANCH   2   3
ATOM      3  C   UNL     1       0.671   2.473   1.940  1.00  0.00     0.338 C 
ATOM      4  O   UNL     1       0.254   1.364   2.275  1.00  0.00    -0.246 OA
BRANCH   3   5
ATOM      5  C   UNL     1       0.327   2.950   0.559  1.00  0.00     0.060 A 
ATOM      6  C   UNL     1       0.320   4.276   0.128  1.00  0.00     0.016 A 
ATOM      7  C   UNL     1      -0.032   1.964  -0.384  1.00  0.00     0.016 A 
ATOM      8  C   UNL     1       0.103   4.592  -1.221  1.00  0.00     0.010 A 
ATOM      9  C   UNL     1      -0.275   2.280  -1.732  1.00  0.00     0.010 A 
ATOM     10  C   UNL     1      -0.153   3.594  -2.175  1.00  0.00    -0.014 A 
BRANCH  10  11
ATOM     11  C   UNL     1      -0.523   4.011  -3.552  1.00  0.00     0.031 A 
ATOM     12  C   UNL     1      -1.919   4.505  -3.732  1.00  0.00     0.074 A 
ATOM     13  C   UNL     1       0.339   4.034  -4.590  1.00  0.00     0.049 A 
ATOM     14  N   UNL     1      -2.456   5.113  -4.750  1.00  0.00    -0.248 NA
ATOM     15  C   UNL     1      -2.836   4.257  -2.607  1.00  0.00     0.031 C 
ATOM     16  C   UNL     1       1.677   3.469  -4.582  1.00  0.00     0.029 A 
ATOM     17  N   UNL     1       0.238   4.596  -5.843  1.00  0.00    -0.354 N 
ATOM     18  C   UNL     1      -3.790   5.269  -4.413  1.00  0.00     0.074 A 
ATOM     19  C   UNL     1      -3.970   4.740  -3.080  1.00  0.00     0.031 C 
ATOM     20  C   UNL     1       2.334   3.845  -5.694  1.00  0.00     0.029 A 
ATOM     21  C   UNL     1       1.423   4.586  -6.558  1.00  0.00     0.049 A 
ATOM     22  H   UNL     1      -0.600   4.972  -6.199  1.00  0.00     0.167 HD
ATOM     23  C   UNL     1      -4.793   5.765  -5.168  1.00  0.00     0.034 A 
ATOM     24  C   UNL     1       1.724   5.104  -7.770  1.00  0.00     0.034 A 
ATOM     25  C   UNL     1      -4.628   6.206  -6.521  1.00  0.00     0.049 A 
ATOM     26  C   UNL     1       0.595   5.710  -8.571  1.00  0.00     0.074 A 
ATOM     27  C   UNL     1      -5.591   6.670  -7.395  1.00  0.00     0.029 A 
ATOM     28  N   UNL     1      -3.424   6.196  -7.210  1.00  0.00    -0.354 N 
ATOM     29  N   UNL     1      -0.645   5.937  -8.207  1.00  0.00    -0.248 NA
ATOM     30  C   UNL     1       0.891   6.096  -9.960  1.00  0.00     0.031 C 
ATOM     31  C   UNL     1      -4.974   6.908  -8.627  1.00  0.00     0.029 A 
ATOM     32  C   UNL     1      -3.618   6.644  -8.502  1.00  0.00     0.049 A 
ATOM     33  H   UNL     1      -2.560   5.911  -6.834  1.00  0.00     0.167 HD
ATOM     34  C   UNL     1      -1.278   6.473  -9.322  1.00  0.00     0.074 A 
ATOM     35  C   UNL     1      -0.271   6.599 -10.355  1.00  0.00     0.031 C 
ATOM     36  C   UNL     1      -2.584   6.794  -9.494  1.00  0.00     0.034 A 
BRANCH  23  37
ATOM     37  C   UNL     1      -6.155   5.752  -4.543  1.00  0.00     0.023 A 
ATOM     38  C   UNL     1      -6.457   6.641  -3.491  1.00  0.00     0.012 A 
ATOM     39  C   UNL     1      -7.106   4.798  -4.947  1.00  0.00     0.148 A 
ATOM     40  C   UNL     1      -7.672   6.546  -2.817  1.00  0.00     0.002 A 
ATOM     41  C   UNL     1      -8.334   4.745  -4.305  1.00  0.00     0.091 A 
ATOM     42  F   UNL     1      -6.775   3.937  -5.920  1.00  0.00    -0.205 F 
ATOM     43  C   UNL     1      -8.612   5.604  -3.228  1.00  0.00     0.022 A 
BRANCH  41  44
ATOM     44  S   UNL     1      -9.633   3.612  -4.801  1.00  0.00     0.127 S 
ATOM     45  O   UNL     1      -9.725   2.739  -3.631  1.00  0.00    -0.237 OA
ATOM     46  O   UNL     1     -10.768   4.517  -4.979  1.00  0.00    -0.237 OA
ATOM     47  O   UNL     1      -9.166   2.970  -6.021  1.00  0.00    -0.744 OA
ENDBRANCH  41  44
ENDBRANCH  23  37
BRANCH  24  48
ATOM     48  C   UNL     1       3.116   5.077  -8.334  1.00  0.00     0.023 A 
ATOM     49  C   UNL     1       3.756   6.292  -8.671  1.00  0.00     0.012 A 
ATOM     50  C   UNL     1       3.804   3.873  -8.579  1.00  0.00     0.148 A 
ATOM     51  C   UNL     1       5.021   6.304  -9.267  1.00  0.00     0.002 A 
ATOM     52  C   UNL     1       5.096   3.894  -9.098  1.00  0.00     0.091 A 
ATOM     53  F   UNL     1       3.177   2.718  -8.317  1.00  0.00    -0.205 F 
ATOM     54  C   UNL     1       5.698   5.106  -9.467  1.00  0.00     0.022 A 
BRANCH  52  55
ATOM     55  S   UNL     1       6.098   2.409  -9.238  1.00  0.00     0.127 S 
ATOM     56  O   UNL     1       6.138   2.207 -10.684  1.00  0.00    -0.237 OA
ATOM     57  O   UNL     1       7.364   2.842  -8.642  1.00  0.00    -0.237 OA
ATOM     58  O   UNL     1       5.396   1.390  -8.472  1.00  0.00    -0.744 OA
ENDBRANCH  52  55
ENDBRANCH  24  48
BRANCH  36  59
ATOM     59  C   UNL     1      -3.000   7.336 -10.835  1.00  0.00     0.023 A 
ATOM     60  C   UNL     1      -3.076   6.481 -11.951  1.00  0.00     0.012 A 
ATOM     61  C   UNL     1      -3.418   8.675 -10.954  1.00  0.00     0.148 A 
ATOM     62  C   UNL     1      -3.540   6.959 -13.176  1.00  0.00     0.002 A 
ATOM     63  C   UNL     1      -3.931   9.129 -12.161  1.00  0.00     0.091 A 
ATOM     64  F   UNL     1      -3.318   9.473  -9.881  1.00  0.00    -0.205 F 
ATOM     65  C   UNL     1      -3.981   8.277 -13.276  1.00  0.00     0.022 A 
BRANCH  63  66
ATOM     66  S   UNL     1      -4.622  10.776 -12.348  1.00  0.00     0.127 S 
ATOM     67  O   UNL     1      -3.619  11.423 -13.193  1.00  0.00    -0.237 OA
ATOM     68  O   UNL     1      -5.896  10.502 -13.012  1.00  0.00    -0.237 OA
ATOM     69  O   UNL     1      -4.745  11.316 -11.001  1.00  0.00    -0.744 OA
ENDBRANCH  63  66
ENDBRANCH  36  59
ENDBRANCH  10  11
ENDBRANCH   3   5
ENDBRANCH   2   3
ENDBRANCH   1   2
BRANCH   1  70
ATOM     70  C   UNL     1       3.396   4.430   1.920  1.00  0.00     0.274 C 
BRANCH  70  71
ATOM     71  O   UNL     1       3.191   3.864   0.619  1.00  0.00    -0.457 OA
BRANCH  71  72
ATOM     72  C   UNL     1       3.901   2.738   0.305  1.00  0.00     0.370 C 
ATOM     73  O   UNL     1       4.640   2.169   1.109  1.00  0.00    -0.245 OA
BRANCH  72  74
ATOM     74  C   UNL     1       3.615   2.292  -1.146  1.00  0.00     0.328 C 
BRANCH  74  75
ATOM     75  N   UNL     1       4.084   3.213  -2.220  1.00  0.00    -0.316 N 
ATOM     76  C   UNL     1       3.495   4.556  -2.263  1.00  0.00     0.284 C 
ATOM     77  C   UNL     1       5.521   3.359  -2.448  1.00  0.00     0.284 C 
ATOM     78  H   UNL     1       3.704   2.650  -2.981  1.00  0.00     0.349 HD
ATOM     79  C   UNL     1       4.143   5.700  -1.470  1.00  0.00     0.178 C 
ATOM     80  C   UNL     1       6.219   4.199  -1.377  1.00  0.00     0.178 C 
ATOM     81  N   UNL     1       5.564   5.497  -1.178  1.00  0.00    -0.360 N 
BRANCH  81  82
ATOM     82  C   UNL     1       6.331   6.646  -1.151  1.00  0.00     0.038 A 
ATOM     83  C   UNL     1       7.201   6.950  -2.204  1.00  0.00     0.026 A 
ATOM     84  C   UNL     1       6.189   7.562  -0.105  1.00  0.00     0.046 A 
ATOM     85  C   UNL     1       7.931   8.135  -2.209  1.00  0.00     0.004 A 
ATOM     86  C   UNL     1       6.927   8.742  -0.104  1.00  0.00     0.043 A 
ATOM     87  C   UNL     1       7.798   9.032  -1.152  1.00  0.00     0.020 A 
ATOM     88  Cl  UNL     1       6.756   9.851   1.202  1.00  0.00    -0.084 Cl
ENDBRANCH  81  82
ENDBRANCH  74  75
BRANCH  74  89
ATOM     89  C   UNL     1       4.123   0.888  -1.458  1.00  0.00     0.046 A 
ATOM     90  C   UNL     1       5.407   0.412  -1.234  1.00  0.00     0.094 A 
ATOM     91  C   UNL     1       3.419  -0.194  -2.103  1.00  0.00     0.011 A 
ATOM     92  N   UNL     1       5.569  -0.744  -1.939  1.00  0.00    -0.361 N 
ATOM     93  C   UNL     1       4.373  -1.145  -2.474  1.00  0.00     0.046 A 
ATOM     94  C   UNL     1       2.080  -0.449  -2.465  1.00  0.00     0.031 A 
ATOM     95  H   UNL     1       6.423  -1.221  -2.049  1.00  0.00     0.166 HD
ATOM     96  C   UNL     1       4.080  -2.260  -3.270  1.00  0.00     0.028 A 
ATOM     97  C   UNL     1       1.758  -1.599  -3.196  1.00  0.00     0.041 A 
ATOM     98  C   UNL     1       2.747  -2.474  -3.625  1.00  0.00     0.022 A 
ATOM     99  Cl  UNL     1       0.108  -1.939  -3.559  1.00  0.00    -0.084 Cl
ENDBRANCH  74  89
ENDBRANCH  72  74
ENDBRANCH  71  72
ENDBRANCH  70  71
ENDBRANCH   1  70
TORSDOF 17
