REMARK SMILES Cc1ccc(NC(=O)NC2(C(=O)OCCOC(=O)c3ccc(-c4c5nc(c(-c6cccc(S(=O)(=O)[O-])c6F)c6ccc([nH]6)c(-c6cccc(S(=O)(=O)[O-])c6F)c6nc(c(-c7cccc(S(=O)(=O)[O-])c7F)c7ccc4[nH]7)C=C6)C=C5)cc3)CC2)c(C)n1
REMARK SMILES IDX 15 1 14 2 13 3 11 4 12 5 10 6 82 7 83 8 9 9 6 10 7 11 8 13
REMARK SMILES IDX 5 15 1 16 2 17 3 18 86 19 4 20 84 21 85 22 16 23 17 24 18 25
REMARK SMILES IDX 19 26 20 27 81 28 21 29 80 30 22 31 23 32 24 33 74 34 25 35
REMARK SMILES IDX 79 36 73 37 75 38 26 39 78 40 72 41 71 42 27 44 59 45 39 46
REMARK SMILES IDX 58 47 40 48 43 49 57 50 76 51 41 52 42 53 56 55 77 56 44 57
REMARK SMILES IDX 28 58 29 59 37 60 30 61 32 62 38 63 31 64 33 65 34 66 35 67
REMARK SMILES IDX 36 68 60 69 61 70 69 71 62 72 64 73 70 74 63 75 65 76 66 77
REMARK SMILES IDX 67 78 68 79 45 80 46 81 54 82 47 83 49 84 55 85 48 86 50 87
REMARK SMILES IDX 51 88 52 89 53 90
REMARK H PARENT 6 12 9 14 75 43 43 54
REMARK Flexibility Score: inf
ROOT
ATOM      1  C   UNL     1       2.068  -0.300   3.783  1.00  0.00     0.275 C 
ENDROOT
BRANCH   1   2
ATOM      2  C   UNL     1       2.382   1.007   3.045  1.00  0.00     0.274 C 
BRANCH   2   3
ATOM      3  O   UNL     1       2.538   0.745   1.630  1.00  0.00    -0.460 OA
BRANCH   3   4
ATOM      4  C   UNL     1       3.217   1.654   0.862  1.00  0.00     0.332 C 
ATOM      5  O   UNL     1       3.760   2.663   1.299  1.00  0.00    -0.249 OA
BRANCH   4   6
ATOM      6  C   UNL     1       3.190   1.304  -0.644  1.00  0.00     0.139 C 
ATOM      7  C   UNL     1       3.691   2.438  -1.546  1.00  0.00     0.043 C 
ATOM      8  C   UNL     1       2.346   1.880  -1.798  1.00  0.00     0.043 C 
BRANCH   6   9
ATOM      9  N   UNL     1       3.460  -0.055  -0.906  1.00  0.00    -0.322 N 
ATOM     10  N   UNL     1       1.382  -1.078  -0.291  1.00  0.00    -0.306 N 
ATOM     11  C   UNL     1       2.657  -1.091  -0.689  1.00  0.00     0.320 C 
ATOM     12  H   UNL     1       1.179  -2.013  -0.058  1.00  0.00     0.171 HD
ATOM     13  O   UNL     1       3.134  -2.213  -0.910  1.00  0.00    -0.248 OA
ATOM     14  H   UNL     1       4.342  -0.259  -1.293  1.00  0.00     0.166 HD
BRANCH  10  15
ATOM     15  C   UNL     1       0.168  -0.365  -0.041  1.00  0.00     0.064 A 
ATOM     16  C   UNL     1      -3.954   0.862   0.043  1.00  0.00     0.067 C 
ATOM     17  C   UNL     1      -2.564   0.337   0.072  1.00  0.00     0.038 A 
ATOM     18  C   UNL     1      -2.242  -0.988   0.024  1.00  0.00     0.025 A 
ATOM     19  N   UNL     1      -1.614   1.270   0.138  1.00  0.00    -0.256 NA
ATOM     20  C   UNL     1      -0.891  -1.318  -0.029  1.00  0.00     0.030 A 
ATOM     21  C   UNL     1      -0.278   0.963   0.130  1.00  0.00     0.061 A 
ATOM     22  C   UNL     1       0.338   2.252   0.557  1.00  0.00     0.069 C 
ENDBRANCH  10  15
ENDBRANCH   6   9
ENDBRANCH   4   6
ENDBRANCH   3   4
ENDBRANCH   2   3
ENDBRANCH   1   2
BRANCH   1  23
ATOM     23  O   UNL     1       3.222  -1.141   3.667  1.00  0.00    -0.458 OA
BRANCH  23  24
ATOM     24  C   UNL     1       3.066  -2.249   2.906  1.00  0.00     0.338 C 
ATOM     25  O   UNL     1       2.032  -2.849   2.666  1.00  0.00    -0.246 OA
BRANCH  24  26
ATOM     26  C   UNL     1       4.355  -2.518   2.246  1.00  0.00     0.060 A 
ATOM     27  C   UNL     1       4.995  -1.458   1.604  1.00  0.00     0.016 A 
ATOM     28  C   UNL     1       4.840  -3.813   2.109  1.00  0.00     0.016 A 
ATOM     29  C   UNL     1       6.021  -1.703   0.707  1.00  0.00     0.010 A 
ATOM     30  C   UNL     1       5.981  -4.030   1.331  1.00  0.00     0.010 A 
ATOM     31  C   UNL     1       6.561  -2.985   0.587  1.00  0.00    -0.014 A 
BRANCH  31  32
ATOM     32  C   UNL     1       7.730  -3.231  -0.303  1.00  0.00     0.031 A 
ATOM     33  C   UNL     1       7.706  -4.386  -1.267  1.00  0.00     0.074 A 
ATOM     34  C   UNL     1       8.836  -2.463  -0.197  1.00  0.00     0.049 A 
ATOM     35  N   UNL     1       8.705  -4.986  -1.857  1.00  0.00    -0.248 NA
ATOM     36  C   UNL     1       6.389  -4.970  -1.581  1.00  0.00     0.031 C 
ATOM     37  C   UNL     1       8.985  -1.292   0.674  1.00  0.00     0.029 A 
ATOM     38  N   UNL     1      10.067  -2.576  -0.797  1.00  0.00    -0.354 N 
ATOM     39  C   UNL     1       8.157  -6.086  -2.508  1.00  0.00     0.074 A 
ATOM     40  C   UNL     1       6.729  -6.048  -2.276  1.00  0.00     0.031 C 
ATOM     41  C   UNL     1      10.220  -0.795   0.551  1.00  0.00     0.029 A 
ATOM     42  C   UNL     1      10.993  -1.690  -0.292  1.00  0.00     0.049 A 
ATOM     43  H   UNL     1      10.266  -3.222  -1.513  1.00  0.00     0.167 HD
ATOM     44  C   UNL     1       8.801  -7.044  -3.216  1.00  0.00     0.034 A 
ATOM     45  C   UNL     1      12.334  -1.654  -0.398  1.00  0.00     0.034 A 
ATOM     46  C   UNL     1      10.210  -7.003  -3.511  1.00  0.00     0.049 A 
ATOM     47  C   UNL     1      13.016  -2.713  -1.208  1.00  0.00     0.074 A 
ATOM     48  C   UNL     1      10.949  -7.869  -4.297  1.00  0.00     0.029 A 
ATOM     49  N   UNL     1      11.090  -6.043  -3.036  1.00  0.00    -0.354 N 
ATOM     50  N   UNL     1      12.487  -3.729  -1.845  1.00  0.00    -0.248 NA
ATOM     51  C   UNL     1      14.476  -2.618  -1.324  1.00  0.00     0.031 C 
ATOM     52  C   UNL     1      12.283  -7.454  -4.267  1.00  0.00     0.029 A 
ATOM     53  C   UNL     1      12.368  -6.303  -3.500  1.00  0.00     0.049 A 
ATOM     54  H   UNL     1      10.843  -5.287  -2.455  1.00  0.00     0.167 HD
ATOM     55  C   UNL     1      13.546  -4.382  -2.459  1.00  0.00     0.074 A 
ATOM     56  C   UNL     1      14.742  -3.628  -2.140  1.00  0.00     0.031 C 
ATOM     57  C   UNL     1      13.535  -5.512  -3.206  1.00  0.00     0.034 A 
BRANCH  44  58
ATOM     58  C   UNL     1       8.012  -8.225  -3.723  1.00  0.00     0.023 A 
ATOM     59  C   UNL     1       7.109  -8.080  -4.794  1.00  0.00     0.012 A 
ATOM     60  C   UNL     1       8.251  -9.511  -3.192  1.00  0.00     0.148 A 
ATOM     61  C   UNL     1       6.441  -9.190  -5.314  1.00  0.00     0.002 A 
ATOM     62  C   UNL     1       7.619 -10.618  -3.747  1.00  0.00     0.091 A 
ATOM     63  F   UNL     1       9.099  -9.628  -2.161  1.00  0.00    -0.205 F 
ATOM     64  C   UNL     1       6.706 -10.458  -4.801  1.00  0.00     0.022 A 
BRANCH  62  65
ATOM     65  S   UNL     1       7.963 -12.301  -3.217  1.00  0.00     0.127 S 
ATOM     66  O   UNL     1       6.686 -12.688  -2.618  1.00  0.00    -0.237 OA
ATOM     67  O   UNL     1       8.265 -12.965  -4.486  1.00  0.00    -0.237 OA
ATOM     68  O   UNL     1       9.082 -12.214  -2.291  1.00  0.00    -0.744 OA
ENDBRANCH  62  65
ENDBRANCH  44  58
BRANCH  45  69
ATOM     69  C   UNL     1      13.108  -0.605   0.327  1.00  0.00     0.023 A 
ATOM     70  C   UNL     1      13.774   0.397  -0.402  1.00  0.00     0.012 A 
ATOM     71  C   UNL     1      13.139  -0.566   1.736  1.00  0.00     0.148 A 
ATOM     72  C   UNL     1      14.479   1.404   0.258  1.00  0.00     0.002 A 
ATOM     73  C   UNL     1      13.783   0.479   2.387  1.00  0.00     0.091 A 
ATOM     74  F   UNL     1      12.513  -1.537   2.416  1.00  0.00    -0.205 F 
ATOM     75  C   UNL     1      14.471   1.454   1.650  1.00  0.00     0.022 A 
BRANCH  73  76
ATOM     76  S   UNL     1      13.678   0.709   4.166  1.00  0.00     0.127 S 
ATOM     77  O   UNL     1      15.017   0.316   4.597  1.00  0.00    -0.237 OA
ATOM     78  O   UNL     1      13.391   2.140   4.272  1.00  0.00    -0.237 OA
ATOM     79  O   UNL     1      12.588  -0.151   4.608  1.00  0.00    -0.744 OA
ENDBRANCH  73  76
ENDBRANCH  45  69
BRANCH  57  80
ATOM     80  C   UNL     1      14.850  -5.970  -3.774  1.00  0.00     0.023 A 
ATOM     81  C   UNL     1      15.826  -6.533  -2.930  1.00  0.00     0.012 A 
ATOM     82  C   UNL     1      15.092  -5.884  -5.158  1.00  0.00     0.148 A 
ATOM     83  C   UNL     1      17.043  -6.968  -3.451  1.00  0.00     0.002 A 
ATOM     84  C   UNL     1      16.283  -6.371  -5.678  1.00  0.00     0.091 A 
ATOM     85  F   UNL     1      14.155  -5.326  -5.938  1.00  0.00    -0.205 F 
ATOM     86  C   UNL     1      17.266  -6.899  -4.825  1.00  0.00     0.022 A 
BRANCH  84  87
ATOM     87  S   UNL     1      16.616  -6.412  -7.441  1.00  0.00     0.127 S 
ATOM     88  O   UNL     1      17.658  -5.394  -7.571  1.00  0.00    -0.237 OA
ATOM     89  O   UNL     1      17.078  -7.786  -7.636  1.00  0.00    -0.237 OA
ATOM     90  O   UNL     1      15.354  -6.098  -8.098  1.00  0.00    -0.744 OA
ENDBRANCH  84  87
ENDBRANCH  57  80
ENDBRANCH  31  32
ENDBRANCH  24  26
ENDBRANCH  23  24
ENDBRANCH   1  23
TORSDOF 16
