REMARK SMILES CCc1ccc(C[N@H+]2CC[C@@H](C(=O)OCCOC(=O)c3ccc(-c4c5nc(c(-c6cccc(S(=O)(=O)[O-])c6F)c6ccc([nH]6)c(-c6cccc(S(=O)(=O)[O-])c6F)c6nc(c(-c7cccc(S(=O)(=O)[O-])c7F)c7ccc4[nH]7)C=C6)C=C5)cc3)[C@@H]2C)cc1
REMARK SMILES IDX 15 1 14 2 12 3 13 4 11 5 8 6 9 7 83 8 10 10 84 11 7 12 6 13
REMARK SMILES IDX 3 14 4 15 86 16 5 17 85 18 2 19 1 20 16 21 17 22 18 23 19 24
REMARK SMILES IDX 20 25 21 26 82 27 22 28 81 29 23 30 24 31 25 32 75 33 26 34
REMARK SMILES IDX 80 35 74 36 76 37 27 38 79 39 73 40 72 41 28 43 60 44 40 45
REMARK SMILES IDX 59 46 41 47 44 48 58 49 77 50 42 51 43 52 57 54 78 55 45 56
REMARK SMILES IDX 29 57 30 58 38 59 31 60 33 61 39 62 32 63 34 64 35 65 36 66
REMARK SMILES IDX 37 67 61 68 62 69 70 70 63 71 65 72 71 73 64 74 66 75 67 76
REMARK SMILES IDX 68 77 69 78 46 79 47 80 55 81 48 82 50 83 56 84 49 85 51 86
REMARK SMILES IDX 52 87 53 88 54 89
REMARK H PARENT 8 9 76 42 44 53
REMARK Flexibility Score: inf
ROOT
ATOM      1  C   UNL     1       0.083  -1.936   4.521  1.00  0.00     0.274 C 
ENDROOT
BRANCH   1   2
ATOM      2  O   UNL     1       0.160  -0.648   5.171  1.00  0.00    -0.462 OA
BRANCH   2   3
ATOM      3  C   UNL     1      -0.965  -0.172   5.750  1.00  0.00     0.315 C 
ATOM      4  O   UNL     1      -2.056  -0.730   5.694  1.00  0.00    -0.252 OA
BRANCH   3   5
ATOM      5  C   UNL     1      -0.790   1.157   6.466  1.00  0.00     0.162 C 
ATOM      6  N   UNL     1       0.802   2.981   6.468  1.00  0.00    -0.328 N 
ATOM      7  C   UNL     1      -0.508   3.486   6.065  1.00  0.00     0.263 C 
ATOM      8  C   UNL     1       0.626   1.578   6.905  1.00  0.00     0.195 C 
ATOM      9  H   UNL     1       1.138   3.540   7.252  1.00  0.00     0.348 HD
ATOM     10  C   UNL     1      -1.294   2.286   5.584  1.00  0.00     0.083 C 
ATOM     11  C   UNL     1       0.782   1.577   8.433  1.00  0.00     0.076 C 
BRANCH   6  12
ATOM     12  C   UNL     1       1.898   3.206   5.513  1.00  0.00     0.299 C 
BRANCH  12  13
ATOM     13  C   UNL     1       1.850   2.417   4.222  1.00  0.00     0.006 A 
ATOM     14  C   UNL     1       1.399   0.714   2.023  1.00  0.00    -0.048 A 
ATOM     15  C   UNL     1       2.306   0.352   3.025  1.00  0.00     0.004 A 
ATOM     16  C   UNL     1       0.821   1.988   2.066  1.00  0.00     0.004 A 
ATOM     17  C   UNL     1       2.526   1.194   4.116  1.00  0.00     0.010 A 
ATOM     18  C   UNL     1       1.060   2.840   3.147  1.00  0.00     0.010 A 
BRANCH  14  19
ATOM     19  C   UNL     1       0.950  -0.302   1.004  1.00  0.00     0.032 C 
ATOM     20  C   UNL     1       1.273   0.070  -0.431  1.00  0.00     0.009 C 
ENDBRANCH  14  19
ENDBRANCH  12  13
ENDBRANCH   6  12
ENDBRANCH   3   5
ENDBRANCH   2   3
ENDBRANCH   1   2
BRANCH   1  21
ATOM     21  C   UNL     1       1.054  -2.915   5.184  1.00  0.00     0.275 C 
BRANCH  21  22
ATOM     22  O   UNL     1       0.533  -3.322   6.459  1.00  0.00    -0.458 OA
BRANCH  22  23
ATOM     23  C   UNL     1       0.845  -2.494   7.482  1.00  0.00     0.338 C 
ATOM     24  O   UNL     1       1.650  -1.582   7.481  1.00  0.00    -0.246 OA
BRANCH  23  25
ATOM     25  C   UNL     1      -0.114  -2.728   8.569  1.00  0.00     0.060 A 
ATOM     26  C   UNL     1      -0.964  -1.677   8.919  1.00  0.00     0.016 A 
ATOM     27  C   UNL     1      -0.159  -3.938   9.255  1.00  0.00     0.016 A 
ATOM     28  C   UNL     1      -1.836  -1.801   9.986  1.00  0.00     0.010 A 
ATOM     29  C   UNL     1      -1.056  -4.076  10.314  1.00  0.00     0.010 A 
ATOM     30  C   UNL     1      -1.879  -3.001  10.696  1.00  0.00    -0.014 A 
BRANCH  30  31
ATOM     31  C   UNL     1      -2.742  -3.095  11.890  1.00  0.00     0.031 A 
ATOM     32  C   UNL     1      -2.105  -3.154  13.245  1.00  0.00     0.074 A 
ATOM     33  C   UNL     1      -4.079  -3.114  11.745  1.00  0.00     0.049 A 
ATOM     34  N   UNL     1      -2.663  -3.336  14.410  1.00  0.00    -0.248 NA
ATOM     35  C   UNL     1      -0.641  -2.995  13.294  1.00  0.00     0.031 C 
ATOM     36  C   UNL     1      -4.792  -3.024  10.468  1.00  0.00     0.029 A 
ATOM     37  N   UNL     1      -5.075  -3.237  12.677  1.00  0.00    -0.354 N 
ATOM     38  C   UNL     1      -1.619  -3.369  15.325  1.00  0.00     0.074 A 
ATOM     39  C   UNL     1      -0.393  -3.188  14.581  1.00  0.00     0.031 C 
ATOM     40  C   UNL     1      -6.111  -3.116  10.697  1.00  0.00     0.029 A 
ATOM     41  C   UNL     1      -6.330  -3.323  12.124  1.00  0.00     0.049 A 
ATOM     42  H   UNL     1      -4.908  -3.261  13.647  1.00  0.00     0.167 HD
ATOM     43  C   UNL     1      -1.685  -3.531  16.667  1.00  0.00     0.034 A 
ATOM     44  C   UNL     1      -7.517  -3.582  12.705  1.00  0.00     0.034 A 
ATOM     45  C   UNL     1      -2.919  -3.685  17.389  1.00  0.00     0.049 A 
ATOM     46  C   UNL     1      -7.556  -3.784  14.195  1.00  0.00     0.074 A 
ATOM     47  C   UNL     1      -3.107  -3.821  18.752  1.00  0.00     0.029 A 
ATOM     48  N   UNL     1      -4.176  -3.731  16.803  1.00  0.00    -0.354 N 
ATOM     49  N   UNL     1      -6.572  -3.742  15.061  1.00  0.00    -0.248 NA
ATOM     50  C   UNL     1      -8.873  -4.042  14.793  1.00  0.00     0.031 C 
ATOM     51  C   UNL     1      -4.476  -3.988  18.986  1.00  0.00     0.029 A 
ATOM     52  C   UNL     1      -5.145  -3.908  17.774  1.00  0.00     0.049 A 
ATOM     53  H   UNL     1      -4.352  -3.650  15.838  1.00  0.00     0.167 HD
ATOM     54  C   UNL     1      -7.152  -3.929  16.309  1.00  0.00     0.074 A 
ATOM     55  C   UNL     1      -8.578  -4.066  16.086  1.00  0.00     0.031 C 
ATOM     56  C   UNL     1      -6.562  -3.994  17.529  1.00  0.00     0.034 A 
BRANCH  43  57
ATOM     57  C   UNL     1      -0.389  -3.558  17.432  1.00  0.00     0.023 A 
ATOM     58  C   UNL     1       0.368  -2.378  17.586  1.00  0.00     0.012 A 
ATOM     59  C   UNL     1       0.063  -4.751  18.031  1.00  0.00     0.148 A 
ATOM     60  C   UNL     1       1.571  -2.393  18.291  1.00  0.00     0.002 A 
ATOM     61  C   UNL     1       1.238  -4.747  18.773  1.00  0.00     0.091 A 
ATOM     62  F   UNL     1      -0.656  -5.867  17.853  1.00  0.00    -0.205 F 
ATOM     63  C   UNL     1       2.000  -3.574  18.893  1.00  0.00     0.022 A 
BRANCH  61  64
ATOM     64  S   UNL     1       1.833  -6.196  19.652  1.00  0.00     0.127 S 
ATOM     65  O   UNL     1       3.043  -6.522  18.898  1.00  0.00    -0.237 OA
ATOM     66  O   UNL     1       2.076  -5.662  20.992  1.00  0.00    -0.237 OA
ATOM     67  O   UNL     1       0.766  -7.183  19.573  1.00  0.00    -0.744 OA
ENDBRANCH  61  64
ENDBRANCH  43  57
BRANCH  44  68
ATOM     68  C   UNL     1      -8.754  -3.652  11.879  1.00  0.00     0.023 A 
ATOM     69  C   UNL     1      -9.746  -2.663  12.027  1.00  0.00     0.012 A 
ATOM     70  C   UNL     1      -8.945  -4.679  10.934  1.00  0.00     0.148 A 
ATOM     71  C   UNL     1     -10.919  -2.715  11.273  1.00  0.00     0.002 A 
ATOM     72  C   UNL     1     -10.089  -4.693  10.146  1.00  0.00     0.091 A 
ATOM     73  F   UNL     1      -7.995  -5.618  10.816  1.00  0.00    -0.205 F 
ATOM     74  C   UNL     1     -11.086  -3.723  10.326  1.00  0.00     0.022 A 
BRANCH  72  75
ATOM     75  S   UNL     1     -10.333  -5.879   8.819  1.00  0.00     0.127 S 
ATOM     76  O   UNL     1     -11.430  -6.690   9.341  1.00  0.00    -0.237 OA
ATOM     77  O   UNL     1     -10.690  -5.007   7.699  1.00  0.00    -0.237 OA
ATOM     78  O   UNL     1      -9.059  -6.566   8.663  1.00  0.00    -0.744 OA
ENDBRANCH  72  75
ENDBRANCH  44  68
BRANCH  56  79
ATOM     79  C   UNL     1      -7.462  -4.170  18.724  1.00  0.00     0.023 A 
ATOM     80  C   UNL     1      -8.102  -5.404  18.952  1.00  0.00     0.012 A 
ATOM     81  C   UNL     1      -7.615  -3.126  19.657  1.00  0.00     0.148 A 
ATOM     82  C   UNL     1      -8.914  -5.582  20.072  1.00  0.00     0.002 A 
ATOM     83  C   UNL     1      -8.379  -3.329  20.798  1.00  0.00     0.091 A 
ATOM     84  F   UNL     1      -7.011  -1.954  19.410  1.00  0.00    -0.205 F 
ATOM     85  C   UNL     1      -9.042  -4.550  21.000  1.00  0.00     0.022 A 
BRANCH  83  86
ATOM     86  S   UNL     1      -8.515  -2.096  22.096  1.00  0.00     0.127 S 
ATOM     87  O   UNL     1      -9.899  -1.653  21.942  1.00  0.00    -0.237 OA
ATOM     88  O   UNL     1      -8.257  -2.886  23.301  1.00  0.00    -0.237 OA
ATOM     89  O   UNL     1      -7.502  -1.091  21.805  1.00  0.00    -0.744 OA
ENDBRANCH  83  86
ENDBRANCH  56  79
ENDBRANCH  30  31
ENDBRANCH  23  25
ENDBRANCH  22  23
ENDBRANCH  21  22
ENDBRANCH   1  21
TORSDOF 17
