REMARK SMILES O=C(C[C@](O)(c1ccco1)C(F)(F)F)OCCOC(=O)c1ccc(-c2c3nc(c(-c4cccc(S(=O)(=O)[O-])c4F)c4ccc([nH]4)c(-c4cccc(S(=O)(=O)[O-])c4F)c4nc(c(-c5cccc(S(=O)(=O)[O-])c5F)c5ccc2[nH]5)C=C4)C=C3)cc1
REMARK SMILES IDX 17 1 16 2 15 3 2 4 1 5 3 6 4 7 6 8 7 9 10 10 8 11 9 12 11 13
REMARK SMILES IDX 12 14 13 15 14 16 5 17 18 19 19 20 20 21 21 22 22 23 83 24
REMARK SMILES IDX 23 25 82 26 24 27 25 28 26 29 76 30 27 31 81 32 75 33 77 34
REMARK SMILES IDX 28 35 80 36 74 37 73 38 29 40 61 41 41 42 60 43 42 44 45 45
REMARK SMILES IDX 59 46 78 47 43 48 44 49 58 51 79 52 46 53 30 54 31 55 39 56
REMARK SMILES IDX 32 57 34 58 40 59 33 60 35 61 36 62 37 63 38 64 62 65 63 66
REMARK SMILES IDX 71 67 64 68 66 69 72 70 65 71 67 72 68 73 69 74 70 75 47 76
REMARK SMILES IDX 48 77 56 78 49 79 51 80 57 81 50 82 52 83 53 84 54 85 55 86
REMARK H PARENT 5 18 77 39 45 50
REMARK Flexibility Score: inf
ROOT
ATOM      1  C   UNL     1       5.744  -0.545   1.731  1.00  0.00     0.275 C 
ENDROOT
BRANCH   1   2
ATOM      2  C   UNL     1       5.458  -1.676   0.744  1.00  0.00     0.274 C 
BRANCH   2   3
ATOM      3  O   UNL     1       6.278  -1.555  -0.437  1.00  0.00    -0.462 OA
BRANCH   3   4
ATOM      4  C   UNL     1       5.913  -0.942  -1.582  1.00  0.00     0.309 C 
ATOM      5  O   UNL     1       6.743  -0.752  -2.472  1.00  0.00    -0.252 OA
BRANCH   4   6
ATOM      6  C   UNL     1       4.488  -0.492  -1.780  1.00  0.00     0.176 C 
BRANCH   6   7
ATOM      7  C   UNL     1       3.520  -1.564  -2.297  1.00  0.00     0.229 C 
BRANCH   7   8
ATOM      8  C   UNL     1       4.219  -2.791  -2.816  1.00  0.00     0.145 A 
ATOM      9  C   UNL     1       5.073  -3.006  -3.884  1.00  0.00     0.049 A 
ATOM     10  O   UNL     1       4.097  -3.947  -2.095  1.00  0.00    -0.466 OA
ATOM     11  C   UNL     1       5.510  -4.348  -3.791  1.00  0.00     0.042 A 
ATOM     12  C   UNL     1       4.875  -4.881  -2.695  1.00  0.00     0.195 A 
ENDBRANCH   7   8
BRANCH   7  13
ATOM     13  C   UNL     1       2.623  -0.943  -3.396  1.00  0.00     0.425 C 
ATOM     14  F   UNL     1       1.701  -1.815  -3.858  1.00  0.00    -0.167 F 
ATOM     15  F   UNL     1       1.944   0.111  -2.874  1.00  0.00    -0.167 F 
ATOM     16  F   UNL     1       3.333  -0.485  -4.449  1.00  0.00    -0.167 F 
ENDBRANCH   7  13
BRANCH   7  17
ATOM     17  O   UNL     1       2.707  -1.972  -1.160  1.00  0.00    -0.374 OA
ATOM     18  H   UNL     1       2.076  -2.653  -1.441  1.00  0.00     0.212 HD
ENDBRANCH   7  17
ENDBRANCH   6   7
ENDBRANCH   4   6
ENDBRANCH   3   4
ENDBRANCH   2   3
ENDBRANCH   1   2
BRANCH   1  19
ATOM     19  O   UNL     1       5.294   0.710   1.191  1.00  0.00    -0.458 OA
BRANCH  19  20
ATOM     20  C   UNL     1       6.239   1.456   0.565  1.00  0.00     0.338 C 
ATOM     21  O   UNL     1       7.436   1.231   0.521  1.00  0.00    -0.246 OA
BRANCH  20  22
ATOM     22  C   UNL     1       5.562   2.496  -0.238  1.00  0.00     0.060 A 
ATOM     23  C   UNL     1       6.027   2.745  -1.537  1.00  0.00     0.016 A 
ATOM     24  C   UNL     1       4.474   3.210   0.272  1.00  0.00     0.016 A 
ATOM     25  C   UNL     1       5.426   3.735  -2.317  1.00  0.00     0.010 A 
ATOM     26  C   UNL     1       3.883   4.207  -0.504  1.00  0.00     0.010 A 
ATOM     27  C   UNL     1       4.378   4.497  -1.787  1.00  0.00    -0.014 A 
BRANCH  27  28
ATOM     28  C   UNL     1       3.924   5.734  -2.464  1.00  0.00     0.031 A 
ATOM     29  C   UNL     1       4.545   7.036  -2.042  1.00  0.00     0.074 A 
ATOM     30  C   UNL     1       2.932   5.717  -3.371  1.00  0.00     0.049 A 
ATOM     31  N   UNL     1       4.243   8.255  -2.402  1.00  0.00    -0.248 NA
ATOM     32  C   UNL     1       5.648   6.949  -1.069  1.00  0.00     0.031 C 
ATOM     33  C   UNL     1       2.245   4.522  -3.854  1.00  0.00     0.029 A 
ATOM     34  N   UNL     1       2.303   6.754  -4.015  1.00  0.00    -0.354 N 
ATOM     35  C   UNL     1       5.096   9.081  -1.681  1.00  0.00     0.074 A 
ATOM     36  C   UNL     1       5.921   8.227  -0.856  1.00  0.00     0.031 C 
ATOM     37  C   UNL     1       1.260   4.896  -4.690  1.00  0.00     0.029 A 
ATOM     38  C   UNL     1       1.234   6.356  -4.782  1.00  0.00     0.049 A 
ATOM     39  H   UNL     1       2.591   7.692  -3.936  1.00  0.00     0.167 HD
ATOM     40  C   UNL     1       5.193  10.430  -1.709  1.00  0.00     0.034 A 
ATOM     41  C   UNL     1       0.326   7.089  -5.458  1.00  0.00     0.034 A 
ATOM     42  C   UNL     1       4.380  11.280  -2.531  1.00  0.00     0.049 A 
ATOM     43  C   UNL     1       0.443   8.594  -5.462  1.00  0.00     0.074 A 
ATOM     44  C   UNL     1       4.431  12.656  -2.662  1.00  0.00     0.029 A 
ATOM     45  N   UNL     1       3.356  10.835  -3.353  1.00  0.00    -0.354 N 
ATOM     46  N   UNL     1       1.338   9.355  -4.879  1.00  0.00    -0.248 NA
ATOM     47  C   UNL     1      -0.557   9.339  -6.242  1.00  0.00     0.031 C 
ATOM     48  C   UNL     1       3.423  13.046  -3.550  1.00  0.00     0.029 A 
ATOM     49  C   UNL     1       2.761  11.910  -3.989  1.00  0.00     0.049 A 
ATOM     50  H   UNL     1       3.092   9.894  -3.468  1.00  0.00     0.167 HD
ATOM     51  C   UNL     1       1.036  10.660  -5.256  1.00  0.00     0.074 A 
ATOM     52  C   UNL     1      -0.120  10.587  -6.125  1.00  0.00     0.031 C 
ATOM     53  C   UNL     1       1.654  11.816  -4.907  1.00  0.00     0.034 A 
BRANCH  40  54
ATOM     54  C   UNL     1       6.239  11.062  -0.833  1.00  0.00     0.023 A 
ATOM     55  C   UNL     1       7.599  10.958  -1.191  1.00  0.00     0.012 A 
ATOM     56  C   UNL     1       5.880  11.774   0.326  1.00  0.00     0.148 A 
ATOM     57  C   UNL     1       8.589  11.524  -0.389  1.00  0.00     0.002 A 
ATOM     58  C   UNL     1       6.870  12.370   1.099  1.00  0.00     0.091 A 
ATOM     59  F   UNL     1       4.585  11.834   0.667  1.00  0.00    -0.205 F 
ATOM     60  C   UNL     1       8.224  12.237   0.750  1.00  0.00     0.022 A 
BRANCH  58  61
ATOM     61  S   UNL     1       6.487  13.366   2.544  1.00  0.00     0.127 S 
ATOM     62  O   UNL     1       6.825  12.449   3.632  1.00  0.00    -0.237 OA
ATOM     63  O   UNL     1       7.404  14.497   2.395  1.00  0.00    -0.237 OA
ATOM     64  O   UNL     1       5.078  13.712   2.426  1.00  0.00    -0.744 OA
ENDBRANCH  58  61
ENDBRANCH  40  54
BRANCH  41  65
ATOM     65  C   UNL     1      -0.755   6.409  -6.226  1.00  0.00     0.023 A 
ATOM     66  C   UNL     1      -0.719   6.431  -7.634  1.00  0.00     0.012 A 
ATOM     67  C   UNL     1      -1.802   5.729  -5.575  1.00  0.00     0.148 A 
ATOM     68  C   UNL     1      -1.722   5.810  -8.380  1.00  0.00     0.002 A 
ATOM     69  C   UNL     1      -2.770   5.070  -6.324  1.00  0.00     0.091 A 
ATOM     70  F   UNL     1      -1.825   5.735  -4.234  1.00  0.00    -0.205 F 
ATOM     71  C   UNL     1      -2.741   5.122  -7.726  1.00  0.00     0.022 A 
BRANCH  69  72
ATOM     72  S   UNL     1      -4.054   4.063  -5.572  1.00  0.00     0.127 S 
ATOM     73  O   UNL     1      -5.254   4.847  -5.856  1.00  0.00    -0.237 OA
ATOM     74  O   UNL     1      -3.939   2.816  -6.329  1.00  0.00    -0.237 OA
ATOM     75  O   UNL     1      -3.693   3.948  -4.166  1.00  0.00    -0.744 OA
ENDBRANCH  69  72
ENDBRANCH  41  65
BRANCH  53  76
ATOM     76  C   UNL     1       1.138  13.105  -5.493  1.00  0.00     0.023 A 
ATOM     77  C   UNL     1      -0.061  13.664  -5.012  1.00  0.00     0.012 A 
ATOM     78  C   UNL     1       1.903  13.816  -6.440  1.00  0.00     0.148 A 
ATOM     79  C   UNL     1      -0.501  14.903  -5.478  1.00  0.00     0.002 A 
ATOM     80  C   UNL     1       1.482  15.070  -6.865  1.00  0.00     0.091 A 
ATOM     81  F   UNL     1       3.033  13.257  -6.899  1.00  0.00    -0.205 F 
ATOM     82  C   UNL     1       0.276  15.611  -6.393  1.00  0.00     0.022 A 
BRANCH  80  83
ATOM     83  S   UNL     1       2.470  16.094  -7.963  1.00  0.00     0.127 S 
ATOM     84  O   UNL     1       1.726  15.990  -9.217  1.00  0.00    -0.237 OA
ATOM     85  O   UNL     1       2.396  17.405  -7.318  1.00  0.00    -0.237 OA
ATOM     86  O   UNL     1       3.801  15.502  -7.973  1.00  0.00    -0.744 OA
ENDBRANCH  80  83
ENDBRANCH  53  76
ENDBRANCH  27  28
ENDBRANCH  20  22
ENDBRANCH  19  20
ENDBRANCH   1  19
TORSDOF 18
