REMARK SMILES CC(C)CCN1C(=O)/C(=C2/SC(=S)N(CCC(=O)OCCOC(=O)c3ccc(-c4c5nc(c(-c6cccc(S(=O)(=O)[O-])c6F)c6ccc([nH]6)c(-c6cccc(S(=O)(=O)[O-])c6F)c6nc(c(-c7cccc(S(=O)(=O)[O-])c7F)c7ccc4[nH]7)C=C6)C=C5)cc3)C2=O)c2ccccc21
REMARK SMILES IDX 20 1 19 2 17 3 18 4 16 5 15 6 14 7 6 8 7 9 95 10 8 11 9 12
REMARK SMILES IDX 90 13 94 14 10 15 91 16 93 17 11 18 88 19 92 20 12 21 89 22
REMARK SMILES IDX 13 23 5 24 4 25 2 26 1 27 3 28 21 29 22 30 23 31 24 32 25 33
REMARK SMILES IDX 26 34 87 35 27 36 86 37 28 38 29 39 30 40 80 41 31 42 85 43
REMARK SMILES IDX 79 44 81 45 32 46 84 47 78 48 77 49 33 51 65 52 45 53 64 54
REMARK SMILES IDX 46 55 49 56 63 57 82 58 47 59 48 60 62 62 83 63 50 64 34 65
REMARK SMILES IDX 35 66 43 67 36 68 38 69 44 70 37 71 39 72 40 73 41 74 42 75
REMARK SMILES IDX 66 76 67 77 75 78 68 79 70 80 76 81 69 82 71 83 72 84 73 85
REMARK SMILES IDX 74 86 51 87 52 88 60 89 53 90 55 91 61 92 54 93 56 94 57 95
REMARK SMILES IDX 58 96 59 97
REMARK H PARENT 81 50 49 61
REMARK Flexibility Score: inf
ROOT
ATOM      1  C   UNL     1       2.131  10.816   0.929  1.00  0.00     0.274 C 
ENDROOT
BRANCH   1   2
ATOM      2  O   UNL     1       0.837  10.174   0.848  1.00  0.00    -0.462 OA
BRANCH   2   3
ATOM      3  C   UNL     1      -0.114  10.667   1.683  1.00  0.00     0.307 C 
ATOM      4  O   UNL     1       0.083  11.556   2.505  1.00  0.00    -0.252 OA
BRANCH   3   5
ATOM      5  C   UNL     1      -1.432   9.940   1.585  1.00  0.00     0.144 C 
BRANCH   5   6
ATOM      6  C   UNL     1      -2.021   9.712   0.189  1.00  0.00     0.139 C 
BRANCH   6   7
ATOM      7  N   UNL     1      -1.520   8.549  -0.561  1.00  0.00    -0.292 N 
ATOM      8  N   UNL     1      -0.702   2.869   0.045  1.00  0.00    -0.308 N 
ATOM      9  C   UNL     1      -1.542   4.003   0.011  1.00  0.00     0.260 C 
ATOM     10  C   UNL     1       0.627   3.235  -0.238  1.00  0.00     0.052 A 
ATOM     11  O   UNL     1      -2.745   4.050   0.183  1.00  0.00    -0.269 OA
ATOM     12  C   UNL     1      -0.651   5.120  -0.475  1.00  0.00     0.069 C 
ATOM     13  C   UNL     1       0.677   4.545  -0.702  1.00  0.00     0.012 A 
ATOM     14  C   UNL     1       1.789   2.499  -0.114  1.00  0.00     0.027 A 
ATOM     15  C   UNL     1      -1.165   6.242  -0.992  1.00  0.00     0.093 C 
ATOM     16  C   UNL     1       1.869   5.097  -1.154  1.00  0.00     0.011 A 
ATOM     17  C   UNL     1       2.978   3.016  -0.631  1.00  0.00     0.002 A 
ATOM     18  S   UNL     1      -0.534   7.027  -2.382  1.00  0.00    -0.053 SA
ATOM     19  C   UNL     1      -1.798   7.260  -0.092  1.00  0.00     0.267 C 
ATOM     20  C   UNL     1       3.013   4.303  -1.171  1.00  0.00     0.001 A 
ATOM     21  C   UNL     1      -0.881   8.627  -1.784  1.00  0.00     0.148 C 
ATOM     22  O   UNL     1      -2.387   6.997   0.946  1.00  0.00    -0.268 OA
ATOM     23  S   UNL     1      -0.435   9.919  -2.727  1.00  0.00    -0.052 S 
BRANCH   8  24
ATOM     24  C   UNL     1      -1.190   1.500   0.175  1.00  0.00     0.126 C 
BRANCH  24  25
ATOM     25  C   UNL     1      -1.043   0.586  -1.082  1.00  0.00     0.025 C 
BRANCH  25  26
ATOM     26  C   UNL     1       0.343  -0.045  -1.350  1.00  0.00    -0.016 C 
ATOM     27  C   UNL     1       0.859  -0.887  -0.179  1.00  0.00     0.007 C 
ATOM     28  C   UNL     1       0.383  -0.895  -2.624  1.00  0.00     0.007 C 
ENDBRANCH  25  26
ENDBRANCH  24  25
ENDBRANCH   8  24
ENDBRANCH   6   7
ENDBRANCH   5   6
ENDBRANCH   3   5
ENDBRANCH   2   3
ENDBRANCH   1   2
BRANCH   1  29
ATOM     29  C   UNL     1       2.329  11.891  -0.146  1.00  0.00     0.275 C 
BRANCH  29  30
ATOM     30  O   UNL     1       1.631  13.112   0.144  1.00  0.00    -0.458 OA
BRANCH  30  31
ATOM     31  C   UNL     1       0.333  13.127  -0.228  1.00  0.00     0.338 C 
ATOM     32  O   UNL     1      -0.303  12.234  -0.745  1.00  0.00    -0.246 OA
BRANCH  31  33
ATOM     33  C   UNL     1      -0.304  14.364   0.189  1.00  0.00     0.060 A 
ATOM     34  C   UNL     1       0.112  15.575  -0.357  1.00  0.00     0.016 A 
ATOM     35  C   UNL     1      -1.375  14.280   1.083  1.00  0.00     0.016 A 
ATOM     36  C   UNL     1      -0.511  16.738   0.066  1.00  0.00     0.010 A 
ATOM     37  C   UNL     1      -2.014  15.442   1.483  1.00  0.00     0.010 A 
ATOM     38  C   UNL     1      -1.556  16.675   1.003  1.00  0.00    -0.014 A 
BRANCH  38  39
ATOM     39  C   UNL     1      -2.143  17.923   1.516  1.00  0.00     0.031 A 
ATOM     40  C   UNL     1      -1.849  18.355   2.920  1.00  0.00     0.074 A 
ATOM     41  C   UNL     1      -2.916  18.656   0.699  1.00  0.00     0.049 A 
ATOM     42  N   UNL     1      -2.207  19.454   3.526  1.00  0.00    -0.248 NA
ATOM     43  C   UNL     1      -1.053  17.438   3.756  1.00  0.00     0.031 C 
ATOM     44  C   UNL     1      -3.284  18.282  -0.669  1.00  0.00     0.029 A 
ATOM     45  N   UNL     1      -3.522  19.865   0.894  1.00  0.00    -0.354 N 
ATOM     46  C   UNL     1      -1.698  19.355   4.813  1.00  0.00     0.074 A 
ATOM     47  C   UNL     1      -1.027  18.080   4.915  1.00  0.00     0.031 C 
ATOM     48  C   UNL     1      -4.034  19.259  -1.200  1.00  0.00     0.029 A 
ATOM     49  C   UNL     1      -4.218  20.309  -0.203  1.00  0.00     0.049 A 
ATOM     50  H   UNL     1      -3.466  20.368   1.738  1.00  0.00     0.167 HD
ATOM     51  C   UNL     1      -1.765  20.267   5.808  1.00  0.00     0.034 A 
ATOM     52  C   UNL     1      -4.920  21.442  -0.381  1.00  0.00     0.034 A 
ATOM     53  C   UNL     1      -2.411  21.541   5.675  1.00  0.00     0.049 A 
ATOM     54  C   UNL     1      -4.975  22.439   0.738  1.00  0.00     0.074 A 
ATOM     55  C   UNL     1      -2.488  22.564   6.602  1.00  0.00     0.029 A 
ATOM     56  N   UNL     1      -3.099  21.963   4.548  1.00  0.00    -0.354 N 
ATOM     57  N   UNL     1      -4.396  22.383   1.913  1.00  0.00    -0.248 NA
ATOM     58  C   UNL     1      -5.754  23.662   0.505  1.00  0.00     0.031 C 
ATOM     59  C   UNL     1      -3.243  23.598   6.041  1.00  0.00     0.029 A 
ATOM     60  C   UNL     1      -3.616  23.227   4.758  1.00  0.00     0.049 A 
ATOM     61  H   UNL     1      -3.204  21.440   3.720  1.00  0.00     0.167 HD
ATOM     62  C   UNL     1      -4.729  23.565   2.560  1.00  0.00     0.074 A 
ATOM     63  C   UNL     1      -5.547  24.327   1.635  1.00  0.00     0.031 C 
ATOM     64  C   UNL     1      -4.400  23.975   3.808  1.00  0.00     0.034 A 
BRANCH  51  65
ATOM     65  C   UNL     1      -1.082  19.946   7.107  1.00  0.00     0.023 A 
ATOM     66  C   UNL     1       0.321  20.042   7.191  1.00  0.00     0.012 A 
ATOM     67  C   UNL     1      -1.829  19.640   8.260  1.00  0.00     0.148 A 
ATOM     68  C   UNL     1       0.974  19.830   8.405  1.00  0.00     0.002 A 
ATOM     69  C   UNL     1      -1.175  19.460   9.473  1.00  0.00     0.091 A 
ATOM     70  F   UNL     1      -3.161  19.537   8.149  1.00  0.00    -0.205 F 
ATOM     71  C   UNL     1       0.226  19.551   9.546  1.00  0.00     0.022 A 
BRANCH  69  72
ATOM     72  S   UNL     1      -2.044  19.142  11.011  1.00  0.00     0.127 S 
ATOM     73  O   UNL     1      -1.562  17.803  11.351  1.00  0.00    -0.237 OA
ATOM     74  O   UNL     1      -1.538  20.210  11.873  1.00  0.00    -0.237 OA
ATOM     75  O   UNL     1      -3.464  19.225  10.699  1.00  0.00    -0.744 OA
ENDBRANCH  69  72
ENDBRANCH  51  65
BRANCH  52  76
ATOM     76  C   UNL     1      -5.558  21.690  -1.699  1.00  0.00     0.023 A 
ATOM     77  C   UNL     1      -4.955  22.588  -2.599  1.00  0.00     0.012 A 
ATOM     78  C   UNL     1      -6.687  20.952  -2.106  1.00  0.00     0.148 A 
ATOM     79  C   UNL     1      -5.466  22.746  -3.888  1.00  0.00     0.002 A 
ATOM     80  C   UNL     1      -7.169  21.088  -3.401  1.00  0.00     0.091 A 
ATOM     81  F   UNL     1      -7.233  20.099  -1.228  1.00  0.00    -0.205 F 
ATOM     82  C   UNL     1      -6.564  21.989  -4.292  1.00  0.00     0.022 A 
BRANCH  80  83
ATOM     83  S   UNL     1      -8.514  20.088  -4.045  1.00  0.00     0.127 S 
ATOM     84  O   UNL     1      -9.515  21.105  -4.361  1.00  0.00    -0.237 OA
ATOM     85  O   UNL     1      -7.887  19.459  -5.207  1.00  0.00    -0.237 OA
ATOM     86  O   UNL     1      -8.877  19.170  -2.975  1.00  0.00    -0.744 OA
ENDBRANCH  80  83
ENDBRANCH  52  76
BRANCH  64  87
ATOM     87  C   UNL     1      -4.919  25.308   4.266  1.00  0.00     0.023 A 
ATOM     88  C   UNL     1      -6.256  25.416   4.693  1.00  0.00     0.012 A 
ATOM     89  C   UNL     1      -4.049  26.407   4.402  1.00  0.00     0.148 A 
ATOM     90  C   UNL     1      -6.724  26.607   5.244  1.00  0.00     0.002 A 
ATOM     91  C   UNL     1      -4.513  27.579   4.984  1.00  0.00     0.091 A 
ATOM     92  F   UNL     1      -2.782  26.272   3.985  1.00  0.00    -0.205 F 
ATOM     93  C   UNL     1      -5.851  27.682   5.401  1.00  0.00     0.022 A 
BRANCH  91  94
ATOM     94  S   UNL     1      -3.451  28.993   5.292  1.00  0.00     0.127 S 
ATOM     95  O   UNL     1      -4.037  30.002   4.411  1.00  0.00    -0.237 OA
ATOM     96  O   UNL     1      -3.663  29.231   6.720  1.00  0.00    -0.237 OA
ATOM     97  O   UNL     1      -2.102  28.573   4.937  1.00  0.00    -0.744 OA
ENDBRANCH  91  94
ENDBRANCH  64  87
ENDBRANCH  38  39
ENDBRANCH  31  33
ENDBRANCH  30  31
ENDBRANCH  29  30
ENDBRANCH   1  29
TORSDOF 19
