REMARK SMILES COc1ccc(-c2[nH]nc3nc(-c4ccc(C(F)(F)F)cc4)cc(C(=O)OCCOC(=O)c4ccc(-c5c6nc(c(-c7cccc(S(=O)(=O)[O-])c7F)c7ccc([nH]7)c(-c7cccc(S(=O)(=O)[O-])c7F)c7nc(c(-c8cccc(S(=O)(=O)[O-])c8F)c8ccc5[nH]8)C=C7)C=C6)cc4)c23)cc1
REMARK SMILES IDX 29 1 28 2 27 3 25 4 26 5 24 6 7 7 8 8 96 9 9 10 10 12 11 13
REMARK SMILES IDX 23 14 12 15 6 16 3 17 4 18 98 19 5 20 97 21 2 22 1 23 13 24
REMARK SMILES IDX 14 25 22 26 15 27 21 28 16 29 17 30 18 31 19 32 20 33 30 34
REMARK SMILES IDX 31 35 32 36 33 37 34 38 95 39 35 40 94 41 36 42 37 43 38 44
REMARK SMILES IDX 88 45 39 46 93 47 87 48 89 49 40 50 92 51 86 52 85 53 41 55
REMARK SMILES IDX 73 56 53 57 72 58 54 59 57 60 71 61 90 62 55 63 56 64 70 66
REMARK SMILES IDX 91 67 58 68 42 69 43 70 51 71 44 72 46 73 52 74 45 75 47 76
REMARK SMILES IDX 48 77 49 78 50 79 74 80 75 81 83 82 76 83 78 84 84 85 77 86
REMARK SMILES IDX 79 87 80 88 81 89 82 90 59 91 60 92 68 93 61 94 63 95 69 96
REMARK SMILES IDX 62 97 64 98 65 99 66 100 67 101
REMARK H PARENT 8 11 89 54 57 65
REMARK Flexibility Score: inf
ROOT
ATOM      1  C   UNL     1       5.104  -0.391   4.824  1.00  0.00     0.275 C 
ENDROOT
BRANCH   1   2
ATOM      2  C   UNL     1       4.177  -0.613   6.003  1.00  0.00     0.275 C 
BRANCH   2   3
ATOM      3  O   UNL     1       4.129  -2.021   6.269  1.00  0.00    -0.458 OA
BRANCH   3   4
ATOM      4  C   UNL     1       2.983  -2.660   5.920  1.00  0.00     0.339 C 
ATOM      5  O   UNL     1       1.907  -2.134   5.719  1.00  0.00    -0.246 OA
BRANCH   4   6
ATOM      6  C   UNL     1       3.257  -4.103   5.868  1.00  0.00     0.075 A 
ATOM      7  C   UNL     1       1.499  -4.968   4.279  1.00  0.00     0.075 A 
ATOM      8  N   UNL     1       1.188  -6.264   3.935  1.00  0.00    -0.275 N 
ATOM      9  C   UNL     1       2.527  -5.090   5.197  1.00  0.00     0.061 A 
ATOM     10  N   UNL     1       1.931  -7.205   4.543  1.00  0.00    -0.154 NA
ATOM     11  H   UNL     1       0.476  -6.485   3.293  1.00  0.00     0.190 HD
ATOM     12  C   UNL     1       2.789  -6.501   5.282  1.00  0.00     0.182 A 
ATOM     13  N   UNL     1       3.794  -7.018   6.035  1.00  0.00    -0.226 NA
ATOM     14  C   UNL     1       4.308  -4.671   6.609  1.00  0.00     0.045 A 
ATOM     15  C   UNL     1       4.529  -6.067   6.679  1.00  0.00     0.074 A 
BRANCH   7  16
ATOM     16  C   UNL     1       0.909  -3.850   3.555  1.00  0.00     0.001 A 
ATOM     17  C   UNL     1      -0.092  -1.623   2.150  1.00  0.00     0.118 A 
ATOM     18  C   UNL     1      -0.846  -2.231   3.158  1.00  0.00     0.047 A 
ATOM     19  C   UNL     1       1.142  -2.167   1.813  1.00  0.00     0.047 A 
ATOM     20  C   UNL     1      -0.355  -3.343   3.857  1.00  0.00     0.014 A 
ATOM     21  C   UNL     1       1.631  -3.275   2.509  1.00  0.00     0.014 A 
BRANCH  17  22
ATOM     22  O   UNL     1      -0.656  -0.513   1.583  1.00  0.00    -0.497 OA
ATOM     23  C   UNL     1       0.074   0.112   0.530  1.00  0.00     0.278 C 
ENDBRANCH  17  22
ENDBRANCH   7  16
BRANCH  15  24
ATOM     24  C   UNL     1       5.583  -6.579   7.577  1.00  0.00     0.000 A 
ATOM     25  C   UNL     1       6.543  -7.504   7.142  1.00  0.00     0.011 A 
ATOM     26  C   UNL     1       5.656  -6.134   8.910  1.00  0.00     0.011 A 
ATOM     27  C   UNL     1       7.548  -7.958   8.007  1.00  0.00     0.014 A 
ATOM     28  C   UNL     1       6.652  -6.587   9.776  1.00  0.00     0.014 A 
ATOM     29  C   UNL     1       7.610  -7.506   9.334  1.00  0.00     0.056 A 
BRANCH  29  30
ATOM     30  C   UNL     1       8.682  -8.011  10.268  1.00  0.00     0.416 C 
ATOM     31  F   UNL     1       8.634  -9.361  10.441  1.00  0.00    -0.166 F 
ATOM     32  F   UNL     1       9.940  -7.734   9.829  1.00  0.00    -0.166 F 
ATOM     33  F   UNL     1       8.604  -7.478  11.522  1.00  0.00    -0.166 F 
ENDBRANCH  29  30
ENDBRANCH  15  24
ENDBRANCH   4   6
ENDBRANCH   3   4
ENDBRANCH   2   3
ENDBRANCH   1   2
BRANCH   1  34
ATOM     34  O   UNL     1       4.591  -1.044   3.665  1.00  0.00    -0.458 OA
BRANCH  34  35
ATOM     35  C   UNL     1       5.215  -2.171   3.253  1.00  0.00     0.338 C 
ATOM     36  O   UNL     1       5.896  -2.933   3.917  1.00  0.00    -0.246 OA
BRANCH  35  37
ATOM     37  C   UNL     1       4.959  -2.277   1.805  1.00  0.00     0.060 A 
ATOM     38  C   UNL     1       5.040  -3.512   1.151  1.00  0.00     0.016 A 
ATOM     39  C   UNL     1       4.634  -1.106   1.102  1.00  0.00     0.016 A 
ATOM     40  C   UNL     1       4.776  -3.568  -0.214  1.00  0.00     0.010 A 
ATOM     41  C   UNL     1       4.355  -1.166  -0.241  1.00  0.00     0.010 A 
ATOM     42  C   UNL     1       4.457  -2.390  -0.899  1.00  0.00    -0.014 A 
BRANCH  42  43
ATOM     43  C   UNL     1       4.307  -2.395  -2.343  1.00  0.00     0.031 A 
ATOM     44  C   UNL     1       3.029  -2.880  -2.924  1.00  0.00     0.074 A 
ATOM     45  C   UNL     1       5.202  -1.741  -3.110  1.00  0.00     0.049 A 
ATOM     46  N   UNL     1       2.856  -3.880  -3.725  1.00  0.00    -0.248 NA
ATOM     47  C   UNL     1       1.786  -2.191  -2.558  1.00  0.00     0.031 C 
ATOM     48  C   UNL     1       6.311  -0.887  -2.667  1.00  0.00     0.029 A 
ATOM     49  N   UNL     1       5.197  -1.575  -4.457  1.00  0.00    -0.354 N 
ATOM     50  C   UNL     1       1.520  -3.832  -4.126  1.00  0.00     0.074 A 
ATOM     51  C   UNL     1       0.881  -2.861  -3.275  1.00  0.00     0.031 C 
ATOM     52  C   UNL     1       6.706  -0.109  -3.697  1.00  0.00     0.029 A 
ATOM     53  C   UNL     1       5.996  -0.529  -4.890  1.00  0.00     0.049 A 
ATOM     54  H   UNL     1       4.676  -2.144  -5.069  1.00  0.00     0.167 HD
ATOM     55  C   UNL     1       1.086  -4.457  -5.258  1.00  0.00     0.034 A 
ATOM     56  C   UNL     1       6.028  -0.007  -6.136  1.00  0.00     0.034 A 
ATOM     57  C   UNL     1       2.072  -5.374  -5.770  1.00  0.00     0.049 A 
ATOM     58  C   UNL     1       5.488  -1.032  -7.058  1.00  0.00     0.074 A 
ATOM     59  C   UNL     1       2.731  -6.484  -5.283  1.00  0.00     0.029 A 
ATOM     60  N   UNL     1       2.774  -4.984  -6.885  1.00  0.00    -0.354 N 
ATOM     61  N   UNL     1       6.075  -2.175  -7.289  1.00  0.00    -0.248 NA
ATOM     62  C   UNL     1       4.085  -0.966  -7.429  1.00  0.00     0.031 C 
ATOM     63  C   UNL     1       4.047  -6.392  -5.825  1.00  0.00     0.029 A 
ATOM     64  C   UNL     1       4.092  -5.253  -6.634  1.00  0.00     0.049 A 
ATOM     65  H   UNL     1       2.401  -4.589  -7.705  1.00  0.00     0.167 HD
ATOM     66  C   UNL     1       5.033  -3.086  -7.413  1.00  0.00     0.074 A 
ATOM     67  C   UNL     1       3.843  -2.265  -7.626  1.00  0.00     0.031 C 
ATOM     68  C   UNL     1       5.184  -4.395  -7.043  1.00  0.00     0.034 A 
BRANCH  55  69
ATOM     69  C   UNL     1      -0.091  -4.052  -6.117  1.00  0.00     0.023 A 
ATOM     70  C   UNL     1      -0.485  -4.952  -7.138  1.00  0.00     0.012 A 
ATOM     71  C   UNL     1      -0.640  -2.753  -6.167  1.00  0.00     0.148 A 
ATOM     72  C   UNL     1      -1.323  -4.562  -8.188  1.00  0.00     0.002 A 
ATOM     73  C   UNL     1      -1.536  -2.393  -7.172  1.00  0.00     0.091 A 
ATOM     74  F   UNL     1      -0.205  -1.810  -5.325  1.00  0.00    -0.205 F 
ATOM     75  C   UNL     1      -1.855  -3.281  -8.202  1.00  0.00     0.022 A 
BRANCH  73  76
ATOM     76  S   UNL     1      -2.301  -0.767  -7.206  1.00  0.00     0.127 S 
ATOM     77  O   UNL     1      -1.482  -0.079  -8.198  1.00  0.00    -0.237 OA
ATOM     78  O   UNL     1      -3.665  -1.080  -7.636  1.00  0.00    -0.237 OA
ATOM     79  O   UNL     1      -2.208  -0.278  -5.836  1.00  0.00    -0.744 OA
ENDBRANCH  73  76
ENDBRANCH  55  69
BRANCH  56  80
ATOM     80  C   UNL     1       6.313   1.383  -6.540  1.00  0.00     0.023 A 
ATOM     81  C   UNL     1       6.803   1.652  -7.829  1.00  0.00     0.012 A 
ATOM     82  C   UNL     1       5.886   2.469  -5.741  1.00  0.00     0.148 A 
ATOM     83  C   UNL     1       6.850   2.962  -8.318  1.00  0.00     0.002 A 
ATOM     84  C   UNL     1       5.944   3.771  -6.227  1.00  0.00     0.091 A 
ATOM     85  F   UNL     1       5.343   2.216  -4.542  1.00  0.00    -0.205 F 
ATOM     86  C   UNL     1       6.417   4.020  -7.521  1.00  0.00     0.022 A 
BRANCH  84  87
ATOM     87  S   UNL     1       5.394   5.178  -5.253  1.00  0.00     0.127 S 
ATOM     88  O   UNL     1       6.471   6.144  -5.474  1.00  0.00    -0.237 OA
ATOM     89  O   UNL     1       4.128   5.516  -5.896  1.00  0.00    -0.237 OA
ATOM     90  O   UNL     1       5.301   4.696  -3.880  1.00  0.00    -0.744 OA
ENDBRANCH  84  87
ENDBRANCH  56  80
BRANCH  68  91
ATOM     91  C   UNL     1       6.571  -4.897  -6.713  1.00  0.00     0.023 A 
ATOM     92  C   UNL     1       7.315  -4.359  -5.642  1.00  0.00     0.012 A 
ATOM     93  C   UNL     1       7.042  -6.063  -7.341  1.00  0.00     0.148 A 
ATOM     94  C   UNL     1       8.508  -4.951  -5.222  1.00  0.00     0.002 A 
ATOM     95  C   UNL     1       8.206  -6.678  -6.890  1.00  0.00     0.091 A 
ATOM     96  F   UNL     1       6.323  -6.577  -8.352  1.00  0.00    -0.205 F 
ATOM     97  C   UNL     1       8.946  -6.120  -5.836  1.00  0.00     0.022 A 
BRANCH  95  98
ATOM     98  S   UNL     1       8.745  -8.260  -7.545  1.00  0.00     0.127 S 
ATOM     99  O   UNL     1       9.800  -7.864  -8.475  1.00  0.00    -0.237 OA
ATOM    100  O   UNL     1       9.216  -8.958  -6.347  1.00  0.00    -0.237 OA
ATOM    101  O   UNL     1       7.561  -8.860  -8.149  1.00  0.00    -0.744 OA
ENDBRANCH  95  98
ENDBRANCH  68  91
ENDBRANCH  42  43
ENDBRANCH  35  37
ENDBRANCH  34  35
ENDBRANCH   1  34
TORSDOF 18
