REMARK SMILES CC[C@](C)([NH2+]CC(=O)Nc1c(C)n[nH]c1C)C(=O)OCCOC(=O)c1ccc(-c2c3nc(c(-c4cccc(S(=O)(=O)[O-])c4F)c4ccc([nH]4)c(-c4cccc(S(=O)(=O)[O-])c4F)c4nc(c(-c5cccc(S(=O)(=O)[O-])c5F)c5ccc2[nH]5)C=C4)C=C3)cc1
REMARK SMILES IDX 20 1 19 2 17 3 18 4 3 5 4 6 2 7 1 8 5 9 6 12 7 13 8 14 9 15
REMARK SMILES IDX 10 17 11 18 15 19 12 20 13 21 14 22 16 23 21 25 22 26 23 27
REMARK SMILES IDX 24 28 25 29 26 30 87 31 27 32 86 33 28 34 29 35 30 36 80 37
REMARK SMILES IDX 31 38 85 39 79 40 81 41 32 42 84 43 78 44 77 45 33 47 65 48
REMARK SMILES IDX 45 49 64 50 46 51 49 52 63 53 82 54 47 55 48 56 62 58 83 59
REMARK SMILES IDX 50 60 34 61 35 62 43 63 36 64 38 65 44 66 37 67 39 68 40 69
REMARK SMILES IDX 41 70 42 71 66 72 67 73 75 74 68 75 70 76 76 77 69 78 71 79
REMARK SMILES IDX 72 80 73 81 74 82 51 83 52 84 60 85 53 86 55 87 61 88 54 89
REMARK SMILES IDX 56 90 57 91 58 92 59 93
REMARK H PARENT 5 10 5 11 9 16 14 24 81 46 49 57
REMARK Flexibility Score: inf
ROOT
ATOM      1  C   UNL     1       4.277   3.302  -1.012  1.00  0.00     0.274 C 
ENDROOT
BRANCH   1   2
ATOM      2  O   UNL     1       2.901   3.725  -0.904  1.00  0.00    -0.457 OA
BRANCH   2   3
ATOM      3  C   UNL     1       1.921   2.794  -0.661  1.00  0.00     0.367 C 
ATOM      4  O   UNL     1       2.220   1.668  -0.301  1.00  0.00    -0.245 OA
BRANCH   3   5
ATOM      5  C   UNL     1       0.427   3.407  -0.722  1.00  0.00     0.191 C 
ATOM      6  C   UNL     1       0.100   3.421   0.799  1.00  0.00     0.092 C 
BRANCH   5   7
ATOM      7  C   UNL     1      -0.974   2.985  -1.395  1.00  0.00     0.077 C 
ATOM      8  C   UNL     1      -1.314   1.997  -2.510  1.00  0.00     0.011 C 
ENDBRANCH   5   7
BRANCH   5   9
ATOM      9  N   UNL     1       0.618   4.769  -1.236  1.00  0.00    -0.325 N 
ATOM     10  H   UNL     1       1.260   5.261  -0.614  1.00  0.00     0.347 HD
ATOM     11  H   UNL     1      -0.303   5.206  -1.269  1.00  0.00     0.347 HD
BRANCH   9  12
ATOM     12  C   UNL     1       1.167   4.816  -2.606  1.00  0.00     0.363 C 
BRANCH  12  13
ATOM     13  C   UNL     1       0.978   3.667  -3.645  1.00  0.00     0.279 C 
ATOM     14  O   UNL     1       0.376   4.000  -4.689  1.00  0.00    -0.268 OA
ATOM     15  N   UNL     1       1.696   2.512  -3.801  1.00  0.00    -0.318 N 
ATOM     16  H   UNL     1       2.130   2.580  -4.683  1.00  0.00     0.170 HD
BRANCH  15  17
ATOM     17  C   UNL     1       2.095   1.267  -3.264  1.00  0.00     0.085 A 
ATOM     18  C   UNL     1       3.251   0.624  -3.846  1.00  0.00     0.083 A 
ATOM     19  C   UNL     1       1.642   0.279  -2.374  1.00  0.00     0.056 A 
ATOM     20  C   UNL     1       4.128   1.133  -4.925  1.00  0.00     0.071 C 
ATOM     21  N   UNL     1       3.542  -0.556  -3.308  1.00  0.00    -0.179 NA
ATOM     22  N   UNL     1       2.611  -0.703  -2.378  1.00  0.00    -0.280 N 
ATOM     23  C   UNL     1       0.524  -0.054  -1.435  1.00  0.00     0.068 C 
ATOM     24  H   UNL     1       2.609  -1.453  -1.740  1.00  0.00     0.190 HD
ENDBRANCH  15  17
ENDBRANCH  12  13
ENDBRANCH   9  12
ENDBRANCH   5   9
ENDBRANCH   3   5
ENDBRANCH   2   3
ENDBRANCH   1   2
BRANCH   1  25
ATOM     25  C   UNL     1       5.033   3.468   0.302  1.00  0.00     0.275 C 
BRANCH  25  26
ATOM     26  O   UNL     1       4.663   2.411   1.201  1.00  0.00    -0.458 OA
BRANCH  26  27
ATOM     27  C   UNL     1       4.073   2.805   2.350  1.00  0.00     0.338 C 
ATOM     28  O   UNL     1       3.916   3.948   2.747  1.00  0.00    -0.246 OA
BRANCH  27  29
ATOM     29  C   UNL     1       3.579   1.636   3.093  1.00  0.00     0.060 A 
ATOM     30  C   UNL     1       2.522   0.898   2.571  1.00  0.00     0.016 A 
ATOM     31  C   UNL     1       4.003   1.406   4.397  1.00  0.00     0.016 A 
ATOM     32  C   UNL     1       1.799   0.025   3.359  1.00  0.00     0.010 A 
ATOM     33  C   UNL     1       3.329   0.460   5.176  1.00  0.00     0.010 A 
ATOM     34  C   UNL     1       2.179  -0.185   4.681  1.00  0.00    -0.014 A 
BRANCH  34  35
ATOM     35  C   UNL     1       1.260  -0.932   5.570  1.00  0.00     0.031 A 
ATOM     36  C   UNL     1       0.665  -0.220   6.752  1.00  0.00     0.074 A 
ATOM     37  C   UNL     1       0.898  -2.196   5.284  1.00  0.00     0.049 A 
ATOM     38  N   UNL     1       0.000  -0.712   7.762  1.00  0.00    -0.248 NA
ATOM     39  C   UNL     1       0.860   1.240   6.817  1.00  0.00     0.031 C 
ATOM     40  C   UNL     1       1.334  -2.964   4.115  1.00  0.00     0.029 A 
ATOM     41  N   UNL     1       0.071  -3.059   5.957  1.00  0.00    -0.354 N 
ATOM     42  C   UNL     1      -0.197   0.352   8.634  1.00  0.00     0.074 A 
ATOM     43  C   UNL     1       0.388   1.523   8.022  1.00  0.00     0.031 C 
ATOM     44  C   UNL     1       0.755  -4.174   4.142  1.00  0.00     0.029 A 
ATOM     45  C   UNL     1      -0.015  -4.300   5.373  1.00  0.00     0.049 A 
ATOM     46  H   UNL     1      -0.414  -2.812   6.777  1.00  0.00     0.167 HD
ATOM     47  C   UNL     1      -0.810   0.344   9.840  1.00  0.00     0.034 A 
ATOM     48  C   UNL     1      -0.606  -5.428   5.811  1.00  0.00     0.034 A 
ATOM     49  C   UNL     1      -1.477  -0.806  10.383  1.00  0.00     0.049 A 
ATOM     50  C   UNL     1      -1.304  -5.403   7.142  1.00  0.00     0.074 A 
ATOM     51  C   UNL     1      -2.152  -0.924  11.584  1.00  0.00     0.029 A 
ATOM     52  N   UNL     1      -1.576  -2.033   9.744  1.00  0.00    -0.354 N 
ATOM     53  N   UNL     1      -1.470  -4.398   7.968  1.00  0.00    -0.248 NA
ATOM     54  C   UNL     1      -1.904  -6.663   7.597  1.00  0.00     0.031 C 
ATOM     55  C   UNL     1      -2.655  -2.227  11.674  1.00  0.00     0.029 A 
ATOM     56  C   UNL     1      -2.311  -2.912  10.519  1.00  0.00     0.049 A 
ATOM     57  H   UNL     1      -1.181  -2.247   8.868  1.00  0.00     0.167 HD
ATOM     58  C   UNL     1      -2.220  -4.896   9.026  1.00  0.00     0.074 A 
ATOM     59  C   UNL     1      -2.495  -6.286   8.722  1.00  0.00     0.031 C 
ATOM     60  C   UNL     1      -2.627  -4.270  10.158  1.00  0.00     0.034 A 
BRANCH  47  61
ATOM     61  C   UNL     1      -0.775   1.612  10.650  1.00  0.00     0.023 A 
ATOM     62  C   UNL     1      -1.565   2.718  10.280  1.00  0.00     0.012 A 
ATOM     63  C   UNL     1       0.029   1.692  11.804  1.00  0.00     0.148 A 
ATOM     64  C   UNL     1      -1.529   3.896  11.027  1.00  0.00     0.002 A 
ATOM     65  C   UNL     1       0.024   2.852  12.570  1.00  0.00     0.091 A 
ATOM     66  F   UNL     1       0.797   0.640  12.123  1.00  0.00    -0.205 F 
ATOM     67  C   UNL     1      -0.744   3.959  12.176  1.00  0.00     0.022 A 
BRANCH  65  68
ATOM     68  S   UNL     1       0.939   2.995  14.109  1.00  0.00     0.127 S 
ATOM     69  O   UNL     1       2.026   3.894  13.725  1.00  0.00    -0.237 OA
ATOM     70  O   UNL     1      -0.055   3.589  15.004  1.00  0.00    -0.237 OA
ATOM     71  O   UNL     1       1.340   1.641  14.464  1.00  0.00    -0.744 OA
ENDBRANCH  65  68
ENDBRANCH  47  61
BRANCH  48  72
ATOM     72  C   UNL     1      -0.561  -6.667   4.983  1.00  0.00     0.023 A 
ATOM     73  C   UNL     1      -1.752  -7.170   4.426  1.00  0.00     0.012 A 
ATOM     74  C   UNL     1       0.653  -7.331   4.720  1.00  0.00     0.148 A 
ATOM     75  C   UNL     1      -1.738  -8.326   3.644  1.00  0.00     0.002 A 
ATOM     76  C   UNL     1       0.669  -8.444   3.888  1.00  0.00     0.091 A 
ATOM     77  F   UNL     1       1.775  -6.853   5.277  1.00  0.00    -0.205 F 
ATOM     78  C   UNL     1      -0.528  -8.955   3.364  1.00  0.00     0.022 A 
BRANCH  76  79
ATOM     79  S   UNL     1       2.200  -9.220   3.357  1.00  0.00     0.127 S 
ATOM     80  O   UNL     1       2.195 -10.456   4.134  1.00  0.00    -0.237 OA
ATOM     81  O   UNL     1       1.970  -9.392   1.921  1.00  0.00    -0.237 OA
ATOM     82  O   UNL     1       3.252  -8.266   3.681  1.00  0.00    -0.744 OA
ENDBRANCH  76  79
ENDBRANCH  48  72
BRANCH  60  83
ATOM     83  C   UNL     1      -3.464  -5.066  11.122  1.00  0.00     0.023 A 
ATOM     84  C   UNL     1      -2.867  -6.066  11.913  1.00  0.00     0.012 A 
ATOM     85  C   UNL     1      -4.832  -4.776  11.284  1.00  0.00     0.148 A 
ATOM     86  C   UNL     1      -3.630  -6.793  12.825  1.00  0.00     0.002 A 
ATOM     87  C   UNL     1      -5.575  -5.470  12.230  1.00  0.00     0.091 A 
ATOM     88  F   UNL     1      -5.386  -3.835  10.504  1.00  0.00    -0.205 F 
ATOM     89  C   UNL     1      -4.979  -6.488  12.992  1.00  0.00     0.022 A 
BRANCH  87  90
ATOM     90  S   UNL     1      -7.291  -5.068  12.572  1.00  0.00     0.127 S 
ATOM     91  O   UNL     1      -7.995  -6.128  11.853  1.00  0.00    -0.237 OA
ATOM     92  O   UNL     1      -7.354  -5.175  14.031  1.00  0.00    -0.237 OA
ATOM     93  O   UNL     1      -7.491  -3.719  12.061  1.00  0.00    -0.744 OA
ENDBRANCH  87  90
ENDBRANCH  60  83
ENDBRANCH  34  35
ENDBRANCH  27  29
ENDBRANCH  26  27
ENDBRANCH  25  26
ENDBRANCH   1  25
TORSDOF 19
