REMARK SMILES C[C@@H]1[C@H](C(=O)OCCOC(=O)c2ccc(-c3c4nc(c(-c5cccc(S(=O)(=O)[O-])c5F)c5ccc([nH]5)c(-c5cccc(S(=O)(=O)[O-])c5F)c5nc(c(-c6cccc(S(=O)(=O)[O-])c6F)c6ccc3[nH]6)C=C5)C=C4)cc2)CC[N@@H+]1Cc1cnn(-c2ccccc2)c1
REMARK SMILES IDX 7 1 6 2 4 3 5 4 3 5 1 6 2 7 77 8 75 9 76 10 78 12 79 13
REMARK SMILES IDX 80 14 89 15 81 16 82 17 83 18 84 19 88 20 85 21 87 22 86 23
REMARK SMILES IDX 8 24 9 25 10 26 11 27 12 28 13 29 74 30 14 31 73 32 15 33
REMARK SMILES IDX 16 34 17 35 67 36 18 37 72 38 66 39 68 40 19 41 71 42 65 43
REMARK SMILES IDX 64 44 20 46 52 47 32 48 51 49 33 50 36 51 50 52 69 53 34 54
REMARK SMILES IDX 35 55 49 57 70 58 37 59 21 60 22 61 30 62 23 63 25 64 31 65
REMARK SMILES IDX 24 66 26 67 27 68 28 69 29 70 53 71 54 72 62 73 55 74 57 75
REMARK SMILES IDX 63 76 56 77 58 78 59 79 60 80 61 81 38 82 39 83 47 84 40 85
REMARK SMILES IDX 42 86 48 87 41 88 43 89 44 90 45 91 46 92
REMARK H PARENT 77 11 68 45 36 56
REMARK Flexibility Score: inf
ROOT
ATOM      1  C   UNL     1       1.913   3.932   1.118  1.00  0.00     0.274 C 
ENDROOT
BRANCH   1   2
ATOM      2  O   UNL     1       1.370   2.611   0.921  1.00  0.00    -0.462 OA
BRANCH   2   3
ATOM      3  C   UNL     1       0.181   2.533   0.286  1.00  0.00     0.315 C 
ATOM      4  O   UNL     1      -0.510   3.506   0.003  1.00  0.00    -0.252 OA
BRANCH   3   5
ATOM      5  C   UNL     1      -0.278   1.127  -0.037  1.00  0.00     0.162 C 
ATOM      6  C   UNL     1       2.042   0.014   0.475  1.00  0.00     0.076 C 
ATOM      7  C   UNL     1       0.662  -0.090  -0.160  1.00  0.00     0.195 C 
ATOM      8  N   UNL     1      -0.189  -1.234   0.239  1.00  0.00    -0.328 N 
ATOM      9  C   UNL     1      -1.377   0.670   0.907  1.00  0.00     0.083 C 
ATOM     10  C   UNL     1      -1.547  -0.779   0.507  1.00  0.00     0.263 C 
ATOM     11  H   UNL     1      -0.152  -1.814  -0.599  1.00  0.00     0.348 HD
BRANCH   8  12
ATOM     12  C   UNL     1       0.301  -2.336   1.051  1.00  0.00     0.302 C 
BRANCH  12  13
ATOM     13  C   UNL     1       0.550  -1.973   2.476  1.00  0.00     0.045 A 
ATOM     14  C   UNL     1      -0.367  -1.821   3.539  1.00  0.00     0.145 A 
ATOM     15  C   UNL     1       1.770  -1.768   3.089  1.00  0.00     0.124 A 
ATOM     16  N   UNL     1       0.219  -1.517   4.700  1.00  0.00    -0.176 NA
ATOM     17  N   UNL     1       1.529  -1.366   4.380  1.00  0.00    -0.240 N 
BRANCH  17  18
ATOM     18  C   UNL     1       2.474  -0.849   5.302  1.00  0.00     0.065 A 
ATOM     19  C   UNL     1       2.168  -0.816   6.668  1.00  0.00     0.028 A 
ATOM     20  C   UNL     1       3.708  -0.352   4.852  1.00  0.00     0.028 A 
ATOM     21  C   UNL     1       3.107  -0.327   7.579  1.00  0.00     0.002 A 
ATOM     22  C   UNL     1       4.630   0.160   5.766  1.00  0.00     0.002 A 
ATOM     23  C   UNL     1       4.335   0.160   7.128  1.00  0.00     0.000 A 
ENDBRANCH  17  18
ENDBRANCH  12  13
ENDBRANCH   8  12
ENDBRANCH   3   5
ENDBRANCH   2   3
ENDBRANCH   1   2
BRANCH   1  24
ATOM     24  C   UNL     1       2.977   4.235   0.063  1.00  0.00     0.275 C 
BRANCH  24  25
ATOM     25  O   UNL     1       2.386   4.332  -1.246  1.00  0.00    -0.458 OA
BRANCH  25  26
ATOM     26  C   UNL     1       2.611   3.285  -2.073  1.00  0.00     0.338 C 
ATOM     27  O   UNL     1       3.284   2.294  -1.854  1.00  0.00    -0.246 OA
BRANCH  26  28
ATOM     28  C   UNL     1       1.831   3.458  -3.304  1.00  0.00     0.060 A 
ATOM     29  C   UNL     1       0.610   2.792  -3.418  1.00  0.00     0.016 A 
ATOM     30  C   UNL     1       2.352   4.179  -4.376  1.00  0.00     0.016 A 
ATOM     31  C   UNL     1      -0.098   2.830  -4.615  1.00  0.00     0.010 A 
ATOM     32  C   UNL     1       1.631   4.235  -5.572  1.00  0.00     0.010 A 
ATOM     33  C   UNL     1       0.410   3.549  -5.704  1.00  0.00    -0.014 A 
BRANCH  33  34
ATOM     34  C   UNL     1      -0.319   3.554  -6.994  1.00  0.00     0.031 A 
ATOM     35  C   UNL     1       0.248   2.821  -8.175  1.00  0.00     0.074 A 
ATOM     36  C   UNL     1      -1.480   4.227  -7.099  1.00  0.00     0.049 A 
ATOM     37  N   UNL     1      -0.173   2.800  -9.412  1.00  0.00    -0.248 NA
ATOM     38  C   UNL     1       1.450   2.005  -7.934  1.00  0.00     0.031 C 
ATOM     39  C   UNL     1      -2.135   4.956  -6.012  1.00  0.00     0.029 A 
ATOM     40  N   UNL     1      -2.304   4.424  -8.178  1.00  0.00    -0.354 N 
ATOM     41  C   UNL     1       0.734   2.010 -10.108  1.00  0.00     0.074 A 
ATOM     42  C   UNL     1       1.728   1.566  -9.155  1.00  0.00     0.031 C 
ATOM     43  C   UNL     1      -3.254   5.531  -6.481  1.00  0.00     0.029 A 
ATOM     44  C   UNL     1      -3.371   5.250  -7.908  1.00  0.00     0.049 A 
ATOM     45  H   UNL     1      -2.148   4.015  -9.059  1.00  0.00     0.167 HD
ATOM     46  C   UNL     1       0.729   1.676 -11.420  1.00  0.00     0.034 A 
ATOM     47  C   UNL     1      -4.319   5.745  -8.727  1.00  0.00     0.034 A 
ATOM     48  C   UNL     1      -0.287   2.087 -12.352  1.00  0.00     0.049 A 
ATOM     49  C   UNL     1      -4.293   5.367 -10.182  1.00  0.00     0.074 A 
ATOM     50  C   UNL     1      -0.394   1.786 -13.698  1.00  0.00     0.029 A 
ATOM     51  N   UNL     1      -1.377   2.882 -12.031  1.00  0.00    -0.354 N 
ATOM     52  N   UNL     1      -3.466   4.566 -10.811  1.00  0.00    -0.248 NA
ATOM     53  C   UNL     1      -5.339   5.943 -11.038  1.00  0.00     0.031 C 
ATOM     54  C   UNL     1      -1.548   2.403 -14.193  1.00  0.00     0.029 A 
ATOM     55  C   UNL     1      -2.163   3.082 -13.153  1.00  0.00     0.049 A 
ATOM     56  H   UNL     1      -1.563   3.251 -11.138  1.00  0.00     0.167 HD
ATOM     57  C   UNL     1      -3.905   4.522 -12.129  1.00  0.00     0.074 A 
ATOM     58  C   UNL     1      -5.087   5.358 -12.202  1.00  0.00     0.031 C 
ATOM     59  C   UNL     1      -3.369   3.869 -13.188  1.00  0.00     0.034 A 
BRANCH  46  60
ATOM     60  C   UNL     1       1.839   0.791 -11.920  1.00  0.00     0.023 A 
ATOM     61  C   UNL     1       1.811  -0.587 -11.627  1.00  0.00     0.012 A 
ATOM     62  C   UNL     1       2.877   1.308 -12.719  1.00  0.00     0.148 A 
ATOM     63  C   UNL     1       2.812  -1.434 -12.102  1.00  0.00     0.002 A 
ATOM     64  C   UNL     1       3.853   0.451 -13.219  1.00  0.00     0.091 A 
ATOM     65  F   UNL     1       2.901   2.626 -12.965  1.00  0.00    -0.205 F 
ATOM     66  C   UNL     1       3.825  -0.917 -12.905  1.00  0.00     0.022 A 
BRANCH  64  67
ATOM     67  S   UNL     1       5.162   1.013 -14.313  1.00  0.00     0.127 S 
ATOM     68  O   UNL     1       6.317   1.010 -13.416  1.00  0.00    -0.237 OA
ATOM     69  O   UNL     1       5.183  -0.032 -15.336  1.00  0.00    -0.237 OA
ATOM     70  O   UNL     1       4.744   2.322 -14.795  1.00  0.00    -0.744 OA
ENDBRANCH  64  67
ENDBRANCH  46  60
BRANCH  47  71
ATOM     71  C   UNL     1      -5.391   6.623  -8.178  1.00  0.00     0.023 A 
ATOM     72  C   UNL     1      -6.710   6.138  -8.108  1.00  0.00     0.012 A 
ATOM     73  C   UNL     1      -5.108   7.914  -7.690  1.00  0.00     0.148 A 
ATOM     74  C   UNL     1      -7.733   6.929  -7.582  1.00  0.00     0.002 A 
ATOM     75  C   UNL     1      -6.121   8.676  -7.117  1.00  0.00     0.091 A 
ATOM     76  F   UNL     1      -3.852   8.373  -7.788  1.00  0.00    -0.205 F 
ATOM     77  C   UNL     1      -7.436   8.191  -7.074  1.00  0.00     0.022 A 
BRANCH  75  78
ATOM     78  S   UNL     1      -5.786  10.252  -6.322  1.00  0.00     0.127 S 
ATOM     79  O   UNL     1      -6.192  11.202  -7.353  1.00  0.00    -0.237 OA
ATOM     80  O   UNL     1      -6.663  10.202  -5.151  1.00  0.00    -0.237 OA
ATOM     81  O   UNL     1      -4.365  10.223  -6.000  1.00  0.00    -0.744 OA
ENDBRANCH  75  78
ENDBRANCH  47  71
BRANCH  59  82
ATOM     82  C   UNL     1      -4.065   4.011 -14.514  1.00  0.00     0.023 A 
ATOM     83  C   UNL     1      -3.923   5.205 -15.247  1.00  0.00     0.012 A 
ATOM     84  C   UNL     1      -4.794   2.940 -15.066  1.00  0.00     0.148 A 
ATOM     85  C   UNL     1      -4.517   5.341 -16.500  1.00  0.00     0.002 A 
ATOM     86  C   UNL     1      -5.349   3.068 -16.334  1.00  0.00     0.091 A 
ATOM     87  F   UNL     1      -4.936   1.820 -14.342  1.00  0.00    -0.205 F 
ATOM     88  C   UNL     1      -5.219   4.270 -17.049  1.00  0.00     0.022 A 
BRANCH  86  89
ATOM     89  S   UNL     1      -6.195   1.708 -17.148  1.00  0.00     0.127 S 
ATOM     90  O   UNL     1      -7.598   2.077 -16.967  1.00  0.00    -0.237 OA
ATOM     91  O   UNL     1      -5.709   1.813 -18.524  1.00  0.00    -0.237 OA
ATOM     92  O   UNL     1      -5.766   0.502 -16.451  1.00  0.00    -0.744 OA
ENDBRANCH  86  89
ENDBRANCH  59  82
ENDBRANCH  33  34
ENDBRANCH  26  28
ENDBRANCH  25  26
ENDBRANCH  24  25
ENDBRANCH   1  24
TORSDOF 17
