REMARK SMILES O=C(C[C@@H]1C(=O)NCC[N@@H+]1Cc1ccc(F)c(F)c1)OCCOC(=O)c1ccc(-c2c3nc(c(-c4cccc(S(=O)(=O)[O-])c4F)c4ccc([nH]4)c(-c4cccc(S(=O)(=O)[O-])c4F)c4nc(c(-c5cccc(S(=O)(=O)[O-])c5F)c5ccc2[nH]5)C=C4)C=C3)cc1
REMARK SMILES IDX 21 1 20 2 2 3 1 4 3 5 4 6 5 7 10 8 6 9 7 10 9 11 8 13 11 15
REMARK SMILES IDX 12 16 13 17 19 18 14 19 17 20 15 21 18 22 16 23 22 24 23 25
REMARK SMILES IDX 24 26 25 27 26 28 27 29 88 30 28 31 87 32 29 33 30 34 31 35
REMARK SMILES IDX 81 36 32 37 86 38 80 39 82 40 33 41 85 42 79 43 78 44 34 46
REMARK SMILES IDX 66 47 46 48 65 49 47 50 50 51 64 52 83 53 48 54 49 55 63 57
REMARK SMILES IDX 84 58 51 59 35 60 36 61 44 62 37 63 39 64 45 65 38 66 40 67
REMARK SMILES IDX 41 68 42 69 43 70 67 71 68 72 76 73 69 74 71 75 77 76 70 77
REMARK SMILES IDX 72 78 73 79 74 80 75 81 52 82 53 83 61 84 54 85 56 86 62 87
REMARK SMILES IDX 55 88 57 89 58 90 59 91 60 92
REMARK H PARENT 10 12 7 14 82 45 50 56
REMARK Flexibility Score: inf
ROOT
ATOM      1  C   UNL     1       4.630   1.043  -0.378  1.00  0.00     0.274 C 
ENDROOT
BRANCH   1   2
ATOM      2  O   UNL     1       3.411   0.680  -1.057  1.00  0.00    -0.462 OA
BRANCH   2   3
ATOM      3  C   UNL     1       2.786  -0.514  -0.928  1.00  0.00     0.312 C 
ATOM      4  O   UNL     1       2.016  -0.902  -1.801  1.00  0.00    -0.252 OA
BRANCH   3   5
ATOM      5  C   UNL     1       3.002  -1.294   0.339  1.00  0.00     0.198 C 
BRANCH   5   6
ATOM      6  C   UNL     1       4.186  -2.268   0.271  1.00  0.00     0.285 C 
ATOM      7  C   UNL     1       3.710  -3.729   0.076  1.00  0.00     0.279 C 
ATOM      8  N   UNL     1       5.170  -2.133   1.395  1.00  0.00    -0.319 N 
ATOM      9  O   UNL     1       2.618  -4.020  -0.407  1.00  0.00    -0.268 OA
ATOM     10  N   UNL     1       4.598  -4.731   0.362  1.00  0.00    -0.345 N 
ATOM     11  C   UNL     1       6.282  -3.077   1.196  1.00  0.00     0.284 C 
ATOM     12  H   UNL     1       5.498  -1.171   1.319  1.00  0.00     0.349 HD
ATOM     13  C   UNL     1       5.869  -4.545   1.028  1.00  0.00     0.177 C 
ATOM     14  H   UNL     1       4.354  -5.646   0.096  1.00  0.00     0.163 HD
BRANCH   8  15
ATOM     15  C   UNL     1       4.669  -2.089   2.785  1.00  0.00     0.299 C 
BRANCH  15  16
ATOM     16  C   UNL     1       3.841  -3.256   3.263  1.00  0.00     0.009 A 
ATOM     17  C   UNL     1       4.404  -4.287   4.033  1.00  0.00     0.013 A 
ATOM     18  C   UNL     1       2.492  -3.360   2.903  1.00  0.00     0.052 A 
ATOM     19  C   UNL     1       3.676  -5.453   4.300  1.00  0.00     0.043 A 
ATOM     20  C   UNL     1       1.786  -4.535   3.129  1.00  0.00     0.159 A 
ATOM     21  C   UNL     1       2.385  -5.587   3.801  1.00  0.00     0.158 A 
ATOM     22  F   UNL     1       0.507  -4.610   2.737  1.00  0.00    -0.204 F 
ATOM     23  F   UNL     1       1.692  -6.709   4.031  1.00  0.00    -0.204 F 
ENDBRANCH  15  16
ENDBRANCH   8  15
ENDBRANCH   5   6
ENDBRANCH   3   5
ENDBRANCH   2   3
ENDBRANCH   1   2
BRANCH   1  24
ATOM     24  C   UNL     1       4.409   2.158   0.643  1.00  0.00     0.275 C 
BRANCH  24  25
ATOM     25  O   UNL     1       3.883   1.634   1.878  1.00  0.00    -0.458 OA
BRANCH  25  26
ATOM     26  C   UNL     1       2.551   1.813   2.087  1.00  0.00     0.338 C 
ATOM     27  O   UNL     1       1.779   2.388   1.349  1.00  0.00    -0.246 OA
BRANCH  26  28
ATOM     28  C   UNL     1       2.131   1.070   3.307  1.00  0.00     0.060 A 
ATOM     29  C   UNL     1       0.840   0.530   3.336  1.00  0.00     0.016 A 
ATOM     30  C   UNL     1       2.981   0.894   4.406  1.00  0.00     0.016 A 
ATOM     31  C   UNL     1       0.388  -0.155   4.469  1.00  0.00     0.010 A 
ATOM     32  C   UNL     1       2.531   0.196   5.535  1.00  0.00     0.010 A 
ATOM     33  C   UNL     1       1.219  -0.303   5.590  1.00  0.00    -0.014 A 
BRANCH  33  34
ATOM     34  C   UNL     1       0.664  -0.856   6.856  1.00  0.00     0.031 A 
ATOM     35  C   UNL     1       0.214   0.085   7.926  1.00  0.00     0.074 A 
ATOM     36  C   UNL     1       0.563  -2.180   7.074  1.00  0.00     0.049 A 
ATOM     37  N   UNL     1      -0.384  -0.186   9.054  1.00  0.00    -0.248 NA
ATOM     38  C   UNL     1       0.500   1.511   7.713  1.00  0.00     0.031 C 
ATOM     39  C   UNL     1       1.056  -3.188   6.156  1.00  0.00     0.029 A 
ATOM     40  N   UNL     1       0.034  -2.911   8.109  1.00  0.00    -0.354 N 
ATOM     41  C   UNL     1      -0.516   1.028   9.706  1.00  0.00     0.074 A 
ATOM     42  C   UNL     1       0.077   2.036   8.852  1.00  0.00     0.031 C 
ATOM     43  C   UNL     1       0.773  -4.409   6.632  1.00  0.00     0.029 A 
ATOM     44  C   UNL     1       0.096  -4.273   7.912  1.00  0.00     0.049 A 
ATOM     45  H   UNL     1      -0.354  -2.500   8.915  1.00  0.00     0.167 HD
ATOM     46  C   UNL     1      -1.091   1.282  10.904  1.00  0.00     0.034 A 
ATOM     47  C   UNL     1      -0.348  -5.303   8.660  1.00  0.00     0.034 A 
ATOM     48  C   UNL     1      -1.684   0.280  11.745  1.00  0.00     0.049 A 
ATOM     49  C   UNL     1      -1.053  -4.989   9.949  1.00  0.00     0.074 A 
ATOM     50  C   UNL     1      -2.344   0.450  12.949  1.00  0.00     0.029 A 
ATOM     51  N   UNL     1      -1.678  -1.082  11.482  1.00  0.00    -0.354 N 
ATOM     52  N   UNL     1      -1.320  -3.817  10.472  1.00  0.00    -0.248 NA
ATOM     53  C   UNL     1      -1.542  -6.128  10.739  1.00  0.00     0.031 C 
ATOM     54  C   UNL     1      -2.721  -0.812  13.422  1.00  0.00     0.029 A 
ATOM     55  C   UNL     1      -2.316  -1.766  12.503  1.00  0.00     0.049 A 
ATOM     56  H   UNL     1      -1.278  -1.501  10.686  1.00  0.00     0.167 HD
ATOM     57  C   UNL     1      -2.028  -4.073  11.637  1.00  0.00     0.074 A 
ATOM     58  C   UNL     1      -2.174  -5.513  11.729  1.00  0.00     0.031 C 
ATOM     59  C   UNL     1      -2.494  -3.195  12.558  1.00  0.00     0.034 A 
BRANCH  46  60
ATOM     60  C   UNL     1      -1.106   2.716  11.348  1.00  0.00     0.023 A 
ATOM     61  C   UNL     1      -1.968   3.631  10.710  1.00  0.00     0.012 A 
ATOM     62  C   UNL     1      -0.256   3.160  12.376  1.00  0.00     0.148 A 
ATOM     63  C   UNL     1      -1.952   4.980  11.061  1.00  0.00     0.002 A 
ATOM     64  C   UNL     1      -0.276   4.498  12.749  1.00  0.00     0.091 A 
ATOM     65  F   UNL     1       0.580   2.279  12.944  1.00  0.00    -0.205 F 
ATOM     66  C   UNL     1      -1.112   5.411  12.084  1.00  0.00     0.022 A 
BRANCH  64  67
ATOM     67  S   UNL     1       0.727   5.136  14.093  1.00  0.00     0.127 S 
ATOM     68  O   UNL     1       1.759   5.874  13.367  1.00  0.00    -0.237 OA
ATOM     69  O   UNL     1      -0.227   5.976  14.819  1.00  0.00    -0.237 OA
ATOM     70  O   UNL     1       1.191   3.970  14.833  1.00  0.00    -0.744 OA
ENDBRANCH  64  67
ENDBRANCH  46  60
BRANCH  47  71
ATOM     71  C   UNL     1      -0.223  -6.711   8.174  1.00  0.00     0.023 A 
ATOM     72  C   UNL     1      -1.386  -7.417   7.806  1.00  0.00     0.012 A 
ATOM     73  C   UNL     1       1.026  -7.350   8.049  1.00  0.00     0.148 A 
ATOM     74  C   UNL     1      -1.311  -8.738   7.358  1.00  0.00     0.002 A 
ATOM     75  C   UNL     1       1.100  -8.647   7.548  1.00  0.00     0.091 A 
ATOM     76  F   UNL     1       2.127  -6.680   8.422  1.00  0.00    -0.205 F 
ATOM     77  C   UNL     1      -0.068  -9.350   7.219  1.00  0.00     0.022 A 
BRANCH  75  78
ATOM     78  S   UNL     1       2.680  -9.441   7.222  1.00  0.00     0.127 S 
ATOM     79  O   UNL     1       2.873 -10.238   8.430  1.00  0.00    -0.237 OA
ATOM     80  O   UNL     1       2.406 -10.218   6.013  1.00  0.00    -0.237 OA
ATOM     81  O   UNL     1       3.622  -8.345   7.019  1.00  0.00    -0.744 OA
ENDBRANCH  75  78
ENDBRANCH  47  71
BRANCH  59  82
ATOM     82  C   UNL     1      -3.230  -3.763  13.740  1.00  0.00     0.023 A 
ATOM     83  C   UNL     1      -2.517  -4.434  14.753  1.00  0.00     0.012 A 
ATOM     84  C   UNL     1      -4.619  -3.576  13.877  1.00  0.00     0.148 A 
ATOM     85  C   UNL     1      -3.180  -4.936  15.872  1.00  0.00     0.002 A 
ATOM     86  C   UNL     1      -5.266  -4.037  15.017  1.00  0.00     0.091 A 
ATOM     87  F   UNL     1      -5.283  -2.960  12.888  1.00  0.00    -0.205 F 
ATOM     88  C   UNL     1      -4.551  -4.727  16.009  1.00  0.00     0.022 A 
BRANCH  86  89
ATOM     89  S   UNL     1      -7.009  -3.724  15.315  1.00  0.00     0.127 S 
ATOM     90  O   UNL     1      -7.604  -5.019  14.993  1.00  0.00    -0.237 OA
ATOM     91  O   UNL     1      -7.026  -3.381  16.738  1.00  0.00    -0.237 OA
ATOM     92  O   UNL     1      -7.371  -2.626  14.429  1.00  0.00    -0.744 OA
ENDBRANCH  86  89
ENDBRANCH  59  82
ENDBRANCH  33  34
ENDBRANCH  26  28
ENDBRANCH  25  26
ENDBRANCH  24  25
ENDBRANCH   1  24
TORSDOF 17
