REMARK SMILES Cc1nn(-c2ccccc2)c(C)c1CNC(=O)[C@@H]1[C@@H](C(=O)OCCOC(=O)c2ccc(-c3c4nc(c(-c5cccc(S(=O)(=O)[O-])c5F)c5ccc([nH]5)c(-c5cccc(S(=O)(=O)[O-])c5F)c5nc(c(-c6cccc(S(=O)(=O)[O-])c6F)c6ccc3[nH]6)C=C5)C=C4)cc2)[C@@H]2C=C[C@H]1C2
REMARK SMILES IDX 23 1 22 2 20 3 21 4 19 5 18 6 94 7 91 8 93 9 95 10 92 11
REMARK SMILES IDX 16 12 15 13 17 15 14 16 13 17 1 18 2 19 3 20 4 21 11 22
REMARK SMILES IDX 12 23 5 24 6 25 10 26 7 27 9 28 8 29 24 30 25 31 26 32 27 33
REMARK SMILES IDX 28 34 29 35 90 36 30 37 89 38 31 39 32 40 33 41 83 42 34 43
REMARK SMILES IDX 88 44 82 45 84 46 35 47 87 48 81 49 80 50 36 52 68 53 48 54
REMARK SMILES IDX 67 55 49 56 52 57 66 58 85 59 50 60 51 61 65 63 86 64 53 65
REMARK SMILES IDX 37 66 38 67 46 68 39 69 41 70 47 71 40 72 42 73 43 74 44 75
REMARK SMILES IDX 45 76 69 77 70 78 78 79 71 80 73 81 79 82 72 83 74 84 75 85
REMARK SMILES IDX 76 86 77 87 54 88 55 89 63 90 56 91 58 92 64 93 57 94 59 95
REMARK SMILES IDX 60 96 61 97 62 98
REMARK H PARENT 15 14 84 51 52 62
REMARK Flexibility Score: inf
ROOT
ATOM      1  C   UNL     1      -3.288   1.618  -5.773  1.00  0.00     0.274 C 
ENDROOT
BRANCH   1   2
ATOM      2  O   UNL     1      -2.531   2.627  -5.057  1.00  0.00    -0.462 OA
BRANCH   2   3
ATOM      3  C   UNL     1      -2.251   3.786  -5.713  1.00  0.00     0.310 C 
ATOM      4  O   UNL     1      -2.673   4.048  -6.839  1.00  0.00    -0.252 OA
BRANCH   3   5
ATOM      5  C   UNL     1      -1.281   4.711  -4.986  1.00  0.00     0.119 C 
ATOM      6  C   UNL     1      -0.803   4.315  -3.549  1.00  0.00     0.100 C 
ATOM      7  C   UNL     1      -1.058   5.613  -2.732  1.00  0.00     0.025 C 
ATOM      8  C   UNL     1      -1.904   6.110  -4.744  1.00  0.00     0.027 C 
ATOM      9  C   UNL     1      -0.258   6.773  -3.284  1.00  0.00    -0.027 C 
ATOM     10  C   UNL     1      -2.417   6.017  -3.299  1.00  0.00     0.017 C 
ATOM     11  C   UNL     1      -0.766   7.072  -4.489  1.00  0.00    -0.027 C 
BRANCH   6  12
ATOM     12  C   UNL     1       0.669   3.915  -3.507  1.00  0.00     0.224 C 
ATOM     13  N   UNL     1       1.087   2.927  -2.668  1.00  0.00    -0.352 N 
ATOM     14  H   UNL     1       2.063   2.800  -2.628  1.00  0.00     0.163 HD
ATOM     15  O   UNL     1       1.526   4.433  -4.226  1.00  0.00    -0.275 OA
BRANCH  13  16
ATOM     16  C   UNL     1       0.323   2.037  -1.828  1.00  0.00     0.155 C 
BRANCH  16  17
ATOM     17  C   UNL     1       0.262   0.663  -2.424  1.00  0.00     0.016 A 
ATOM     18  C   UNL     1       0.498  -0.747  -0.236  1.00  0.00     0.069 C 
ATOM     19  C   UNL     1       0.260  -0.557  -1.690  1.00  0.00     0.065 A 
ATOM     20  N   UNL     1      -0.003  -1.613  -2.465  1.00  0.00    -0.173 NA
ATOM     21  N   UNL     1      -0.031  -1.125  -3.726  1.00  0.00    -0.237 N 
ATOM     22  C   UNL     1       0.146   0.252  -3.748  1.00  0.00     0.046 A 
ATOM     23  C   UNL     1       0.078   1.038  -5.006  1.00  0.00     0.067 C 
BRANCH  21  24
ATOM     24  C   UNL     1      -0.330  -1.972  -4.827  1.00  0.00     0.065 A 
ATOM     25  C   UNL     1      -1.337  -2.934  -4.692  1.00  0.00     0.028 A 
ATOM     26  C   UNL     1       0.292  -1.779  -6.068  1.00  0.00     0.028 A 
ATOM     27  C   UNL     1      -1.783  -3.623  -5.822  1.00  0.00     0.002 A 
ATOM     28  C   UNL     1      -0.148  -2.481  -7.188  1.00  0.00     0.002 A 
ATOM     29  C   UNL     1      -1.199  -3.387  -7.069  1.00  0.00     0.000 A 
ENDBRANCH  21  24
ENDBRANCH  16  17
ENDBRANCH  13  16
ENDBRANCH   6  12
ENDBRANCH   3   5
ENDBRANCH   2   3
ENDBRANCH   1   2
BRANCH   1  30
ATOM     30  C   UNL     1      -4.793   1.640  -5.515  1.00  0.00     0.275 C 
BRANCH  30  31
ATOM     31  O   UNL     1      -5.409   2.811  -6.045  1.00  0.00    -0.458 OA
BRANCH  31  32
ATOM     32  C   UNL     1      -5.311   3.845  -5.186  1.00  0.00     0.338 C 
ATOM     33  O   UNL     1      -4.696   3.864  -4.132  1.00  0.00    -0.246 OA
BRANCH  32  34
ATOM     34  C   UNL     1      -6.160   4.957  -5.576  1.00  0.00     0.060 A 
ATOM     35  C   UNL     1      -5.739   6.218  -5.148  1.00  0.00     0.016 A 
ATOM     36  C   UNL     1      -7.484   4.683  -5.928  1.00  0.00     0.016 A 
ATOM     37  C   UNL     1      -6.688   7.166  -4.868  1.00  0.00     0.010 A 
ATOM     38  C   UNL     1      -8.436   5.638  -5.651  1.00  0.00     0.010 A 
ATOM     39  C   UNL     1      -8.031   6.827  -5.038  1.00  0.00    -0.014 A 
BRANCH  39  40
ATOM     40  C   UNL     1      -8.994   7.785  -4.540  1.00  0.00     0.031 A 
ATOM     41  C   UNL     1      -9.055   9.047  -5.307  1.00  0.00     0.074 A 
ATOM     42  C   UNL     1      -9.815   7.500  -3.514  1.00  0.00     0.049 A 
ATOM     43  N   UNL     1      -8.890  10.255  -4.878  1.00  0.00    -0.248 NA
ATOM     44  C   UNL     1      -9.204   8.928  -6.765  1.00  0.00     0.031 C 
ATOM     45  C   UNL     1     -10.032   6.194  -2.885  1.00  0.00     0.029 A 
ATOM     46  N   UNL     1     -10.769   8.291  -2.949  1.00  0.00    -0.354 N 
ATOM     47  C   UNL     1      -9.122  11.065  -5.985  1.00  0.00     0.074 A 
ATOM     48  C   UNL     1      -9.147  10.204  -7.138  1.00  0.00     0.031 C 
ATOM     49  C   UNL     1     -11.231   6.213  -2.264  1.00  0.00     0.029 A 
ATOM     50  C   UNL     1     -11.784   7.554  -2.356  1.00  0.00     0.049 A 
ATOM     51  H   UNL     1     -10.741   9.275  -2.960  1.00  0.00     0.167 HD
ATOM     52  C   UNL     1      -9.513  12.359  -5.864  1.00  0.00     0.034 A 
ATOM     53  C   UNL     1     -13.036   7.992  -2.094  1.00  0.00     0.034 A 
ATOM     54  C   UNL     1      -9.251  12.901  -4.561  1.00  0.00     0.049 A 
ATOM     55  C   UNL     1     -13.017   9.473  -2.106  1.00  0.00     0.074 A 
ATOM     56  C   UNL     1      -8.125  13.091  -3.787  1.00  0.00     0.029 A 
ATOM     57  N   UNL     1     -10.323  13.071  -3.722  1.00  0.00    -0.354 N 
ATOM     58  N   UNL     1     -12.413  10.207  -1.213  1.00  0.00    -0.248 NA
ATOM     59  C   UNL     1     -13.378  10.162  -3.336  1.00  0.00     0.031 C 
ATOM     60  C   UNL     1      -8.566  12.935  -2.442  1.00  0.00     0.029 A 
ATOM     61  C   UNL     1      -9.934  12.657  -2.476  1.00  0.00     0.049 A 
ATOM     62  H   UNL     1     -11.208  13.425  -3.969  1.00  0.00     0.167 HD
ATOM     63  C   UNL     1     -11.945  11.309  -1.919  1.00  0.00     0.074 A 
ATOM     64  C   UNL     1     -12.688  11.293  -3.174  1.00  0.00     0.031 C 
ATOM     65  C   UNL     1     -10.796  11.953  -1.550  1.00  0.00     0.034 A 
BRANCH  52  66
ATOM     66  C   UNL     1     -10.435  13.036  -6.841  1.00  0.00     0.023 A 
ATOM     67  C   UNL     1     -10.542  14.440  -6.784  1.00  0.00     0.012 A 
ATOM     68  C   UNL     1     -11.379  12.347  -7.636  1.00  0.00     0.148 A 
ATOM     69  C   UNL     1     -11.553  15.121  -7.470  1.00  0.00     0.002 A 
ATOM     70  C   UNL     1     -12.319  13.035  -8.391  1.00  0.00     0.091 A 
ATOM     71  F   UNL     1     -11.472  11.013  -7.570  1.00  0.00    -0.205 F 
ATOM     72  C   UNL     1     -12.431  14.421  -8.290  1.00  0.00     0.022 A 
BRANCH  70  73
ATOM     73  S   UNL     1     -13.393  12.149  -9.523  1.00  0.00     0.127 S 
ATOM     74  O   UNL     1     -14.554  11.877  -8.682  1.00  0.00    -0.237 OA
ATOM     75  O   UNL     1     -13.612  13.134 -10.583  1.00  0.00    -0.237 OA
ATOM     76  O   UNL     1     -12.605  10.995  -9.944  1.00  0.00    -0.744 OA
ENDBRANCH  70  73
ENDBRANCH  52  66
BRANCH  53  77
ATOM     77  C   UNL     1     -14.291   7.210  -2.086  1.00  0.00     0.023 A 
ATOM     78  C   UNL     1     -15.399   7.687  -1.364  1.00  0.00     0.012 A 
ATOM     79  C   UNL     1     -14.483   6.109  -2.954  1.00  0.00     0.148 A 
ATOM     80  C   UNL     1     -16.658   7.095  -1.505  1.00  0.00     0.002 A 
ATOM     81  C   UNL     1     -15.731   5.505  -3.070  1.00  0.00     0.091 A 
ATOM     82  F   UNL     1     -13.470   5.710  -3.735  1.00  0.00    -0.205 F 
ATOM     83  C   UNL     1     -16.825   6.003  -2.354  1.00  0.00     0.022 A 
BRANCH  81  84
ATOM     84  S   UNL     1     -15.997   4.078  -4.131  1.00  0.00     0.127 S 
ATOM     85  O   UNL     1     -16.868   3.238  -3.308  1.00  0.00    -0.237 OA
ATOM     86  O   UNL     1     -16.646   4.678  -5.293  1.00  0.00    -0.237 OA
ATOM     87  O   UNL     1     -14.673   3.510  -4.361  1.00  0.00    -0.744 OA
ENDBRANCH  81  84
ENDBRANCH  53  77
BRANCH  65  88
ATOM     88  C   UNL     1     -10.195  11.632  -0.202  1.00  0.00     0.023 A 
ATOM     89  C   UNL     1      -9.758  10.328   0.115  1.00  0.00     0.012 A 
ATOM     90  C   UNL     1      -9.883  12.681   0.681  1.00  0.00     0.148 A 
ATOM     91  C   UNL     1      -9.059  10.069   1.295  1.00  0.00     0.002 A 
ATOM     92  C   UNL     1      -9.143  12.428   1.833  1.00  0.00     0.091 A 
ATOM     93  F   UNL     1     -10.289  13.922   0.368  1.00  0.00    -0.205 F 
ATOM     94  C   UNL     1      -8.739  11.121   2.148  1.00  0.00     0.022 A 
BRANCH  92  95
ATOM     95  S   UNL     1      -8.578  13.761   2.895  1.00  0.00     0.127 S 
ATOM     96  O   UNL     1      -9.576  13.752   3.961  1.00  0.00    -0.237 OA
ATOM     97  O   UNL     1      -7.247  13.306   3.302  1.00  0.00    -0.237 OA
ATOM     98  O   UNL     1      -8.561  14.952   2.052  1.00  0.00    -0.744 OA
ENDBRANCH  92  95
ENDBRANCH  65  88
ENDBRANCH  39  40
ENDBRANCH  32  34
ENDBRANCH  31  32
ENDBRANCH  30  31
ENDBRANCH   1  30
TORSDOF 18
