REMARK SMILES C[C@H](CSc1ccc(C(=O)N(C)C)cn1)C(=O)OCCOC(=O)c1ccc(-c2c3nc(c(-c4cccc(S(=O)(=O)[O-])c4F)c4ccc([nH]4)c(-c4cccc(S(=O)(=O)[O-])c4F)c4nc(c(-c5cccc(S(=O)(=O)[O-])c5F)c5ccc2[nH]5)C=C4)C=C3)cc1
REMARK SMILES IDX 19 1 18 2 16 3 17 4 2 5 1 6 3 7 4 8 5 9 6 10 15 11 7 12
REMARK SMILES IDX 14 13 8 14 9 15 10 16 11 17 12 18 13 19 20 20 21 21 22 22
REMARK SMILES IDX 23 23 24 24 25 25 86 26 26 27 85 28 27 29 28 30 29 31 79 32
REMARK SMILES IDX 30 33 84 34 78 35 80 36 31 37 83 38 77 39 76 40 32 42 64 43
REMARK SMILES IDX 44 44 63 45 45 46 48 47 62 48 81 49 46 50 47 51 61 53 82 54
REMARK SMILES IDX 49 55 33 56 34 57 42 58 35 59 37 60 43 61 36 62 38 63 39 64
REMARK SMILES IDX 40 65 41 66 65 67 66 68 74 69 67 70 69 71 75 72 68 73 70 74
REMARK SMILES IDX 71 75 72 76 73 77 50 78 51 79 59 80 52 81 54 82 60 83 53 84
REMARK SMILES IDX 55 85 56 86 57 87 58 88
REMARK H PARENT 80 41 48 52
REMARK Flexibility Score: inf
ROOT
ATOM      1  C   UNL     1      -2.817   1.009  -0.715  1.00  0.00     0.274 C 
ENDROOT
BRANCH   1   2
ATOM      2  O   UNL     1      -1.380   0.901  -0.800  1.00  0.00    -0.462 OA
BRANCH   2   3
ATOM      3  C   UNL     1      -0.668   1.896  -0.211  1.00  0.00     0.309 C 
ATOM      4  O   UNL     1      -1.177   2.888   0.301  1.00  0.00    -0.252 OA
BRANCH   3   5
ATOM      5  C   UNL     1       0.838   1.655  -0.179  1.00  0.00     0.106 C 
ATOM      6  C   UNL     1       1.566   2.872  -0.745  1.00  0.00     0.021 C 
BRANCH   5   7
ATOM      7  C   UNL     1       1.308   0.255  -0.615  1.00  0.00     0.091 C 
BRANCH   7   8
ATOM      8  S   UNL     1       2.392   0.108  -2.076  1.00  0.00    -0.106 SA
BRANCH   8   9
ATOM      9  C   UNL     1       1.175   0.338  -3.338  1.00  0.00     0.096 A 
ATOM     10  C   UNL     1       0.440  -0.737  -3.823  1.00  0.00     0.036 A 
ATOM     11  N   UNL     1       1.015   1.598  -3.789  1.00  0.00    -0.249 NA
ATOM     12  C   UNL     1      -0.511  -0.506  -4.817  1.00  0.00     0.018 A 
ATOM     13  C   UNL     1       0.086   1.800  -4.751  1.00  0.00     0.126 A 
ATOM     14  C   UNL     1      -0.673   0.786  -5.316  1.00  0.00     0.058 A 
BRANCH  14  15
ATOM     15  C   UNL     1      -1.649   1.164  -6.357  1.00  0.00     0.254 C 
ATOM     16  O   UNL     1      -2.256   2.222  -6.189  1.00  0.00    -0.269 OA
ATOM     17  N   UNL     1      -1.841   0.368  -7.486  1.00  0.00    -0.345 N 
ATOM     18  C   UNL     1      -1.033  -0.776  -7.880  1.00  0.00     0.146 C 
ATOM     19  C   UNL     1      -2.842   0.806  -8.444  1.00  0.00     0.146 C 
ENDBRANCH  14  15
ENDBRANCH   8   9
ENDBRANCH   7   8
ENDBRANCH   5   7
ENDBRANCH   3   5
ENDBRANCH   2   3
ENDBRANCH   1   2
BRANCH   1  20
ATOM     20  C   UNL     1      -3.399   0.056   0.338  1.00  0.00     0.275 C 
BRANCH  20  21
ATOM     21  O   UNL     1      -3.029   0.422   1.681  1.00  0.00    -0.458 OA
BRANCH  21  22
ATOM     22  C   UNL     1      -1.887  -0.145   2.130  1.00  0.00     0.338 C 
ATOM     23  O   UNL     1      -1.165  -0.923   1.517  1.00  0.00    -0.246 OA
BRANCH  22  24
ATOM     24  C   UNL     1      -1.511   0.401   3.442  1.00  0.00     0.060 A 
ATOM     25  C   UNL     1      -0.316   1.116   3.510  1.00  0.00     0.016 A 
ATOM     26  C   UNL     1      -2.223   0.114   4.606  1.00  0.00     0.016 A 
ATOM     27  C   UNL     1       0.207   1.510   4.732  1.00  0.00     0.010 A 
ATOM     28  C   UNL     1      -1.708   0.532   5.843  1.00  0.00     0.010 A 
ATOM     29  C   UNL     1      -0.476   1.208   5.914  1.00  0.00    -0.014 A 
BRANCH  29  30
ATOM     30  C   UNL     1       0.160   1.558   7.208  1.00  0.00     0.031 A 
ATOM     31  C   UNL     1       0.709   0.475   8.094  1.00  0.00     0.074 A 
ATOM     32  C   UNL     1       0.307   2.852   7.550  1.00  0.00     0.049 A 
ATOM     33  N   UNL     1       1.296   0.580   9.257  1.00  0.00    -0.248 NA
ATOM     34  C   UNL     1       0.582  -0.909   7.609  1.00  0.00     0.031 C 
ATOM     35  C   UNL     1      -0.156   3.991   6.756  1.00  0.00     0.029 A 
ATOM     36  N   UNL     1       0.892   3.428   8.650  1.00  0.00    -0.354 N 
ATOM     37  C   UNL     1       1.564  -0.720   9.667  1.00  0.00     0.074 A 
ATOM     38  C   UNL     1       1.079  -1.600   8.626  1.00  0.00     0.031 C 
ATOM     39  C   UNL     1       0.172   5.129   7.388  1.00  0.00     0.029 A 
ATOM     40  C   UNL     1       0.831   4.801   8.649  1.00  0.00     0.049 A 
ATOM     41  H   UNL     1       1.315   2.907   9.370  1.00  0.00     0.167 HD
ATOM     42  C   UNL     1       2.174  -1.142  10.800  1.00  0.00     0.034 A 
ATOM     43  C   UNL     1       1.246   5.695   9.567  1.00  0.00     0.034 A 
ATOM     44  C   UNL     1       2.708  -0.264  11.806  1.00  0.00     0.049 A 
ATOM     45  C   UNL     1       1.924   5.197  10.814  1.00  0.00     0.074 A 
ATOM     46  C   UNL     1       3.371  -0.595  12.974  1.00  0.00     0.029 A 
ATOM     47  N   UNL     1       2.649   1.121  11.758  1.00  0.00    -0.354 N 
ATOM     48  N   UNL     1       2.233   3.968  11.151  1.00  0.00    -0.248 NA
ATOM     49  C   UNL     1       2.329   6.210  11.800  1.00  0.00     0.031 C 
ATOM     50  C   UNL     1       3.709   0.591  13.636  1.00  0.00     0.029 A 
ATOM     51  C   UNL     1       3.261   1.660  12.877  1.00  0.00     0.049 A 
ATOM     52  H   UNL     1       2.233   1.644  11.035  1.00  0.00     0.167 HD
ATOM     53  C   UNL     1       2.887   4.060  12.373  1.00  0.00     0.074 A 
ATOM     54  C   UNL     1       2.954   5.469  12.705  1.00  0.00     0.031 C 
ATOM     55  C   UNL     1       3.368   3.068  13.162  1.00  0.00     0.034 A 
BRANCH  42  56
ATOM     56  C   UNL     1       2.322  -2.626  10.998  1.00  0.00     0.023 A 
ATOM     57  C   UNL     1       3.312  -3.328  10.282  1.00  0.00     0.012 A 
ATOM     58  C   UNL     1       1.512  -3.318  11.919  1.00  0.00     0.148 A 
ATOM     59  C   UNL     1       3.477  -4.701  10.461  1.00  0.00     0.002 A 
ATOM     60  C   UNL     1       1.706  -4.681  12.117  1.00  0.00     0.091 A 
ATOM     61  F   UNL     1       0.555  -2.640  12.569  1.00  0.00    -0.205 F 
ATOM     62  C   UNL     1       2.682  -5.375  11.384  1.00  0.00     0.022 A 
BRANCH  60  63
ATOM     63  S   UNL     1       0.768  -5.614  13.333  1.00  0.00     0.127 S 
ATOM     64  O   UNL     1      -0.222  -6.285  12.493  1.00  0.00    -0.237 OA
ATOM     65  O   UNL     1       1.784  -6.500  13.903  1.00  0.00    -0.237 OA
ATOM     66  O   UNL     1       0.242  -4.627  14.266  1.00  0.00    -0.744 OA
ENDBRANCH  60  63
ENDBRANCH  42  56
BRANCH  43  67
ATOM     67  C   UNL     1       1.072   7.153   9.315  1.00  0.00     0.023 A 
ATOM     68  C   UNL     1       2.204   7.952   9.065  1.00  0.00     0.012 A 
ATOM     69  C   UNL     1      -0.206   7.744   9.281  1.00  0.00     0.148 A 
ATOM     70  C   UNL     1       2.068   9.316   8.802  1.00  0.00     0.002 A 
ATOM     71  C   UNL     1      -0.339   9.091   8.964  1.00  0.00     0.091 A 
ATOM     72  F   UNL     1      -1.271   6.975   9.549  1.00  0.00    -0.205 F 
ATOM     73  C   UNL     1       0.797   9.882   8.738  1.00  0.00     0.022 A 
BRANCH  71  74
ATOM     74  S   UNL     1      -1.947   9.857   8.732  1.00  0.00     0.127 S 
ATOM     75  O   UNL     1      -2.127  10.568   9.995  1.00  0.00    -0.237 OA
ATOM     76  O   UNL     1      -1.716  10.717   7.569  1.00  0.00    -0.237 OA
ATOM     77  O   UNL     1      -2.865   8.754   8.482  1.00  0.00    -0.744 OA
ENDBRANCH  71  74
ENDBRANCH  43  67
BRANCH  55  78
ATOM     78  C   UNL     1       4.023   3.468  14.457  1.00  0.00     0.023 A 
ATOM     79  C   UNL     1       3.220   3.880  15.539  1.00  0.00     0.012 A 
ATOM     80  C   UNL     1       5.417   3.372  14.625  1.00  0.00     0.148 A 
ATOM     81  C   UNL     1       3.799   4.215  16.762  1.00  0.00     0.002 A 
ATOM     82  C   UNL     1       5.983   3.668  15.860  1.00  0.00     0.091 A 
ATOM     83  F   UNL     1       6.167   3.001  13.576  1.00  0.00    -0.205 F 
ATOM     84  C   UNL     1       5.177   4.098  16.926  1.00  0.00     0.022 A 
BRANCH  82  85
ATOM     85  S   UNL     1       7.740   3.458  16.173  1.00  0.00     0.127 S 
ATOM     86  O   UNL     1       8.237   4.824  16.022  1.00  0.00    -0.237 OA
ATOM     87  O   UNL     1       7.759   2.951  17.546  1.00  0.00    -0.237 OA
ATOM     88  O   UNL     1       8.203   2.501  15.177  1.00  0.00    -0.744 OA
ENDBRANCH  82  85
ENDBRANCH  55  78
ENDBRANCH  29  30
ENDBRANCH  22  24
ENDBRANCH  21  22
ENDBRANCH  20  21
ENDBRANCH   1  20
TORSDOF 18
