REMARK SMILES Cc1cc(C)c2c(CCCC(=O)OCCOC(=O)c3ccc(-c4c5nc(c(-c6cccc(S(=O)(=O)[O-])c6F)c6ccc([nH]6)c(-c6cccc(S(=O)(=O)[O-])c6F)c6nc(c(-c7cccc(S(=O)(=O)[O-])c7F)c7ccc4[nH]7)C=C6)C=C5)cc3)c(-c3ccccn3)[nH]c2c1
REMARK SMILES IDX 14 1 13 2 11 3 12 4 10 5 9 6 8 7 7 8 1 9 2 10 3 11 91 12
REMARK SMILES IDX 4 13 90 14 5 15 6 16 89 17 82 18 83 20 84 21 88 22 85 23
REMARK SMILES IDX 87 24 86 25 15 26 16 27 17 28 18 29 19 30 20 31 81 32 21 33
REMARK SMILES IDX 80 34 22 35 23 36 24 37 74 38 25 39 79 40 73 41 75 42 26 43
REMARK SMILES IDX 78 44 72 45 71 46 27 48 59 49 39 50 58 51 40 52 43 53 57 54
REMARK SMILES IDX 76 55 41 56 42 57 56 59 77 60 44 61 28 62 29 63 37 64 30 65
REMARK SMILES IDX 32 66 38 67 31 68 33 69 34 70 35 71 36 72 60 73 61 74 69 75
REMARK SMILES IDX 62 76 64 77 70 78 63 79 65 80 66 81 67 82 68 83 45 84 46 85
REMARK SMILES IDX 54 86 47 87 49 88 55 89 48 90 50 91 51 92 52 93 53 94
REMARK H PARENT 89 19 75 47 43 58
REMARK Flexibility Score: inf
ROOT
ATOM      1  C   UNL     1      -2.419  -8.426  -3.889  1.00  0.00     0.274 C 
ENDROOT
BRANCH   1   2
ATOM      2  O   UNL     1      -2.342  -7.947  -2.534  1.00  0.00    -0.462 OA
BRANCH   2   3
ATOM      3  C   UNL     1      -3.202  -8.406  -1.593  1.00  0.00     0.305 C 
ATOM      4  O   UNL     1      -4.156  -9.138  -1.835  1.00  0.00    -0.252 OA
BRANCH   3   5
ATOM      5  C   UNL     1      -2.877  -7.915  -0.189  1.00  0.00     0.123 C 
BRANCH   5   6
ATOM      6  C   UNL     1      -1.469  -7.420   0.139  1.00  0.00     0.017 C 
BRANCH   6   7
ATOM      7  C   UNL     1      -0.747  -6.492  -0.836  1.00  0.00     0.039 C 
BRANCH   7   8
ATOM      8  C   UNL     1      -1.236  -5.071  -0.936  1.00  0.00    -0.013 A 
ATOM      9  C   UNL     1       1.002   0.132   0.027  1.00  0.00     0.044 C 
ATOM     10  C   UNL     1       0.505  -1.263  -0.200  1.00  0.00    -0.049 A 
ATOM     11  C   UNL     1       1.304  -2.358   0.129  1.00  0.00     0.007 A 
ATOM     12  C   UNL     1      -0.785  -1.470  -0.687  1.00  0.00     0.030 A 
ATOM     13  C   UNL     1       0.869  -3.692  -0.043  1.00  0.00    -0.041 A 
ATOM     14  C   UNL     1      -1.217  -2.787  -0.865  1.00  0.00     0.047 A 
ATOM     15  C   UNL     1       1.840  -4.782   0.340  1.00  0.00     0.045 C 
ATOM     16  C   UNL     1      -0.440  -3.907  -0.572  1.00  0.00     0.006 A 
ATOM     17  N   UNL     1      -2.424  -3.231  -1.330  1.00  0.00    -0.353 N 
ATOM     18  C   UNL     1      -2.440  -4.593  -1.468  1.00  0.00     0.068 A 
ATOM     19  H   UNL     1      -3.186  -2.645  -1.541  1.00  0.00     0.167 HD
BRANCH  18  20
ATOM     20  C   UNL     1      -3.615  -5.202  -2.079  1.00  0.00     0.087 A 
ATOM     21  C   UNL     1      -3.717  -5.407  -3.449  1.00  0.00     0.030 A 
ATOM     22  N   UNL     1      -4.611  -5.503  -1.218  1.00  0.00    -0.255 NA
ATOM     23  C   UNL     1      -4.847  -6.063  -3.942  1.00  0.00     0.004 A 
ATOM     24  C   UNL     1      -5.676  -6.174  -1.716  1.00  0.00     0.112 A 
ATOM     25  C   UNL     1      -5.831  -6.485  -3.056  1.00  0.00     0.020 A 
ENDBRANCH  18  20
ENDBRANCH   7   8
ENDBRANCH   6   7
ENDBRANCH   5   6
ENDBRANCH   3   5
ENDBRANCH   2   3
ENDBRANCH   1   2
BRANCH   1  26
ATOM     26  C   UNL     1      -1.422  -9.550  -4.120  1.00  0.00     0.275 C 
BRANCH  26  27
ATOM     27  O   UNL     1      -1.831 -10.674  -3.358  1.00  0.00    -0.458 OA
BRANCH  27  28
ATOM     28  C   UNL     1      -1.379 -10.669  -2.086  1.00  0.00     0.338 C 
ATOM     29  O   UNL     1      -0.600  -9.887  -1.574  1.00  0.00    -0.246 OA
BRANCH  28  30
ATOM     30  C   UNL     1      -1.986 -11.784  -1.375  1.00  0.00     0.060 A 
ATOM     31  C   UNL     1      -2.006 -11.736   0.025  1.00  0.00     0.016 A 
ATOM     32  C   UNL     1      -2.263 -12.943  -2.105  1.00  0.00     0.016 A 
ATOM     33  C   UNL     1      -2.096 -12.922   0.710  1.00  0.00     0.010 A 
ATOM     34  C   UNL     1      -2.315 -14.124  -1.426  1.00  0.00     0.010 A 
ATOM     35  C   UNL     1      -2.138 -14.094  -0.042  1.00  0.00    -0.014 A 
BRANCH  35  36
ATOM     36  C   UNL     1      -1.903 -15.345   0.627  1.00  0.00     0.031 A 
ATOM     37  C   UNL     1      -3.111 -15.951   1.213  1.00  0.00     0.074 A 
ATOM     38  C   UNL     1      -0.697 -15.931   0.504  1.00  0.00     0.049 A 
ATOM     39  N   UNL     1      -3.324 -16.239   2.452  1.00  0.00    -0.248 NA
ATOM     40  C   UNL     1      -4.287 -16.115   0.342  1.00  0.00     0.031 C 
ATOM     41  C   UNL     1       0.424 -15.503  -0.344  1.00  0.00     0.029 A 
ATOM     42  N   UNL     1      -0.299 -17.148   0.950  1.00  0.00    -0.354 N 
ATOM     43  C   UNL     1      -4.581 -16.832   2.472  1.00  0.00     0.074 A 
ATOM     44  C   UNL     1      -5.205 -16.524   1.214  1.00  0.00     0.031 C 
ATOM     45  C   UNL     1       1.223 -16.566  -0.576  1.00  0.00     0.029 A 
ATOM     46  C   UNL     1       0.727 -17.696   0.189  1.00  0.00     0.049 A 
ATOM     47  H   UNL     1      -0.696 -17.597   1.732  1.00  0.00     0.167 HD
ATOM     48  C   UNL     1      -4.909 -17.765   3.402  1.00  0.00     0.034 A 
ATOM     49  C   UNL     1       1.030 -19.014   0.099  1.00  0.00     0.034 A 
ATOM     50  C   UNL     1      -3.991 -17.763   4.509  1.00  0.00     0.049 A 
ATOM     51  C   UNL     1       0.411 -19.687   1.272  1.00  0.00     0.074 A 
ATOM     52  C   UNL     1      -3.578 -16.807   5.416  1.00  0.00     0.029 A 
ATOM     53  N   UNL     1      -3.048 -18.763   4.550  1.00  0.00    -0.354 N 
ATOM     54  N   UNL     1       0.773 -19.464   2.507  1.00  0.00    -0.248 NA
ATOM     55  C   UNL     1      -0.921 -20.252   1.108  1.00  0.00     0.031 C 
ATOM     56  C   UNL     1      -2.187 -17.052   5.595  1.00  0.00     0.029 A 
ATOM     57  C   UNL     1      -1.844 -18.174   4.835  1.00  0.00     0.049 A 
ATOM     58  H   UNL     1      -3.208 -19.723   4.401  1.00  0.00     0.167 HD
ATOM     59  C   UNL     1      -0.420 -19.429   3.222  1.00  0.00     0.074 A 
ATOM     60  C   UNL     1      -1.412 -20.030   2.331  1.00  0.00     0.031 C 
ATOM     61  C   UNL     1      -0.568 -18.643   4.332  1.00  0.00     0.034 A 
BRANCH  48  62
ATOM     62  C   UNL     1      -5.857 -18.905   3.150  1.00  0.00     0.023 A 
ATOM     63  C   UNL     1      -6.304 -19.635   4.269  1.00  0.00     0.012 A 
ATOM     64  C   UNL     1      -6.139 -19.443   1.873  1.00  0.00     0.148 A 
ATOM     65  C   UNL     1      -6.974 -20.853   4.125  1.00  0.00     0.002 A 
ATOM     66  C   UNL     1      -6.891 -20.602   1.732  1.00  0.00     0.091 A 
ATOM     67  F   UNL     1      -5.565 -18.925   0.782  1.00  0.00    -0.205 F 
ATOM     68  C   UNL     1      -7.284 -21.329   2.856  1.00  0.00     0.022 A 
BRANCH  66  69
ATOM     69  S   UNL     1      -7.381 -21.204   0.113  1.00  0.00     0.127 S 
ATOM     70  O   UNL     1      -6.444 -22.304  -0.089  1.00  0.00    -0.237 OA
ATOM     71  O   UNL     1      -8.768 -21.606   0.347  1.00  0.00    -0.237 OA
ATOM     72  O   UNL     1      -7.238 -20.062  -0.782  1.00  0.00    -0.744 OA
ENDBRANCH  66  69
ENDBRANCH  48  62
BRANCH  49  73
ATOM     73  C   UNL     1       1.538 -19.749  -1.085  1.00  0.00     0.023 A 
ATOM     74  C   UNL     1       2.152 -21.004  -0.918  1.00  0.00     0.012 A 
ATOM     75  C   UNL     1       1.230 -19.335  -2.405  1.00  0.00     0.148 A 
ATOM     76  C   UNL     1       2.444 -21.819  -2.021  1.00  0.00     0.002 A 
ATOM     77  C   UNL     1       1.545 -20.135  -3.499  1.00  0.00     0.091 A 
ATOM     78  F   UNL     1       0.543 -18.200  -2.587  1.00  0.00    -0.205 F 
ATOM     79  C   UNL     1       2.143 -21.384  -3.310  1.00  0.00     0.022 A 
BRANCH  77  80
ATOM     80  S   UNL     1       1.187 -19.627  -5.188  1.00  0.00     0.127 S 
ATOM     81  O   UNL     1       2.445 -19.931  -5.871  1.00  0.00    -0.237 OA
ATOM     82  O   UNL     1       0.072 -20.502  -5.538  1.00  0.00    -0.237 OA
ATOM     83  O   UNL     1       0.877 -18.204  -5.118  1.00  0.00    -0.744 OA
ENDBRANCH  77  80
ENDBRANCH  49  73
BRANCH  61  84
ATOM     84  C   UNL     1       0.649 -17.947   4.903  1.00  0.00     0.023 A 
ATOM     85  C   UNL     1       1.377 -16.996   4.157  1.00  0.00     0.012 A 
ATOM     86  C   UNL     1       0.904 -18.057   6.282  1.00  0.00     0.148 A 
ATOM     87  C   UNL     1       2.338 -16.183   4.764  1.00  0.00     0.002 A 
ATOM     88  C   UNL     1       1.822 -17.209   6.893  1.00  0.00     0.091 A 
ATOM     89  F   UNL     1       0.201 -18.959   6.985  1.00  0.00    -0.205 F 
ATOM     90  C   UNL     1       2.547 -16.276   6.136  1.00  0.00     0.022 A 
BRANCH  88  91
ATOM     91  S   UNL     1       2.028 -17.168   8.676  1.00  0.00     0.127 S 
ATOM     92  O   UNL     1       3.327 -17.815   8.848  1.00  0.00    -0.237 OA
ATOM     93  O   UNL     1       2.017 -15.732   8.961  1.00  0.00    -0.237 OA
ATOM     94  O   UNL     1       0.889 -17.892   9.230  1.00  0.00    -0.744 OA
ENDBRANCH  88  91
ENDBRANCH  61  84
ENDBRANCH  35  36
ENDBRANCH  28  30
ENDBRANCH  27  28
ENDBRANCH  26  27
ENDBRANCH   1  26
TORSDOF 18
