REMARK SMILES CCCSc1nc2n(n1)[C@@H](c1ccccc1C(=O)OCCOC(=O)c1ccc(-c3c4nc(c(-c5cccc(S(=O)(=O)[O-])c5F)c5ccc([nH]5)c(-c5cccc(S(=O)(=O)[O-])c5F)c5nc(c(-c6cccc(S(=O)(=O)[O-])c6F)c6ccc3[nH]6)C=C5)C=C4)cc1)C(C(=O)Nc1cccc(C)c1C)=C(C)N2
REMARK SMILES IDX 20 1 19 2 17 3 18 4 16 5 11 6 12 7 13 8 15 9 14 10 10 11
REMARK SMILES IDX 5 12 6 13 9 14 7 15 8 16 102 17 100 18 88 20 101 21 4 22
REMARK SMILES IDX 3 23 2 24 1 25 89 26 90 27 91 28 92 30 93 31 98 32 94 33
REMARK SMILES IDX 96 34 99 35 95 36 97 37 21 38 22 39 23 40 24 41 25 42 26 43
REMARK SMILES IDX 87 44 27 45 86 46 28 47 29 48 30 49 80 50 31 51 85 52 79 53
REMARK SMILES IDX 81 54 32 55 84 56 78 57 77 58 33 60 65 61 45 62 64 63 46 64
REMARK SMILES IDX 49 65 63 66 82 67 47 68 48 69 62 71 83 72 50 73 34 74 35 75
REMARK SMILES IDX 43 76 36 77 38 78 44 79 37 80 39 81 40 82 41 83 42 84 66 85
REMARK SMILES IDX 67 86 75 87 68 88 70 89 76 90 69 91 71 92 72 93 73 94 74 95
REMARK SMILES IDX 51 96 52 97 60 98 53 99 55 100 61 101 54 102 56 103 57 104
REMARK SMILES IDX 58 105 59 106
REMARK H PARENT 102 19 91 29 81 59 49 70
REMARK Flexibility Score: inf
ROOT
ATOM      1  C   UNL     1       0.753  -6.690  -1.597  1.00  0.00     0.275 C 
ENDROOT
BRANCH   1   2
ATOM      2  O   UNL     1       0.220  -5.639  -2.424  1.00  0.00    -0.458 OA
BRANCH   2   3
ATOM      3  C   UNL     1      -0.435  -5.982  -3.561  1.00  0.00     0.338 C 
ATOM      4  O   UNL     1      -0.659  -7.129  -3.928  1.00  0.00    -0.246 OA
BRANCH   3   5
ATOM      5  C   UNL     1      -0.843  -4.765  -4.331  1.00  0.00     0.065 A 
ATOM      6  C   UNL     1      -0.154  -3.525  -4.306  1.00  0.00    -0.004 A 
ATOM      7  C   UNL     1      -0.620  -2.509  -5.180  1.00  0.00     0.007 A 
ATOM      8  C   UNL     1      -1.708  -2.700  -6.032  1.00  0.00     0.000 A 
ATOM      9  C   UNL     1      -1.926  -4.949  -5.216  1.00  0.00     0.016 A 
ATOM     10  C   UNL     1      -2.356  -3.925  -6.059  1.00  0.00     0.001 A 
BRANCH   6  11
ATOM     11  C   UNL     1       1.135  -3.304  -3.484  1.00  0.00     0.180 C 
ATOM     12  C   UNL     1       1.054   0.138  -2.794  1.00  0.00     0.210 A 
ATOM     13  N   UNL     1       2.257   0.123  -3.455  1.00  0.00    -0.185 NA
ATOM     14  N   UNL     1       0.494  -1.058  -2.590  1.00  0.00    -0.141 NA
ATOM     15  C   UNL     1       2.410  -1.145  -3.743  1.00  0.00     0.227 A 
ATOM     16  N   UNL     1       1.365  -1.863  -3.230  1.00  0.00    -0.218 N 
ATOM     17  N   UNL     1       3.339  -1.776  -4.482  1.00  0.00    -0.328 N 
ATOM     18  C   UNL     1       3.317  -3.141  -4.734  1.00  0.00     0.026 C 
ATOM     19  H   UNL     1       4.073  -1.243  -4.865  1.00  0.00     0.169 HD
ATOM     20  C   UNL     1       2.358  -3.919  -4.180  1.00  0.00     0.065 C 
ATOM     21  C   UNL     1       4.359  -3.651  -5.692  1.00  0.00     0.065 C 
BRANCH  12  22
ATOM     22  S   UNL     1       0.207   1.602  -2.394  1.00  0.00    -0.084 SA
BRANCH  22  23
ATOM     23  C   UNL     1       1.092   2.128  -0.906  1.00  0.00     0.078 C 
BRANCH  23  24
ATOM     24  C   UNL     1       0.600   1.458   0.378  1.00  0.00     0.008 C 
ATOM     25  C   UNL     1       1.098   0.034   0.573  1.00  0.00     0.005 C 
ENDBRANCH  23  24
ENDBRANCH  22  23
ENDBRANCH  12  22
BRANCH  20  26
ATOM     26  C   UNL     1       2.368  -5.383  -4.402  1.00  0.00     0.255 C 
ATOM     27  O   UNL     1       1.771  -5.865  -5.361  1.00  0.00    -0.269 OA
ATOM     28  N   UNL     1       3.037  -6.213  -3.525  1.00  0.00    -0.322 N 
ATOM     29  H   UNL     1       2.537  -6.877  -2.997  1.00  0.00     0.170 HD
BRANCH  28  30
ATOM     30  C   UNL     1       4.437  -6.109  -3.385  1.00  0.00     0.044 A 
ATOM     31  C   UNL     1       5.178  -6.945  -4.231  1.00  0.00     0.026 A 
ATOM     32  C   UNL     1       5.057  -5.102  -2.631  1.00  0.00    -0.025 A 
ATOM     33  C   UNL     1       6.511  -6.664  -4.483  1.00  0.00     0.002 A 
ATOM     34  C   UNL     1       6.388  -4.769  -2.954  1.00  0.00    -0.046 A 
ATOM     35  C   UNL     1       4.336  -4.409  -1.506  1.00  0.00     0.047 C 
ATOM     36  C   UNL     1       7.096  -5.552  -3.887  1.00  0.00     0.004 A 
ATOM     37  C   UNL     1       7.057  -3.521  -2.446  1.00  0.00     0.044 C 
ENDBRANCH  28  30
ENDBRANCH  20  26
ENDBRANCH   6  11
ENDBRANCH   3   5
ENDBRANCH   2   3
ENDBRANCH   1   2
BRANCH   1  38
ATOM     38  C   UNL     1      -0.194  -7.079  -0.488  1.00  0.00     0.275 C 
BRANCH  38  39
ATOM     39  O   UNL     1      -1.291  -7.766  -1.054  1.00  0.00    -0.458 OA
BRANCH  39  40
ATOM     40  C   UNL     1      -2.296  -6.966  -1.467  1.00  0.00     0.338 C 
ATOM     41  O   UNL     1      -2.319  -5.749  -1.509  1.00  0.00    -0.246 OA
BRANCH  40  42
ATOM     42  C   UNL     1      -3.469  -7.802  -1.670  1.00  0.00     0.060 A 
ATOM     43  C   UNL     1      -4.611  -7.150  -2.130  1.00  0.00     0.016 A 
ATOM     44  C   UNL     1      -3.494  -9.068  -1.067  1.00  0.00     0.016 A 
ATOM     45  C   UNL     1      -5.822  -7.680  -1.774  1.00  0.00     0.010 A 
ATOM     46  C   UNL     1      -4.701  -9.583  -0.692  1.00  0.00     0.010 A 
ATOM     47  C   UNL     1      -5.839  -8.843  -0.990  1.00  0.00    -0.014 A 
BRANCH  47  48
ATOM     48  C   UNL     1      -7.122  -9.431  -0.707  1.00  0.00     0.031 A 
ATOM     49  C   UNL     1      -7.692  -9.970  -1.956  1.00  0.00     0.074 A 
ATOM     50  C   UNL     1      -7.610  -9.553   0.541  1.00  0.00     0.049 A 
ATOM     51  N   UNL     1      -8.616  -9.431  -2.680  1.00  0.00    -0.248 NA
ATOM     52  C   UNL     1      -6.959 -11.053  -2.640  1.00  0.00     0.031 C 
ATOM     53  C   UNL     1      -6.885  -9.293   1.790  1.00  0.00     0.029 A 
ATOM     54  N   UNL     1      -8.793 -10.071   0.970  1.00  0.00    -0.354 N 
ATOM     55  C   UNL     1      -8.827 -10.366  -3.688  1.00  0.00     0.074 A 
ATOM     56  C   UNL     1      -7.604 -11.105  -3.807  1.00  0.00     0.031 C 
ATOM     57  C   UNL     1      -7.536  -9.897   2.810  1.00  0.00     0.029 A 
ATOM     58  C   UNL     1      -8.780 -10.455   2.308  1.00  0.00     0.049 A 
ATOM     59  H   UNL     1      -9.582 -10.166   0.390  1.00  0.00     0.167 HD
ATOM     60  C   UNL     1     -10.104 -10.771  -3.922  1.00  0.00     0.034 A 
ATOM     61  C   UNL     1      -9.696 -11.234   2.932  1.00  0.00     0.034 A 
ATOM     62  C   UNL     1     -11.040  -9.814  -3.376  1.00  0.00     0.049 A 
ATOM     63  C   UNL     1     -10.939 -11.185   2.132  1.00  0.00     0.074 A 
ATOM     64  C   UNL     1     -11.458  -8.530  -3.647  1.00  0.00     0.029 A 
ATOM     65  N   UNL     1     -11.372 -10.082  -2.075  1.00  0.00    -0.354 N 
ATOM     66  N   UNL     1     -11.672 -10.112   2.022  1.00  0.00    -0.248 NA
ATOM     67  C   UNL     1     -11.209 -12.238   1.157  1.00  0.00     0.031 C 
ATOM     68  C   UNL     1     -12.021  -8.024  -2.437  1.00  0.00     0.029 A 
ATOM     69  C   UNL     1     -11.974  -9.020  -1.466  1.00  0.00     0.049 A 
ATOM     70  H   UNL     1     -11.197 -10.943  -1.630  1.00  0.00     0.167 HD
ATOM     71  C   UNL     1     -12.126 -10.168   0.719  1.00  0.00     0.074 A 
ATOM     72  C   UNL     1     -11.991 -11.560   0.313  1.00  0.00     0.031 C 
ATOM     73  C   UNL     1     -12.204  -9.037  -0.039  1.00  0.00     0.034 A 
BRANCH  60  74
ATOM     74  C   UNL     1     -10.532 -12.229  -4.072  1.00  0.00     0.023 A 
ATOM     75  C   UNL     1     -11.907 -12.447  -4.312  1.00  0.00     0.012 A 
ATOM     76  C   UNL     1      -9.772 -13.364  -3.696  1.00  0.00     0.148 A 
ATOM     77  C   UNL     1     -12.500 -13.701  -4.124  1.00  0.00     0.002 A 
ATOM     78  C   UNL     1     -10.352 -14.620  -3.566  1.00  0.00     0.091 A 
ATOM     79  F   UNL     1      -8.495 -13.245  -3.341  1.00  0.00    -0.205 F 
ATOM     80  C   UNL     1     -11.723 -14.789  -3.750  1.00  0.00     0.022 A 
BRANCH  78  81
ATOM     81  S   UNL     1      -9.386 -16.065  -3.093  1.00  0.00     0.127 S 
ATOM     82  O   UNL     1      -9.950 -16.372  -1.782  1.00  0.00    -0.237 OA
ATOM     83  O   UNL     1      -9.731 -17.007  -4.157  1.00  0.00    -0.237 OA
ATOM     84  O   UNL     1      -7.992 -15.638  -3.099  1.00  0.00    -0.744 OA
ENDBRANCH  78  81
ENDBRANCH  60  74
BRANCH  61  85
ATOM     85  C   UNL     1      -9.568 -12.159   4.080  1.00  0.00     0.023 A 
ATOM     86  C   UNL     1     -10.727 -12.541   4.788  1.00  0.00     0.012 A 
ATOM     87  C   UNL     1      -8.382 -12.892   4.298  1.00  0.00     0.148 A 
ATOM     88  C   UNL     1     -10.722 -13.650   5.639  1.00  0.00     0.002 A 
ATOM     89  C   UNL     1      -8.380 -13.993   5.150  1.00  0.00     0.091 A 
ATOM     90  F   UNL     1      -7.284 -12.563   3.604  1.00  0.00    -0.205 F 
ATOM     91  C   UNL     1      -9.553 -14.385   5.809  1.00  0.00     0.022 A 
BRANCH  89  92
ATOM     92  S   UNL     1      -6.921 -15.012   5.408  1.00  0.00     0.127 S 
ATOM     93  O   UNL     1      -6.835 -15.049   6.869  1.00  0.00    -0.237 OA
ATOM     94  O   UNL     1      -7.317 -16.273   4.788  1.00  0.00    -0.237 OA
ATOM     95  O   UNL     1      -5.822 -14.307   4.761  1.00  0.00    -0.744 OA
ENDBRANCH  89  92
ENDBRANCH  61  85
BRANCH  73  96
ATOM     96  C   UNL     1     -12.424  -7.738   0.668  1.00  0.00     0.023 A 
ATOM     97  C   UNL     1     -11.477  -7.137   1.519  1.00  0.00     0.012 A 
ATOM     98  C   UNL     1     -13.631  -7.072   0.404  1.00  0.00     0.148 A 
ATOM     99  C   UNL     1     -11.745  -5.896   2.107  1.00  0.00     0.002 A 
ATOM    100  C   UNL     1     -13.875  -5.824   0.953  1.00  0.00     0.091 A 
ATOM    101  F   UNL     1     -14.527  -7.678  -0.392  1.00  0.00    -0.205 F 
ATOM    102  C   UNL     1     -12.938  -5.234   1.814  1.00  0.00     0.022 A 
BRANCH 100 103
ATOM    103  S   UNL     1     -15.350  -4.900   0.526  1.00  0.00     0.127 S 
ATOM    104  O   UNL     1     -16.175  -5.072   1.720  1.00  0.00    -0.237 OA
ATOM    105  O   UNL     1     -14.827  -3.547   0.331  1.00  0.00    -0.237 OA
ATOM    106  O   UNL     1     -15.868  -5.515  -0.690  1.00  0.00    -0.744 OA
ENDBRANCH 100 103
ENDBRANCH  73  96
ENDBRANCH  47  48
ENDBRANCH  40  42
ENDBRANCH  39  40
ENDBRANCH  38  39
ENDBRANCH   1  38
TORSDOF 20
