REMARK SMILES C[C@@H](NC(=O)N[C@H]1CCCCC[C@@H]1C(=O)OCCOC(=O)c1ccc(-c2c3nc(c(-c4cccc(S(=O)(=O)[O-])c4F)c4ccc([nH]4)c(-c4cccc(S(=O)(=O)[O-])c4F)c4nc(c(-c5cccc(S(=O)(=O)[O-])c5F)c5ccc2[nH]5)C=C4)C=C3)cc1)c1nccs1
REMARK SMILES IDX 17 1 16 2 14 3 15 4 13 5 7 6 6 7 3 8 4 9 5 11 2 13 1 14
REMARK SMILES IDX 85 15 86 16 89 17 87 18 88 19 8 20 12 22 11 23 10 24 9 25
REMARK SMILES IDX 18 27 19 28 20 29 21 30 22 31 23 32 84 33 24 34 83 35 25 36
REMARK SMILES IDX 26 37 27 38 77 39 28 40 82 41 76 42 78 43 29 44 81 45 75 46
REMARK SMILES IDX 74 47 30 49 62 50 42 51 61 52 43 53 46 54 60 55 79 56 44 57
REMARK SMILES IDX 45 58 59 60 80 61 47 62 31 63 32 64 40 65 33 66 35 67 41 68
REMARK SMILES IDX 34 69 36 70 37 71 38 72 39 73 63 74 64 75 72 76 65 77 67 78
REMARK SMILES IDX 73 79 66 80 68 81 69 82 70 83 71 84 48 85 49 86 57 87 50 88
REMARK SMILES IDX 52 89 58 90 51 91 53 92 54 93 55 94 56 95
REMARK H PARENT 3 10 6 12 78 48 46 59
REMARK Flexibility Score: 100.00
ROOT
ATOM      1  C   UNL     1      -5.583  -5.360   0.794  1.00  0.00     0.274 C 
ENDROOT
BRANCH   1   2
ATOM      2  O   UNL     1      -4.664  -4.304   1.147  1.00  0.00    -0.462 OA
BRANCH   2   3
ATOM      3  C   UNL     1      -3.678  -4.121   0.222  1.00  0.00     0.311 C 
ATOM      4  O   UNL     1      -3.390  -4.976  -0.613  1.00  0.00    -0.252 OA
BRANCH   3   5
ATOM      5  C   UNL     1      -3.055  -2.545   0.251  1.00  0.00     0.121 C 
BRANCH   5   6
ATOM      6  C   UNL     1      -1.002  -1.676   0.509  1.00  0.00     0.098 C 
BRANCH   6   7
ATOM      7  N   UNL     1       0.084  -1.277  -0.701  1.00  0.00    -0.335 N 
ATOM      8  N   UNL     1      -1.272   0.001  -2.139  1.00  0.00    -0.329 N 
ATOM      9  C   UNL     1      -0.093  -0.646  -1.903  1.00  0.00     0.315 C 
ATOM     10  H   UNL     1      -1.538   0.145  -3.076  1.00  0.00     0.166 HD
ATOM     11  O   UNL     1       0.786  -0.691  -2.760  1.00  0.00    -0.249 OA
ATOM     12  H   UNL     1       1.013  -1.543  -0.516  1.00  0.00     0.165 HD
BRANCH   8  13
ATOM     13  C   UNL     1      -2.182   0.502  -1.073  1.00  0.00     0.140 C 
ATOM     14  C   UNL     1      -1.499   1.845  -0.829  1.00  0.00     0.039 C 
BRANCH  13  15
ATOM     15  C   UNL     1      -2.436  -0.859  -0.239  1.00  0.00     0.115 A 
ATOM     16  N   UNL     1      -1.866  -2.169  -1.152  1.00  0.00    -0.247 NA
ATOM     17  S   UNL     1      -2.415  -1.698   2.030  1.00  0.00    -0.125 S 
ATOM     18  C   UNL     1      -1.268  -3.607  -0.258  1.00  0.00     0.123 A 
ATOM     19  C   UNL     1      -1.514  -3.609   1.286  1.00  0.00     0.087 A 
ENDBRANCH  13  15
ENDBRANCH   8  13
ENDBRANCH   6   7
BRANCH   6  20
ATOM     20  C   UNL     1      -0.835   0.000   1.434  1.00  0.00     0.026 CG0
ATOM     21  G   UNL     1      -2.108   0.982   1.980  1.00  0.00     0.000 G0
ENDBRANCH   6  20
ENDBRANCH   5   6
BRANCH   5  22
ATOM     22  C   UNL     1      -4.579  -1.587   0.822  1.00  0.00     0.017 C 
BRANCH  22  23
ATOM     23  C   UNL     1      -4.601  -0.012   1.086  1.00  0.00     0.001 C 
BRANCH  23  24
ATOM     24  C   UNL     1      -3.682   0.687   2.160  1.00  0.00     0.000 C 
BRANCH  24  25
ATOM     25  C   UNL     1      -2.108   0.982   1.980  1.00  0.00     0.002 CG0
ATOM     26  G   UNL     1      -0.835   0.000   1.434  1.00  0.00     0.000 G0
ENDBRANCH  24  25
ENDBRANCH  23  24
ENDBRANCH  22  23
ENDBRANCH   5  22
ENDBRANCH   3   5
ENDBRANCH   2   3
ENDBRANCH   1   2
BRANCH   1  27
ATOM     27  C   UNL     1      -6.722  -4.791  -0.058  1.00  0.00     0.275 C 
BRANCH  27  28
ATOM     28  O   UNL     1      -6.203  -4.170  -1.251  1.00  0.00    -0.458 OA
BRANCH  28  29
ATOM     29  C   UNL     1      -6.944  -3.139  -1.728  1.00  0.00     0.338 C 
ATOM     30  O   UNL     1      -8.003  -2.752  -1.256  1.00  0.00    -0.246 OA
BRANCH  29  31
ATOM     31  C   UNL     1      -6.301  -2.485  -2.898  1.00  0.00     0.060 A 
ATOM     32  C   UNL     1      -4.928  -2.552  -3.156  1.00  0.00     0.016 A 
ATOM     33  C   UNL     1      -7.112  -1.717  -3.739  1.00  0.00     0.016 A 
ATOM     34  C   UNL     1      -4.359  -1.800  -4.194  1.00  0.00     0.010 A 
ATOM     35  C   UNL     1      -6.558  -1.048  -4.832  1.00  0.00     0.010 A 
ATOM     36  C   UNL     1      -5.171  -1.062  -5.065  1.00  0.00    -0.014 A 
BRANCH  36  37
ATOM     37  C   UNL     1      -4.641  -0.331  -6.253  1.00  0.00     0.031 A 
ATOM     38  C   UNL     1      -4.946   1.135  -6.432  1.00  0.00     0.074 A 
ATOM     39  C   UNL     1      -4.028  -1.007  -7.246  1.00  0.00     0.049 A 
ATOM     40  N   UNL     1      -4.882   1.873  -7.510  1.00  0.00    -0.248 NA
ATOM     41  C   UNL     1      -5.413   1.859  -5.238  1.00  0.00     0.031 C 
ATOM     42  C   UNL     1      -3.670  -2.425  -7.215  1.00  0.00     0.029 A 
ATOM     43  N   UNL     1      -3.654  -0.599  -8.506  1.00  0.00    -0.354 N 
ATOM     44  C   UNL     1      -5.374   3.123  -7.148  1.00  0.00     0.074 A 
ATOM     45  C   UNL     1      -5.718   3.047  -5.743  1.00  0.00     0.031 C 
ATOM     46  C   UNL     1      -3.160  -2.779  -8.405  1.00  0.00     0.029 A 
ATOM     47  C   UNL     1      -3.218  -1.633  -9.305  1.00  0.00     0.049 A 
ATOM     48  H   UNL     1      -3.693   0.338  -8.806  1.00  0.00     0.167 HD
ATOM     49  C   UNL     1      -5.524   4.231  -7.914  1.00  0.00     0.034 A 
ATOM     50  C   UNL     1      -2.948  -1.676 -10.624  1.00  0.00     0.034 A 
ATOM     51  C   UNL     1      -5.120   4.319  -9.293  1.00  0.00     0.049 A 
ATOM     52  C   UNL     1      -3.102  -0.428 -11.449  1.00  0.00     0.074 A 
ATOM     53  C   UNL     1      -5.169   5.417 -10.136  1.00  0.00     0.029 A 
ATOM     54  N   UNL     1      -4.584   3.275 -10.031  1.00  0.00    -0.354 N 
ATOM     55  N   UNL     1      -3.497   0.765 -11.076  1.00  0.00    -0.248 NA
ATOM     56  C   UNL     1      -2.751  -0.526 -12.873  1.00  0.00     0.031 C 
ATOM     57  C   UNL     1      -4.670   5.033 -11.386  1.00  0.00     0.029 A 
ATOM     58  C   UNL     1      -4.297   3.701 -11.317  1.00  0.00     0.049 A 
ATOM     59  H   UNL     1      -4.431   2.364  -9.691  1.00  0.00     0.167 HD
ATOM     60  C   UNL     1      -3.411   1.566 -12.208  1.00  0.00     0.074 A 
ATOM     61  C   UNL     1      -2.908   0.727 -13.277  1.00  0.00     0.031 C 
ATOM     62  C   UNL     1      -3.736   2.874 -12.355  1.00  0.00     0.034 A 
BRANCH  49  63
ATOM     63  C   UNL     1      -6.120   5.460  -7.274  1.00  0.00     0.023 A 
ATOM     64  C   UNL     1      -5.352   6.214  -6.364  1.00  0.00     0.012 A 
ATOM     65  C   UNL     1      -7.409   5.910  -7.627  1.00  0.00     0.148 A 
ATOM     66  C   UNL     1      -5.866   7.378  -5.793  1.00  0.00     0.002 A 
ATOM     67  C   UNL     1      -7.899   7.094  -7.084  1.00  0.00     0.091 A 
ATOM     68  F   UNL     1      -8.134   5.172  -8.479  1.00  0.00    -0.205 F 
ATOM     69  C   UNL     1      -7.134   7.822  -6.160  1.00  0.00     0.022 A 
BRANCH  67  70
ATOM     70  S   UNL     1      -9.487   7.792  -7.555  1.00  0.00     0.127 S 
ATOM     71  O   UNL     1     -10.292   7.523  -6.364  1.00  0.00    -0.237 OA
ATOM     72  O   UNL     1      -9.157   9.203  -7.761  1.00  0.00    -0.237 OA
ATOM     73  O   UNL     1      -9.894   7.084  -8.760  1.00  0.00    -0.744 OA
ENDBRANCH  67  70
ENDBRANCH  49  63
BRANCH  50  74
ATOM     74  C   UNL     1      -2.477  -2.950 -11.240  1.00  0.00     0.023 A 
ATOM     75  C   UNL     1      -1.134  -3.053 -11.652  1.00  0.00     0.012 A 
ATOM     76  C   UNL     1      -3.325  -4.066 -11.374  1.00  0.00     0.148 A 
ATOM     77  C   UNL     1      -0.651  -4.238 -12.207  1.00  0.00     0.002 A 
ATOM     78  C   UNL     1      -2.822  -5.262 -11.876  1.00  0.00     0.091 A 
ATOM     79  F   UNL     1      -4.605  -3.943 -10.993  1.00  0.00    -0.205 F 
ATOM     80  C   UNL     1      -1.489  -5.345 -12.307  1.00  0.00     0.022 A 
BRANCH  78  81
ATOM     81  S   UNL     1      -3.791  -6.774 -11.914  1.00  0.00     0.127 S 
ATOM     82  O   UNL     1      -4.074  -6.914 -13.340  1.00  0.00    -0.237 OA
ATOM     83  O   UNL     1      -2.848  -7.755 -11.374  1.00  0.00    -0.237 OA
ATOM     84  O   UNL     1      -4.944  -6.522 -11.060  1.00  0.00    -0.744 OA
ENDBRANCH  78  81
ENDBRANCH  50  74
BRANCH  62  85
ATOM     85  C   UNL     1      -3.521   3.500 -13.708  1.00  0.00     0.023 A 
ATOM     86  C   UNL     1      -4.399   3.196 -14.766  1.00  0.00     0.012 A 
ATOM     87  C   UNL     1      -2.492   4.441 -13.911  1.00  0.00     0.148 A 
ATOM     88  C   UNL     1      -4.239   3.796 -16.014  1.00  0.00     0.002 A 
ATOM     89  C   UNL     1      -2.367   5.070 -15.144  1.00  0.00     0.091 A 
ATOM     90  F   UNL     1      -1.654   4.703 -12.897  1.00  0.00    -0.205 F 
ATOM     91  C   UNL     1      -3.232   4.740 -16.200  1.00  0.00     0.022 A 
BRANCH  89  92
ATOM     92  S   UNL     1      -1.157   6.364 -15.445  1.00  0.00     0.127 S 
ATOM     93  O   UNL     1      -0.166   5.664 -16.259  1.00  0.00    -0.237 OA
ATOM     94  O   UNL     1      -1.944   7.364 -16.169  1.00  0.00    -0.237 OA
ATOM     95  O   UNL     1      -0.700   6.796 -14.131  1.00  0.00    -0.744 OA
ENDBRANCH  89  92
ENDBRANCH  62  85
ENDBRANCH  36  37
ENDBRANCH  29  31
ENDBRANCH  28  29
ENDBRANCH  27  28
ENDBRANCH   1  27
TORSDOF 17
