REMARK SMILES O=C(CSc1ccc(Cl)cc1)Nc1ccc(C(=O)OCCOC(=O)c2ccc(-c3c4nc(c(-c5cccc(S(=O)(=O)[O-])c5F)c5ccc([nH]5)c(-c5cccc(S(=O)(=O)[O-])c5F)c5nc(c(-c6cccc(S(=O)(=O)[O-])c6F)c6ccc3[nH]6)C=C5)C=C4)cc2)cc1
REMARK SMILES IDX 20 1 19 2 17 3 18 4 16 5 13 6 14 7 89 8 15 9 88 10 12 11
REMARK SMILES IDX 1 12 2 13 3 15 4 16 5 17 6 18 11 19 7 20 10 21 8 22 9 23
REMARK SMILES IDX 21 24 22 25 23 26 24 27 25 28 26 29 87 30 27 31 86 32 28 33
REMARK SMILES IDX 29 34 30 35 80 36 31 37 85 38 79 39 81 40 32 41 84 42 78 43
REMARK SMILES IDX 77 44 33 46 65 47 45 48 64 49 46 50 49 51 63 52 82 53 47 54
REMARK SMILES IDX 48 55 62 57 83 58 50 59 34 60 35 61 43 62 36 63 38 64 44 65
REMARK SMILES IDX 37 66 39 67 40 68 41 69 42 70 66 71 67 72 75 73 68 74 70 75
REMARK SMILES IDX 76 76 69 77 71 78 72 79 73 80 74 81 51 82 52 83 60 84 53 85
REMARK SMILES IDX 55 86 61 87 54 88 56 89 57 90 58 91 59 92
REMARK H PARENT 12 14 81 45 49 56
REMARK Flexibility Score: inf
ROOT
ATOM      1  C   UNL     1      -1.051   3.559   6.764  1.00  0.00     0.275 C 
ENDROOT
BRANCH   1   2
ATOM      2  O   UNL     1      -0.398   2.722   5.785  1.00  0.00    -0.458 OA
BRANCH   2   3
ATOM      3  C   UNL     1       0.085   3.378   4.700  1.00  0.00     0.338 C 
ATOM      4  O   UNL     1      -0.007   4.572   4.478  1.00  0.00    -0.246 OA
BRANCH   3   5
ATOM      5  C   UNL     1       0.804   2.465   3.783  1.00  0.00     0.060 A 
ATOM      6  C   UNL     1       2.045   1.010   1.729  1.00  0.00     0.041 A 
ATOM      7  C   UNL     1       2.666   2.138   2.256  1.00  0.00     0.027 A 
ATOM      8  C   UNL     1       0.842   0.565   2.291  1.00  0.00     0.027 A 
ATOM      9  C   UNL     1       2.028   2.877   3.247  1.00  0.00     0.018 A 
ATOM     10  C   UNL     1       0.226   1.281   3.329  1.00  0.00     0.018 A 
BRANCH   6  11
ATOM     11  N   UNL     1       2.668   0.422   0.618  1.00  0.00    -0.325 N 
ATOM     12  O   UNL     1       0.911  -0.773  -0.325  1.00  0.00    -0.274 OA
ATOM     13  C   UNL     1       2.084  -0.405  -0.320  1.00  0.00     0.234 C 
ATOM     14  H   UNL     1       3.625   0.619   0.495  1.00  0.00     0.169 HD
BRANCH  13  15
ATOM     15  C   UNL     1       3.056  -0.921  -1.369  1.00  0.00     0.175 C 
BRANCH  15  16
ATOM     16  S   UNL     1       4.208   0.354  -1.990  1.00  0.00    -0.116 SA
BRANCH  16  17
ATOM     17  C   UNL     1       3.130   1.524  -2.805  1.00  0.00     0.008 A 
ATOM     18  C   UNL     1       3.473   2.882  -2.731  1.00  0.00     0.016 A 
ATOM     19  C   UNL     1       2.017   1.151  -3.564  1.00  0.00     0.016 A 
ATOM     20  C   UNL     1       2.706   3.852  -3.386  1.00  0.00     0.021 A 
ATOM     21  C   UNL     1       1.248   2.119  -4.221  1.00  0.00     0.021 A 
ATOM     22  C   UNL     1       1.595   3.465  -4.129  1.00  0.00     0.041 A 
ATOM     23  Cl  UNL     1       0.657   4.648  -4.953  1.00  0.00    -0.084 Cl
ENDBRANCH  16  17
ENDBRANCH  15  16
ENDBRANCH  13  15
ENDBRANCH   6  11
ENDBRANCH   3   5
ENDBRANCH   2   3
ENDBRANCH   1   2
BRANCH   1  24
ATOM     24  C   UNL     1      -0.137   3.877   7.950  1.00  0.00     0.275 C 
BRANCH  24  25
ATOM     25  O   UNL     1       0.918   4.780   7.572  1.00  0.00    -0.458 OA
BRANCH  25  26
ATOM     26  C   UNL     1       2.102   4.185   7.313  1.00  0.00     0.338 C 
ATOM     27  O   UNL     1       2.362   2.994   7.383  1.00  0.00    -0.246 OA
BRANCH  26  28
ATOM     28  C   UNL     1       3.081   5.165   6.828  1.00  0.00     0.060 A 
ATOM     29  C   UNL     1       3.071   5.470   5.474  1.00  0.00     0.016 A 
ATOM     30  C   UNL     1       4.135   5.587   7.631  1.00  0.00     0.016 A 
ATOM     31  C   UNL     1       4.195   6.023   4.874  1.00  0.00     0.010 A 
ATOM     32  C   UNL     1       5.191   6.301   7.050  1.00  0.00     0.010 A 
ATOM     33  C   UNL     1       5.266   6.475   5.655  1.00  0.00    -0.014 A 
BRANCH  33  34
ATOM     34  C   UNL     1       6.450   7.119   5.014  1.00  0.00     0.031 A 
ATOM     35  C   UNL     1       7.844   6.621   5.308  1.00  0.00     0.074 A 
ATOM     36  C   UNL     1       6.281   8.165   4.177  1.00  0.00     0.049 A 
ATOM     37  N   UNL     1       8.997   7.162   5.006  1.00  0.00    -0.248 NA
ATOM     38  C   UNL     1       7.958   5.359   6.058  1.00  0.00     0.031 C 
ATOM     39  C   UNL     1       4.991   8.735   3.777  1.00  0.00     0.029 A 
ATOM     40  N   UNL     1       7.199   8.946   3.518  1.00  0.00    -0.354 N 
ATOM     41  C   UNL     1       9.965   6.355   5.596  1.00  0.00     0.074 A 
ATOM     42  C   UNL     1       9.264   5.286   6.274  1.00  0.00     0.031 C 
ATOM     43  C   UNL     1       5.196   9.747   2.924  1.00  0.00     0.029 A 
ATOM     44  C   UNL     1       6.628   9.973   2.801  1.00  0.00     0.049 A 
ATOM     45  H   UNL     1       8.170   8.787   3.556  1.00  0.00     0.167 HD
ATOM     46  C   UNL     1      11.315   6.489   5.572  1.00  0.00     0.034 A 
ATOM     47  C   UNL     1       7.184  11.020   2.162  1.00  0.00     0.034 A 
ATOM     48  C   UNL     1      12.004   7.528   4.852  1.00  0.00     0.049 A 
ATOM     49  C   UNL     1       8.677  11.167   2.179  1.00  0.00     0.074 A 
ATOM     50  C   UNL     1      13.367   7.734   4.732  1.00  0.00     0.029 A 
ATOM     51  N   UNL     1      11.384   8.535   4.127  1.00  0.00    -0.354 N 
ATOM     52  N   UNL     1       9.576  10.380   2.716  1.00  0.00    -0.248 NA
ATOM     53  C   UNL     1       9.232  12.341   1.493  1.00  0.00     0.031 C 
ATOM     54  C   UNL     1      13.570   8.885   3.963  1.00  0.00     0.029 A 
ATOM     55  C   UNL     1      12.335   9.371   3.565  1.00  0.00     0.049 A 
ATOM     56  H   UNL     1      10.411   8.640   4.026  1.00  0.00     0.167 HD
ATOM     57  C   UNL     1      10.807  10.941   2.401  1.00  0.00     0.074 A 
ATOM     58  C   UNL     1      10.535  12.126   1.612  1.00  0.00     0.031 C 
ATOM     59  C   UNL     1      12.049  10.518   2.741  1.00  0.00     0.034 A 
BRANCH  46  60
ATOM     60  C   UNL     1      12.135   5.486   6.349  1.00  0.00     0.023 A 
ATOM     61  C   UNL     1      12.213   4.147   5.915  1.00  0.00     0.012 A 
ATOM     62  C   UNL     1      12.854   5.879   7.496  1.00  0.00     0.148 A 
ATOM     63  C   UNL     1      12.949   3.206   6.637  1.00  0.00     0.002 A 
ATOM     64  C   UNL     1      13.627   4.947   8.181  1.00  0.00     0.091 A 
ATOM     65  F   UNL     1      12.759   7.152   7.907  1.00  0.00    -0.205 F 
ATOM     66  C   UNL     1      13.661   3.607   7.764  1.00  0.00     0.022 A 
BRANCH  64  67
ATOM     67  S   UNL     1      14.646   5.384   9.595  1.00  0.00     0.127 S 
ATOM     68  O   UNL     1      13.913   4.756  10.693  1.00  0.00    -0.237 OA
ATOM     69  O   UNL     1      15.919   4.741   9.267  1.00  0.00    -0.237 OA
ATOM     70  O   UNL     1      14.691   6.839   9.624  1.00  0.00    -0.744 OA
ENDBRANCH  64  67
ENDBRANCH  46  60
BRANCH  47  71
ATOM     71  C   UNL     1       6.318  12.001   1.446  1.00  0.00     0.023 A 
ATOM     72  C   UNL     1       6.362  12.060   0.041  1.00  0.00     0.012 A 
ATOM     73  C   UNL     1       5.425  12.840   2.142  1.00  0.00     0.148 A 
ATOM     74  C   UNL     1       5.551  12.954  -0.658  1.00  0.00     0.002 A 
ATOM     75  C   UNL     1       4.577  13.685   1.437  1.00  0.00     0.091 A 
ATOM     76  F   UNL     1       5.405  12.775   3.481  1.00  0.00    -0.205 F 
ATOM     77  C   UNL     1       4.650  13.757   0.038  1.00  0.00     0.022 A 
BRANCH  75  78
ATOM     78  S   UNL     1       3.294  14.656   2.237  1.00  0.00     0.127 S 
ATOM     79  O   UNL     1       3.772  16.019   2.018  1.00  0.00    -0.237 OA
ATOM     80  O   UNL     1       2.110  14.285   1.461  1.00  0.00    -0.237 OA
ATOM     81  O   UNL     1       3.269  14.213   3.624  1.00  0.00    -0.744 OA
ENDBRANCH  75  78
ENDBRANCH  47  71
BRANCH  59  82
ATOM     82  C   UNL     1      13.218  11.305   2.210  1.00  0.00     0.023 A 
ATOM     83  C   UNL     1      13.508  12.583   2.728  1.00  0.00     0.012 A 
ATOM     84  C   UNL     1      14.066  10.743   1.236  1.00  0.00     0.148 A 
ATOM     85  C   UNL     1      14.605  13.303   2.258  1.00  0.00     0.002 A 
ATOM     86  C   UNL     1      15.188  11.444   0.813  1.00  0.00     0.091 A 
ATOM     87  F   UNL     1      13.759   9.535   0.741  1.00  0.00    -0.205 F 
ATOM     88  C   UNL     1      15.452  12.729   1.312  1.00  0.00     0.022 A 
BRANCH  86  89
ATOM     89  S   UNL     1      16.388  10.743  -0.325  1.00  0.00     0.127 S 
ATOM     90  O   UNL     1      16.173  11.556  -1.522  1.00  0.00    -0.237 OA
ATOM     91  O   UNL     1      17.652  10.997   0.366  1.00  0.00    -0.237 OA
ATOM     92  O   UNL     1      16.043   9.335  -0.459  1.00  0.00    -0.744 OA
ENDBRANCH  86  89
ENDBRANCH  59  82
ENDBRANCH  33  34
ENDBRANCH  26  28
ENDBRANCH  25  26
ENDBRANCH  24  25
ENDBRANCH   1  24
TORSDOF 18
