REMARK SMILES O=C(C[N@@H+]1C[C@@]2([N+](=O)[O-])CC=C(Cl)[C@@]([N+](=O)[O-])(C1)C2)OCCOC(=O)c1ccc(-c2c3nc(c(-c4cccc(S(=O)(=O)[O-])c4F)c4ccc([nH]4)c(-c4cccc(S(=O)(=O)[O-])c4F)c4nc(c(-c5cccc(S(=O)(=O)[O-])c5F)c5ccc2[nH]5)C=C4)C=C3)cc1
REMARK SMILES IDX 22 1 21 2 20 3 2 4 1 5 3 6 4 7 5 8 18 9 6 11 14 12 10 13
REMARK SMILES IDX 19 14 12 15 11 16 13 17 7 18 8 19 9 20 15 21 16 22 17 23
REMARK SMILES IDX 23 24 24 25 25 26 26 27 27 28 88 29 28 30 87 31 29 32 30 33
REMARK SMILES IDX 31 34 81 35 32 36 86 37 80 38 82 39 33 40 85 41 79 42 78 43
REMARK SMILES IDX 34 45 66 46 46 47 65 48 47 49 50 50 64 51 83 52 48 53 49 54
REMARK SMILES IDX 63 56 84 57 51 58 35 59 36 60 44 61 37 62 39 63 45 64 38 65
REMARK SMILES IDX 40 66 41 67 42 68 43 69 67 70 68 71 76 72 69 73 71 74 77 75
REMARK SMILES IDX 70 76 72 77 73 78 74 79 75 80 52 81 53 82 61 83 54 84 56 85
REMARK SMILES IDX 62 86 55 87 57 88 58 89 59 90 60 91
REMARK H PARENT 4 10 82 44 50 55
REMARK Flexibility Score: inf
ROOT
ATOM      1  C   UNL     1       4.238   0.598  -2.520  1.00  0.00     0.275 C 
ENDROOT
BRANCH   1   2
ATOM      2  C   UNL     1       4.135  -0.602  -1.575  1.00  0.00     0.274 C 
BRANCH   2   3
ATOM      3  O   UNL     1       2.807  -0.793  -1.048  1.00  0.00    -0.458 OA
BRANCH   3   4
ATOM      4  C   UNL     1       2.502  -0.594   0.263  1.00  0.00     0.361 C 
ATOM      5  O   UNL     1       1.626  -1.265   0.803  1.00  0.00    -0.245 OA
BRANCH   4   6
ATOM      6  C   UNL     1       3.231   0.539   0.988  1.00  0.00     0.386 C 
BRANCH   6   7
ATOM      7  N   UNL     1       3.949   0.114   2.208  1.00  0.00    -0.313 N 
ATOM      8  C   UNL     1       4.576   1.295   2.851  1.00  0.00     0.350 C 
ATOM      9  C   UNL     1       4.940  -0.959   1.962  1.00  0.00     0.356 C 
ATOM     10  H   UNL     1       3.262  -0.293   2.842  1.00  0.00     0.349 HD
ATOM     11  C   UNL     1       5.392   0.944   4.118  1.00  0.00     0.280 C 
ATOM     12  C   UNL     1       5.676  -1.368   3.262  1.00  0.00     0.311 C 
ATOM     13  C   UNL     1       4.515   0.445   5.293  1.00  0.00     0.121 C 
ATOM     14  C   UNL     1       6.439  -0.134   3.782  1.00  0.00     0.191 C 
ATOM     15  C   UNL     1       4.681  -1.859   4.299  1.00  0.00     0.097 C 
ATOM     16  C   UNL     1       4.159  -1.027   5.218  1.00  0.00     0.004 C 
ATOM     17  Cl  UNL     1       4.103  -3.487   4.200  1.00  0.00    -0.081 Cl
BRANCH  11  18
ATOM     18  N   UNL     1       6.098   2.231   4.513  1.00  0.00     0.032 N 
ATOM     19  O   UNL     1       5.517   2.985   5.296  1.00  0.00    -0.264 OA
ATOM     20  O   UNL     1       7.181   2.472   3.960  1.00  0.00    -0.264 OA
ENDBRANCH  11  18
BRANCH  12  21
ATOM     21  N   UNL     1       6.713  -2.442   2.953  1.00  0.00     0.038 N 
ATOM     22  O   UNL     1       6.830  -2.819   1.777  1.00  0.00    -0.263 OA
ATOM     23  O   UNL     1       7.425  -2.838   3.888  1.00  0.00    -0.263 OA
ENDBRANCH  12  21
ENDBRANCH   6   7
ENDBRANCH   4   6
ENDBRANCH   3   4
ENDBRANCH   2   3
ENDBRANCH   1   2
BRANCH   1  24
ATOM     24  O   UNL     1       3.838   1.813  -1.862  1.00  0.00    -0.458 OA
BRANCH  24  25
ATOM     25  C   UNL     1       2.531   2.142  -2.023  1.00  0.00     0.338 C 
ATOM     26  O   UNL     1       1.736   1.586  -2.764  1.00  0.00    -0.246 OA
BRANCH  25  27
ATOM     27  C   UNL     1       2.135   3.162  -1.025  1.00  0.00     0.060 A 
ATOM     28  C   UNL     1       0.844   3.069  -0.489  1.00  0.00     0.016 A 
ATOM     29  C   UNL     1       2.993   4.185  -0.606  1.00  0.00     0.016 A 
ATOM     30  C   UNL     1       0.391   4.026   0.420  1.00  0.00     0.010 A 
ATOM     31  C   UNL     1       2.535   5.145   0.307  1.00  0.00     0.010 A 
ATOM     32  C   UNL     1       1.219   5.092   0.795  1.00  0.00    -0.014 A 
BRANCH  32  33
ATOM     33  C   UNL     1       0.641   6.216   1.574  1.00  0.00     0.031 A 
ATOM     34  C   UNL     1       0.174   7.448   0.843  1.00  0.00     0.074 A 
ATOM     35  C   UNL     1       0.493   6.137   2.909  1.00  0.00     0.049 A 
ATOM     36  N   UNL     1      -0.458   8.495   1.307  1.00  0.00    -0.248 NA
ATOM     37  C   UNL     1       0.453   7.505  -0.602  1.00  0.00     0.031 C 
ATOM     38  C   UNL     1       0.928   5.020   3.747  1.00  0.00     0.029 A 
ATOM     39  N   UNL     1      -0.057   7.029   3.797  1.00  0.00    -0.354 N 
ATOM     40  C   UNL     1      -0.658   9.331   0.216  1.00  0.00     0.074 A 
ATOM     41  C   UNL     1      -0.047   8.689  -0.927  1.00  0.00     0.031 C 
ATOM     42  C   UNL     1       0.650   5.305   5.031  1.00  0.00     0.029 A 
ATOM     43  C   UNL     1       0.010   6.618   5.107  1.00  0.00     0.049 A 
ATOM     44  H   UNL     1      -0.462   7.882   3.521  1.00  0.00     0.167 HD
ATOM     45  C   UNL     1      -1.321  10.511   0.157  1.00  0.00     0.034 A 
ATOM     46  C   UNL     1      -0.402   7.230   6.236  1.00  0.00     0.034 A 
ATOM     47  C   UNL     1      -1.936  11.156   1.285  1.00  0.00     0.049 A 
ATOM     48  C   UNL     1      -1.126   8.551   6.145  1.00  0.00     0.074 A 
ATOM     49  C   UNL     1      -2.659  12.336   1.312  1.00  0.00     0.029 A 
ATOM     50  N   UNL     1      -1.892  10.685   2.587  1.00  0.00    -0.354 N 
ATOM     51  N   UNL     1      -1.454   9.244   5.082  1.00  0.00    -0.248 NA
ATOM     52  C   UNL     1      -1.580   9.149   7.411  1.00  0.00     0.031 C 
ATOM     53  C   UNL     1      -3.041  12.585   2.635  1.00  0.00     0.029 A 
ATOM     54  C   UNL     1      -2.568  11.553   3.428  1.00  0.00     0.049 A 
ATOM     55  H   UNL     1      -1.445   9.855   2.872  1.00  0.00     0.167 HD
ATOM     56  C   UNL     1      -2.179  10.338   5.547  1.00  0.00     0.074 A 
ATOM     57  C   UNL     1      -2.269  10.199   6.985  1.00  0.00     0.031 C 
ATOM     58  C   UNL     1      -2.704  11.377   4.850  1.00  0.00     0.034 A 
BRANCH  45  59
ATOM     59  C   UNL     1      -1.471  11.155  -1.194  1.00  0.00     0.023 A 
ATOM     60  C   UNL     1      -2.397  10.613  -2.110  1.00  0.00     0.012 A 
ATOM     61  C   UNL     1      -0.757  12.318  -1.535  1.00  0.00     0.148 A 
ATOM     62  C   UNL     1      -2.595  11.208  -3.354  1.00  0.00     0.002 A 
ATOM     63  C   UNL     1      -0.986  12.927  -2.764  1.00  0.00     0.091 A 
ATOM     64  F   UNL     1       0.135  12.802  -0.659  1.00  0.00    -0.205 F 
ATOM     65  C   UNL     1      -1.898  12.369  -3.677  1.00  0.00     0.022 A 
BRANCH  63  66
ATOM     66  S   UNL     1      -0.189  14.460  -3.252  1.00  0.00     0.127 S 
ATOM     67  O   UNL     1       0.710  14.001  -4.310  1.00  0.00    -0.237 OA
ATOM     68  O   UNL     1      -1.321  15.262  -3.717  1.00  0.00    -0.237 OA
ATOM     69  O   UNL     1       0.467  14.970  -2.056  1.00  0.00    -0.744 OA
ENDBRANCH  63  66
ENDBRANCH  45  59
BRANCH  46  70
ATOM     70  C   UNL     1      -0.194   6.579   7.561  1.00  0.00     0.023 A 
ATOM     71  C   UNL     1      -1.304   6.102   8.285  1.00  0.00     0.012 A 
ATOM     72  C   UNL     1       1.094   6.449   8.116  1.00  0.00     0.148 A 
ATOM     73  C   UNL     1      -1.141   5.545   9.554  1.00  0.00     0.002 A 
ATOM     74  C   UNL     1       1.255   5.846   9.358  1.00  0.00     0.091 A 
ATOM     75  F   UNL     1       2.136   6.928   7.422  1.00  0.00    -0.205 F 
ATOM     76  C   UNL     1       0.138   5.410  10.087  1.00  0.00     0.022 A 
BRANCH  74  77
ATOM     77  S   UNL     1       2.874   5.525  10.067  1.00  0.00     0.127 S 
ATOM     78  O   UNL     1       2.943   6.530  11.124  1.00  0.00    -0.237 OA
ATOM     79  O   UNL     1       2.731   4.145  10.535  1.00  0.00    -0.237 OA
ATOM     80  O   UNL     1       3.817   5.689   8.970  1.00  0.00    -0.744 OA
ENDBRANCH  74  77
ENDBRANCH  46  70
BRANCH  58  81
ATOM     81  C   UNL     1      -3.442  12.440   5.624  1.00  0.00     0.023 A 
ATOM     82  C   UNL     1      -2.721  13.335   6.439  1.00  0.00     0.012 A 
ATOM     83  C   UNL     1      -4.838  12.593   5.500  1.00  0.00     0.148 A 
ATOM     84  C   UNL     1      -3.379  14.340   7.147  1.00  0.00     0.002 A 
ATOM     85  C   UNL     1      -5.481  13.626   6.173  1.00  0.00     0.091 A 
ATOM     86  F   UNL     1      -5.514  11.722   4.736  1.00  0.00    -0.205 F 
ATOM     87  C   UNL     1      -4.756  14.492   7.007  1.00  0.00     0.022 A 
BRANCH  85  88
ATOM     88  S   UNL     1      -7.238  13.948   5.973  1.00  0.00     0.127 S 
ATOM     89  O   UNL     1      -7.793  13.350   7.186  1.00  0.00    -0.237 OA
ATOM     90  O   UNL     1      -7.290  15.410   5.936  1.00  0.00    -0.237 OA
ATOM     91  O   UNL     1      -7.616  13.305   4.721  1.00  0.00    -0.744 OA
ENDBRANCH  85  88
ENDBRANCH  58  81
ENDBRANCH  32  33
ENDBRANCH  25  27
ENDBRANCH  24  25
ENDBRANCH   1  24
TORSDOF 17
