REMARK SMILES C[C@]12C(=O)N(c3ccc(C(=O)OCCOC(=O)c4ccc(-c5c6nc(c(-c7cccc(S(=O)(=O)[O-])c7F)c7ccc([nH]7)c(-c7cccc(S(=O)(=O)[O-])c7F)c7nc(c(-c8cccc(S(=O)(=O)[O-])c8F)c8ccc5[nH]8)C=C7)C=C6)cc4)cc3)C(=O)[C@@H]1[C@H]1c3ccccc3[C@@H]2c2ccccc21
REMARK SMILES IDX 14 1 13 2 12 3 10 4 11 5 9 6 6 7 7 8 82 9 8 10 81 11 5 12
REMARK SMILES IDX 1 13 2 14 3 15 85 16 93 17 4 18 83 19 86 20 92 21 94 22
REMARK SMILES IDX 84 23 87 24 99 25 91 26 95 27 88 28 98 29 90 30 96 31 89 32
REMARK SMILES IDX 97 33 15 34 16 35 17 36 18 37 19 38 80 39 20 40 79 41 21 42
REMARK SMILES IDX 22 43 23 44 73 45 24 46 78 47 72 48 74 49 25 50 77 51 71 52
REMARK SMILES IDX 70 53 26 55 58 56 38 57 57 58 39 59 42 60 56 61 75 62 40 63
REMARK SMILES IDX 41 64 55 66 76 67 43 68 27 69 28 70 36 71 29 72 31 73 37 74
REMARK SMILES IDX 30 75 32 76 33 77 34 78 35 79 59 80 60 81 68 82 61 83 63 84
REMARK SMILES IDX 69 85 62 86 64 87 65 88 66 89 67 90 44 91 45 92 53 93 46 94
REMARK SMILES IDX 48 95 54 96 47 97 49 98 50 99 51 100 52 101
REMARK H PARENT 74 54 42 65
REMARK Flexibility Score: inf
ROOT
ATOM      1  C   UNL     1      -8.304  -1.495   6.819  1.00  0.00     0.275 C 
ENDROOT
BRANCH   1   2
ATOM      2  C   UNL     1      -7.033  -1.765   7.626  1.00  0.00     0.275 C 
BRANCH   2   3
ATOM      3  O   UNL     1      -5.878  -1.204   6.971  1.00  0.00    -0.458 OA
BRANCH   3   4
ATOM      4  C   UNL     1      -5.141  -2.088   6.258  1.00  0.00     0.338 C 
ATOM      5  O   UNL     1      -5.301  -3.292   6.198  1.00  0.00    -0.246 OA
BRANCH   4   6
ATOM      6  C   UNL     1      -4.169  -1.371   5.409  1.00  0.00     0.060 A 
ATOM      7  C   UNL     1      -2.196  -0.327   3.670  1.00  0.00     0.052 A 
ATOM      8  C   UNL     1      -3.252  -1.125   3.195  1.00  0.00     0.028 A 
ATOM      9  C   UNL     1      -2.192  -0.006   5.037  1.00  0.00     0.028 A 
ATOM     10  C   UNL     1      -4.201  -1.662   4.053  1.00  0.00     0.018 A 
ATOM     11  C   UNL     1      -3.184  -0.514   5.904  1.00  0.00     0.018 A 
BRANCH   7  12
ATOM     12  N   UNL     1      -1.060  -0.112   2.812  1.00  0.00    -0.250 N 
ATOM     13  C   UNL     1       0.993  -0.128   0.354  1.00  0.00     0.024 C 
ATOM     14  C   UNL     1       0.250  -1.196   1.192  1.00  0.00     0.071 C 
ATOM     15  C   UNL     1      -1.093  -0.588   1.495  1.00  0.00     0.241 C 
ATOM     16  C   UNL     1       0.795  -1.361   2.622  1.00  0.00     0.107 C 
ATOM     17  C   UNL     1       0.254  -2.629   0.559  1.00  0.00     0.066 C 
ATOM     18  O   UNL     1      -1.985  -0.475   0.667  1.00  0.00    -0.273 OA
ATOM     19  C   UNL     1       0.261  -0.154   3.329  1.00  0.00     0.238 C 
ATOM     20  C   UNL     1       1.815  -2.526   2.727  1.00  0.00     0.063 C 
ATOM     21  C   UNL     1      -0.116  -3.679   1.638  1.00  0.00    -0.036 A 
ATOM     22  C   UNL     1       1.737  -2.893   0.269  1.00  0.00    -0.036 A 
ATOM     23  O   UNL     1       0.794   0.487   4.214  1.00  0.00    -0.274 OA
ATOM     24  C   UNL     1       0.796  -3.721   2.757  1.00  0.00    -0.036 A 
ATOM     25  C   UNL     1       2.577  -2.768   1.418  1.00  0.00    -0.036 A 
ATOM     26  C   UNL     1      -1.282  -4.425   1.667  1.00  0.00     0.005 A 
ATOM     27  C   UNL     1       2.243  -3.295  -0.959  1.00  0.00     0.005 A 
ATOM     28  C   UNL     1       0.535  -4.505   3.872  1.00  0.00     0.004 A 
ATOM     29  C   UNL     1       3.930  -3.060   1.313  1.00  0.00     0.004 A 
ATOM     30  C   UNL     1      -1.545  -5.201   2.801  1.00  0.00     0.000 A 
ATOM     31  C   UNL     1       3.603  -3.584  -1.051  1.00  0.00     0.000 A 
ATOM     32  C   UNL     1      -0.648  -5.245   3.885  1.00  0.00     0.000 A 
ATOM     33  C   UNL     1       4.437  -3.466   0.072  1.00  0.00     0.000 A 
ENDBRANCH   7  12
ENDBRANCH   4   6
ENDBRANCH   3   4
ENDBRANCH   2   3
ENDBRANCH   1   2
BRANCH   1  34
ATOM     34  O   UNL     1      -8.396  -2.390   5.694  1.00  0.00    -0.458 OA
BRANCH  34  35
ATOM     35  C   UNL     1      -8.122  -1.847   4.488  1.00  0.00     0.338 C 
ATOM     36  O   UNL     1      -7.811  -0.691   4.248  1.00  0.00    -0.246 OA
BRANCH  35  37
ATOM     37  C   UNL     1      -8.252  -2.880   3.450  1.00  0.00     0.060 A 
ATOM     38  C   UNL     1      -9.359  -2.882   2.601  1.00  0.00     0.016 A 
ATOM     39  C   UNL     1      -7.210  -3.786   3.253  1.00  0.00     0.016 A 
ATOM     40  C   UNL     1      -9.418  -3.807   1.553  1.00  0.00     0.010 A 
ATOM     41  C   UNL     1      -7.225  -4.632   2.146  1.00  0.00     0.010 A 
ATOM     42  C   UNL     1      -8.338  -4.671   1.295  1.00  0.00    -0.014 A 
BRANCH  42  43
ATOM     43  C   UNL     1      -8.357  -5.616   0.143  1.00  0.00     0.031 A 
ATOM     44  C   UNL     1      -8.241  -7.103   0.368  1.00  0.00     0.074 A 
ATOM     45  C   UNL     1      -8.413  -5.136  -1.117  1.00  0.00     0.049 A 
ATOM     46  N   UNL     1      -8.191  -8.068  -0.515  1.00  0.00    -0.248 NA
ATOM     47  C   UNL     1      -8.138  -7.569   1.762  1.00  0.00     0.031 C 
ATOM     48  C   UNL     1      -8.436  -3.719  -1.484  1.00  0.00     0.029 A 
ATOM     49  N   UNL     1      -8.450  -5.789  -2.325  1.00  0.00    -0.354 N 
ATOM     50  C   UNL     1      -8.004  -9.240   0.209  1.00  0.00     0.074 A 
ATOM     51  C   UNL     1      -7.927  -8.869   1.603  1.00  0.00     0.031 C 
ATOM     52  C   UNL     1      -8.519  -3.609  -2.819  1.00  0.00     0.029 A 
ATOM     53  C   UNL     1      -8.529  -4.945  -3.408  1.00  0.00     0.049 A 
ATOM     54  H   UNL     1      -8.422  -6.770  -2.408  1.00  0.00     0.167 HD
ATOM     55  C   UNL     1      -7.939 -10.515  -0.241  1.00  0.00     0.034 A 
ATOM     56  C   UNL     1      -8.616  -5.211  -4.727  1.00  0.00     0.034 A 
ATOM     57  C   UNL     1      -8.101 -10.898  -1.616  1.00  0.00     0.049 A 
ATOM     58  C   UNL     1      -8.656  -6.639  -5.190  1.00  0.00     0.074 A 
ATOM     59  C   UNL     1      -8.123 -12.172  -2.155  1.00  0.00     0.029 A 
ATOM     60  N   UNL     1      -8.294 -10.014  -2.664  1.00  0.00    -0.354 N 
ATOM     61  N   UNL     1      -8.586  -7.735  -4.475  1.00  0.00    -0.248 NA
ATOM     62  C   UNL     1      -8.825  -6.872  -6.633  1.00  0.00     0.031 C 
ATOM     63  C   UNL     1      -8.347 -12.059  -3.530  1.00  0.00     0.029 A 
ATOM     64  C   UNL     1      -8.462 -10.715  -3.844  1.00  0.00     0.049 A 
ATOM     65  H   UNL     1      -8.310  -9.033  -2.582  1.00  0.00     0.167 HD
ATOM     66  C   UNL     1      -8.729  -8.785  -5.373  1.00  0.00     0.074 A 
ATOM     67  C   UNL     1      -8.902  -8.196  -6.685  1.00  0.00     0.031 C 
ATOM     68  C   UNL     1      -8.703 -10.117  -5.131  1.00  0.00     0.034 A 
BRANCH  55  69
ATOM     69  C   UNL     1      -7.775 -11.614   0.774  1.00  0.00     0.023 A 
ATOM     70  C   UNL     1      -8.896 -12.018   1.526  1.00  0.00     0.012 A 
ATOM     71  C   UNL     1      -6.557 -12.307   0.913  1.00  0.00     0.148 A 
ATOM     72  C   UNL     1      -8.805 -13.088   2.414  1.00  0.00     0.002 A 
ATOM     73  C   UNL     1      -6.483 -13.393   1.778  1.00  0.00     0.091 A 
ATOM     74  F   UNL     1      -5.503 -11.896   0.195  1.00  0.00    -0.205 F 
ATOM     75  C   UNL     1      -7.603 -13.781   2.532  1.00  0.00     0.022 A 
BRANCH  73  76
ATOM     76  S   UNL     1      -5.003 -14.394   1.964  1.00  0.00     0.127 S 
ATOM     77  O   UNL     1      -4.635 -14.122   3.353  1.00  0.00    -0.237 OA
ATOM     78  O   UNL     1      -5.513 -15.743   1.722  1.00  0.00    -0.237 OA
ATOM     79  O   UNL     1      -4.058 -13.909   0.967  1.00  0.00    -0.744 OA
ENDBRANCH  73  76
ENDBRANCH  55  69
BRANCH  56  80
ATOM     80  C   UNL     1      -8.791  -4.086  -5.686  1.00  0.00     0.023 A 
ATOM     81  C   UNL     1     -10.075  -3.832  -6.207  1.00  0.00     0.012 A 
ATOM     82  C   UNL     1      -7.727  -3.228  -6.020  1.00  0.00     0.148 A 
ATOM     83  C   UNL     1     -10.296  -2.745  -7.052  1.00  0.00     0.002 A 
ATOM     84  C   UNL     1      -7.962  -2.124  -6.833  1.00  0.00     0.091 A 
ATOM     85  F   UNL     1      -6.514  -3.495  -5.516  1.00  0.00    -0.205 F 
ATOM     86  C   UNL     1      -9.243  -1.886  -7.356  1.00  0.00     0.022 A 
BRANCH  84  87
ATOM     87  S   UNL     1      -6.698  -0.901  -7.200  1.00  0.00     0.127 S 
ATOM     88  O   UNL     1      -6.507  -1.092  -8.636  1.00  0.00    -0.237 OA
ATOM     89  O   UNL     1      -7.370   0.344  -6.829  1.00  0.00    -0.237 OA
ATOM     90  O   UNL     1      -5.558  -1.247  -6.363  1.00  0.00    -0.744 OA
ENDBRANCH  84  87
ENDBRANCH  56  80
BRANCH  68  91
ATOM     91  C   UNL     1      -8.897 -11.052  -6.290  1.00  0.00     0.023 A 
ATOM     92  C   UNL     1      -7.809 -11.336  -7.138  1.00  0.00     0.012 A 
ATOM     93  C   UNL     1     -10.114 -11.741  -6.461  1.00  0.00     0.148 A 
ATOM     94  C   UNL     1      -7.933 -12.290  -8.147  1.00  0.00     0.002 A 
ATOM     95  C   UNL     1     -10.220 -12.711  -7.449  1.00  0.00     0.091 A 
ATOM     96  F   UNL     1     -11.137 -11.439  -5.649  1.00  0.00    -0.205 F 
ATOM     97  C   UNL     1      -9.131 -12.985  -8.294  1.00  0.00     0.022 A 
BRANCH  95  98
ATOM     98  S   UNL     1     -11.698 -13.709  -7.664  1.00  0.00     0.127 S 
ATOM     99  O   UNL     1     -12.254 -13.155  -8.898  1.00  0.00    -0.237 OA
ATOM    100  O   UNL     1     -11.148 -15.058  -7.795  1.00  0.00    -0.237 OA
ATOM    101  O   UNL     1     -12.502 -13.498  -6.467  1.00  0.00    -0.744 OA
ENDBRANCH  95  98
ENDBRANCH  68  91
ENDBRANCH  42  43
ENDBRANCH  35  37
ENDBRANCH  34  35
ENDBRANCH   1  34
TORSDOF 15
