REMARK SMILES CCC[C@](C)(C(=O)OCCOC(=O)c1ccc(-c2c3nc(c(-c4cccc(S(=O)(=O)[O-])c4F)c4ccc([nH]4)c(-c4cccc(S(=O)(=O)[O-])c4F)c4nc(c(-c5cccc(S(=O)(=O)[O-])c5F)c5ccc2[nH]5)C=C4)C=C3)cc1)[NH+]1CC(C(C)(C)C)C1
REMARK SMILES IDX 10 1 9 2 8 3 6 4 7 5 4 6 5 7 3 8 2 9 1 10 77 11 78 12 84 13
REMARK SMILES IDX 79 15 80 16 81 17 82 18 83 19 11 20 12 21 13 22 14 23 15 24
REMARK SMILES IDX 76 25 16 26 75 27 17 28 18 29 19 30 69 31 20 32 74 33 68 34
REMARK SMILES IDX 70 35 21 36 73 37 67 38 66 39 22 41 54 42 34 43 53 44 35 45
REMARK SMILES IDX 38 46 52 47 71 48 36 49 37 50 51 52 72 53 39 54 23 55 24 56
REMARK SMILES IDX 32 57 25 58 27 59 33 60 26 61 28 62 29 63 30 64 31 65 55 66
REMARK SMILES IDX 56 67 64 68 57 69 59 70 65 71 58 72 60 73 61 74 62 75 63 76
REMARK SMILES IDX 40 77 41 78 49 79 42 80 44 81 50 82 43 83 45 84 46 85 47 86
REMARK SMILES IDX 48 87
REMARK H PARENT 77 14 70 40 38 51
REMARK Flexibility Score: inf
ROOT
ATOM      1  C   UNL     1       2.820   6.330   1.321  1.00  0.00     0.275 C 
ENDROOT
BRANCH   1   2
ATOM      2  C   UNL     1       1.356   6.062   1.670  1.00  0.00     0.274 C 
BRANCH   2   3
ATOM      3  O   UNL     1       1.053   4.651   1.674  1.00  0.00    -0.457 OA
BRANCH   3   4
ATOM      4  C   UNL     1       0.607   4.162   0.480  1.00  0.00     0.367 C 
ATOM      5  O   UNL     1       0.490   4.870  -0.516  1.00  0.00    -0.245 OA
BRANCH   4   6
ATOM      6  C   UNL     1       0.212   2.645   0.530  1.00  0.00     0.193 C 
ATOM      7  C   UNL     1       0.525   2.040   1.921  1.00  0.00     0.092 C 
BRANCH   6   8
ATOM      8  C   UNL     1      -1.343   2.579   0.333  1.00  0.00     0.080 C 
BRANCH   8   9
ATOM      9  C   UNL     1      -2.024   3.430  -0.756  1.00  0.00     0.004 C 
ATOM     10  C   UNL     1      -1.584   3.185  -2.189  1.00  0.00     0.004 C 
ENDBRANCH   8   9
ENDBRANCH   6   8
BRANCH   6  11
ATOM     11  N   UNL     1       0.913   1.987  -0.599  1.00  0.00    -0.320 N 
ATOM     12  C   UNL     1       2.327   1.581  -0.350  1.00  0.00     0.273 C 
ATOM     13  C   UNL     1       0.623   0.542  -0.843  1.00  0.00     0.273 C 
ATOM     14  H   UNL     1       0.661   2.699  -1.284  1.00  0.00     0.349 HD
ATOM     15  C   UNL     1       2.076   0.476  -1.427  1.00  0.00     0.105 C 
BRANCH  15  16
ATOM     16  C   UNL     1       2.940  -0.796  -1.460  1.00  0.00    -0.025 C 
ATOM     17  C   UNL     1       2.184  -1.893  -2.222  1.00  0.00     0.011 C 
ATOM     18  C   UNL     1       4.239  -0.466  -2.217  1.00  0.00     0.011 C 
ATOM     19  C   UNL     1       3.296  -1.298  -0.058  1.00  0.00     0.011 C 
ENDBRANCH  15  16
ENDBRANCH   6  11
ENDBRANCH   4   6
ENDBRANCH   3   4
ENDBRANCH   2   3
ENDBRANCH   1   2
BRANCH   1  20
ATOM     20  O   UNL     1       3.113   5.901  -0.020  1.00  0.00    -0.458 OA
BRANCH  20  21
ATOM     21  C   UNL     1       4.196   5.102  -0.159  1.00  0.00     0.338 C 
ATOM     22  O   UNL     1       4.959   4.752   0.727  1.00  0.00    -0.246 OA
BRANCH  21  23
ATOM     23  C   UNL     1       4.365   4.672  -1.564  1.00  0.00     0.060 A 
ATOM     24  C   UNL     1       3.293   4.163  -2.295  1.00  0.00     0.016 A 
ATOM     25  C   UNL     1       5.653   4.620  -2.101  1.00  0.00     0.016 A 
ATOM     26  C   UNL     1       3.523   3.493  -3.497  1.00  0.00     0.010 A 
ATOM     27  C   UNL     1       5.862   4.057  -3.364  1.00  0.00     0.010 A 
ATOM     28  C   UNL     1       4.807   3.447  -4.061  1.00  0.00    -0.014 A 
BRANCH  28  29
ATOM     29  C   UNL     1       5.042   2.778  -5.374  1.00  0.00     0.031 A 
ATOM     30  C   UNL     1       6.048   1.662  -5.510  1.00  0.00     0.074 A 
ATOM     31  C   UNL     1       4.353   3.181  -6.461  1.00  0.00     0.049 A 
ATOM     32  N   UNL     1       6.467   1.056  -6.593  1.00  0.00    -0.248 NA
ATOM     33  C   UNL     1       6.661   1.153  -4.272  1.00  0.00     0.031 C 
ATOM     34  C   UNL     1       3.329   4.227  -6.473  1.00  0.00     0.029 A 
ATOM     35  N   UNL     1       4.415   2.768  -7.771  1.00  0.00    -0.354 N 
ATOM     36  C   UNL     1       7.407   0.122  -6.173  1.00  0.00     0.074 A 
ATOM     37  C   UNL     1       7.502   0.238  -4.734  1.00  0.00     0.031 C 
ATOM     38  C   UNL     1       2.844   4.358  -7.714  1.00  0.00     0.029 A 
ATOM     39  C   UNL     1       3.585   3.477  -8.608  1.00  0.00     0.049 A 
ATOM     40  H   UNL     1       4.997   2.036  -8.079  1.00  0.00     0.167 HD
ATOM     41  C   UNL     1       8.116  -0.765  -6.912  1.00  0.00     0.034 A 
ATOM     42  C   UNL     1       3.465   3.469  -9.950  1.00  0.00     0.034 A 
ATOM     43  C   UNL     1       8.009  -0.902  -8.340  1.00  0.00     0.049 A 
ATOM     44  C   UNL     1       4.346   2.562 -10.757  1.00  0.00     0.074 A 
ATOM     45  C   UNL     1       8.672  -1.787  -9.172  1.00  0.00     0.029 A 
ATOM     46  N   UNL     1       7.194  -0.127  -9.149  1.00  0.00    -0.354 N 
ATOM     47  N   UNL     1       5.191   1.652 -10.339  1.00  0.00    -0.248 NA
ATOM     48  C   UNL     1       4.265   2.687 -12.219  1.00  0.00     0.031 C 
ATOM     49  C   UNL     1       8.270  -1.535 -10.489  1.00  0.00     0.029 A 
ATOM     50  C   UNL     1       7.355  -0.495 -10.475  1.00  0.00     0.049 A 
ATOM     51  H   UNL     1       6.590   0.581  -8.829  1.00  0.00     0.167 HD
ATOM     52  C   UNL     1       5.743   1.093 -11.485  1.00  0.00     0.074 A 
ATOM     53  C   UNL     1       5.113   1.746 -12.615  1.00  0.00     0.031 C 
ATOM     54  C   UNL     1       6.702   0.142 -11.589  1.00  0.00     0.034 A 
BRANCH  41  55
ATOM     55  C   UNL     1       9.051  -1.690  -6.181  1.00  0.00     0.023 A 
ATOM     56  C   UNL     1       8.529  -2.836  -5.550  1.00  0.00     0.012 A 
ATOM     57  C   UNL     1      10.440  -1.459  -6.162  1.00  0.00     0.148 A 
ATOM     58  C   UNL     1       9.374  -3.733  -4.897  1.00  0.00     0.002 A 
ATOM     59  C   UNL     1      11.279  -2.370  -5.529  1.00  0.00     0.091 A 
ATOM     60  F   UNL     1      10.913  -0.347  -6.742  1.00  0.00    -0.205 F 
ATOM     61  C   UNL     1      10.748  -3.505  -4.894  1.00  0.00     0.022 A 
BRANCH  59  62
ATOM     62  S   UNL     1      13.065  -2.176  -5.518  1.00  0.00     0.127 S 
ATOM     63  O   UNL     1      13.293  -1.620  -4.185  1.00  0.00    -0.237 OA
ATOM     64  O   UNL     1      13.534  -3.552  -5.690  1.00  0.00    -0.237 OA
ATOM     65  O   UNL     1      13.372  -1.293  -6.634  1.00  0.00    -0.744 OA
ENDBRANCH  59  62
ENDBRANCH  41  55
BRANCH  42  66
ATOM     66  C   UNL     1       2.470   4.369 -10.600  1.00  0.00     0.023 A 
ATOM     67  C   UNL     1       1.330   3.813 -11.208  1.00  0.00     0.012 A 
ATOM     68  C   UNL     1       2.602   5.771 -10.540  1.00  0.00     0.148 A 
ATOM     69  C   UNL     1       0.337   4.638 -11.739  1.00  0.00     0.002 A 
ATOM     70  C   UNL     1       1.579   6.585 -11.009  1.00  0.00     0.091 A 
ATOM     71  F   UNL     1       3.713   6.286  -9.993  1.00  0.00    -0.205 F 
ATOM     72  C   UNL     1       0.450   6.022 -11.621  1.00  0.00     0.022 A 
BRANCH  70  73
ATOM     73  S   UNL     1       1.592   8.360 -10.726  1.00  0.00     0.127 S 
ATOM     74  O   UNL     1       2.132   8.863 -11.985  1.00  0.00    -0.237 OA
ATOM     75  O   UNL     1       0.176   8.654 -10.501  1.00  0.00    -0.237 OA
ATOM     76  O   UNL     1       2.428   8.546  -9.546  1.00  0.00    -0.744 OA
ENDBRANCH  70  73
ENDBRANCH  42  66
BRANCH  54  77
ATOM     77  C   UNL     1       7.148  -0.241 -12.973  1.00  0.00     0.023 A 
ATOM     78  C   UNL     1       8.025   0.614 -13.670  1.00  0.00     0.012 A 
ATOM     79  C   UNL     1       6.759  -1.461 -13.556  1.00  0.00     0.148 A 
ATOM     80  C   UNL     1       8.495   0.267 -14.935  1.00  0.00     0.002 A 
ATOM     81  C   UNL     1       7.259  -1.817 -14.803  1.00  0.00     0.091 A 
ATOM     82  F   UNL     1       5.903  -2.248 -12.886  1.00  0.00    -0.205 F 
ATOM     83  C   UNL     1       8.121  -0.952 -15.497  1.00  0.00     0.022 A 
BRANCH  81  84
ATOM     84  S   UNL     1       6.889  -3.404 -15.561  1.00  0.00     0.127 S 
ATOM     85  O   UNL     1       5.863  -3.038 -16.535  1.00  0.00    -0.237 OA
ATOM     86  O   UNL     1       8.177  -3.783 -16.146  1.00  0.00    -0.237 OA
ATOM     87  O   UNL     1       6.449  -4.267 -14.473  1.00  0.00    -0.744 OA
ENDBRANCH  81  84
ENDBRANCH  54  77
ENDBRANCH  28  29
ENDBRANCH  21  23
ENDBRANCH  20  21
ENDBRANCH   1  20
TORSDOF 18
