REMARK SMILES COc1cc(N[C@H]2C=C[C@@H](C(=O)OCCOC(=O)c3ccc(-c4c5nc(c(-c6cccc(S(=O)(=O)[O-])c6F)c6ccc([nH]6)c(-c6cccc(S(=O)(=O)[O-])c6F)c6nc(c(-c7cccc(S(=O)(=O)[O-])c7F)c7ccc4[nH]7)C=C6)C=C5)cc3)C2)c([N+](=O)[O-])cc1F
REMARK SMILES IDX 14 1 13 2 11 3 12 4 10 5 7 6 8 7 82 8 9 9 6 10 5 12 3 13
REMARK SMILES IDX 4 14 88 15 87 16 89 17 83 18 2 19 1 20 84 21 85 22 86 23
REMARK SMILES IDX 15 24 16 25 17 26 18 27 19 28 20 29 81 30 21 31 80 32 22 33
REMARK SMILES IDX 23 34 24 35 74 36 25 37 79 38 73 39 75 40 26 41 78 42 72 43
REMARK SMILES IDX 71 44 27 46 59 47 39 48 58 49 40 50 43 51 57 52 76 53 41 54
REMARK SMILES IDX 42 55 56 57 77 58 44 59 28 60 29 61 37 62 30 63 32 64 38 65
REMARK SMILES IDX 31 66 33 67 34 68 35 69 36 70 60 71 61 72 69 73 62 74 64 75
REMARK SMILES IDX 70 76 63 77 65 78 66 79 67 80 68 81 45 82 46 83 54 84 47 85
REMARK SMILES IDX 49 86 55 87 48 88 50 89 51 90 52 91 53 92
REMARK H PARENT 6 11 75 45 43 56
REMARK Flexibility Score: inf
ROOT
ATOM      1  C   UNL     1      -1.993  -0.346   0.239  1.00  0.00     0.274 C 
ENDROOT
BRANCH   1   2
ATOM      2  O   UNL     1      -2.210   1.070   0.394  1.00  0.00    -0.462 OA
BRANCH   2   3
ATOM      3  C   UNL     1      -3.046   1.677  -0.484  1.00  0.00     0.312 C 
ATOM      4  O   UNL     1      -3.540   1.125  -1.462  1.00  0.00    -0.252 OA
BRANCH   3   5
ATOM      5  C   UNL     1      -3.344   3.135  -0.125  1.00  0.00     0.124 C 
ATOM      6  C   UNL     1      -2.075   5.046   0.744  1.00  0.00     0.103 C 
ATOM      7  C   UNL     1      -2.200   5.099  -0.738  1.00  0.00    -0.006 C 
ATOM      8  C   UNL     1      -2.694   3.704   1.150  1.00  0.00     0.048 C 
ATOM      9  C   UNL     1      -2.893   4.061  -1.216  1.00  0.00    -0.014 C 
BRANCH   6  10
ATOM     10  N   UNL     1      -0.697   5.237   1.164  1.00  0.00    -0.373 N 
ATOM     11  H   UNL     1      -0.539   6.066   1.672  1.00  0.00     0.161 HD
BRANCH  10  12
ATOM     12  C   UNL     1       0.431   4.460   0.977  1.00  0.00     0.117 A 
ATOM     13  C   UNL     1       1.510   2.465   0.003  1.00  0.00     0.157 A 
ATOM     14  C   UNL     1       0.411   3.319   0.155  1.00  0.00     0.082 A 
ATOM     15  C   UNL     1       2.705   2.786   0.629  1.00  0.00     0.172 A 
ATOM     16  C   UNL     1       2.802   3.926   1.412  1.00  0.00     0.131 A 
ATOM     17  F   UNL     1       3.797   2.026   0.472  1.00  0.00    -0.203 F 
ATOM     18  C   UNL     1       1.677   4.756   1.588  1.00  0.00     0.295 A 
BRANCH  13  19
ATOM     19  O   UNL     1       1.310   1.385  -0.813  1.00  0.00    -0.494 OA
ATOM     20  C   UNL     1       1.874   0.173  -0.320  1.00  0.00     0.278 C 
ENDBRANCH  13  19
BRANCH  18  21
ATOM     21  N   UNL     1       1.864   5.955   2.428  1.00  0.00     0.065 N 
ATOM     22  O   UNL     1       0.870   6.623   2.751  1.00  0.00    -0.258 OA
ATOM     23  O   UNL     1       3.023   6.238   2.772  1.00  0.00    -0.258 OA
ENDBRANCH  18  21
ENDBRANCH  10  12
ENDBRANCH   6  10
ENDBRANCH   3   5
ENDBRANCH   2   3
ENDBRANCH   1   2
BRANCH   1  24
ATOM     24  C   UNL     1      -2.264  -1.056   1.568  1.00  0.00     0.275 C 
BRANCH  24  25
ATOM     25  O   UNL     1      -3.671  -1.033   1.866  1.00  0.00    -0.458 OA
BRANCH  25  26
ATOM     26  C   UNL     1      -4.093   0.069   2.530  1.00  0.00     0.338 C 
ATOM     27  O   UNL     1      -3.410   0.959   3.006  1.00  0.00    -0.246 OA
BRANCH  26  28
ATOM     28  C   UNL     1      -5.555   0.154   2.421  1.00  0.00     0.060 A 
ATOM     29  C   UNL     1      -6.081   1.256   1.743  1.00  0.00     0.016 A 
ATOM     30  C   UNL     1      -6.395  -0.789   3.007  1.00  0.00     0.016 A 
ATOM     31  C   UNL     1      -7.453   1.435   1.654  1.00  0.00     0.010 A 
ATOM     32  C   UNL     1      -7.778  -0.611   2.917  1.00  0.00     0.010 A 
ATOM     33  C   UNL     1      -8.311   0.509   2.254  1.00  0.00    -0.014 A 
BRANCH  33  34
ATOM     34  C   UNL     1      -9.770   0.756   2.240  1.00  0.00     0.031 A 
ATOM     35  C   UNL     1     -10.457   1.167   3.508  1.00  0.00     0.074 A 
ATOM     36  C   UNL     1     -10.458   0.624   1.092  1.00  0.00     0.049 A 
ATOM     37  N   UNL     1     -11.732   1.336   3.736  1.00  0.00    -0.248 NA
ATOM     38  C   UNL     1      -9.598   1.419   4.678  1.00  0.00     0.031 C 
ATOM     39  C   UNL     1      -9.876   0.266  -0.203  1.00  0.00     0.029 A 
ATOM     40  N   UNL     1     -11.797   0.760   0.831  1.00  0.00    -0.354 N 
ATOM     41  C   UNL     1     -11.835   1.666   5.081  1.00  0.00     0.074 A 
ATOM     42  C   UNL     1     -10.493   1.679   5.621  1.00  0.00     0.031 C 
ATOM     43  C   UNL     1     -10.855   0.197  -1.119  1.00  0.00     0.029 A 
ATOM     44  C   UNL     1     -12.135   0.458  -0.468  1.00  0.00     0.049 A 
ATOM     45  H   UNL     1     -12.453   1.047   1.507  1.00  0.00     0.167 HD
ATOM     46  C   UNL     1     -12.951   1.942   5.793  1.00  0.00     0.034 A 
ATOM     47  C   UNL     1     -13.345   0.370  -1.056  1.00  0.00     0.034 A 
ATOM     48  C   UNL     1     -14.272   1.968   5.229  1.00  0.00     0.049 A 
ATOM     49  C   UNL     1     -14.570   0.667  -0.234  1.00  0.00     0.074 A 
ATOM     50  C   UNL     1     -15.467   2.265   5.858  1.00  0.00     0.029 A 
ATOM     51  N   UNL     1     -14.572   1.690   3.904  1.00  0.00    -0.354 N 
ATOM     52  N   UNL     1     -14.649   1.036   1.022  1.00  0.00    -0.248 NA
ATOM     53  C   UNL     1     -15.871   0.556  -0.910  1.00  0.00     0.031 C 
ATOM     54  C   UNL     1     -16.494   2.148   4.917  1.00  0.00     0.029 A 
ATOM     55  C   UNL     1     -15.935   1.804   3.695  1.00  0.00     0.049 A 
ATOM     56  H   UNL     1     -13.914   1.448   3.214  1.00  0.00     0.167 HD
ATOM     57  C   UNL     1     -16.000   1.228   1.281  1.00  0.00     0.074 A 
ATOM     58  C   UNL     1     -16.704   0.954   0.044  1.00  0.00     0.031 C 
ATOM     59  C   UNL     1     -16.607   1.581   2.440  1.00  0.00     0.034 A 
BRANCH  46  60
ATOM     60  C   UNL     1     -12.800   2.264   7.255  1.00  0.00     0.023 A 
ATOM     61  C   UNL     1     -12.300   3.522   7.644  1.00  0.00     0.012 A 
ATOM     62  C   UNL     1     -13.241   1.358   8.240  1.00  0.00     0.148 A 
ATOM     63  C   UNL     1     -12.228   3.869   8.993  1.00  0.00     0.002 A 
ATOM     64  C   UNL     1     -13.206   1.727   9.579  1.00  0.00     0.091 A 
ATOM     65  F   UNL     1     -13.693   0.158   7.847  1.00  0.00    -0.205 F 
ATOM     66  C   UNL     1     -12.692   2.979   9.958  1.00  0.00     0.022 A 
BRANCH  64  67
ATOM     67  S   UNL     1     -13.851   0.685  10.893  1.00  0.00     0.127 S 
ATOM     68  O   UNL     1     -12.632   0.350  11.628  1.00  0.00    -0.237 OA
ATOM     69  O   UNL     1     -14.753   1.599  11.593  1.00  0.00    -0.237 OA
ATOM     70  O   UNL     1     -14.505  -0.437  10.234  1.00  0.00    -0.744 OA
ENDBRANCH  64  67
ENDBRANCH  46  60
BRANCH  47  71
ATOM     71  C   UNL     1     -13.441   0.016  -2.501  1.00  0.00     0.023 A 
ATOM     72  C   UNL     1     -13.859   0.991  -3.426  1.00  0.00     0.012 A 
ATOM     73  C   UNL     1     -13.063  -1.258  -2.970  1.00  0.00     0.148 A 
ATOM     74  C   UNL     1     -13.914   0.699  -4.790  1.00  0.00     0.002 A 
ATOM     75  C   UNL     1     -13.064  -1.523  -4.335  1.00  0.00     0.091 A 
ATOM     76  F   UNL     1     -12.688  -2.181  -2.072  1.00  0.00    -0.205 F 
ATOM     77  C   UNL     1     -13.504  -0.551  -5.245  1.00  0.00     0.022 A 
BRANCH  75  78
ATOM     78  S   UNL     1     -12.417  -3.054  -5.018  1.00  0.00     0.127 S 
ATOM     79  O   UNL     1     -13.637  -3.723  -5.463  1.00  0.00    -0.237 OA
ATOM     80  O   UNL     1     -11.554  -2.565  -6.094  1.00  0.00    -0.237 OA
ATOM     81  O   UNL     1     -11.703  -3.700  -3.925  1.00  0.00    -0.744 OA
ENDBRANCH  75  78
ENDBRANCH  47  71
BRANCH  59  82
ATOM     82  C   UNL     1     -18.105   1.721   2.438  1.00  0.00     0.023 A 
ATOM     83  C   UNL     1     -18.911   0.567   2.426  1.00  0.00     0.012 A 
ATOM     84  C   UNL     1     -18.706   2.988   2.580  1.00  0.00     0.148 A 
ATOM     85  C   UNL     1     -20.297   0.672   2.538  1.00  0.00     0.002 A 
ATOM     86  C   UNL     1     -20.082   3.081   2.740  1.00  0.00     0.091 A 
ATOM     87  F   UNL     1     -17.918   4.073   2.573  1.00  0.00    -0.205 F 
ATOM     88  C   UNL     1     -20.880   1.925   2.711  1.00  0.00     0.022 A 
BRANCH  86  89
ATOM     89  S   UNL     1     -20.910   4.640   3.076  1.00  0.00     0.127 S 
ATOM     90  O   UNL     1     -21.615   4.879   1.818  1.00  0.00    -0.237 OA
ATOM     91  O   UNL     1     -21.774   4.296   4.205  1.00  0.00    -0.237 OA
ATOM     92  O   UNL     1     -19.855   5.595   3.390  1.00  0.00    -0.744 OA
ENDBRANCH  86  89
ENDBRANCH  59  82
ENDBRANCH  33  34
ENDBRANCH  26  28
ENDBRANCH  25  26
ENDBRANCH  24  25
ENDBRANCH   1  24
TORSDOF 18
