REMARK SMILES C#CC[N@@H+](CC(=O)OCCOC(=O)c1ccc(-c2c3nc(c(-c4cccc(S(=O)(=O)[O-])c4F)c4ccc([nH]4)c(-c4cccc(S(=O)(=O)[O-])c4F)c4nc(c(-c5cccc(S(=O)(=O)[O-])c5F)c5ccc2[nH]5)C=C4)C=C3)cc1)Cc1cccc2ccccc12
REMARK SMILES IDX 9 1 8 2 6 3 7 4 5 5 4 6 3 8 2 9 1 10 77 11 78 12 79 13 87 14
REMARK SMILES IDX 80 15 82 16 86 17 81 18 83 19 85 20 84 21 10 22 11 23 12 24
REMARK SMILES IDX 13 25 14 26 15 27 76 28 16 29 75 30 17 31 18 32 19 33 69 34
REMARK SMILES IDX 20 35 74 36 68 37 70 38 21 39 73 40 67 41 66 42 22 44 54 45
REMARK SMILES IDX 34 46 53 47 35 48 38 49 52 50 71 51 36 52 37 53 51 55 72 56
REMARK SMILES IDX 39 57 23 58 24 59 32 60 25 61 27 62 33 63 26 64 28 65 29 66
REMARK SMILES IDX 30 67 31 68 55 69 56 70 64 71 57 72 59 73 65 74 58 75 60 76
REMARK SMILES IDX 61 77 62 78 63 79 40 80 41 81 49 82 42 83 44 84 50 85 43 86
REMARK SMILES IDX 45 87 46 88 47 89 48 90
REMARK H PARENT 4 7 70 43 38 54
REMARK Flexibility Score: inf
ROOT
ATOM      1  C   UNL     1      -5.639  -2.363   0.132  1.00  0.00     0.274 C 
ENDROOT
BRANCH   1   2
ATOM      2  O   UNL     1      -4.609  -1.592   0.763  1.00  0.00    -0.458 OA
BRANCH   2   3
ATOM      3  C   UNL     1      -4.675  -0.247   0.596  1.00  0.00     0.361 C 
ATOM      4  O   UNL     1      -5.381   0.333  -0.220  1.00  0.00    -0.245 OA
BRANCH   3   5
ATOM      5  C   UNL     1      -3.724   0.466   1.547  1.00  0.00     0.387 C 
BRANCH   5   6
ATOM      6  N   UNL     1      -2.336   0.077   1.377  1.00  0.00    -0.312 N 
ATOM      7  H   UNL     1      -1.786   0.868   1.715  1.00  0.00     0.349 HD
BRANCH   6   8
ATOM      8  C   UNL     1      -1.920   0.026  -0.004  1.00  0.00     0.354 C 
BRANCH   8   9
ATOM      9  C   UNL     1      -0.400   0.026  -0.004  1.00  0.00    -0.047 C 
ATOM     10  C   UNL     1       0.904   0.026  -0.004  1.00  0.00     0.010 C 
ENDBRANCH   8   9
ENDBRANCH   6   8
BRANCH   6  11
ATOM     11  C   UNL     1      -1.677  -0.728   2.413  1.00  0.00     0.300 C 
BRANCH  11  12
ATOM     12  C   UNL     1      -1.999  -2.207   2.625  1.00  0.00     0.014 A 
ATOM     13  C   UNL     1      -3.114  -2.487   3.429  1.00  0.00     0.010 A 
ATOM     14  C   UNL     1      -1.138  -3.298   2.273  1.00  0.00    -0.010 A 
ATOM     15  C   UNL     1      -3.402  -3.773   3.876  1.00  0.00     0.001 A 
ATOM     16  C   UNL     1      -1.428  -4.601   2.773  1.00  0.00    -0.018 A 
ATOM     17  C   UNL     1       0.034  -3.188   1.494  1.00  0.00     0.009 A 
ATOM     18  C   UNL     1      -2.560  -4.822   3.555  1.00  0.00     0.009 A 
ATOM     19  C   UNL     1      -0.568  -5.684   2.526  1.00  0.00     0.009 A 
ATOM     20  C   UNL     1       0.878  -4.276   1.237  1.00  0.00     0.001 A 
ATOM     21  C   UNL     1       0.584  -5.523   1.765  1.00  0.00     0.001 A 
ENDBRANCH  11  12
ENDBRANCH   6  11
ENDBRANCH   5   6
ENDBRANCH   3   5
ENDBRANCH   2   3
ENDBRANCH   1   2
BRANCH   1  22
ATOM     22  C   UNL     1      -6.093  -3.451   1.113  1.00  0.00     0.275 C 
BRANCH  22  23
ATOM     23  O   UNL     1      -6.208  -3.016   2.486  1.00  0.00    -0.458 OA
BRANCH  23  24
ATOM     24  C   UNL     1      -6.872  -1.864   2.730  1.00  0.00     0.338 C 
ATOM     25  O   UNL     1      -7.567  -1.243   1.945  1.00  0.00    -0.246 OA
BRANCH  24  26
ATOM     26  C   UNL     1      -6.409  -1.329   4.029  1.00  0.00     0.060 A 
ATOM     27  C   UNL     1      -6.028   0.016   4.082  1.00  0.00     0.016 A 
ATOM     28  C   UNL     1      -6.306  -2.128   5.173  1.00  0.00     0.016 A 
ATOM     29  C   UNL     1      -5.532   0.563   5.266  1.00  0.00     0.010 A 
ATOM     30  C   UNL     1      -5.900  -1.560   6.387  1.00  0.00     0.010 A 
ATOM     31  C   UNL     1      -5.571  -0.196   6.451  1.00  0.00    -0.014 A 
BRANCH  31  32
ATOM     32  C   UNL     1      -5.753   0.543   7.731  1.00  0.00     0.031 A 
ATOM     33  C   UNL     1      -4.754   0.580   8.844  1.00  0.00     0.074 A 
ATOM     34  C   UNL     1      -6.945   1.163   7.861  1.00  0.00     0.049 A 
ATOM     35  N   UNL     1      -4.829   1.235   9.975  1.00  0.00    -0.248 NA
ATOM     36  C   UNL     1      -3.532  -0.221   8.693  1.00  0.00     0.031 C 
ATOM     37  C   UNL     1      -8.024   1.108   6.866  1.00  0.00     0.029 A 
ATOM     38  N   UNL     1      -7.458   1.957   8.850  1.00  0.00    -0.354 N 
ATOM     39  C   UNL     1      -3.686   0.907  10.692  1.00  0.00     0.074 A 
ATOM     40  C   UNL     1      -2.926  -0.005   9.858  1.00  0.00     0.031 C 
ATOM     41  C   UNL     1      -9.041   1.876   7.263  1.00  0.00     0.029 A 
ATOM     42  C   UNL     1      -8.721   2.426   8.569  1.00  0.00     0.049 A 
ATOM     43  H   UNL     1      -6.973   2.171   9.679  1.00  0.00     0.167 HD
ATOM     44  C   UNL     1      -3.317   1.333  11.927  1.00  0.00     0.034 A 
ATOM     45  C   UNL     1      -9.548   3.211   9.279  1.00  0.00     0.034 A 
ATOM     46  C   UNL     1      -4.091   2.248  12.735  1.00  0.00     0.049 A 
ATOM     47  C   UNL     1      -9.072   3.727  10.597  1.00  0.00     0.074 A 
ATOM     48  C   UNL     1      -3.781   2.776  13.978  1.00  0.00     0.029 A 
ATOM     49  N   UNL     1      -5.332   2.766  12.388  1.00  0.00    -0.354 N 
ATOM     50  N   UNL     1      -7.927   3.510  11.195  1.00  0.00    -0.248 NA
ATOM     51  C   UNL     1      -9.982   4.618  11.322  1.00  0.00     0.031 C 
ATOM     52  C   UNL     1      -4.838   3.599  14.386  1.00  0.00     0.029 A 
ATOM     53  C   UNL     1      -5.801   3.603  13.391  1.00  0.00     0.049 A 
ATOM     54  H   UNL     1      -5.811   2.568  11.550  1.00  0.00     0.167 HD
ATOM     55  C   UNL     1      -7.971   4.247  12.368  1.00  0.00     0.074 A 
ATOM     56  C   UNL     1      -9.241   4.949  12.370  1.00  0.00     0.031 C 
ATOM     57  C   UNL     1      -7.055   4.314  13.364  1.00  0.00     0.034 A 
BRANCH  44  58
ATOM     58  C   UNL     1      -1.998   0.850  12.482  1.00  0.00     0.023 A 
ATOM     59  C   UNL     1      -0.796   1.383  11.972  1.00  0.00     0.012 A 
ATOM     60  C   UNL     1      -1.943  -0.049  13.567  1.00  0.00     0.148 A 
ATOM     61  C   UNL     1       0.435   1.012  12.513  1.00  0.00     0.002 A 
ATOM     62  C   UNL     1      -0.713  -0.388  14.125  1.00  0.00     0.091 A 
ATOM     63  F   UNL     1      -3.092  -0.559  14.034  1.00  0.00    -0.205 F 
ATOM     64  C   UNL     1       0.477   0.136  13.594  1.00  0.00     0.022 A 
BRANCH  62  65
ATOM     65  S   UNL     1      -0.561  -1.454  15.565  1.00  0.00     0.127 S 
ATOM     66  O   UNL     1      -0.076  -2.695  14.964  1.00  0.00    -0.237 OA
ATOM     67  O   UNL     1       0.428  -0.744  16.377  1.00  0.00    -0.237 OA
ATOM     68  O   UNL     1      -1.891  -1.519  16.154  1.00  0.00    -0.744 OA
ENDBRANCH  62  65
ENDBRANCH  44  58
BRANCH  45  69
ATOM     69  C   UNL     1     -10.860   3.598   8.695  1.00  0.00     0.023 A 
ATOM     70  C   UNL     1     -11.053   4.919   8.251  1.00  0.00     0.012 A 
ATOM     71  C   UNL     1     -11.869   2.640   8.468  1.00  0.00     0.148 A 
ATOM     72  C   UNL     1     -12.234   5.284   7.605  1.00  0.00     0.002 A 
ATOM     73  C   UNL     1     -13.013   2.994   7.765  1.00  0.00     0.091 A 
ATOM     74  F   UNL     1     -11.669   1.388   8.904  1.00  0.00    -0.205 F 
ATOM     75  C   UNL     1     -13.206   4.319   7.347  1.00  0.00     0.022 A 
BRANCH  73  76
ATOM     76  S   UNL     1     -14.218   1.768   7.243  1.00  0.00     0.127 S 
ATOM     77  O   UNL     1     -15.270   1.937   8.242  1.00  0.00    -0.237 OA
ATOM     78  O   UNL     1     -14.566   2.226   5.897  1.00  0.00    -0.237 OA
ATOM     79  O   UNL     1     -13.507   0.496   7.271  1.00  0.00    -0.744 OA
ENDBRANCH  73  76
ENDBRANCH  45  69
BRANCH  57  80
ATOM     80  C   UNL     1      -7.411   5.184  14.540  1.00  0.00     0.023 A 
ATOM     81  C   UNL     1      -8.406   4.758  15.443  1.00  0.00     0.012 A 
ATOM     82  C   UNL     1      -6.766   6.416  14.751  1.00  0.00     0.148 A 
ATOM     83  C   UNL     1      -8.784   5.565  16.514  1.00  0.00     0.002 A 
ATOM     84  C   UNL     1      -7.117   7.196  15.847  1.00  0.00     0.091 A 
ATOM     85  F   UNL     1      -5.844   6.820  13.865  1.00  0.00    -0.205 F 
ATOM     86  C   UNL     1      -8.134   6.779  16.721  1.00  0.00     0.022 A 
BRANCH  84  87
ATOM     87  S   UNL     1      -6.268   8.732  16.225  1.00  0.00     0.127 S 
ATOM     88  O   UNL     1      -7.182   9.726  15.665  1.00  0.00    -0.237 OA
ATOM     89  O   UNL     1      -6.213   8.712  17.688  1.00  0.00    -0.237 OA
ATOM     90  O   UNL     1      -4.968   8.630  15.577  1.00  0.00    -0.744 OA
ENDBRANCH  84  87
ENDBRANCH  57  80
ENDBRANCH  31  32
ENDBRANCH  24  26
ENDBRANCH  23  24
ENDBRANCH  22  23
ENDBRANCH   1  22
TORSDOF 19
