REMARK SMILES Cc1cc(=O)c(Oc2ccc(C(=O)OCCOC(=O)c3ccc(-c4c5nc(c(-c6cccc(S(=O)(=O)[O-])c6F)c6ccc([nH]6)c(-c6cccc(S(=O)(=O)[O-])c6F)c6nc(c(-c7cccc(S(=O)(=O)[O-])c7F)c7ccc4[nH]7)C=C6)C=C5)cc3)cc2)c(-c2ccc(S(C)(=O)=O)cc2)o1
REMARK SMILES IDX 15 1 14 2 12 3 13 4 11 5 8 6 9 7 84 8 10 9 83 10 7 11 6 12
REMARK SMILES IDX 1 13 2 14 3 15 96 16 4 17 85 18 5 19 86 20 87 21 95 22 88 23
REMARK SMILES IDX 94 24 89 25 90 26 91 27 92 28 93 29 16 30 17 31 18 32 19 33
REMARK SMILES IDX 20 34 21 35 82 36 22 37 81 38 23 39 24 40 25 41 75 42 26 43
REMARK SMILES IDX 80 44 74 45 76 46 27 47 79 48 73 49 72 50 28 52 60 53 40 54
REMARK SMILES IDX 59 55 41 56 44 57 58 58 77 59 42 60 43 61 57 63 78 64 45 65
REMARK SMILES IDX 29 66 30 67 38 68 31 69 33 70 39 71 32 72 34 73 35 74 36 75
REMARK SMILES IDX 37 76 61 77 62 78 70 79 63 80 65 81 71 82 64 83 66 84 67 85
REMARK SMILES IDX 68 86 69 87 46 88 47 89 55 90 48 91 50 92 56 93 49 94 51 95
REMARK SMILES IDX 52 96 53 97 54 98
REMARK H PARENT 76 51 44 62
REMARK Flexibility Score: inf
ROOT
ATOM      1  C   UNL     1       3.093  11.788   1.139  1.00  0.00     0.275 C 
ENDROOT
BRANCH   1   2
ATOM      2  O   UNL     1       2.006  10.841   1.161  1.00  0.00    -0.458 OA
BRANCH   2   3
ATOM      3  C   UNL     1       1.493  10.475  -0.043  1.00  0.00     0.338 C 
ATOM      4  O   UNL     1       1.745  10.996  -1.119  1.00  0.00    -0.246 OA
BRANCH   3   5
ATOM      5  C   UNL     1       0.690   9.227   0.096  1.00  0.00     0.060 A 
ATOM      6  C   UNL     1      -0.456   6.690   0.351  1.00  0.00     0.127 A 
ATOM      7  C   UNL     1       0.010   7.104  -0.892  1.00  0.00     0.048 A 
ATOM      8  C   UNL     1      -0.453   7.574   1.434  1.00  0.00     0.048 A 
ATOM      9  C   UNL     1       0.562   8.385  -1.021  1.00  0.00     0.019 A 
ATOM     10  C   UNL     1       0.144   8.830   1.320  1.00  0.00     0.019 A 
BRANCH   6  11
ATOM     11  O   UNL     1      -1.036   5.472   0.572  1.00  0.00    -0.449 OA
BRANCH  11  12
ATOM     12  C   UNL     1      -0.421   4.275   0.241  1.00  0.00     0.217 A 
ATOM     13  C   UNL     1       1.056   0.234  -0.137  1.00  0.00     0.088 C 
ATOM     14  C   UNL     1       0.437   1.596  -0.090  1.00  0.00     0.105 A 
ATOM     15  C   UNL     1      -0.878   1.800  -0.184  1.00  0.00     0.098 A 
ATOM     16  O   UNL     1       1.334   2.629   0.063  1.00  0.00    -0.457 OA
ATOM     17  C   UNL     1      -1.391   3.174  -0.067  1.00  0.00     0.228 A 
ATOM     18  C   UNL     1       0.888   3.927   0.305  1.00  0.00     0.180 A 
ATOM     19  O   UNL     1      -2.600   3.373  -0.168  1.00  0.00    -0.285 OA
BRANCH  18  20
ATOM     20  C   UNL     1       2.038   4.759   0.719  1.00  0.00     0.021 A 
ATOM     21  C   UNL     1       3.191   4.793  -0.087  1.00  0.00     0.013 A 
ATOM     22  C   UNL     1       2.091   5.349   1.987  1.00  0.00     0.013 A 
ATOM     23  C   UNL     1       4.379   5.373   0.373  1.00  0.00     0.021 A 
ATOM     24  C   UNL     1       3.270   5.945   2.448  1.00  0.00     0.021 A 
ATOM     25  C   UNL     1       4.420   5.933   1.651  1.00  0.00     0.067 A 
BRANCH  25  26
ATOM     26  S   UNL     1       5.944   6.540   2.343  1.00  0.00     0.175 S 
ATOM     27  C   UNL     1       7.203   5.430   1.782  1.00  0.00     0.163 C 
ATOM     28  O   UNL     1       6.237   7.842   1.777  1.00  0.00    -0.224 OA
ATOM     29  O   UNL     1       5.858   6.375   3.785  1.00  0.00    -0.224 OA
ENDBRANCH  25  26
ENDBRANCH  18  20
ENDBRANCH  11  12
ENDBRANCH   6  11
ENDBRANCH   3   5
ENDBRANCH   2   3
ENDBRANCH   1   2
BRANCH   1  30
ATOM     30  C   UNL     1       4.458  11.104   1.309  1.00  0.00     0.275 C 
BRANCH  30  31
ATOM     31  O   UNL     1       4.926  10.457   0.110  1.00  0.00    -0.458 OA
BRANCH  31  32
ATOM     32  C   UNL     1       4.455   9.199  -0.052  1.00  0.00     0.338 C 
ATOM     33  O   UNL     1       3.624   8.639   0.643  1.00  0.00    -0.246 OA
BRANCH  32  34
ATOM     34  C   UNL     1       5.022   8.550  -1.246  1.00  0.00     0.060 A 
ATOM     35  C   UNL     1       6.399   8.386  -1.422  1.00  0.00     0.016 A 
ATOM     36  C   UNL     1       4.123   7.971  -2.142  1.00  0.00     0.016 A 
ATOM     37  C   UNL     1       6.870   7.662  -2.523  1.00  0.00     0.010 A 
ATOM     38  C   UNL     1       4.587   7.245  -3.229  1.00  0.00     0.010 A 
ATOM     39  C   UNL     1       5.965   7.111  -3.442  1.00  0.00    -0.014 A 
BRANCH  39  40
ATOM     40  C   UNL     1       6.415   6.519  -4.721  1.00  0.00     0.031 A 
ATOM     41  C   UNL     1       6.256   7.337  -5.972  1.00  0.00     0.074 A 
ATOM     42  C   UNL     1       6.857   5.251  -4.781  1.00  0.00     0.049 A 
ATOM     43  N   UNL     1       6.494   7.005  -7.212  1.00  0.00    -0.248 NA
ATOM     44  C   UNL     1       5.725   8.702  -5.804  1.00  0.00     0.031 C 
ATOM     45  C   UNL     1       6.983   4.343  -3.641  1.00  0.00     0.029 A 
ATOM     46  N   UNL     1       7.257   4.499  -5.856  1.00  0.00    -0.354 N 
ATOM     47  C   UNL     1       6.095   8.096  -7.973  1.00  0.00     0.074 A 
ATOM     48  C   UNL     1       5.589   9.096  -7.061  1.00  0.00     0.031 C 
ATOM     49  C   UNL     1       7.433   3.154  -4.079  1.00  0.00     0.029 A 
ATOM     50  C   UNL     1       7.616   3.214  -5.528  1.00  0.00     0.049 A 
ATOM     51  H   UNL     1       7.283   4.847  -6.777  1.00  0.00     0.167 HD
ATOM     52  C   UNL     1       6.168   8.262  -9.313  1.00  0.00     0.034 A 
ATOM     53  C   UNL     1       8.053   2.206  -6.310  1.00  0.00     0.034 A 
ATOM     54  C   UNL     1       6.735   7.295 -10.206  1.00  0.00     0.049 A 
ATOM     55  C   UNL     1       8.221   2.446  -7.788  1.00  0.00     0.074 A 
ATOM     56  C   UNL     1       6.946   7.401 -11.568  1.00  0.00     0.029 A 
ATOM     57  N   UNL     1       7.188   6.043  -9.821  1.00  0.00    -0.354 N 
ATOM     58  N   UNL     1       7.961   3.530  -8.478  1.00  0.00    -0.248 NA
ATOM     59  C   UNL     1       8.771   1.342  -8.589  1.00  0.00     0.031 C 
ATOM     60  C   UNL     1       7.534   6.211 -12.007  1.00  0.00     0.029 A 
ATOM     61  C   UNL     1       7.690   5.368 -10.916  1.00  0.00     0.049 A 
ATOM     62  H   UNL     1       7.157   5.688  -8.903  1.00  0.00     0.167 HD
ATOM     63  C   UNL     1       8.336   3.252  -9.787  1.00  0.00     0.074 A 
ATOM     64  C   UNL     1       8.853   1.898  -9.793  1.00  0.00     0.031 C 
ATOM     65  C   UNL     1       8.249   4.040 -10.885  1.00  0.00     0.034 A 
BRANCH  52  66
ATOM     66  C   UNL     1       5.674   9.564  -9.877  1.00  0.00     0.023 A 
ATOM     67  C   UNL     1       6.463  10.723  -9.729  1.00  0.00     0.012 A 
ATOM     68  C   UNL     1       4.453   9.637 -10.572  1.00  0.00     0.148 A 
ATOM     69  C   UNL     1       6.028  11.945 -10.239  1.00  0.00     0.002 A 
ATOM     70  C   UNL     1       4.042  10.852 -11.108  1.00  0.00     0.091 A 
ATOM     71  F   UNL     1       3.713   8.525 -10.683  1.00  0.00    -0.205 F 
ATOM     72  C   UNL     1       4.823  12.008 -10.934  1.00  0.00     0.022 A 
BRANCH  70  73
ATOM     73  S   UNL     1       2.533  11.035 -12.064  1.00  0.00     0.127 S 
ATOM     74  O   UNL     1       1.738  11.905 -11.199  1.00  0.00    -0.237 OA
ATOM     75  O   UNL     1       3.023  11.673 -13.286  1.00  0.00    -0.237 OA
ATOM     76  O   UNL     1       2.004   9.690 -12.246  1.00  0.00    -0.744 OA
ENDBRANCH  70  73
ENDBRANCH  52  66
BRANCH  53  77
ATOM     77  C   UNL     1       8.462   0.921  -5.680  1.00  0.00     0.023 A 
ATOM     78  C   UNL     1       9.833   0.659  -5.496  1.00  0.00     0.012 A 
ATOM     79  C   UNL     1       7.512   0.008  -5.183  1.00  0.00     0.148 A 
ATOM     80  C   UNL     1      10.254  -0.493  -4.832  1.00  0.00     0.002 A 
ATOM     81  C   UNL     1       7.937  -1.120  -4.489  1.00  0.00     0.091 A 
ATOM     82  F   UNL     1       6.213   0.284  -5.366  1.00  0.00    -0.205 F 
ATOM     83  C   UNL     1       9.307  -1.377  -4.321  1.00  0.00     0.022 A 
BRANCH  81  84
ATOM     84  S   UNL     1       6.799  -2.263  -3.698  1.00  0.00     0.127 S 
ATOM     85  O   UNL     1       7.137  -3.525  -4.351  1.00  0.00    -0.237 OA
ATOM     86  O   UNL     1       7.210  -2.164  -2.297  1.00  0.00    -0.237 OA
ATOM     87  O   UNL     1       5.464  -1.755  -3.978  1.00  0.00    -0.744 OA
ENDBRANCH  81  84
ENDBRANCH  53  77
BRANCH  65  88
ATOM     88  C   UNL     1       8.732   3.489 -12.197  1.00  0.00     0.023 A 
ATOM     89  C   UNL     1       7.895   2.632 -12.934  1.00  0.00     0.012 A 
ATOM     90  C   UNL     1       9.938   3.946 -12.764  1.00  0.00     0.148 A 
ATOM     91  C   UNL     1       8.252   2.235 -14.222  1.00  0.00     0.002 A 
ATOM     92  C   UNL     1      10.270   3.574 -14.060  1.00  0.00     0.091 A 
ATOM     93  F   UNL     1      10.723   4.752 -12.033  1.00  0.00    -0.205 F 
ATOM     94  C   UNL     1       9.430   2.716 -14.790  1.00  0.00     0.022 A 
BRANCH  92  95
ATOM     95  S   UNL     1      11.721   4.217 -14.903  1.00  0.00     0.127 S 
ATOM     96  O   UNL     1      12.596   3.046 -14.923  1.00  0.00    -0.237 OA
ATOM     97  O   UNL     1      11.180   4.597 -16.209  1.00  0.00    -0.237 OA
ATOM     98  O   UNL     1      12.192   5.334 -14.096  1.00  0.00    -0.744 OA
ENDBRANCH  92  95
ENDBRANCH  65  88
ENDBRANCH  39  40
ENDBRANCH  32  34
ENDBRANCH  31  32
ENDBRANCH  30  31
ENDBRANCH   1  30
TORSDOF 18
