REMARK SMILES O=C(OCCOC(=O)c1cc2n[nH]cc2cc1[N+](=O)[O-])c1ccc(-c2c3nc(c(-c4cccc(S(=O)(=O)[O-])c4F)c4ccc([nH]4)c(-c4cccc(S(=O)(=O)[O-])c4F)c4nc(c(-c5cccc(S(=O)(=O)[O-])c5F)c5ccc2[nH]5)C=C4)C=C3)cc1
REMARK SMILES IDX 4 1 3 2 2 3 1 4 21 5 22 6 83 7 23 8 82 9 24 10 25 11 26 12
REMARK SMILES IDX 76 13 27 14 81 15 75 16 77 17 28 18 80 19 74 20 73 21 29 23
REMARK SMILES IDX 61 24 41 25 60 26 42 27 45 28 59 29 78 30 43 31 44 32 58 34
REMARK SMILES IDX 79 35 46 36 30 37 31 38 39 39 32 40 34 41 40 42 33 43 35 44
REMARK SMILES IDX 36 45 37 46 38 47 62 48 63 49 71 50 64 51 66 52 72 53 65 54
REMARK SMILES IDX 67 55 68 56 69 57 70 58 47 59 48 60 56 61 49 62 51 63 57 64
REMARK SMILES IDX 50 65 52 66 53 67 54 68 55 69 5 70 6 71 7 72 8 73 9 74 10 75
REMARK SMILES IDX 17 76 11 77 16 78 12 79 15 80 13 81 14 82 18 84 19 85 20 86
REMARK H PARENT 77 22 45 33 13 83
REMARK Flexibility Score: inf
ROOT
ATOM      1  C   UNL     1       4.183  -1.282  -0.804  1.00  0.00     0.275 C 
ENDROOT
BRANCH   1   2
ATOM      2  O   UNL     1       3.132  -1.181   0.174  1.00  0.00    -0.458 OA
BRANCH   2   3
ATOM      3  C   UNL     1       2.857  -0.203   1.071  1.00  0.00     0.338 C 
ATOM      4  O   UNL     1       1.892  -0.365   1.817  1.00  0.00    -0.246 OA
BRANCH   3   5
ATOM      5  C   UNL     1       3.593   1.102   1.162  1.00  0.00     0.060 A 
ATOM      6  C   UNL     1       4.894   1.348   0.715  1.00  0.00     0.016 A 
ATOM      7  C   UNL     1       2.893   2.174   1.747  1.00  0.00     0.016 A 
ATOM      8  C   UNL     1       5.453   2.627   0.773  1.00  0.00     0.010 A 
ATOM      9  C   UNL     1       3.446   3.457   1.810  1.00  0.00     0.010 A 
ATOM     10  C   UNL     1       4.737   3.685   1.325  1.00  0.00    -0.014 A 
BRANCH  10  11
ATOM     11  C   UNL     1       5.422   4.972   1.562  1.00  0.00     0.031 A 
ATOM     12  C   UNL     1       5.934   5.248   2.940  1.00  0.00     0.074 A 
ATOM     13  C   UNL     1       5.636   5.845   0.562  1.00  0.00     0.049 A 
ATOM     14  N   UNL     1       6.647   6.254   3.362  1.00  0.00    -0.248 NA
ATOM     15  C   UNL     1       5.643   4.234   3.968  1.00  0.00     0.031 C 
ATOM     16  C   UNL     1       5.278   5.620  -0.834  1.00  0.00     0.029 A 
ATOM     17  N   UNL     1       6.192   7.096   0.560  1.00  0.00    -0.354 N 
ATOM     18  C   UNL     1       6.907   5.987   4.697  1.00  0.00     0.074 A 
ATOM     19  C   UNL     1       6.235   4.752   5.030  1.00  0.00     0.031 C 
ATOM     20  C   UNL     1       5.537   6.728  -1.547  1.00  0.00     0.029 A 
ATOM     21  C   UNL     1       6.116   7.729  -0.659  1.00  0.00     0.049 A 
ATOM     22  H   UNL     1       6.607   7.503   1.355  1.00  0.00     0.167 HD
ATOM     23  C   UNL     1       7.670   6.695   5.559  1.00  0.00     0.034 A 
ATOM     24  C   UNL     1       6.487   8.974  -1.015  1.00  0.00     0.034 A 
ATOM     25  C   UNL     1       8.301   7.937   5.219  1.00  0.00     0.049 A 
ATOM     26  C   UNL     1       7.223   9.806  -0.002  1.00  0.00     0.074 A 
ATOM     27  C   UNL     1       9.093   8.748   6.008  1.00  0.00     0.029 A 
ATOM     28  N   UNL     1       8.178   8.568   3.987  1.00  0.00    -0.354 N 
ATOM     29  N   UNL     1       7.555   9.495   1.228  1.00  0.00    -0.248 NA
ATOM     30  C   UNL     1       7.699  11.125  -0.440  1.00  0.00     0.031 C 
ATOM     31  C   UNL     1       9.408   9.893   5.269  1.00  0.00     0.029 A 
ATOM     32  C   UNL     1       8.854   9.773   4.002  1.00  0.00     0.049 A 
ATOM     33  H   UNL     1       7.683   8.208   3.216  1.00  0.00     0.167 HD
ATOM     34  C   UNL     1       8.336  10.545   1.692  1.00  0.00     0.074 A 
ATOM     35  C   UNL     1       8.416  11.508   0.609  1.00  0.00     0.031 C 
ATOM     36  C   UNL     1       8.942  10.695   2.896  1.00  0.00     0.034 A 
BRANCH  23  37
ATOM     37  C   UNL     1       7.820   6.128   6.943  1.00  0.00     0.023 A 
ATOM     38  C   UNL     1       8.576   4.954   7.147  1.00  0.00     0.012 A 
ATOM     39  C   UNL     1       7.162   6.725   8.032  1.00  0.00     0.148 A 
ATOM     40  C   UNL     1       8.628   4.353   8.404  1.00  0.00     0.002 A 
ATOM     41  C   UNL     1       7.255   6.147   9.291  1.00  0.00     0.091 A 
ATOM     42  F   UNL     1       6.421   7.820   7.809  1.00  0.00    -0.205 F 
ATOM     43  C   UNL     1       7.972   4.953   9.476  1.00  0.00     0.022 A 
BRANCH  41  44
ATOM     44  S   UNL     1       6.492   6.875  10.742  1.00  0.00     0.127 S 
ATOM     45  O   UNL     1       5.408   5.932  11.010  1.00  0.00    -0.237 OA
ATOM     46  O   UNL     1       7.587   6.840  11.713  1.00  0.00    -0.237 OA
ATOM     47  O   UNL     1       6.075   8.213  10.347  1.00  0.00    -0.744 OA
ENDBRANCH  41  44
ENDBRANCH  23  37
BRANCH  24  48
ATOM     48  C   UNL     1       6.239   9.463  -2.400  1.00  0.00     0.023 A 
ATOM     49  C   UNL     1       7.314   9.622  -3.294  1.00  0.00     0.012 A 
ATOM     50  C   UNL     1       4.931   9.749  -2.842  1.00  0.00     0.148 A 
ATOM     51  C   UNL     1       7.096  10.084  -4.594  1.00  0.00     0.002 A 
ATOM     52  C   UNL     1       4.717  10.176  -4.149  1.00  0.00     0.091 A 
ATOM     53  F   UNL     1       3.921   9.591  -1.975  1.00  0.00    -0.205 F 
ATOM     54  C   UNL     1       5.799  10.354  -5.023  1.00  0.00     0.022 A 
BRANCH  52  55
ATOM     55  S   UNL     1       3.073  10.475  -4.811  1.00  0.00     0.127 S 
ATOM     56  O   UNL     1       3.092  11.921  -5.014  1.00  0.00    -0.237 OA
ATOM     57  O   UNL     1       3.093   9.680  -6.039  1.00  0.00    -0.237 OA
ATOM     58  O   UNL     1       2.147   9.995  -3.794  1.00  0.00    -0.744 OA
ENDBRANCH  52  55
ENDBRANCH  24  48
BRANCH  36  59
ATOM     59  C   UNL     1       9.785  11.925   3.098  1.00  0.00     0.023 A 
ATOM     60  C   UNL     1       9.175  13.184   3.250  1.00  0.00     0.012 A 
ATOM     61  C   UNL     1      11.183  11.808   3.226  1.00  0.00     0.148 A 
ATOM     62  C   UNL     1       9.949  14.317   3.498  1.00  0.00     0.002 A 
ATOM     63  C   UNL     1      11.941  12.930   3.530  1.00  0.00     0.091 A 
ATOM     64  F   UNL     1      11.743  10.601   3.055  1.00  0.00    -0.205 F 
ATOM     65  C   UNL     1      11.328  14.187   3.653  1.00  0.00     0.022 A 
BRANCH  63  66
ATOM     66  S   UNL     1      13.703  12.836   3.860  1.00  0.00     0.127 S 
ATOM     67  O   UNL     1      14.263  13.471   2.668  1.00  0.00    -0.237 OA
ATOM     68  O   UNL     1      13.830  13.621   5.088  1.00  0.00    -0.237 OA
ATOM     69  O   UNL     1      14.008  11.420   4.015  1.00  0.00    -0.744 OA
ENDBRANCH  63  66
ENDBRANCH  36  59
ENDBRANCH  10  11
ENDBRANCH   3   5
ENDBRANCH   2   3
ENDBRANCH   1   2
BRANCH   1  70
ATOM     70  C   UNL     1       3.938  -0.465  -2.072  1.00  0.00     0.275 C 
BRANCH  70  71
ATOM     71  O   UNL     1       3.438   0.846  -1.772  1.00  0.00    -0.458 OA
BRANCH  71  72
ATOM     72  C   UNL     1       2.259   1.196  -2.332  1.00  0.00     0.345 C 
ATOM     73  O   UNL     1       1.534   0.515  -3.037  1.00  0.00    -0.246 OA
BRANCH  72  74
ATOM     74  C   UNL     1       1.889   2.536  -1.849  1.00  0.00     0.139 A 
ATOM     75  C   UNL     1       0.916   2.546  -0.814  1.00  0.00     0.053 A 
ATOM     76  C   UNL     1       2.464   3.734  -2.396  1.00  0.00     0.284 A 
ATOM     77  C   UNL     1       0.645   3.826  -0.304  1.00  0.00     0.093 A 
ATOM     78  C   UNL     1       2.157   5.042  -1.937  1.00  0.00     0.098 A 
ATOM     79  N   UNL     1      -0.135   4.201   0.723  1.00  0.00    -0.176 NA
ATOM     80  C   UNL     1       1.269   4.992  -0.872  1.00  0.00     0.026 A 
ATOM     81  N   UNL     1       0.026   5.540   0.808  1.00  0.00    -0.285 N 
ATOM     82  C   UNL     1       0.858   6.066  -0.137  1.00  0.00     0.114 A 
ATOM     83  H   UNL     1      -0.420   6.090   1.492  1.00  0.00     0.189 HD
BRANCH  76  84
ATOM     84  N   UNL     1       3.435   3.649  -3.486  1.00  0.00     0.063 N 
ATOM     85  O   UNL     1       3.337   4.478  -4.397  1.00  0.00    -0.258 OA
ATOM     86  O   UNL     1       4.317   2.784  -3.418  1.00  0.00    -0.258 OA
ENDBRANCH  76  84
ENDBRANCH  72  74
ENDBRANCH  71  72
ENDBRANCH  70  71
ENDBRANCH   1  70
TORSDOF 15
