REMARK SMILES Cc1ccc(N(CC(=O)OCCOC(=O)c2ccc(-c3c4nc(c(-c5cccc(S(=O)(=O)[O-])c5F)c5ccc([nH]5)c(-c5cccc(S(=O)(=O)[O-])c5F)c5nc(c(-c6cccc(S(=O)(=O)[O-])c6F)c6ccc3[nH]6)C=C5)C=C4)cc2)C(=O)C[C@H]2C[NH2+]CCO2)cc1
REMARK SMILES IDX 11 1 10 2 8 3 9 4 7 5 6 6 5 7 1 8 2 9 3 10 89 11 4 12 88 13
REMARK SMILES IDX 79 14 80 15 81 16 82 17 83 18 87 19 84 20 86 21 85 22 12 25
REMARK SMILES IDX 13 26 14 27 15 28 16 29 17 30 78 31 18 32 77 33 19 34 20 35
REMARK SMILES IDX 21 36 71 37 22 38 76 39 70 40 72 41 23 42 75 43 69 44 68 45
REMARK SMILES IDX 24 47 56 48 36 49 55 50 37 51 40 52 54 53 73 54 38 55 39 56
REMARK SMILES IDX 53 58 74 59 41 60 25 61 26 62 34 63 27 64 29 65 35 66 28 67
REMARK SMILES IDX 30 68 31 69 32 70 33 71 57 72 58 73 66 74 59 75 61 76 67 77
REMARK SMILES IDX 60 78 62 79 63 80 64 81 65 82 42 83 43 84 51 85 44 86 46 87
REMARK SMILES IDX 52 88 45 89 47 90 48 91 49 92 50 93
REMARK H PARENT 84 23 84 24 72 46 40 57
REMARK Flexibility Score: inf
ROOT
ATOM      1  C   UNL     1      -0.776   0.255  -4.501  1.00  0.00     0.274 C 
ENDROOT
BRANCH   1   2
ATOM      2  O   UNL     1      -2.031  -0.449  -4.612  1.00  0.00    -0.461 OA
BRANCH   2   3
ATOM      3  C   UNL     1      -3.175   0.238  -4.863  1.00  0.00     0.326 C 
ATOM      4  O   UNL     1      -3.220   1.448  -5.036  1.00  0.00    -0.250 OA
BRANCH   3   5
ATOM      5  C   UNL     1      -4.373  -0.720  -4.806  1.00  0.00     0.248 C 
BRANCH   5   6
ATOM      6  N   UNL     1      -5.653  -0.100  -5.188  1.00  0.00    -0.301 N 
BRANCH   6   7
ATOM      7  C   UNL     1      -6.433  -0.810  -6.159  1.00  0.00     0.044 A 
ATOM      8  C   UNL     1      -8.526  -3.045  -9.206  1.00  0.00     0.044 C 
ATOM      9  C   UNL     1      -7.853  -2.261  -8.121  1.00  0.00    -0.051 A 
ATOM     10  C   UNL     1      -7.184  -2.933  -7.098  1.00  0.00     0.005 A 
ATOM     11  C   UNL     1      -7.862  -0.862  -8.120  1.00  0.00     0.005 A 
ATOM     12  C   UNL     1      -6.479  -2.215  -6.131  1.00  0.00     0.026 A 
ATOM     13  C   UNL     1      -7.166  -0.144  -7.142  1.00  0.00     0.026 A 
ENDBRANCH   6   7
BRANCH   6  14
ATOM     14  C   UNL     1      -6.211   0.989  -4.507  1.00  0.00     0.230 C 
ATOM     15  O   UNL     1      -7.136   1.673  -4.959  1.00  0.00    -0.274 OA
BRANCH  14  16
ATOM     16  C   UNL     1      -5.715   1.304  -3.102  1.00  0.00     0.138 C 
BRANCH  16  17
ATOM     17  C   UNL     1      -6.723   1.023  -1.972  1.00  0.00     0.182 C 
ATOM     18  C   UNL     1      -8.163   1.549  -2.139  1.00  0.00     0.293 C 
ATOM     19  O   UNL     1      -6.712  -0.352  -1.572  1.00  0.00    -0.366 OA
ATOM     20  N   UNL     1      -9.007   0.745  -3.034  1.00  0.00    -0.342 N 
ATOM     21  C   UNL     1      -7.544  -1.207  -2.362  1.00  0.00     0.222 C 
ATOM     22  C   UNL     1      -8.961  -0.660  -2.588  1.00  0.00     0.289 C 
ATOM     23  H   UNL     1      -8.658   0.814  -3.990  1.00  0.00     0.346 HD
ATOM     24  H   UNL     1      -9.968   1.088  -3.008  1.00  0.00     0.346 HD
ENDBRANCH  16  17
ENDBRANCH  14  16
ENDBRANCH   6  14
ENDBRANCH   5   6
ENDBRANCH   3   5
ENDBRANCH   2   3
ENDBRANCH   1   2
BRANCH   1  25
ATOM     25  C   UNL     1      -0.691   1.357  -3.415  1.00  0.00     0.275 C 
BRANCH  25  26
ATOM     26  O   UNL     1      -0.698   0.912  -2.039  1.00  0.00    -0.458 OA
BRANCH  26  27
ATOM     27  C   UNL     1      -1.921   0.728  -1.455  1.00  0.00     0.338 C 
ATOM     28  O   UNL     1      -2.579   1.586  -0.926  1.00  0.00    -0.246 OA
BRANCH  27  29
ATOM     29  C   UNL     1      -2.311  -0.695  -1.587  1.00  0.00     0.060 A 
ATOM     30  C   UNL     1      -3.618  -1.125  -1.312  1.00  0.00     0.016 A 
ATOM     31  C   UNL     1      -1.383  -1.562  -2.154  1.00  0.00     0.016 A 
ATOM     32  C   UNL     1      -3.999  -2.425  -1.644  1.00  0.00     0.010 A 
ATOM     33  C   UNL     1      -1.810  -2.737  -2.701  1.00  0.00     0.010 A 
ATOM     34  C   UNL     1      -3.065  -3.226  -2.300  1.00  0.00    -0.014 A 
BRANCH  34  35
ATOM     35  C   UNL     1      -2.942  -4.657  -2.038  1.00  0.00     0.031 A 
ATOM     36  C   UNL     1      -3.038  -5.638  -3.118  1.00  0.00     0.074 A 
ATOM     37  C   UNL     1      -2.063  -4.776  -1.010  1.00  0.00     0.049 A 
ATOM     38  N   UNL     1      -2.640  -6.851  -2.987  1.00  0.00    -0.248 NA
ATOM     39  C   UNL     1      -3.584  -5.343  -4.438  1.00  0.00     0.031 C 
ATOM     40  C   UNL     1      -0.887  -5.613  -0.858  1.00  0.00     0.029 A 
ATOM     41  N   UNL     1      -2.016  -3.957   0.123  1.00  0.00    -0.354 N 
ATOM     42  C   UNL     1      -2.542  -7.377  -4.255  1.00  0.00     0.074 A 
ATOM     43  C   UNL     1      -3.320  -6.487  -5.082  1.00  0.00     0.031 C 
ATOM     44  C   UNL     1      -0.425  -5.459   0.401  1.00  0.00     0.029 A 
ATOM     45  C   UNL     1      -1.433  -4.703   1.137  1.00  0.00     0.049 A 
ATOM     46  H   UNL     1      -2.335  -3.028   0.189  1.00  0.00     0.167 HD
ATOM     47  C   UNL     1      -1.658  -8.395  -4.453  1.00  0.00     0.034 A 
ATOM     48  C   UNL     1      -2.237  -5.160   2.148  1.00  0.00     0.034 A 
ATOM     49  C   UNL     1      -1.070  -8.820  -3.163  1.00  0.00     0.049 A 
ATOM     50  C   UNL     1      -2.381  -6.680   2.073  1.00  0.00     0.074 A 
ATOM     51  C   UNL     1       0.157  -8.646  -2.547  1.00  0.00     0.029 A 
ATOM     52  N   UNL     1      -1.920  -9.285  -2.171  1.00  0.00    -0.354 N 
ATOM     53  N   UNL     1      -1.785  -7.449   1.201  1.00  0.00    -0.248 NA
ATOM     54  C   UNL     1      -3.318  -7.420   2.912  1.00  0.00     0.031 C 
ATOM     55  C   UNL     1      -0.013  -8.912  -1.145  1.00  0.00     0.029 A 
ATOM     56  C   UNL     1      -1.326  -9.295  -0.919  1.00  0.00     0.049 A 
ATOM     57  H   UNL     1      -2.845  -9.577  -2.339  1.00  0.00     0.167 HD
ATOM     58  C   UNL     1      -2.389  -8.673   1.186  1.00  0.00     0.074 A 
ATOM     59  C   UNL     1      -3.321  -8.617   2.305  1.00  0.00     0.031 C 
ATOM     60  C   UNL     1      -2.161  -9.633   0.236  1.00  0.00     0.034 A 
BRANCH  47  61
ATOM     61  C   UNL     1      -1.150  -8.926  -5.787  1.00  0.00     0.023 A 
ATOM     62  C   UNL     1      -0.251 -10.016  -5.723  1.00  0.00     0.012 A 
ATOM     63  C   UNL     1      -1.407  -8.418  -7.086  1.00  0.00     0.148 A 
ATOM     64  C   UNL     1       0.379 -10.549  -6.853  1.00  0.00     0.002 A 
ATOM     65  C   UNL     1      -0.813  -8.980  -8.225  1.00  0.00     0.091 A 
ATOM     66  F   UNL     1      -2.173  -7.339  -7.250  1.00  0.00    -0.205 F 
ATOM     67  C   UNL     1       0.093 -10.036  -8.108  1.00  0.00     0.022 A 
BRANCH  65  68
ATOM     68  S   UNL     1      -1.155  -8.396  -9.899  1.00  0.00     0.127 S 
ATOM     69  O   UNL     1       0.130  -7.815 -10.287  1.00  0.00    -0.237 OA
ATOM     70  O   UNL     1      -1.499  -9.633 -10.600  1.00  0.00    -0.237 OA
ATOM     71  O   UNL     1      -2.252  -7.442  -9.784  1.00  0.00    -0.744 OA
ENDBRANCH  65  68
ENDBRANCH  47  61
BRANCH  48  72
ATOM     72  C   UNL     1      -3.394  -4.214   2.442  1.00  0.00     0.023 A 
ATOM     73  C   UNL     1      -3.089  -2.860   2.752  1.00  0.00     0.012 A 
ATOM     74  C   UNL     1      -4.699  -4.498   1.996  1.00  0.00     0.148 A 
ATOM     75  C   UNL     1      -4.004  -1.828   2.489  1.00  0.00     0.002 A 
ATOM     76  C   UNL     1      -5.608  -3.465   1.757  1.00  0.00     0.091 A 
ATOM     77  F   UNL     1      -5.030  -5.755   1.678  1.00  0.00    -0.205 F 
ATOM     78  C   UNL     1      -5.259  -2.129   1.970  1.00  0.00     0.022 A 
BRANCH  76  79
ATOM     79  S   UNL     1      -7.199  -3.874   1.030  1.00  0.00     0.127 S 
ATOM     80  O   UNL     1      -7.871  -2.579   0.933  1.00  0.00    -0.237 OA
ATOM     81  O   UNL     1      -6.817  -4.447  -0.255  1.00  0.00    -0.237 OA
ATOM     82  O   UNL     1      -7.774  -4.777   2.021  1.00  0.00    -0.744 OA
ENDBRANCH  76  79
ENDBRANCH  48  72
BRANCH  60  83
ATOM     83  C   UNL     1      -2.753 -11.019   0.373  1.00  0.00     0.023 A 
ATOM     84  C   UNL     1      -2.821 -11.621   1.647  1.00  0.00     0.012 A 
ATOM     85  C   UNL     1      -3.111 -11.823  -0.735  1.00  0.00     0.148 A 
ATOM     86  C   UNL     1      -3.299 -12.919   1.826  1.00  0.00     0.002 A 
ATOM     87  C   UNL     1      -3.457 -13.157  -0.564  1.00  0.00     0.091 A 
ATOM     88  F   UNL     1      -3.168 -11.293  -1.961  1.00  0.00    -0.205 F 
ATOM     89  C   UNL     1      -3.594 -13.697   0.717  1.00  0.00     0.022 A 
BRANCH  87  90
ATOM     90  S   UNL     1      -3.593 -14.290  -1.953  1.00  0.00     0.127 S 
ATOM     91  O   UNL     1      -2.729 -15.391  -1.521  1.00  0.00    -0.237 OA
ATOM     92  O   UNL     1      -5.021 -14.598  -1.951  1.00  0.00    -0.237 OA
ATOM     93  O   UNL     1      -3.101 -13.564  -3.115  1.00  0.00    -0.744 OA
ENDBRANCH  87  90
ENDBRANCH  60  83
ENDBRANCH  34  35
ENDBRANCH  27  29
ENDBRANCH  26  27
ENDBRANCH  25  26
ENDBRANCH   1  25
TORSDOF 19
