REMARK SMILES COc1ccc(/C=C/c2nc(C(=O)OCCOC(=O)c3ccc(-c4c5nc(c(-c6cccc(S(=O)(=O)[O-])c6F)c6ccc([nH]6)c(-c6cccc(S(=O)(=O)[O-])c6F)c6nc(c(-c7cccc(S(=O)(=O)[O-])c7F)c7ccc4[nH]7)C=C6)C=C5)cc3)ccc2C#N)cc1F
REMARK SMILES IDX 15 1 14 2 12 3 13 4 11 5 9 6 10 7 85 8 84 9 83 10 8 11 7 12
REMARK SMILES IDX 6 13 3 14 4 15 89 16 5 17 88 18 90 19 2 20 1 21 86 22 87 23
REMARK SMILES IDX 16 24 17 25 18 26 19 27 20 28 21 29 82 30 22 31 81 32 23 33
REMARK SMILES IDX 24 34 25 35 75 36 26 37 80 38 74 39 76 40 27 41 79 42 73 43
REMARK SMILES IDX 72 44 28 46 60 47 40 48 59 49 41 50 44 51 58 52 77 53 42 54
REMARK SMILES IDX 43 55 57 57 78 58 45 59 29 60 30 61 38 62 31 63 33 64 39 65
REMARK SMILES IDX 32 66 34 67 35 68 36 69 37 70 61 71 62 72 70 73 63 74 65 75
REMARK SMILES IDX 71 76 64 77 66 78 67 79 68 80 69 81 46 82 47 83 55 84 48 85
REMARK SMILES IDX 50 86 56 87 49 88 51 89 52 90 53 91 54 92
REMARK H PARENT 76 45 44 56
REMARK Flexibility Score: inf
ROOT
ATOM      1  C   UNL     1       0.680 -12.646   5.511  1.00  0.00     0.275 C 
ENDROOT
BRANCH   1   2
ATOM      2  O   UNL     1       1.451 -11.479   5.871  1.00  0.00    -0.457 OA
BRANCH   2   3
ATOM      3  C   UNL     1       1.552 -10.520   4.911  1.00  0.00     0.357 C 
ATOM      4  O   UNL     1       1.147 -10.620   3.764  1.00  0.00    -0.244 OA
BRANCH   3   5
ATOM      5  C   UNL     1       2.151  -9.264   5.474  1.00  0.00     0.149 A 
ATOM      6  C   UNL     1       2.158  -6.922   5.402  1.00  0.00     0.082 A 
ATOM      7  N   UNL     1       1.721  -8.102   4.906  1.00  0.00    -0.240 NA
ATOM      8  C   UNL     1       3.095  -6.862   6.429  1.00  0.00     0.078 A 
ATOM      9  C   UNL     1       3.559  -8.068   6.977  1.00  0.00     0.024 A 
ATOM     10  C   UNL     1       3.070  -9.288   6.509  1.00  0.00     0.037 A 
BRANCH   6  11
ATOM     11  C   UNL     1       1.512  -5.743   4.800  1.00  0.00     0.030 C 
ATOM     12  C   UNL     1       2.200  -4.843   4.080  1.00  0.00     0.010 C 
BRANCH  12  13
ATOM     13  C   UNL     1       1.694  -3.613   3.441  1.00  0.00    -0.022 A 
ATOM     14  C   UNL     1       0.930  -1.221   2.138  1.00  0.00     0.154 A 
ATOM     15  C   UNL     1      -0.020  -1.996   2.803  1.00  0.00     0.050 A 
ATOM     16  C   UNL     1       2.262  -1.623   2.159  1.00  0.00     0.165 A 
ATOM     17  C   UNL     1       0.356  -3.191   3.441  1.00  0.00     0.012 A 
ATOM     18  C   UNL     1       2.640  -2.803   2.794  1.00  0.00     0.051 A 
ATOM     19  F   UNL     1       3.221  -0.877   1.591  1.00  0.00    -0.203 F 
BRANCH  14  20
ATOM     20  O   UNL     1       0.496  -0.060   1.558  1.00  0.00    -0.494 OA
ATOM     21  C   UNL     1       0.888   0.054   0.190  1.00  0.00     0.278 C 
ENDBRANCH  14  20
ENDBRANCH  12  13
ENDBRANCH   6  11
BRANCH   8  22
ATOM     22  C   UNL     1       3.595  -5.620   6.938  1.00  0.00     0.101 C 
ATOM     23  N   UNL     1       4.048  -4.642   7.361  1.00  0.00    -0.192 NA
ENDBRANCH   8  22
ENDBRANCH   3   5
ENDBRANCH   2   3
ENDBRANCH   1   2
BRANCH   1  24
ATOM     24  C   UNL     1      -0.725 -12.610   6.124  1.00  0.00     0.275 C 
BRANCH  24  25
ATOM     25  O   UNL     1      -1.545 -11.582   5.538  1.00  0.00    -0.458 OA
BRANCH  25  26
ATOM     26  C   UNL     1      -1.524 -10.396   6.189  1.00  0.00     0.338 C 
ATOM     27  O   UNL     1      -0.913 -10.130   7.212  1.00  0.00    -0.246 OA
BRANCH  26  28
ATOM     28  C   UNL     1      -2.240  -9.378   5.408  1.00  0.00     0.060 A 
ATOM     29  C   UNL     1      -1.466  -8.482   4.680  1.00  0.00     0.016 A 
ATOM     30  C   UNL     1      -3.622  -9.217   5.466  1.00  0.00     0.016 A 
ATOM     31  C   UNL     1      -2.036  -7.379   4.068  1.00  0.00     0.010 A 
ATOM     32  C   UNL     1      -4.212  -8.147   4.776  1.00  0.00     0.010 A 
ATOM     33  C   UNL     1      -3.421  -7.211   4.082  1.00  0.00    -0.014 A 
BRANCH  33  34
ATOM     34  C   UNL     1      -4.016  -6.087   3.316  1.00  0.00     0.031 A 
ATOM     35  C   UNL     1      -4.807  -5.018   4.011  1.00  0.00     0.074 A 
ATOM     36  C   UNL     1      -3.827  -6.034   1.980  1.00  0.00     0.049 A 
ATOM     37  N   UNL     1      -5.486  -4.032   3.486  1.00  0.00    -0.248 NA
ATOM     38  C   UNL     1      -4.841  -5.052   5.483  1.00  0.00     0.031 C 
ATOM     39  C   UNL     1      -3.046  -6.998   1.199  1.00  0.00     0.029 A 
ATOM     40  N   UNL     1      -4.287  -5.146   1.039  1.00  0.00    -0.354 N 
ATOM     41  C   UNL     1      -6.075  -3.364   4.552  1.00  0.00     0.074 A 
ATOM     42  C   UNL     1      -5.658  -4.043   5.760  1.00  0.00     0.031 C 
ATOM     43  C   UNL     1      -3.084  -6.654  -0.095  1.00  0.00     0.029 A 
ATOM     44  C   UNL     1      -3.960  -5.501  -0.250  1.00  0.00     0.049 A 
ATOM     45  H   UNL     1      -4.799  -4.336   1.264  1.00  0.00     0.167 HD
ATOM     46  C   UNL     1      -6.892  -2.286   4.516  1.00  0.00     0.034 A 
ATOM     47  C   UNL     1      -4.364  -4.999  -1.432  1.00  0.00     0.034 A 
ATOM     48  C   UNL     1      -7.274  -1.604   3.308  1.00  0.00     0.049 A 
ATOM     49  C   UNL     1      -5.293  -3.821  -1.437  1.00  0.00     0.074 A 
ATOM     50  C   UNL     1      -8.072  -0.480   3.178  1.00  0.00     0.029 A 
ATOM     51  N   UNL     1      -6.900  -1.978   2.027  1.00  0.00    -0.354 N 
ATOM     52  N   UNL     1      -5.805  -3.175  -0.418  1.00  0.00    -0.248 NA
ATOM     53  C   UNL     1      -5.681  -3.282  -2.747  1.00  0.00     0.031 C 
ATOM     54  C   UNL     1      -8.222  -0.205   1.818  1.00  0.00     0.029 A 
ATOM     55  C   UNL     1      -7.459  -1.114   1.102  1.00  0.00     0.049 A 
ATOM     56  H   UNL     1      -6.323  -2.745   1.808  1.00  0.00     0.167 HD
ATOM     57  C   UNL     1      -6.536  -2.127  -0.961  1.00  0.00     0.074 A 
ATOM     58  C   UNL     1      -6.393  -2.219  -2.399  1.00  0.00     0.031 C 
ATOM     59  C   UNL     1      -7.263  -1.179  -0.323  1.00  0.00     0.034 A 
BRANCH  46  60
ATOM     60  C   UNL     1      -7.446  -1.751   5.810  1.00  0.00     0.023 A 
ATOM     61  C   UNL     1      -6.623  -1.006   6.676  1.00  0.00     0.012 A 
ATOM     62  C   UNL     1      -8.826  -1.852   6.081  1.00  0.00     0.148 A 
ATOM     63  C   UNL     1      -7.166  -0.367   7.792  1.00  0.00     0.002 A 
ATOM     64  C   UNL     1      -9.368  -1.172   7.165  1.00  0.00     0.091 A 
ATOM     65  F   UNL     1      -9.586  -2.582   5.252  1.00  0.00    -0.205 F 
ATOM     66  C   UNL     1      -8.538  -0.435   8.025  1.00  0.00     0.022 A 
BRANCH  64  67
ATOM     67  S   UNL     1     -11.133  -1.116   7.492  1.00  0.00     0.127 S 
ATOM     68  O   UNL     1     -11.214  -1.782   8.792  1.00  0.00    -0.237 OA
ATOM     69  O   UNL     1     -11.392   0.323   7.527  1.00  0.00    -0.237 OA
ATOM     70  O   UNL     1     -11.773  -1.829   6.395  1.00  0.00    -0.744 OA
ENDBRANCH  64  67
ENDBRANCH  46  60
BRANCH  47  71
ATOM     71  C   UNL     1      -3.893  -5.621  -2.703  1.00  0.00     0.023 A 
ATOM     72  C   UNL     1      -3.038  -4.904  -3.560  1.00  0.00     0.012 A 
ATOM     73  C   UNL     1      -4.263  -6.937  -3.045  1.00  0.00     0.148 A 
ATOM     74  C   UNL     1      -2.584  -5.475  -4.750  1.00  0.00     0.002 A 
ATOM     75  C   UNL     1      -3.754  -7.524  -4.196  1.00  0.00     0.091 A 
ATOM     76  F   UNL     1      -5.091  -7.599  -2.224  1.00  0.00    -0.205 F 
ATOM     77  C   UNL     1      -2.931  -6.788  -5.061  1.00  0.00     0.022 A 
BRANCH  75  78
ATOM     78  S   UNL     1      -4.029  -9.253  -4.598  1.00  0.00     0.127 S 
ATOM     79  O   UNL     1      -4.893  -9.152  -5.772  1.00  0.00    -0.237 OA
ATOM     80  O   UNL     1      -2.669  -9.718  -4.872  1.00  0.00    -0.237 OA
ATOM     81  O   UNL     1      -4.639  -9.842  -3.414  1.00  0.00    -0.744 OA
ENDBRANCH  75  78
ENDBRANCH  47  71
BRANCH  59  82
ATOM     82  C   UNL     1      -7.904  -0.101  -1.157  1.00  0.00     0.023 A 
ATOM     83  C   UNL     1      -9.007  -0.395  -1.980  1.00  0.00     0.012 A 
ATOM     84  C   UNL     1      -7.461   1.232  -1.040  1.00  0.00     0.148 A 
ATOM     85  C   UNL     1      -9.640   0.618  -2.700  1.00  0.00     0.002 A 
ATOM     86  C   UNL     1      -8.135   2.243  -1.710  1.00  0.00     0.091 A 
ATOM     87  F   UNL     1      -6.396   1.486  -0.266  1.00  0.00    -0.205 F 
ATOM     88  C   UNL     1      -9.215   1.936  -2.553  1.00  0.00     0.022 A 
BRANCH  86  89
ATOM     89  S   UNL     1      -7.730   3.979  -1.490  1.00  0.00     0.127 S 
ATOM     90  O   UNL     1      -7.152   4.316  -2.790  1.00  0.00    -0.237 OA
ATOM     91  O   UNL     1      -9.043   4.571  -1.234  1.00  0.00    -0.237 OA
ATOM     92  O   UNL     1      -6.807   4.039  -0.364  1.00  0.00    -0.744 OA
ENDBRANCH  86  89
ENDBRANCH  59  82
ENDBRANCH  33  34
ENDBRANCH  26  28
ENDBRANCH  25  26
ENDBRANCH  24  25
ENDBRANCH   1  24
TORSDOF 18
