REMARK SMILES O=C(CCC(=O)OCCOC(=O)c1ccc(-c2c3nc(c(-c4cccc(S(=O)(=O)[O-])c4F)c4ccc([nH]4)c(-c4cccc(S(=O)(=O)[O-])c4F)c4nc(c(-c5cccc(S(=O)(=O)[O-])c5F)c5ccc2[nH]5)C=C4)C=C3)cc1)Nc1cccc2c1C(=O)c1ccccc1C2=O
REMARK SMILES IDX 8 1 7 2 5 3 6 4 4 5 3 6 2 7 1 8 76 9 77 11 78 12 82 13 79 14
REMARK SMILES IDX 81 15 83 16 80 17 91 18 84 19 85 20 90 21 92 22 86 23 89 24
REMARK SMILES IDX 87 25 88 26 9 27 10 28 11 29 12 30 13 31 14 32 75 33 15 34
REMARK SMILES IDX 74 35 16 36 17 37 18 38 68 39 19 40 73 41 67 42 69 43 20 44
REMARK SMILES IDX 72 45 66 46 65 47 21 49 53 50 33 51 52 52 34 53 37 54 51 55
REMARK SMILES IDX 70 56 35 57 36 58 50 60 71 61 38 62 22 63 23 64 31 65 24 66
REMARK SMILES IDX 26 67 32 68 25 69 27 70 28 71 29 72 30 73 54 74 55 75 63 76
REMARK SMILES IDX 56 77 58 78 64 79 57 80 59 81 60 82 61 83 62 84 39 85 40 86
REMARK SMILES IDX 48 87 41 88 43 89 49 90 42 91 44 92 45 93 46 94 47 95
REMARK H PARENT 76 10 69 48 37 59
REMARK Flexibility Score: inf
ROOT
ATOM      1  C   UNL     1       5.532  -2.486  -0.247  1.00  0.00     0.274 C 
ENDROOT
BRANCH   1   2
ATOM      2  O   UNL     1       4.245  -1.941   0.130  1.00  0.00    -0.462 OA
BRANCH   2   3
ATOM      3  C   UNL     1       4.163  -1.355   1.356  1.00  0.00     0.306 C 
ATOM      4  O   UNL     1       5.081  -1.303   2.162  1.00  0.00    -0.252 OA
BRANCH   3   5
ATOM      5  C   UNL     1       2.751  -0.900   1.678  1.00  0.00     0.132 C 
BRANCH   5   6
ATOM      6  C   UNL     1       2.047  -0.140   0.560  1.00  0.00     0.112 C 
BRANCH   6   7
ATOM      7  C   UNL     1       1.104  -0.915  -0.365  1.00  0.00     0.224 C 
ATOM      8  O   UNL     1       0.200  -0.321  -0.949  1.00  0.00    -0.275 OA
ATOM      9  N   UNL     1       1.509  -2.209  -0.649  1.00  0.00    -0.325 N 
ATOM     10  H   UNL     1       1.852  -2.766   0.087  1.00  0.00     0.169 HD
BRANCH   9  11
ATOM     11  C   UNL     1       1.450  -2.769  -1.953  1.00  0.00     0.053 A 
ATOM     12  C   UNL     1       2.574  -3.539  -2.283  1.00  0.00     0.027 A 
ATOM     13  C   UNL     1       0.638  -2.298  -2.986  1.00  0.00     0.057 A 
ATOM     14  C   UNL     1       3.055  -3.551  -3.591  1.00  0.00     0.003 A 
ATOM     15  C   UNL     1       1.195  -2.188  -4.258  1.00  0.00     0.036 A 
ATOM     16  C   UNL     1      -0.850  -2.420  -2.913  1.00  0.00     0.196 C 
ATOM     17  C   UNL     1       2.418  -2.786  -4.562  1.00  0.00     0.013 A 
ATOM     18  C   UNL     1       0.423  -1.554  -5.330  1.00  0.00     0.194 C 
ATOM     19  O   UNL     1      -1.424  -2.769  -1.888  1.00  0.00    -0.288 OA
ATOM     20  C   UNL     1      -1.619  -2.339  -4.190  1.00  0.00     0.034 A 
ATOM     21  C   UNL     1      -1.018  -1.827  -5.340  1.00  0.00     0.034 A 
ATOM     22  O   UNL     1       0.976  -0.938  -6.232  1.00  0.00    -0.289 OA
ATOM     23  C   UNL     1      -2.906  -2.880  -4.288  1.00  0.00     0.013 A 
ATOM     24  C   UNL     1      -1.707  -1.762  -6.555  1.00  0.00     0.013 A 
ATOM     25  C   UNL     1      -3.575  -2.882  -5.519  1.00  0.00     0.001 A 
ATOM     26  C   UNL     1      -2.986  -2.303  -6.645  1.00  0.00     0.001 A 
ENDBRANCH   9  11
ENDBRANCH   6   7
ENDBRANCH   5   6
ENDBRANCH   3   5
ENDBRANCH   2   3
ENDBRANCH   1   2
BRANCH   1  27
ATOM     27  C   UNL     1       6.330  -1.542  -1.152  1.00  0.00     0.275 C 
BRANCH  27  28
ATOM     28  O   UNL     1       7.045  -0.560  -0.387  1.00  0.00    -0.458 OA
BRANCH  28  29
ATOM     29  C   UNL     1       6.344   0.562  -0.101  1.00  0.00     0.338 C 
ATOM     30  O   UNL     1       5.209   0.818  -0.468  1.00  0.00    -0.246 OA
BRANCH  29  31
ATOM     31  C   UNL     1       7.101   1.413   0.834  1.00  0.00     0.060 A 
ATOM     32  C   UNL     1       6.400   1.982   1.902  1.00  0.00     0.016 A 
ATOM     33  C   UNL     1       8.454   1.706   0.635  1.00  0.00     0.016 A 
ATOM     34  C   UNL     1       7.042   2.874   2.757  1.00  0.00     0.010 A 
ATOM     35  C   UNL     1       9.096   2.604   1.494  1.00  0.00     0.010 A 
ATOM     36  C   UNL     1       8.385   3.211   2.542  1.00  0.00    -0.014 A 
BRANCH  36  37
ATOM     37  C   UNL     1       9.010   4.265   3.373  1.00  0.00     0.031 A 
ATOM     38  C   UNL     1       9.089   5.670   2.848  1.00  0.00     0.074 A 
ATOM     39  C   UNL     1       9.479   3.969   4.598  1.00  0.00     0.049 A 
ATOM     40  N   UNL     1       9.552   6.744   3.433  1.00  0.00    -0.248 NA
ATOM     41  C   UNL     1       8.579   5.899   1.485  1.00  0.00     0.031 C 
ATOM     42  C   UNL     1       9.473   2.638   5.205  1.00  0.00     0.029 A 
ATOM     43  N   UNL     1      10.058   4.770   5.549  1.00  0.00    -0.354 N 
ATOM     44  C   UNL     1       9.398   7.773   2.513  1.00  0.00     0.074 A 
ATOM     45  C   UNL     1       8.814   7.194   1.322  1.00  0.00     0.031 C 
ATOM     46  C   UNL     1      10.036   2.711   6.423  1.00  0.00     0.029 A 
ATOM     47  C   UNL     1      10.440   4.092   6.682  1.00  0.00     0.049 A 
ATOM     48  H   UNL     1      10.187   5.739   5.431  1.00  0.00     0.167 HD
ATOM     49  C   UNL     1       9.691   9.086   2.657  1.00  0.00     0.034 A 
ATOM     50  C   UNL     1      11.039   4.538   7.803  1.00  0.00     0.034 A 
ATOM     51  C   UNL     1      10.254   9.665   3.845  1.00  0.00     0.049 A 
ATOM     52  C   UNL     1      11.318   6.011   7.950  1.00  0.00     0.074 A 
ATOM     53  C   UNL     1      10.606  10.983   4.079  1.00  0.00     0.029 A 
ATOM     54  N   UNL     1      10.537   8.963   5.006  1.00  0.00    -0.354 N 
ATOM     55  N   UNL     1      11.067   6.985   7.109  1.00  0.00    -0.248 NA
ATOM     56  C   UNL     1      11.920   6.452   9.217  1.00  0.00     0.031 C 
ATOM     57  C   UNL     1      11.087  11.080   5.390  1.00  0.00     0.029 A 
ATOM     58  C   UNL     1      11.040   9.821   5.967  1.00  0.00     0.049 A 
ATOM     59  H   UNL     1      10.401   7.995   5.128  1.00  0.00     0.167 HD
ATOM     60  C   UNL     1      11.452   8.155   7.755  1.00  0.00     0.074 A 
ATOM     61  C   UNL     1      11.930   7.770   9.067  1.00  0.00     0.031 C 
ATOM     62  C   UNL     1      11.436   9.430   7.295  1.00  0.00     0.034 A 
BRANCH  49  63
ATOM     63  C   UNL     1       9.342  10.001   1.517  1.00  0.00     0.023 A 
ATOM     64  C   UNL     1       8.005  10.420   1.370  1.00  0.00     0.012 A 
ATOM     65  C   UNL     1      10.323  10.483   0.630  1.00  0.00     0.148 A 
ATOM     66  C   UNL     1       7.645  11.296   0.347  1.00  0.00     0.002 A 
ATOM     67  C   UNL     1       9.960  11.377  -0.371  1.00  0.00     0.091 A 
ATOM     68  F   UNL     1      11.582  10.046   0.769  1.00  0.00    -0.205 F 
ATOM     69  C   UNL     1       8.623  11.781  -0.516  1.00  0.00     0.022 A 
BRANCH  67  70
ATOM     70  S   UNL     1      11.162  12.094  -1.498  1.00  0.00     0.127 S 
ATOM     71  O   UNL     1      10.931  11.313  -2.712  1.00  0.00    -0.237 OA
ATOM     72  O   UNL     1      10.726  13.488  -1.578  1.00  0.00    -0.237 OA
ATOM     73  O   UNL     1      12.460  11.905  -0.864  1.00  0.00    -0.744 OA
ENDBRANCH  67  70
ENDBRANCH  49  63
BRANCH  50  74
ATOM     74  C   UNL     1      11.335   3.589   8.911  1.00  0.00     0.023 A 
ATOM     75  C   UNL     1      10.566   3.641  10.090  1.00  0.00     0.012 A 
ATOM     76  C   UNL     1      12.347   2.619   8.795  1.00  0.00     0.148 A 
ATOM     77  C   UNL     1      10.818   2.760  11.142  1.00  0.00     0.002 A 
ATOM     78  C   UNL     1      12.560   1.712   9.829  1.00  0.00     0.091 A 
ATOM     79  F   UNL     1      13.088   2.592   7.678  1.00  0.00    -0.205 F 
ATOM     80  C   UNL     1      11.807   1.788  11.009  1.00  0.00     0.022 A 
BRANCH  78  81
ATOM     81  S   UNL     1      13.738   0.369   9.640  1.00  0.00     0.127 S 
ATOM     82  O   UNL     1      14.988   0.995  10.056  1.00  0.00    -0.237 OA
ATOM     83  O   UNL     1      13.223  -0.645  10.563  1.00  0.00    -0.237 OA
ATOM     84  O   UNL     1      13.633  -0.006   8.235  1.00  0.00    -0.744 OA
ENDBRANCH  78  81
ENDBRANCH  50  74
BRANCH  62  85
ATOM     85  C   UNL     1      11.927  10.509   8.218  1.00  0.00     0.023 A 
ATOM     86  C   UNL     1      13.313  10.686   8.395  1.00  0.00     0.012 A 
ATOM     87  C   UNL     1      11.030  11.393   8.847  1.00  0.00     0.148 A 
ATOM     88  C   UNL     1      13.798  11.715   9.201  1.00  0.00     0.002 A 
ATOM     89  C   UNL     1      11.523  12.436   9.625  1.00  0.00     0.091 A 
ATOM     90  F   UNL     1       9.712  11.197   8.690  1.00  0.00    -0.205 F 
ATOM     91  C   UNL     1      12.905  12.596   9.807  1.00  0.00     0.022 A 
BRANCH  89  92
ATOM     92  S   UNL     1      10.415  13.640  10.367  1.00  0.00     0.127 S 
ATOM     93  O   UNL     1      10.088  13.008  11.643  1.00  0.00    -0.237 OA
ATOM     94  O   UNL     1      11.256  14.833  10.478  1.00  0.00    -0.237 OA
ATOM     95  O   UNL     1       9.317  13.774   9.417  1.00  0.00    -0.744 OA
ENDBRANCH  89  92
ENDBRANCH  62  85
ENDBRANCH  36  37
ENDBRANCH  29  31
ENDBRANCH  28  29
ENDBRANCH  27  28
ENDBRANCH   1  27
TORSDOF 17
