REMARK SMILES C#CCN(CC(=O)OCCOC(=O)c1ccc(-c2c3nc(c(-c4cccc(S(=O)(=O)[O-])c4F)c4ccc([nH]4)c(-c4cccc(S(=O)(=O)[O-])c4F)c4nc(c(-c5cccc(S(=O)(=O)[O-])c5F)c5ccc2[nH]5)C=C4)C=C3)cc1)C(=O)Cc1csc(-c2ccsc2)n1
REMARK SMILES IDX 9 1 8 2 6 3 7 4 5 5 4 6 3 7 2 8 1 9 77 10 78 11 79 12 80 13
REMARK SMILES IDX 81 14 89 15 82 16 83 17 84 18 85 19 88 20 86 21 87 22 10 23
REMARK SMILES IDX 11 24 12 25 13 26 14 27 15 28 76 29 16 30 75 31 17 32 18 33
REMARK SMILES IDX 19 34 69 35 20 36 74 37 68 38 70 39 21 40 73 41 67 42 66 43
REMARK SMILES IDX 22 45 54 46 34 47 53 48 35 49 38 50 52 51 71 52 36 53 37 54
REMARK SMILES IDX 51 56 72 57 39 58 23 59 24 60 32 61 25 62 27 63 33 64 26 65
REMARK SMILES IDX 28 66 29 67 30 68 31 69 55 70 56 71 64 72 57 73 59 74 65 75
REMARK SMILES IDX 58 76 60 77 61 78 62 79 63 80 40 81 41 82 49 83 42 84 44 85
REMARK SMILES IDX 50 86 43 87 45 88 46 89 47 90 48 91
REMARK H PARENT 70 44 38 55
REMARK Flexibility Score: inf
ROOT
ATOM      1  C   UNL     1      -6.346  -1.748   0.386  1.00  0.00     0.274 C 
ENDROOT
BRANCH   1   2
ATOM      2  O   UNL     1      -4.937  -1.473   0.515  1.00  0.00    -0.461 OA
BRANCH   2   3
ATOM      3  C   UNL     1      -4.556  -0.996   1.729  1.00  0.00     0.325 C 
ATOM      4  O   UNL     1      -5.326  -0.696   2.636  1.00  0.00    -0.250 OA
BRANCH   3   5
ATOM      5  C   UNL     1      -3.047  -0.989   1.934  1.00  0.00     0.243 C 
BRANCH   5   6
ATOM      6  N   UNL     1      -2.174  -1.133   0.769  1.00  0.00    -0.320 N 
BRANCH   6   7
ATOM      7  C   UNL     1      -1.780   0.076   0.048  1.00  0.00     0.210 C 
BRANCH   7   8
ATOM      8  C   UNL     1      -0.260   0.076   0.048  1.00  0.00    -0.085 C 
ATOM      9  C   UNL     1       1.043   0.076   0.048  1.00  0.00     0.006 C 
ENDBRANCH   7   8
ENDBRANCH   6   7
BRANCH   6  10
ATOM     10  C   UNL     1      -1.602  -2.327   0.331  1.00  0.00     0.229 C 
ATOM     11  O   UNL     1      -1.347  -2.495  -0.867  1.00  0.00    -0.274 OA
BRANCH  10  12
ATOM     12  C   UNL     1      -1.214  -3.398   1.346  1.00  0.00     0.157 C 
BRANCH  12  13
ATOM     13  C   UNL     1      -0.446  -2.947   2.569  1.00  0.00     0.061 A 
ATOM     14  C   UNL     1      -0.172  -1.667   3.012  1.00  0.00     0.091 A 
ATOM     15  N   UNL     1       0.053  -3.930   3.427  1.00  0.00    -0.241 NA
ATOM     16  S   UNL     1       0.402  -1.675   4.615  1.00  0.00    -0.122 S 
ATOM     17  C   UNL     1       0.516  -3.387   4.538  1.00  0.00     0.124 A 
BRANCH  17  18
ATOM     18  C   UNL     1       1.161  -4.166   5.641  1.00  0.00     0.021 A 
ATOM     19  C   UNL     1       1.859  -5.393   5.465  1.00  0.00     0.023 A 
ATOM     20  C   UNL     1       1.187  -3.744   6.955  1.00  0.00     0.076 A 
ATOM     21  C   UNL     1       2.450  -5.817   6.636  1.00  0.00     0.065 A 
ATOM     22  S   UNL     1       2.077  -4.802   7.959  1.00  0.00    -0.152 S 
ENDBRANCH  17  18
ENDBRANCH  12  13
ENDBRANCH  10  12
ENDBRANCH   6  10
ENDBRANCH   5   6
ENDBRANCH   3   5
ENDBRANCH   2   3
ENDBRANCH   1   2
BRANCH   1  23
ATOM     23  C   UNL     1      -6.614  -3.248   0.488  1.00  0.00     0.275 C 
BRANCH  23  24
ATOM     24  O   UNL     1      -6.020  -3.791   1.686  1.00  0.00    -0.458 OA
BRANCH  24  25
ATOM     25  C   UNL     1      -5.097  -4.753   1.484  1.00  0.00     0.338 C 
ATOM     26  O   UNL     1      -4.727  -5.200   0.399  1.00  0.00    -0.246 OA
BRANCH  25  27
ATOM     27  C   UNL     1      -4.518  -5.231   2.751  1.00  0.00     0.060 A 
ATOM     28  C   UNL     1      -3.984  -4.330   3.672  1.00  0.00     0.016 A 
ATOM     29  C   UNL     1      -4.338  -6.605   2.940  1.00  0.00     0.016 A 
ATOM     30  C   UNL     1      -3.159  -4.801   4.695  1.00  0.00     0.010 A 
ATOM     31  C   UNL     1      -3.611  -7.074   4.038  1.00  0.00     0.010 A 
ATOM     32  C   UNL     1      -2.960  -6.180   4.902  1.00  0.00    -0.014 A 
BRANCH  32  33
ATOM     33  C   UNL     1      -2.054  -6.661   5.993  1.00  0.00     0.031 A 
ATOM     34  C   UNL     1      -0.876  -7.564   5.699  1.00  0.00     0.074 A 
ATOM     35  C   UNL     1      -2.254  -6.247   7.262  1.00  0.00     0.049 A 
ATOM     36  N   UNL     1      -0.034  -8.120   6.537  1.00  0.00    -0.248 NA
ATOM     37  C   UNL     1      -0.611  -7.899   4.289  1.00  0.00     0.031 C 
ATOM     38  C   UNL     1      -3.362  -5.402   7.709  1.00  0.00     0.029 A 
ATOM     39  N   UNL     1      -1.519  -6.454   8.405  1.00  0.00    -0.354 N 
ATOM     40  C   UNL     1       0.848  -8.867   5.763  1.00  0.00     0.074 A 
ATOM     41  C   UNL     1       0.403  -8.749   4.391  1.00  0.00     0.031 C 
ATOM     42  C   UNL     1      -3.188  -5.092   9.002  1.00  0.00     0.029 A 
ATOM     43  C   UNL     1      -1.995  -5.769   9.500  1.00  0.00     0.049 A 
ATOM     44  H   UNL     1      -0.726  -7.037   8.438  1.00  0.00     0.167 HD
ATOM     45  C   UNL     1       1.973  -9.522   6.139  1.00  0.00     0.034 A 
ATOM     46  C   UNL     1      -1.531  -5.684  10.763  1.00  0.00     0.034 A 
ATOM     47  C   UNL     1       2.510  -9.541   7.476  1.00  0.00     0.049 A 
ATOM     48  C   UNL     1      -0.301  -6.453  11.153  1.00  0.00     0.074 A 
ATOM     49  C   UNL     1       3.660 -10.166   7.928  1.00  0.00     0.029 A 
ATOM     50  N   UNL     1       1.975  -8.864   8.560  1.00  0.00    -0.354 N 
ATOM     51  N   UNL     1       0.500  -7.167  10.402  1.00  0.00    -0.248 NA
ATOM     52  C   UNL     1       0.091  -6.401  12.570  1.00  0.00     0.031 C 
ATOM     53  C   UNL     1       3.838  -9.842   9.278  1.00  0.00     0.029 A 
ATOM     54  C   UNL     1       2.789  -9.029   9.669  1.00  0.00     0.049 A 
ATOM     55  H   UNL     1       1.140  -8.342   8.544  1.00  0.00     0.167 HD
ATOM     56  C   UNL     1       1.497  -7.635  11.248  1.00  0.00     0.074 A 
ATOM     57  C   UNL     1       1.219  -7.098  12.564  1.00  0.00     0.031 C 
ATOM     58  C   UNL     1       2.532  -8.462  10.966  1.00  0.00     0.034 A 
BRANCH  45  59
ATOM     59  C   UNL     1       2.798 -10.179   5.065  1.00  0.00     0.023 A 
ATOM     60  C   UNL     1       3.679  -9.385   4.304  1.00  0.00     0.012 A 
ATOM     61  C   UNL     1       2.793 -11.575   4.888  1.00  0.00     0.148 A 
ATOM     62  C   UNL     1       4.540  -9.970   3.377  1.00  0.00     0.002 A 
ATOM     63  C   UNL     1       3.675 -12.154   3.982  1.00  0.00     0.091 A 
ATOM     64  F   UNL     1       1.931 -12.309   5.606  1.00  0.00    -0.205 F 
ATOM     65  C   UNL     1       4.547 -11.354   3.225  1.00  0.00     0.022 A 
BRANCH  63  66
ATOM     66  S   UNL     1       3.799 -13.936   3.777  1.00  0.00     0.127 S 
ATOM     67  O   UNL     1       3.019 -14.149   2.560  1.00  0.00    -0.237 OA
ATOM     68  O   UNL     1       5.240 -14.137   3.620  1.00  0.00    -0.237 OA
ATOM     69  O   UNL     1       3.243 -14.509   4.995  1.00  0.00    -0.744 OA
ENDBRANCH  63  66
ENDBRANCH  45  59
BRANCH  46  70
ATOM     70  C   UNL     1      -2.193  -4.772  11.739  1.00  0.00     0.023 A 
ATOM     71  C   UNL     1      -1.502  -3.627  12.180  1.00  0.00     0.012 A 
ATOM     72  C   UNL     1      -3.504  -4.994  12.195  1.00  0.00     0.148 A 
ATOM     73  C   UNL     1      -2.100  -2.731  13.067  1.00  0.00     0.002 A 
ATOM     74  C   UNL     1      -4.117  -4.062  13.026  1.00  0.00     0.091 A 
ATOM     75  F   UNL     1      -4.149  -6.101  11.796  1.00  0.00    -0.205 F 
ATOM     76  C   UNL     1      -3.414  -2.938  13.478  1.00  0.00     0.022 A 
BRANCH  74  77
ATOM     77  S   UNL     1      -5.862  -4.223  13.418  1.00  0.00     0.127 S 
ATOM     78  O   UNL     1      -5.849  -5.198  14.502  1.00  0.00    -0.237 OA
ATOM     79  O   UNL     1      -6.235  -2.865  13.818  1.00  0.00    -0.237 OA
ATOM     80  O   UNL     1      -6.462  -4.652  12.159  1.00  0.00    -0.744 OA
ENDBRANCH  74  77
ENDBRANCH  46  70
BRANCH  58  81
ATOM     81  C   UNL     1       3.428  -8.861  12.107  1.00  0.00     0.023 A 
ATOM     82  C   UNL     1       2.968  -9.830  13.021  1.00  0.00     0.012 A 
ATOM     83  C   UNL     1       4.721  -8.326  12.258  1.00  0.00     0.148 A 
ATOM     84  C   UNL     1       3.771 -10.242  14.084  1.00  0.00     0.002 A 
ATOM     85  C   UNL     1       5.529  -8.765  13.304  1.00  0.00     0.091 A 
ATOM     86  F   UNL     1       5.135  -7.387  11.395  1.00  0.00    -0.205 F 
ATOM     87  C   UNL     1       5.053  -9.717  14.220  1.00  0.00     0.022 A 
BRANCH  85  88
ATOM     88  S   UNL     1       7.218  -8.184  13.502  1.00  0.00     0.127 S 
ATOM     89  O   UNL     1       7.052  -7.096  14.462  1.00  0.00    -0.237 OA
ATOM     90  O   UNL     1       7.903  -9.364  14.032  1.00  0.00    -0.237 OA
ATOM     91  O   UNL     1       7.651  -7.795  12.166  1.00  0.00    -0.744 OA
ENDBRANCH  85  88
ENDBRANCH  58  81
ENDBRANCH  32  33
ENDBRANCH  25  27
ENDBRANCH  24  25
ENDBRANCH  23  24
ENDBRANCH   1  23
TORSDOF 21
