REMARK SMILES O=C(Nc1c(F)cc(F)cc1F)N[C@H]1C=C[C@H](C(=O)OCCOC(=O)c2ccc(-c3c4nc(c(-c5cccc(S(=O)(=O)[O-])c5F)c5ccc([nH]5)c(-c5cccc(S(=O)(=O)[O-])c5F)c5nc(c(-c6cccc(S(=O)(=O)[O-])c6F)c6ccc3[nH]6)C=C5)C=C4)cc2)C1
REMARK SMILES IDX 22 1 21 2 20 3 18 4 19 5 17 6 14 7 15 8 89 9 16 10 13 11
REMARK SMILES IDX 1 12 2 13 3 14 4 17 5 18 11 19 6 20 7 21 10 22 12 23 8 24
REMARK SMILES IDX 9 25 23 26 24 27 25 28 26 29 27 30 88 31 28 32 87 33 29 34
REMARK SMILES IDX 30 35 31 36 81 37 32 38 86 39 80 40 82 41 33 42 85 43 79 44
REMARK SMILES IDX 78 45 34 47 66 48 46 49 65 50 47 51 50 52 64 53 83 54 48 55
REMARK SMILES IDX 49 56 63 58 84 59 51 60 35 61 36 62 44 63 37 64 39 65 45 66
REMARK SMILES IDX 38 67 40 68 41 69 42 70 43 71 67 72 68 73 76 74 69 75 71 76
REMARK SMILES IDX 77 77 70 78 72 79 73 80 74 81 75 82 52 83 53 84 61 85 54 86
REMARK SMILES IDX 56 87 62 88 55 89 57 90 58 91 59 92 60 93
REMARK H PARENT 3 15 13 16 82 46 50 57
REMARK Flexibility Score: inf
ROOT
ATOM      1  C   UNL     1      -0.952   2.531   6.174  1.00  0.00     0.275 C 
ENDROOT
BRANCH   1   2
ATOM      2  C   UNL     1       0.120   3.591   5.919  1.00  0.00     0.274 C 
BRANCH   2   3
ATOM      3  O   UNL     1       0.976   3.204   4.826  1.00  0.00    -0.462 OA
BRANCH   3   4
ATOM      4  C   UNL     1       2.209   2.741   5.156  1.00  0.00     0.312 C 
ATOM      5  O   UNL     1       2.647   2.701   6.301  1.00  0.00    -0.252 OA
BRANCH   4   6
ATOM      6  C   UNL     1       3.033   2.311   3.942  1.00  0.00     0.124 C 
ATOM      7  C   UNL     1       2.224   0.602   2.338  1.00  0.00     0.107 C 
ATOM      8  C   UNL     1       3.083   0.020   3.410  1.00  0.00    -0.006 C 
ATOM      9  C   UNL     1       2.285   2.116   2.612  1.00  0.00     0.048 C 
ATOM     10  C   UNL     1       3.597   0.950   4.218  1.00  0.00    -0.014 C 
BRANCH   7  11
ATOM     11  N   UNL     1       2.890   0.265   1.104  1.00  0.00    -0.332 N 
ATOM     12  O   UNL     1       1.153   0.598  -0.315  1.00  0.00    -0.248 OA
ATOM     13  C   UNL     1       2.333   0.318  -0.123  1.00  0.00     0.319 C 
ATOM     14  N   UNL     1       3.166   0.187  -1.198  1.00  0.00    -0.303 N 
ATOM     15  H   UNL     1       2.710   0.289  -2.064  1.00  0.00     0.172 HD
ATOM     16  H   UNL     1       3.828  -0.028   1.163  1.00  0.00     0.165 HD
BRANCH  14  17
ATOM     17  C   UNL     1       4.553  -0.066  -1.313  1.00  0.00     0.115 A 
ATOM     18  C   UNL     1       5.354  -0.733  -0.380  1.00  0.00     0.152 A 
ATOM     19  C   UNL     1       5.184   0.412  -2.469  1.00  0.00     0.152 A 
ATOM     20  F   UNL     1       4.820  -1.311   0.704  1.00  0.00    -0.204 F 
ATOM     21  C   UNL     1       6.732  -0.850  -0.545  1.00  0.00     0.081 A 
ATOM     22  C   UNL     1       6.560   0.314  -2.650  1.00  0.00     0.081 A 
ATOM     23  F   UNL     1       4.457   1.036  -3.410  1.00  0.00    -0.204 F 
ATOM     24  C   UNL     1       7.325  -0.308  -1.674  1.00  0.00     0.129 A 
ATOM     25  F   UNL     1       8.652  -0.388  -1.826  1.00  0.00    -0.207 F 
ENDBRANCH  14  17
ENDBRANCH   7  11
ENDBRANCH   4   6
ENDBRANCH   3   4
ENDBRANCH   2   3
ENDBRANCH   1   2
BRANCH   1  26
ATOM     26  O   UNL     1      -0.373   1.353   6.761  1.00  0.00    -0.458 OA
BRANCH  26  27
ATOM     27  C   UNL     1      -0.242   0.292   5.932  1.00  0.00     0.338 C 
ATOM     28  O   UNL     1      -0.566   0.223   4.760  1.00  0.00    -0.246 OA
BRANCH  27  29
ATOM     29  C   UNL     1       0.438  -0.801   6.641  1.00  0.00     0.060 A 
ATOM     30  C   UNL     1       1.830  -0.800   6.676  1.00  0.00     0.016 A 
ATOM     31  C   UNL     1      -0.278  -1.882   7.151  1.00  0.00     0.016 A 
ATOM     32  C   UNL     1       2.520  -1.918   7.133  1.00  0.00     0.010 A 
ATOM     33  C   UNL     1       0.417  -2.971   7.693  1.00  0.00     0.010 A 
ATOM     34  C   UNL     1       1.824  -3.018   7.656  1.00  0.00    -0.014 A 
BRANCH  34  35
ATOM     35  C   UNL     1       2.570  -4.214   8.137  1.00  0.00     0.031 A 
ATOM     36  C   UNL     1       2.361  -5.556   7.485  1.00  0.00     0.074 A 
ATOM     37  C   UNL     1       3.447  -4.097   9.155  1.00  0.00     0.049 A 
ATOM     38  N   UNL     1       2.829  -6.727   7.836  1.00  0.00    -0.248 NA
ATOM     39  C   UNL     1       1.509  -5.592   6.284  1.00  0.00     0.031 C 
ATOM     40  C   UNL     1       3.754  -2.857   9.870  1.00  0.00     0.029 A 
ATOM     41  N   UNL     1       4.239  -5.036   9.771  1.00  0.00    -0.354 N 
ATOM     42  C   UNL     1       2.288  -7.641   6.940  1.00  0.00     0.074 A 
ATOM     43  C   UNL     1       1.456  -6.891   6.024  1.00  0.00     0.031 C 
ATOM     44  C   UNL     1       4.677  -3.106  10.812  1.00  0.00     0.029 A 
ATOM     45  C   UNL     1       4.985  -4.532  10.812  1.00  0.00     0.049 A 
ATOM     46  H   UNL     1       4.270  -5.981   9.494  1.00  0.00     0.167 HD
ATOM     47  C   UNL     1       2.479  -8.981   6.874  1.00  0.00     0.034 A 
ATOM     48  C   UNL     1       5.806  -5.148  11.685  1.00  0.00     0.034 A 
ATOM     49  C   UNL     1       3.356  -9.720   7.742  1.00  0.00     0.049 A 
ATOM     50  C   UNL     1       6.012  -6.633  11.574  1.00  0.00     0.074 A 
ATOM     51  C   UNL     1       3.615 -11.080   7.749  1.00  0.00     0.029 A 
ATOM     52  N   UNL     1       4.137  -9.161   8.741  1.00  0.00    -0.354 N 
ATOM     53  N   UNL     1       5.521  -7.471  10.693  1.00  0.00    -0.248 NA
ATOM     54  C   UNL     1       6.898  -7.258  12.568  1.00  0.00     0.031 C 
ATOM     55  C   UNL     1       4.559 -11.342   8.747  1.00  0.00     0.029 A 
ATOM     56  C   UNL     1       4.889 -10.144   9.360  1.00  0.00     0.049 A 
ATOM     57  H   UNL     1       4.154  -8.205   8.976  1.00  0.00     0.167 HD
ATOM     58  C   UNL     1       6.051  -8.714  11.015  1.00  0.00     0.074 A 
ATOM     59  C   UNL     1       6.928  -8.516  12.150  1.00  0.00     0.031 C 
ATOM     60  C   UNL     1       5.809  -9.918  10.443  1.00  0.00     0.034 A 
BRANCH  47  61
ATOM     61  C   UNL     1       1.763  -9.741   5.789  1.00  0.00     0.023 A 
ATOM     62  C   UNL     1       2.257  -9.690   4.471  1.00  0.00     0.012 A 
ATOM     63  C   UNL     1       0.659 -10.565   6.084  1.00  0.00     0.148 A 
ATOM     64  C   UNL     1       1.653 -10.434   3.458  1.00  0.00     0.002 A 
ATOM     65  C   UNL     1       0.083 -11.330   5.076  1.00  0.00     0.091 A 
ATOM     66  F   UNL     1       0.193 -10.584   7.341  1.00  0.00    -0.205 F 
ATOM     67  C   UNL     1       0.575 -11.261   3.762  1.00  0.00     0.022 A 
BRANCH  65  68
ATOM     68  S   UNL     1      -1.266 -12.478   5.378  1.00  0.00     0.127 S 
ATOM     69  O   UNL     1      -2.384 -11.798   4.726  1.00  0.00    -0.237 OA
ATOM     70  O   UNL     1      -0.804 -13.686   4.694  1.00  0.00    -0.237 OA
ATOM     71  O   UNL     1      -1.370 -12.603   6.826  1.00  0.00    -0.744 OA
ENDBRANCH  65  68
ENDBRANCH  47  61
BRANCH  48  72
ATOM     72  C   UNL     1       6.520  -4.354  12.726  1.00  0.00     0.023 A 
ATOM     73  C   UNL     1       7.918  -4.206  12.644  1.00  0.00     0.012 A 
ATOM     74  C   UNL     1       5.827  -3.725  13.777  1.00  0.00     0.148 A 
ATOM     75  C   UNL     1       8.614  -3.469  13.604  1.00  0.00     0.002 A 
ATOM     76  C   UNL     1       6.519  -2.942  14.695  1.00  0.00     0.091 A 
ATOM     77  F   UNL     1       4.500  -3.896  13.864  1.00  0.00    -0.205 F 
ATOM     78  C   UNL     1       7.914  -2.825  14.621  1.00  0.00     0.022 A 
BRANCH  76  79
ATOM     79  S   UNL     1       5.644  -1.975  15.931  1.00  0.00     0.127 S 
ATOM     80  O   UNL     1       5.590  -2.900  17.058  1.00  0.00    -0.237 OA
ATOM     81  O   UNL     1       6.528  -0.824  16.121  1.00  0.00    -0.237 OA
ATOM     82  O   UNL     1       4.371  -1.643  15.302  1.00  0.00    -0.744 OA
ENDBRANCH  76  79
ENDBRANCH  48  72
BRANCH  60  83
ATOM     83  C   UNL     1       6.517 -11.114  11.018  1.00  0.00     0.023 A 
ATOM     84  C   UNL     1       6.065 -11.665  12.233  1.00  0.00     0.012 A 
ATOM     85  C   UNL     1       7.581 -11.729  10.331  1.00  0.00     0.148 A 
ATOM     86  C   UNL     1       6.677 -12.797  12.768  1.00  0.00     0.002 A 
ATOM     87  C   UNL     1       8.164 -12.879  10.853  1.00  0.00     0.091 A 
ATOM     88  F   UNL     1       8.014 -11.175   9.188  1.00  0.00    -0.205 F 
ATOM     89  C   UNL     1       7.718 -13.409  12.074  1.00  0.00     0.022 A 
BRANCH  87  90
ATOM     90  S   UNL     1       9.456 -13.770   9.979  1.00  0.00     0.127 S 
ATOM     91  O   UNL     1      10.659 -13.302  10.666  1.00  0.00    -0.237 OA
ATOM     92  O   UNL     1       9.110 -15.168  10.241  1.00  0.00    -0.237 OA
ATOM     93  O   UNL     1       9.331 -13.374   8.583  1.00  0.00    -0.744 OA
ENDBRANCH  87  90
ENDBRANCH  60  83
ENDBRANCH  34  35
ENDBRANCH  27  29
ENDBRANCH  26  27
ENDBRANCH   1  26
TORSDOF 16
