REMARK SMILES CC[C@H]1CCCC[C@@H]1OCC[C@@H]1CCC[C@]1([NH2+]C)C(=O)OCCOC(=O)c1ccc(-c2c3nc(c(-c4cccc(S(=O)(=O)[O-])c4F)c4ccc([nH]4)c(-c4cccc(S(=O)(=O)[O-])c4F)c4nc(c(-c5cccc(S(=O)(=O)[O-])c5F)c5ccc2[nH]5)C=C4)C=C3)cc1
REMARK SMILES IDX 22 1 21 2 19 3 20 4 16 5 12 6 13 7 14 8 15 9 11 10 10 11
REMARK SMILES IDX 9 12 8 13 3 14 4 15 5 16 7 17 6 18 2 19 1 20 17 21 18 22
REMARK SMILES IDX 23 25 24 26 25 27 26 28 27 29 28 30 89 31 29 32 88 33 30 34
REMARK SMILES IDX 31 35 32 36 82 37 33 38 87 39 81 40 83 41 34 42 86 43 80 44
REMARK SMILES IDX 79 45 35 47 67 48 47 49 66 50 48 51 51 52 65 53 84 54 49 55
REMARK SMILES IDX 50 56 64 58 85 59 52 60 36 61 37 62 45 63 38 64 40 65 46 66
REMARK SMILES IDX 39 67 41 68 42 69 43 70 44 71 68 72 69 73 77 74 70 75 72 76
REMARK SMILES IDX 78 77 71 78 73 79 74 80 75 81 76 82 53 83 54 84 62 85 55 86
REMARK SMILES IDX 57 87 63 88 56 89 58 90 59 91 60 92 61 93
REMARK H PARENT 17 23 17 24 83 46 51 57
REMARK Flexibility Score: inf
ROOT
ATOM      1  C   UNL     1      -1.233  -0.823   0.293  1.00  0.00     0.274 C 
ENDROOT
BRANCH   1   2
ATOM      2  O   UNL     1      -0.871  -1.349   1.811  1.00  0.00    -0.457 OA
BRANCH   2   3
ATOM      3  C   UNL     1       0.253  -1.782   2.652  1.00  0.00     0.368 C 
ATOM      4  O   UNL     1       0.650  -2.947   2.565  1.00  0.00    -0.245 OA
BRANCH   3   5
ATOM      5  C   UNL     1       0.998  -0.615   3.883  1.00  0.00     0.197 C 
ATOM      6  C   UNL     1       0.679   1.288   3.918  1.00  0.00     0.065 C 
ATOM      7  C   UNL     1       2.297   1.726   4.087  1.00  0.00     0.011 C 
ATOM      8  C   UNL     1       3.119   0.543   4.555  1.00  0.00     0.008 C 
ATOM      9  C   UNL     1       2.584  -0.670   3.834  1.00  0.00     0.081 C 
BRANCH   6  10
ATOM     10  C   UNL     1      -0.904   2.261   2.906  1.00  0.00     0.039 C 
BRANCH  10  11
ATOM     11  C   UNL     1      -1.053   3.467   1.878  1.00  0.00     0.161 C 
BRANCH  11  12
ATOM     12  O   UNL     1       0.120   3.431   1.145  1.00  0.00    -0.378 OA
BRANCH  12  13
ATOM     13  C   UNL     1       0.924   2.661   2.036  1.00  0.00     0.121 C 
ATOM     14  C   UNL     1       0.397   0.765   1.886  1.00  0.00     0.018 C 
ATOM     15  C   UNL     1      -1.059   0.273   3.274  1.00  0.00     0.006 C 
ATOM     16  C   UNL     1      -1.370   1.327   4.857  1.00  0.00     0.000 C 
ATOM     17  C   UNL     1       0.639   3.628   3.668  1.00  0.00     0.032 C 
ATOM     18  C   UNL     1      -0.540   3.026   4.971  1.00  0.00     0.003 C 
BRANCH  14  19
ATOM     19  C   UNL     1       1.290  -0.500   0.751  1.00  0.00     0.003 C 
ATOM     20  C   UNL     1       1.698  -0.687  -0.757  1.00  0.00     0.004 C 
ENDBRANCH  14  19
ENDBRANCH  12  13
ENDBRANCH  11  12
ENDBRANCH  10  11
ENDBRANCH   6  10
BRANCH   5  21
ATOM     21  N   UNL     1       0.671  -1.148   5.268  1.00  0.00    -0.334 N 
ATOM     22  C   UNL     1       0.906  -2.582   5.437  1.00  0.00     0.331 C 
ATOM     23  H   UNL     1      -0.314  -0.962   5.456  1.00  0.00     0.347 HD
ATOM     24  H   UNL     1       1.298  -0.673   5.917  1.00  0.00     0.347 HD
ENDBRANCH   5  21
ENDBRANCH   3   5
ENDBRANCH   2   3
ENDBRANCH   1   2
BRANCH   1  25
ATOM     25  C   UNL     1      -0.941   0.728  -0.465  1.00  0.00     0.275 C 
BRANCH  25  26
ATOM     26  O   UNL     1       0.445   1.371  -0.454  1.00  0.00    -0.458 OA
BRANCH  26  27
ATOM     27  C   UNL     1       1.107   2.289  -1.242  1.00  0.00     0.338 C 
ATOM     28  O   UNL     1       0.592   2.850  -2.200  1.00  0.00    -0.246 OA
BRANCH  27  29
ATOM     29  C   UNL     1       2.626   2.513  -0.820  1.00  0.00     0.060 A 
ATOM     30  C   UNL     1       3.239   1.795   0.216  1.00  0.00     0.016 A 
ATOM     31  C   UNL     1       3.495   3.429  -1.414  1.00  0.00     0.016 A 
ATOM     32  C   UNL     1       4.554   1.915   0.683  1.00  0.00     0.010 A 
ATOM     33  C   UNL     1       4.865   3.568  -0.970  1.00  0.00     0.010 A 
ATOM     34  C   UNL     1       5.418   2.803   0.087  1.00  0.00    -0.014 A 
BRANCH  34  35
ATOM     35  C   UNL     1       6.788   2.979   0.688  1.00  0.00     0.031 A 
ATOM     36  C   UNL     1       7.176   4.320   1.254  1.00  0.00     0.074 A 
ATOM     37  C   UNL     1       7.663   1.960   0.876  1.00  0.00     0.049 A 
ATOM     38  N   UNL     1       8.355   4.772   1.596  1.00  0.00    -0.248 NA
ATOM     39  C   UNL     1       6.079   5.272   1.480  1.00  0.00     0.031 C 
ATOM     40  C   UNL     1       7.419   0.548   0.575  1.00  0.00     0.029 A 
ATOM     41  N   UNL     1       8.956   1.961   1.371  1.00  0.00    -0.354 N 
ATOM     42  C   UNL     1       8.161   6.098   1.963  1.00  0.00     0.074 A 
ATOM     43  C   UNL     1       6.739   6.356   1.861  1.00  0.00     0.031 C 
ATOM     44  C   UNL     1       8.518  -0.169   0.872  1.00  0.00     0.029 A 
ATOM     45  C   UNL     1       9.584   0.735   1.293  1.00  0.00     0.049 A 
ATOM     46  H   UNL     1       9.388   2.764   1.743  1.00  0.00     0.167 HD
ATOM     47  C   UNL     1       9.081   7.021   2.331  1.00  0.00     0.034 A 
ATOM     48  C   UNL     1      10.878   0.379   1.465  1.00  0.00     0.034 A 
ATOM     49  C   UNL     1      10.481   6.751   2.524  1.00  0.00     0.049 A 
ATOM     50  C   UNL     1      11.904   1.429   1.813  1.00  0.00     0.074 A 
ATOM     51  C   UNL     1      11.487   7.637   2.875  1.00  0.00     0.029 A 
ATOM     52  N   UNL     1      11.073   5.505   2.409  1.00  0.00    -0.354 N 
ATOM     53  N   UNL     1      11.728   2.701   2.074  1.00  0.00    -0.248 NA
ATOM     54  C   UNL     1      13.310   0.996   1.890  1.00  0.00     0.031 C 
ATOM     55  C   UNL     1      12.690   6.927   2.958  1.00  0.00     0.029 A 
ATOM     56  C   UNL     1      12.427   5.595   2.687  1.00  0.00     0.049 A 
ATOM     57  H   UNL     1      10.601   4.676   2.166  1.00  0.00     0.167 HD
ATOM     58  C   UNL     1      12.989   3.211   2.370  1.00  0.00     0.074 A 
ATOM     59  C   UNL     1      13.920   2.107   2.283  1.00  0.00     0.031 C 
ATOM     60  C   UNL     1      13.344   4.485   2.667  1.00  0.00     0.034 A 
BRANCH  47  61
ATOM     61  C   UNL     1       8.607   8.438   2.509  1.00  0.00     0.023 A 
ATOM     62  C   UNL     1       7.878   8.813   3.653  1.00  0.00     0.012 A 
ATOM     63  C   UNL     1       8.936   9.412   1.544  1.00  0.00     0.148 A 
ATOM     64  C   UNL     1       7.455  10.132   3.818  1.00  0.00     0.002 A 
ATOM     65  C   UNL     1       8.553  10.732   1.739  1.00  0.00     0.091 A 
ATOM     66  F   UNL     1       9.609   9.027   0.450  1.00  0.00    -0.205 F 
ATOM     67  C   UNL     1       7.801  11.092   2.869  1.00  0.00     0.022 A 
BRANCH  65  68
ATOM     68  S   UNL     1       9.029  12.049   0.615  1.00  0.00     0.127 S 
ATOM     69  O   UNL     1       7.759  12.345  -0.048  1.00  0.00    -0.237 OA
ATOM     70  O   UNL     1       9.492  13.088   1.536  1.00  0.00    -0.237 OA
ATOM     71  O   UNL     1      10.067  11.492  -0.240  1.00  0.00    -0.744 OA
ENDBRANCH  65  68
ENDBRANCH  47  61
BRANCH  48  72
ATOM     72  C   UNL     1      11.312  -1.039   1.249  1.00  0.00     0.023 A 
ATOM     73  C   UNL     1      11.832  -1.790   2.323  1.00  0.00     0.012 A 
ATOM     74  C   UNL     1      11.230  -1.640  -0.023  1.00  0.00     0.148 A 
ATOM     75  C   UNL     1      12.277  -3.101   2.129  1.00  0.00     0.002 A 
ATOM     76  C   UNL     1      11.610  -2.967  -0.194  1.00  0.00     0.091 A 
ATOM     77  F   UNL     1      10.780  -0.901  -1.047  1.00  0.00    -0.205 F 
ATOM     78  C   UNL     1      12.151  -3.694   0.876  1.00  0.00     0.022 A 
BRANCH  76  79
ATOM     79  S   UNL     1      11.346  -3.848  -1.738  1.00  0.00     0.127 S 
ATOM     80  O   UNL     1      12.709  -3.987  -2.241  1.00  0.00    -0.237 OA
ATOM     81  O   UNL     1      10.729  -5.091  -1.273  1.00  0.00    -0.237 OA
ATOM     82  O   UNL     1      10.461  -3.000  -2.525  1.00  0.00    -0.744 OA
ENDBRANCH  76  79
ENDBRANCH  48  72
BRANCH  60  83
ATOM     83  C   UNL     1      14.792   4.762   2.982  1.00  0.00     0.023 A 
ATOM     84  C   UNL     1      15.753   4.761   1.952  1.00  0.00     0.012 A 
ATOM     85  C   UNL     1      15.190   5.092   4.294  1.00  0.00     0.148 A 
ATOM     86  C   UNL     1      17.090   5.052   2.226  1.00  0.00     0.002 A 
ATOM     87  C   UNL     1      16.515   5.426   4.552  1.00  0.00     0.091 A 
ATOM     88  F   UNL     1      14.267   5.069   5.267  1.00  0.00    -0.205 F 
ATOM     89  C   UNL     1      17.468   5.394   3.522  1.00  0.00     0.022 A 
BRANCH  87  90
ATOM     90  S   UNL     1      17.070   5.967   6.174  1.00  0.00     0.127 S 
ATOM     91  O   UNL     1      17.777   4.783   6.658  1.00  0.00    -0.237 OA
ATOM     92  O   UNL     1      17.933   7.102   5.846  1.00  0.00    -0.237 OA
ATOM     93  O   UNL     1      15.863   6.322   6.909  1.00  0.00    -0.744 OA
ENDBRANCH  87  90
ENDBRANCH  60  83
ENDBRANCH  34  35
ENDBRANCH  27  29
ENDBRANCH  26  27
ENDBRANCH  25  26
ENDBRANCH   1  25
TORSDOF 20
