REMARK SMILES NC(=O)Nc1ccc(C(=O)N2C[C@@H](O)C[C@@H]2C(=O)OCCOC(=O)c2ccc(-c3c4nc(c(-c5cccc(S(=O)(=O)[O-])c5F)c5ccc([nH]5)c(-c5cccc(S(=O)(=O)[O-])c5F)c5nc(c(-c6cccc(S(=O)(=O)[O-])c6F)c6ccc3[nH]6)C=C5)C=C4)cc2)cc1
REMARK SMILES IDX 20 1 19 2 17 3 18 4 16 5 11 6 12 7 13 8 15 9 9 10 10 11 8 12
REMARK SMILES IDX 5 13 6 14 89 15 7 16 88 17 4 18 1 19 2 20 3 23 14 25 21 27
REMARK SMILES IDX 22 28 23 29 24 30 25 31 26 32 87 33 27 34 86 35 28 36 29 37
REMARK SMILES IDX 30 38 80 39 31 40 85 41 79 42 81 43 32 44 84 45 78 46 77 47
REMARK SMILES IDX 33 49 65 50 45 51 64 52 46 53 49 54 63 55 82 56 47 57 48 58
REMARK SMILES IDX 62 60 83 61 50 62 34 63 35 64 43 65 36 66 38 67 44 68 37 69
REMARK SMILES IDX 39 70 40 71 41 72 42 73 66 74 67 75 75 76 68 77 70 78 76 79
REMARK SMILES IDX 69 80 71 81 72 82 73 83 74 84 51 85 52 86 60 87 53 88 55 89
REMARK SMILES IDX 61 90 54 91 56 92 57 93 58 94 59 95
REMARK H PARENT 1 21 1 22 4 24 14 26 81 48 49 59
REMARK Flexibility Score: inf
ROOT
ATOM      1  C   UNL     1       6.913  -2.518   1.007  1.00  0.00     0.274 C 
ENDROOT
BRANCH   1   2
ATOM      2  O   UNL     1       7.560  -1.549   0.157  1.00  0.00    -0.461 OA
BRANCH   2   3
ATOM      3  C   UNL     1       6.970  -0.320   0.133  1.00  0.00     0.329 C 
ATOM      4  O   UNL     1       5.931  -0.067   0.729  1.00  0.00    -0.250 OA
BRANCH   3   5
ATOM      5  C   UNL     1       7.833   0.730  -0.594  1.00  0.00     0.198 C 
ATOM      6  N   UNL     1       7.045   1.905  -0.999  1.00  0.00    -0.322 N 
ATOM      7  C   UNL     1       7.389   2.314  -2.336  1.00  0.00     0.152 C 
ATOM      8  C   UNL     1       7.712   0.986  -3.000  1.00  0.00     0.136 C 
ATOM      9  C   UNL     1       8.477   0.245  -1.901  1.00  0.00     0.071 C 
BRANCH   6  10
ATOM     10  C   UNL     1       6.579   2.836  -0.092  1.00  0.00     0.254 C 
ATOM     11  O   UNL     1       7.309   3.648   0.458  1.00  0.00    -0.269 OA
BRANCH  10  12
ATOM     12  C   UNL     1       5.106   2.761   0.161  1.00  0.00     0.040 A 
ATOM     13  C   UNL     1       2.384   2.374   0.751  1.00  0.00     0.042 A 
ATOM     14  C   UNL     1       3.189   3.147   1.597  1.00  0.00     0.027 A 
ATOM     15  C   UNL     1       2.929   1.875  -0.432  1.00  0.00     0.027 A 
ATOM     16  C   UNL     1       4.551   3.332   1.307  1.00  0.00     0.016 A 
ATOM     17  C   UNL     1       4.276   2.063  -0.724  1.00  0.00     0.016 A 
BRANCH  13  18
ATOM     18  N   UNL     1       1.034   2.167   1.092  1.00  0.00    -0.308 N 
ATOM     19  N   UNL     1       0.708   0.053   0.195  1.00  0.00    -0.351 N 
ATOM     20  C   UNL     1       0.172   1.204   0.663  1.00  0.00     0.316 C 
ATOM     21  H   UNL     1       0.121  -0.669  -0.125  1.00  0.00     0.161 HD
ATOM     22  H   UNL     1       1.685  -0.062   0.175  1.00  0.00     0.161 HD
ATOM     23  O   UNL     1      -1.046   1.314   0.755  1.00  0.00    -0.249 OA
ATOM     24  H   UNL     1       0.659   2.812   1.734  1.00  0.00     0.171 HD
ENDBRANCH  13  18
ENDBRANCH  10  12
ENDBRANCH   6  10
BRANCH   8  25
ATOM     25  O   UNL     1       8.473   1.112  -4.186  1.00  0.00    -0.391 OA
ATOM     26  H   UNL     1       9.306   1.568  -3.988  1.00  0.00     0.211 HD
ENDBRANCH   8  25
ENDBRANCH   3   5
ENDBRANCH   2   3
ENDBRANCH   1   2
BRANCH   1  27
ATOM     27  C   UNL     1       7.587  -2.624   2.382  1.00  0.00     0.275 C 
BRANCH  27  28
ATOM     28  O   UNL     1       7.481  -1.415   3.158  1.00  0.00    -0.458 OA
BRANCH  28  29
ATOM     29  C   UNL     1       8.475  -0.518   2.954  1.00  0.00     0.338 C 
ATOM     30  O   UNL     1       9.420  -0.654   2.184  1.00  0.00    -0.246 OA
BRANCH  29  31
ATOM     31  C   UNL     1       8.217   0.745   3.671  1.00  0.00     0.060 A 
ATOM     32  C   UNL     1       8.435   1.931   2.968  1.00  0.00     0.016 A 
ATOM     33  C   UNL     1       7.848   0.794   5.018  1.00  0.00     0.016 A 
ATOM     34  C   UNL     1       8.284   3.165   3.586  1.00  0.00     0.010 A 
ATOM     35  C   UNL     1       7.722   2.039   5.653  1.00  0.00     0.010 A 
ATOM     36  C   UNL     1       7.955   3.229   4.941  1.00  0.00    -0.014 A 
BRANCH  36  37
ATOM     37  C   UNL     1       8.003   4.553   5.602  1.00  0.00     0.031 A 
ATOM     38  C   UNL     1       9.241   4.946   6.352  1.00  0.00     0.074 A 
ATOM     39  C   UNL     1       6.999   5.432   5.440  1.00  0.00     0.049 A 
ATOM     40  N   UNL     1       9.514   6.065   6.967  1.00  0.00    -0.248 NA
ATOM     41  C   UNL     1      10.315   3.942   6.416  1.00  0.00     0.031 C 
ATOM     42  C   UNL     1       5.775   5.172   4.687  1.00  0.00     0.029 A 
ATOM     43  N   UNL     1       6.854   6.721   5.883  1.00  0.00    -0.354 N 
ATOM     44  C   UNL     1      10.775   5.892   7.522  1.00  0.00     0.074 A 
ATOM     45  C   UNL     1      11.211   4.557   7.173  1.00  0.00     0.031 C 
ATOM     46  C   UNL     1       5.010   6.276   4.698  1.00  0.00     0.029 A 
ATOM     47  C   UNL     1       5.665   7.301   5.507  1.00  0.00     0.049 A 
ATOM     48  H   UNL     1       7.535   7.187   6.420  1.00  0.00     0.167 HD
ATOM     49  C   UNL     1      11.504   6.768   8.252  1.00  0.00     0.034 A 
ATOM     50  C   UNL     1       5.157   8.514   5.804  1.00  0.00     0.034 A 
ATOM     51  C   UNL     1      11.062   8.094   8.592  1.00  0.00     0.049 A 
ATOM     52  C   UNL     1       5.966   9.447   6.667  1.00  0.00     0.074 A 
ATOM     53  C   UNL     1      11.718   9.055   9.339  1.00  0.00     0.029 A 
ATOM     54  N   UNL     1       9.845   8.643   8.213  1.00  0.00    -0.354 N 
ATOM     55  N   UNL     1       7.175   9.289   7.151  1.00  0.00    -0.248 NA
ATOM     56  C   UNL     1       5.348  10.736   7.011  1.00  0.00     0.031 C 
ATOM     57  C   UNL     1      10.883  10.174   9.441  1.00  0.00     0.029 A 
ATOM     58  C   UNL     1       9.727   9.927   8.717  1.00  0.00     0.049 A 
ATOM     59  H   UNL     1       9.166   8.187   7.666  1.00  0.00     0.167 HD
ATOM     60  C   UNL     1       7.478  10.470   7.819  1.00  0.00     0.074 A 
ATOM     61  C   UNL     1       6.331  11.341   7.663  1.00  0.00     0.031 C 
ATOM     62  C   UNL     1       8.600  10.801   8.506  1.00  0.00     0.034 A 
BRANCH  49  63
ATOM     63  C   UNL     1      12.848   6.300   8.745  1.00  0.00     0.023 A 
ATOM     64  C   UNL     1      13.911   6.123   7.836  1.00  0.00     0.012 A 
ATOM     65  C   UNL     1      13.058   6.038  10.113  1.00  0.00     0.148 A 
ATOM     66  C   UNL     1      15.147   5.648   8.273  1.00  0.00     0.002 A 
ATOM     67  C   UNL     1      14.306   5.611  10.548  1.00  0.00     0.091 A 
ATOM     68  F   UNL     1      12.028   6.188  10.959  1.00  0.00    -0.205 F 
ATOM     69  C   UNL     1      15.346   5.400   9.628  1.00  0.00     0.022 A 
BRANCH  67  70
ATOM     70  S   UNL     1      14.683   5.337  12.282  1.00  0.00     0.127 S 
ATOM     71  O   UNL     1      14.792   3.880  12.334  1.00  0.00    -0.237 OA
ATOM     72  O   UNL     1      15.952   6.049  12.437  1.00  0.00    -0.237 OA
ATOM     73  O   UNL     1      13.572   5.908  13.030  1.00  0.00    -0.744 OA
ENDBRANCH  67  70
ENDBRANCH  49  63
BRANCH  50  74
ATOM     74  C   UNL     1       3.824   8.925   5.278  1.00  0.00     0.023 A 
ATOM     75  C   UNL     1       3.734   9.993   4.363  1.00  0.00     0.012 A 
ATOM     76  C   UNL     1       2.646   8.269   5.682  1.00  0.00     0.148 A 
ATOM     77  C   UNL     1       2.493  10.420   3.888  1.00  0.00     0.002 A 
ATOM     78  C   UNL     1       1.419   8.659   5.158  1.00  0.00     0.091 A 
ATOM     79  F   UNL     1       2.748   7.267   6.567  1.00  0.00    -0.205 F 
ATOM     80  C   UNL     1       1.337   9.748   4.277  1.00  0.00     0.022 A 
BRANCH  78  81
ATOM     81  S   UNL     1      -0.102   7.769   5.501  1.00  0.00     0.127 S 
ATOM     82  O   UNL     1      -0.854   8.749   6.280  1.00  0.00    -0.237 OA
ATOM     83  O   UNL     1      -0.614   7.525   4.153  1.00  0.00    -0.237 OA
ATOM     84  O   UNL     1       0.298   6.566   6.218  1.00  0.00    -0.744 OA
ENDBRANCH  78  81
ENDBRANCH  50  74
BRANCH  62  85
ATOM     85  C   UNL     1       8.676  12.188   9.091  1.00  0.00     0.023 A 
ATOM     86  C   UNL     1       7.881  12.539  10.200  1.00  0.00     0.012 A 
ATOM     87  C   UNL     1       9.594  13.126   8.574  1.00  0.00     0.148 A 
ATOM     88  C   UNL     1       7.971  13.813  10.761  1.00  0.00     0.002 A 
ATOM     89  C   UNL     1       9.717  14.373   9.173  1.00  0.00     0.091 A 
ATOM     90  F   UNL     1      10.328  12.781   7.506  1.00  0.00    -0.205 F 
ATOM     91  C   UNL     1       8.896  14.724  10.256  1.00  0.00     0.022 A 
BRANCH  89  92
ATOM     92  S   UNL     1      10.953  15.570   8.656  1.00  0.00     0.127 S 
ATOM     93  O   UNL     1      10.131  16.579   7.990  1.00  0.00    -0.237 OA
ATOM     94  O   UNL     1      11.525  15.995   9.934  1.00  0.00    -0.237 OA
ATOM     95  O   UNL     1      11.877  14.846   7.793  1.00  0.00    -0.744 OA
ENDBRANCH  89  92
ENDBRANCH  62  85
ENDBRANCH  36  37
ENDBRANCH  29  31
ENDBRANCH  28  29
ENDBRANCH  27  28
ENDBRANCH   1  27
TORSDOF 18
