REMARK SMILES [NH3+][C@]1(C(=O)OCCOC(=O)c2ccc(-c3c4nc(c(-c5cccc(S(=O)(=O)[O-])c5F)c5ccc([nH]5)c(-c5cccc(S(=O)(=O)[O-])c5F)c5nc(c(-c6cccc(S(=O)(=O)[O-])c6F)c6ccc3[nH]6)C=C5)C=C4)cc2)CC[C@@H]([NH+]2CCC(C(F)(F)F)CC2)C1
REMARK SMILES IDX 7 1 6 2 5 3 3 4 4 5 2 6 74 7 87 8 75 9 76 10 1 11 77 15
REMARK SMILES IDX 78 16 86 17 79 19 85 20 80 21 81 22 82 23 83 24 84 25 8 26
REMARK SMILES IDX 9 27 10 28 11 29 12 30 73 31 13 32 72 33 14 34 15 35 16 36
REMARK SMILES IDX 66 37 17 38 71 39 65 40 67 41 18 42 70 43 64 44 63 45 19 47
REMARK SMILES IDX 51 48 31 49 50 50 32 51 35 52 49 53 68 54 33 55 34 56 48 58
REMARK SMILES IDX 69 59 36 60 20 61 21 62 29 63 22 64 24 65 30 66 23 67 25 68
REMARK SMILES IDX 26 69 27 70 28 71 52 72 53 73 61 74 54 75 56 76 62 77 55 78
REMARK SMILES IDX 57 79 58 80 59 81 60 82 37 83 38 84 46 85 39 86 41 87 47 88
REMARK SMILES IDX 40 89 42 90 43 91 44 92 45 93
REMARK H PARENT 1 12 1 13 1 14 77 18 67 46 35 57
REMARK Flexibility Score: inf
ROOT
ATOM      1  C   UNL     1       2.391   2.446   0.011  1.00  0.00     0.275 C 
ENDROOT
BRANCH   1   2
ATOM      2  C   UNL     1       0.932   2.252   0.410  1.00  0.00     0.274 C 
BRANCH   2   3
ATOM      3  O   UNL     1       0.721   0.930   0.944  1.00  0.00    -0.457 OA
BRANCH   3   4
ATOM      4  C   UNL     1       0.072   0.045   0.137  1.00  0.00     0.368 C 
ATOM      5  O   UNL     1      -0.342   0.301  -0.990  1.00  0.00    -0.245 OA
BRANCH   4   6
ATOM      6  C   UNL     1      -0.184  -1.313   0.832  1.00  0.00     0.198 C 
ATOM      7  C   UNL     1       0.006  -2.465  -0.167  1.00  0.00     0.087 C 
ATOM      8  C   UNL     1       0.838  -1.658   1.924  1.00  0.00     0.145 C 
ATOM      9  C   UNL     1       0.226  -3.702   0.687  1.00  0.00     0.072 C 
ATOM     10  C   UNL     1       0.988  -3.197   1.925  1.00  0.00     0.191 C 
BRANCH   6  11
ATOM     11  N   UNL     1      -1.567  -1.317   1.369  1.00  0.00    -0.343 N 
ATOM     12  H   UNL     1      -1.750  -2.207   1.831  1.00  0.00     0.345 HD
ATOM     13  H   UNL     1      -2.229  -1.188   0.604  1.00  0.00     0.345 HD
ATOM     14  H   UNL     1      -1.673  -0.557   2.042  1.00  0.00     0.345 HD
ENDBRANCH   6  11
BRANCH  10  15
ATOM     15  N   UNL     1       2.369  -3.712   2.029  1.00  0.00    -0.332 N 
ATOM     16  C   UNL     1       3.257  -3.329   0.918  1.00  0.00     0.263 C 
ATOM     17  C   UNL     1       2.957  -3.380   3.334  1.00  0.00     0.263 C 
ATOM     18  H   UNL     1       2.285  -4.725   1.952  1.00  0.00     0.348 HD
ATOM     19  C   UNL     1       4.634  -3.984   1.045  1.00  0.00     0.074 C 
ATOM     20  C   UNL     1       4.316  -4.050   3.521  1.00  0.00     0.074 C 
ATOM     21  C   UNL     1       5.276  -3.658   2.395  1.00  0.00     0.106 C 
BRANCH  21  22
ATOM     22  C   UNL     1       6.614  -4.352   2.557  1.00  0.00     0.392 C 
ATOM     23  F   UNL     1       7.476  -3.978   1.588  1.00  0.00    -0.171 F 
ATOM     24  F   UNL     1       7.176  -4.030   3.745  1.00  0.00    -0.171 F 
ATOM     25  F   UNL     1       6.494  -5.696   2.514  1.00  0.00    -0.171 F 
ENDBRANCH  21  22
ENDBRANCH  10  15
ENDBRANCH   4   6
ENDBRANCH   3   4
ENDBRANCH   2   3
ENDBRANCH   1   2
BRANCH   1  26
ATOM     26  O   UNL     1       2.716   1.569  -1.079  1.00  0.00    -0.458 OA
BRANCH  26  27
ATOM     27  C   UNL     1       3.686   0.660  -0.835  1.00  0.00     0.338 C 
ATOM     28  O   UNL     1       4.334   0.518   0.187  1.00  0.00    -0.246 OA
BRANCH  27  29
ATOM     29  C   UNL     1       3.847  -0.213  -2.007  1.00  0.00     0.060 A 
ATOM     30  C   UNL     1       2.788  -1.024  -2.410  1.00  0.00     0.016 A 
ATOM     31  C   UNL     1       5.093  -0.326  -2.619  1.00  0.00     0.016 A 
ATOM     32  C   UNL     1       3.002  -2.035  -3.345  1.00  0.00     0.010 A 
ATOM     33  C   UNL     1       5.273  -1.267  -3.637  1.00  0.00     0.010 A 
ATOM     34  C   UNL     1       4.247  -2.168  -3.978  1.00  0.00    -0.014 A 
BRANCH  34  35
ATOM     35  C   UNL     1       4.505  -3.257  -4.964  1.00  0.00     0.031 A 
ATOM     36  C   UNL     1       5.650  -4.215  -4.744  1.00  0.00     0.074 A 
ATOM     37  C   UNL     1       3.751  -3.374  -6.076  1.00  0.00     0.049 A 
ATOM     38  N   UNL     1       6.183  -5.073  -5.575  1.00  0.00    -0.248 NA
ATOM     39  C   UNL     1       6.294  -4.189  -3.420  1.00  0.00     0.031 C 
ATOM     40  C   UNL     1       2.605  -2.531  -6.418  1.00  0.00     0.029 A 
ATOM     41  N   UNL     1       3.851  -4.242  -7.138  1.00  0.00    -0.354 N 
ATOM     42  C   UNL     1       7.276  -5.618  -4.911  1.00  0.00     0.074 A 
ATOM     43  C   UNL     1       7.319  -5.011  -3.599  1.00  0.00     0.031 C 
ATOM     44  C   UNL     1       2.099  -2.930  -7.595  1.00  0.00     0.029 A 
ATOM     45  C   UNL     1       2.927  -4.004  -8.130  1.00  0.00     0.049 A 
ATOM     46  H   UNL     1       4.518  -4.964  -7.184  1.00  0.00     0.167 HD
ATOM     47  C   UNL     1       8.160  -6.545  -5.351  1.00  0.00     0.034 A 
ATOM     48  C   UNL     1       2.783  -4.555  -9.352  1.00  0.00     0.034 A 
ATOM     49  C   UNL     1       8.061  -7.222  -6.616  1.00  0.00     0.049 A 
ATOM     50  C   UNL     1       3.748  -5.618  -9.798  1.00  0.00     0.074 A 
ATOM     51  C   UNL     1       8.885  -8.207  -7.132  1.00  0.00     0.029 A 
ATOM     52  N   UNL     1       7.064  -7.003  -7.554  1.00  0.00    -0.354 N 
ATOM     53  N   UNL     1       4.756  -6.142  -9.143  1.00  0.00    -0.248 NA
ATOM     54  C   UNL     1       3.553  -6.172 -11.145  1.00  0.00     0.031 C 
ATOM     55  C   UNL     1       8.380  -8.590  -8.380  1.00  0.00     0.029 A 
ATOM     56  C   UNL     1       7.243  -7.843  -8.639  1.00  0.00     0.049 A 
ATOM     57  H   UNL     1       6.336  -6.347  -7.461  1.00  0.00     0.167 HD
ATOM     58  C   UNL     1       5.305  -7.097  -9.991  1.00  0.00     0.074 A 
ATOM     59  C   UNL     1       4.500  -7.100 -11.196  1.00  0.00     0.031 C 
ATOM     60  C   UNL     1       6.395  -7.880  -9.802  1.00  0.00     0.034 A 
BRANCH  47  61
ATOM     61  C   UNL     1       9.300  -6.915  -4.440  1.00  0.00     0.023 A 
ATOM     62  C   UNL     1       9.069  -7.766  -3.342  1.00  0.00     0.012 A 
ATOM     63  C   UNL     1      10.610  -6.468  -4.705  1.00  0.00     0.148 A 
ATOM     64  C   UNL     1      10.119  -8.147  -2.507  1.00  0.00     0.002 A 
ATOM     65  C   UNL     1      11.658  -6.881  -3.890  1.00  0.00     0.091 A 
ATOM     66  F   UNL     1      10.807  -5.635  -5.738  1.00  0.00    -0.205 F 
ATOM     67  C   UNL     1      11.413  -7.714  -2.786  1.00  0.00     0.022 A 
BRANCH  65  68
ATOM     68  S   UNL     1      13.365  -6.429  -4.226  1.00  0.00     0.127 S 
ATOM     69  O   UNL     1      13.572  -5.328  -3.287  1.00  0.00    -0.237 OA
ATOM     70  O   UNL     1      14.088  -7.657  -3.893  1.00  0.00    -0.237 OA
ATOM     71  O   UNL     1      13.405  -6.073  -5.638  1.00  0.00    -0.744 OA
ENDBRANCH  65  68
ENDBRANCH  47  61
BRANCH  48  72
ATOM     72  C   UNL     1       1.657  -4.122 -10.227  1.00  0.00     0.023 A 
ATOM     73  C   UNL     1       0.589  -5.009 -10.462  1.00  0.00     0.012 A 
ATOM     74  C   UNL     1       1.604  -2.826 -10.774  1.00  0.00     0.148 A 
ATOM     75  C   UNL     1      -0.505  -4.617 -11.234  1.00  0.00     0.002 A 
ATOM     76  C   UNL     1       0.483  -2.421 -11.491  1.00  0.00     0.091 A 
ATOM     77  F   UNL     1       2.642  -2.003 -10.567  1.00  0.00    -0.205 F 
ATOM     78  C   UNL     1      -0.566  -3.318 -11.734  1.00  0.00     0.022 A 
BRANCH  76  79
ATOM     79  S   UNL     1       0.270  -0.719 -12.027  1.00  0.00     0.127 S 
ATOM     80  O   UNL     1       0.660  -0.793 -13.431  1.00  0.00    -0.237 OA
ATOM     81  O   UNL     1      -1.159  -0.497 -11.796  1.00  0.00    -0.237 OA
ATOM     82  O   UNL     1       1.138   0.066 -11.158  1.00  0.00    -0.744 OA
ENDBRANCH  76  79
ENDBRANCH  48  72
BRANCH  60  83
ATOM     83  C   UNL     1       6.774  -8.825 -10.908  1.00  0.00     0.023 A 
ATOM     84  C   UNL     1       7.437  -8.324 -12.046  1.00  0.00     0.012 A 
ATOM     85  C   UNL     1       6.549 -10.209 -10.789  1.00  0.00     0.148 A 
ATOM     86  C   UNL     1       7.853  -9.186 -13.059  1.00  0.00     0.002 A 
ATOM     87  C   UNL     1       6.998 -11.067 -11.787  1.00  0.00     0.091 A 
ATOM     88  F   UNL     1       5.894 -10.662  -9.710  1.00  0.00    -0.205 F 
ATOM     89  C   UNL     1       7.645 -10.557 -12.924  1.00  0.00     0.022 A 
BRANCH  87  90
ATOM     90  S   UNL     1       6.838 -12.851 -11.649  1.00  0.00     0.127 S 
ATOM     91  O   UNL     1       5.666 -13.111 -12.484  1.00  0.00    -0.237 OA
ATOM     92  O   UNL     1       8.103 -13.328 -12.210  1.00  0.00    -0.237 OA
ATOM     93  O   UNL     1       6.674 -13.123 -10.227  1.00  0.00    -0.744 OA
ENDBRANCH  87  90
ENDBRANCH  60  83
ENDBRANCH  34  35
ENDBRANCH  27  29
ENDBRANCH  26  27
ENDBRANCH   1  26
TORSDOF 17
