REMARK SMILES Cc1cccc(-n2c(C)cc(/C=N\c3ccc(O)c(C(=O)OCCOC(=O)c4ccc(-c5c6nc(c(-c7cccc(S(=O)(=O)[O-])c7F)c7ccc([nH]7)c(-c7cccc(S(=O)(=O)[O-])c7F)c7nc(c(-c8cccc(S(=O)(=O)[O-])c8F)c8ccc5[nH]8)C=C7)C=C6)cc4)c3)c2C)c1
REMARK SMILES IDX 23 1 22 2 20 3 21 4 19 5 14 6 15 7 91 8 16 9 17 10 13 11
REMARK SMILES IDX 12 12 11 13 7 14 8 15 92 16 9 17 10 18 93 19 6 20 1 21 2 22
REMARK SMILES IDX 3 23 94 24 4 25 5 26 18 27 24 29 25 30 26 31 27 32 28 33
REMARK SMILES IDX 29 34 90 35 30 36 89 37 31 38 32 39 33 40 83 41 34 42 88 43
REMARK SMILES IDX 82 44 84 45 35 46 87 47 81 48 80 49 36 51 68 52 48 53 67 54
REMARK SMILES IDX 49 55 52 56 66 57 85 58 50 59 51 60 65 62 86 63 53 64 37 65
REMARK SMILES IDX 38 66 46 67 39 68 41 69 47 70 40 71 42 72 43 73 44 74 45 75
REMARK SMILES IDX 69 76 70 77 78 78 71 79 73 80 79 81 72 82 74 83 75 84 76 85
REMARK SMILES IDX 77 86 54 87 55 88 63 89 56 90 58 91 64 92 57 93 59 94 60 95
REMARK SMILES IDX 61 96 62 97
REMARK H PARENT 18 28 84 50 52 61
REMARK Flexibility Score: inf
ROOT
ATOM      1  C   UNL     1      -7.436  -2.201   6.689  1.00  0.00     0.275 C 
ENDROOT
BRANCH   1   2
ATOM      2  O   UNL     1      -6.268  -1.830   5.951  1.00  0.00    -0.458 OA
BRANCH   2   3
ATOM      3  C   UNL     1      -6.276  -0.462   5.316  1.00  0.00     0.342 C 
ATOM      4  O   UNL     1      -7.528  -0.299   5.208  1.00  0.00    -0.246 OA
BRANCH   3   5
ATOM      5  C   UNL     1      -4.561   0.761   4.825  1.00  0.00     0.103 A 
ATOM      6  C   UNL     1      -3.492   3.092   3.739  1.00  0.00     0.064 A 
ATOM      7  C   UNL     1      -2.211   2.824   4.130  1.00  0.00     0.032 A 
ATOM      8  C   UNL     1      -4.535   2.169   4.117  1.00  0.00     0.048 A 
ATOM      9  C   UNL     1      -1.981   1.605   4.741  1.00  0.00     0.049 A 
ATOM     10  C   UNL     1      -3.030   0.641   5.028  1.00  0.00     0.130 A 
BRANCH   6  11
ATOM     11  N   UNL     1      -3.845   4.262   3.055  1.00  0.00    -0.256 NA
ATOM     12  C   UNL     1      -3.660   4.509   1.786  1.00  0.00     0.121 C 
BRANCH  12  13
ATOM     13  C   UNL     1      -2.911   3.802   0.742  1.00  0.00     0.014 A 
ATOM     14  N   UNL     1      -1.721   2.301  -0.457  1.00  0.00    -0.318 N 
ATOM     15  C   UNL     1      -1.595   3.507  -1.120  1.00  0.00     0.021 A 
ATOM     16  C   UNL     1      -2.633   2.451   0.580  1.00  0.00     0.029 A 
ATOM     17  C   UNL     1      -0.827   3.645  -2.389  1.00  0.00     0.065 C 
ATOM     18  C   UNL     1      -2.353   4.433  -0.423  1.00  0.00     0.033 A 
ATOM     19  C   UNL     1      -3.106   1.287   1.365  1.00  0.00     0.065 C 
BRANCH  14  20
ATOM     20  C   UNL     1      -0.934   1.138  -0.656  1.00  0.00     0.046 A 
ATOM     21  C   UNL     1       2.640   0.021   0.006  1.00  0.00     0.044 C 
ATOM     22  C   UNL     1       1.170   0.009  -0.279  1.00  0.00    -0.049 A 
ATOM     23  C   UNL     1       0.506  -1.221  -0.403  1.00  0.00     0.003 A 
ATOM     24  C   UNL     1       0.441   1.200  -0.404  1.00  0.00     0.030 A 
ATOM     25  C   UNL     1      -0.850  -1.268  -0.720  1.00  0.00     0.002 A 
ATOM     26  C   UNL     1      -1.567  -0.088  -0.871  1.00  0.00     0.026 A 
ENDBRANCH  14  20
ENDBRANCH  12  13
ENDBRANCH   6  11
BRANCH  10  27
ATOM     27  O   UNL     1      -2.333  -0.471   5.540  1.00  0.00    -0.507 OA
ATOM     28  H   UNL     1      -1.400  -0.441   5.624  1.00  0.00     0.293 HD
ENDBRANCH  10  27
ENDBRANCH   3   5
ENDBRANCH   2   3
ENDBRANCH   1   2
BRANCH   1  29
ATOM     29  C   UNL     1      -7.455  -1.407   8.003  1.00  0.00     0.275 C 
BRANCH  29  30
ATOM     30  O   UNL     1      -7.545   0.045   7.886  1.00  0.00    -0.458 OA
BRANCH  30  31
ATOM     31  C   UNL     1      -6.436   0.840   8.002  1.00  0.00     0.338 C 
ATOM     32  O   UNL     1      -6.257   1.642   8.902  1.00  0.00    -0.246 OA
BRANCH  31  33
ATOM     33  C   UNL     1      -5.636   0.862   6.750  1.00  0.00     0.060 A 
ATOM     34  C   UNL     1      -6.512   1.581   5.342  1.00  0.00     0.016 A 
ATOM     35  C   UNL     1      -4.594  -0.586   6.517  1.00  0.00     0.016 A 
ATOM     36  C   UNL     1      -6.419   0.762   3.684  1.00  0.00     0.010 A 
ATOM     37  C   UNL     1      -4.498  -1.390   4.857  1.00  0.00     0.010 A 
ATOM     38  C   UNL     1      -5.452  -0.733   3.467  1.00  0.00    -0.014 A 
BRANCH  38  39
ATOM     39  C   UNL     1      -5.946  -1.815   2.592  1.00  0.00     0.031 A 
ATOM     40  C   UNL     1      -4.908  -2.612   1.906  1.00  0.00     0.074 A 
ATOM     41  C   UNL     1      -7.259  -2.191   2.582  1.00  0.00     0.049 A 
ATOM     42  N   UNL     1      -5.164  -3.485   1.006  1.00  0.00    -0.248 NA
ATOM     43  C   UNL     1      -3.472  -2.465   2.140  1.00  0.00     0.031 C 
ATOM     44  C   UNL     1      -7.829  -3.485   2.181  1.00  0.00     0.029 A 
ATOM     45  N   UNL     1      -8.406  -1.480   2.916  1.00  0.00    -0.354 N 
ATOM     46  C   UNL     1      -3.991  -4.112   0.647  1.00  0.00     0.074 A 
ATOM     47  C   UNL     1      -2.961  -3.448   1.393  1.00  0.00     0.031 C 
ATOM     48  C   UNL     1      -9.170  -3.394   2.095  1.00  0.00     0.029 A 
ATOM     49  C   UNL     1      -9.540  -2.006   2.286  1.00  0.00     0.049 A 
ATOM     50  H   UNL     1      -8.420  -0.703   3.520  1.00  0.00     0.167 HD
ATOM     51  C   UNL     1      -4.077  -5.171  -0.198  1.00  0.00     0.034 A 
ATOM     52  C   UNL     1     -10.323  -1.284   1.418  1.00  0.00     0.034 A 
ATOM     53  C   UNL     1      -5.472  -5.306  -0.649  1.00  0.00     0.049 A 
ATOM     54  C   UNL     1     -10.057  -1.708  -0.043  1.00  0.00     0.074 A 
ATOM     55  C   UNL     1      -6.561  -6.020  -0.178  1.00  0.00     0.029 A 
ATOM     56  N   UNL     1      -5.997  -4.297  -1.441  1.00  0.00    -0.354 N 
ATOM     57  N   UNL     1      -9.280  -2.696  -0.403  1.00  0.00    -0.248 NA
ATOM     58  C   UNL     1     -10.546  -0.961  -1.204  1.00  0.00     0.031 C 
ATOM     59  C   UNL     1      -7.744  -5.413  -0.700  1.00  0.00     0.029 A 
ATOM     60  C   UNL     1      -7.375  -4.376  -1.539  1.00  0.00     0.049 A 
ATOM     61  H   UNL     1      -5.454  -3.605  -1.882  1.00  0.00     0.167 HD
ATOM     62  C   UNL     1      -8.979  -2.589  -1.741  1.00  0.00     0.074 A 
ATOM     63  C   UNL     1      -9.766  -1.448  -2.180  1.00  0.00     0.031 C 
ATOM     64  C   UNL     1      -8.075  -3.404  -2.377  1.00  0.00     0.034 A 
BRANCH  51  65
ATOM     65  C   UNL     1      -3.005  -6.210  -0.467  1.00  0.00     0.023 A 
ATOM     66  C   UNL     1      -3.473  -7.448  -0.965  1.00  0.00     0.012 A 
ATOM     67  C   UNL     1      -1.610  -6.128  -0.223  1.00  0.00     0.148 A 
ATOM     68  C   UNL     1      -2.646  -8.561  -1.132  1.00  0.00     0.002 A 
ATOM     69  C   UNL     1      -0.782  -7.253  -0.367  1.00  0.00     0.091 A 
ATOM     70  F   UNL     1      -1.058  -4.960   0.115  1.00  0.00    -0.205 F 
ATOM     71  C   UNL     1      -1.303  -8.471  -0.813  1.00  0.00     0.022 A 
BRANCH  69  72
ATOM     72  S   UNL     1       0.975  -7.261   0.051  1.00  0.00     0.127 S 
ATOM     73  O   UNL     1       1.048  -8.339   1.040  1.00  0.00    -0.237 OA
ATOM     74  O   UNL     1       1.606  -7.574  -1.230  1.00  0.00    -0.237 OA
ATOM     75  O   UNL     1       1.276  -5.938   0.585  1.00  0.00    -0.744 OA
ENDBRANCH  69  72
ENDBRANCH  51  65
BRANCH  52  76
ATOM     76  C   UNL     1     -10.505   0.148   1.854  1.00  0.00     0.023 A 
ATOM     77  C   UNL     1     -10.873   0.376   3.204  1.00  0.00     0.012 A 
ATOM     78  C   UNL     1      -9.835   1.166   1.174  1.00  0.00     0.148 A 
ATOM     79  C   UNL     1     -10.297   1.434   3.916  1.00  0.00     0.002 A 
ATOM     80  C   UNL     1      -9.220   2.175   1.887  1.00  0.00     0.091 A 
ATOM     81  F   UNL     1      -9.688   1.129  -0.152  1.00  0.00    -0.205 F 
ATOM     82  C   UNL     1      -9.416   2.300   3.266  1.00  0.00     0.022 A 
BRANCH  80  83
ATOM     83  S   UNL     1      -7.863   3.002   1.035  1.00  0.00     0.127 S 
ATOM     84  O   UNL     1      -7.218   3.751   2.110  1.00  0.00    -0.237 OA
ATOM     85  O   UNL     1      -7.073   1.885   0.527  1.00  0.00    -0.237 OA
ATOM     86  O   UNL     1      -8.557   3.815   0.044  1.00  0.00    -0.744 OA
ENDBRANCH  80  83
ENDBRANCH  52  76
BRANCH  64  87
ATOM     87  C   UNL     1      -7.764  -3.346  -3.875  1.00  0.00     0.023 A 
ATOM     88  C   UNL     1      -8.678  -2.797  -4.792  1.00  0.00     0.012 A 
ATOM     89  C   UNL     1      -6.604  -3.935  -4.451  1.00  0.00     0.148 A 
ATOM     90  C   UNL     1      -8.396  -2.685  -6.158  1.00  0.00     0.002 A 
ATOM     91  C   UNL     1      -6.341  -3.869  -5.814  1.00  0.00     0.091 A 
ATOM     92  F   UNL     1      -5.745  -4.623  -3.700  1.00  0.00    -0.205 F 
ATOM     93  C   UNL     1      -7.217  -3.206  -6.668  1.00  0.00     0.022 A 
BRANCH  91  94
ATOM     94  S   UNL     1      -4.921  -4.691  -6.554  1.00  0.00     0.127 S 
ATOM     95  O   UNL     1      -5.574  -5.706  -7.381  1.00  0.00    -0.237 OA
ATOM     96  O   UNL     1      -4.300  -3.598  -7.302  1.00  0.00    -0.237 OA
ATOM     97  O   UNL     1      -4.121  -5.212  -5.455  1.00  0.00    -0.744 OA
ENDBRANCH  91  94
ENDBRANCH  64  87
ENDBRANCH  38  39
ENDBRANCH  31  33
ENDBRANCH  30  31
ENDBRANCH  29  30
ENDBRANCH   1  29
TORSDOF 18
