REMARK SMILES C[C@@H](C(=O)OCCOC(=O)c1ccc(-c2c3nc(c(-c4cccc(S(=O)(=O)[O-])c4F)c4ccc([nH]4)c(-c4cccc(S(=O)(=O)[O-])c4F)c4nc(c(-c5cccc(S(=O)(=O)[O-])c5F)c5ccc2[nH]5)C=C4)C=C3)cc1)c1ccc(-c2cccc(OC(=O)Nc3ccccc3)c2)c(F)c1
REMARK SMILES IDX 6 1 5 2 3 3 4 4 2 5 1 6 74 7 75 8 96 9 76 10 94 11 77 12
REMARK SMILES IDX 95 13 78 14 79 15 93 16 80 17 82 18 81 19 83 20 84 21 85 22
REMARK SMILES IDX 86 23 87 25 88 26 92 27 89 28 91 29 90 30 7 31 8 32 9 33
REMARK SMILES IDX 10 34 11 35 12 36 73 37 13 38 72 39 14 40 15 41 16 42 66 43
REMARK SMILES IDX 17 44 71 45 65 46 67 47 18 48 70 49 64 50 63 51 19 53 51 54
REMARK SMILES IDX 31 55 50 56 32 57 35 58 49 59 68 60 33 61 34 62 48 64 69 65
REMARK SMILES IDX 36 66 20 67 21 68 29 69 22 70 24 71 30 72 23 73 25 74 26 75
REMARK SMILES IDX 27 76 28 77 52 78 53 79 61 80 54 81 56 82 62 83 55 84 57 85
REMARK SMILES IDX 58 86 59 87 60 88 37 89 38 90 46 91 39 92 41 93 47 94 40 95
REMARK SMILES IDX 42 96 43 97 44 98 45 99
REMARK H PARENT 86 24 67 52 35 63
REMARK Flexibility Score: inf
ROOT
ATOM      1  C   UNL     1       2.760   1.239  -3.527  1.00  0.00     0.274 C 
ENDROOT
BRANCH   1   2
ATOM      2  O   UNL     1       2.320   1.036  -2.169  1.00  0.00    -0.462 OA
BRANCH   2   3
ATOM      3  C   UNL     1       1.315   1.839  -1.723  1.00  0.00     0.313 C 
ATOM      4  O   UNL     1       0.832   2.758  -2.376  1.00  0.00    -0.252 OA
BRANCH   3   5
ATOM      5  C   UNL     1       0.892   1.512  -0.284  1.00  0.00     0.126 C 
ATOM      6  C   UNL     1       1.604   0.281   0.291  1.00  0.00     0.025 C 
BRANCH   5   7
ATOM      7  C   UNL     1      -0.627   1.456  -0.143  1.00  0.00    -0.031 A 
ATOM      8  C   UNL     1      -1.366   2.650  -0.109  1.00  0.00     0.005 A 
ATOM      9  C   UNL     1      -1.339   0.252  -0.088  1.00  0.00     0.044 A 
ATOM     10  C   UNL     1      -2.767   2.638  -0.021  1.00  0.00     0.012 A 
ATOM     11  C   UNL     1      -2.735   0.248   0.001  1.00  0.00     0.131 A 
ATOM     12  C   UNL     1      -3.487   1.433   0.034  1.00  0.00     0.018 A 
ATOM     13  F   UNL     1      -3.345  -0.947   0.006  1.00  0.00    -0.206 F 
BRANCH  12  14
ATOM     14  C   UNL     1      -4.964   1.421   0.104  1.00  0.00    -0.012 A 
ATOM     15  C   UNL     1      -5.750   2.284  -0.683  1.00  0.00     0.009 A 
ATOM     16  C   UNL     1      -5.634   0.542   0.974  1.00  0.00     0.056 A 
ATOM     17  C   UNL     1      -7.147   2.258  -0.617  1.00  0.00     0.004 A 
ATOM     18  C   UNL     1      -7.025   0.543   1.063  1.00  0.00     0.133 A 
ATOM     19  C   UNL     1      -7.787   1.383   0.253  1.00  0.00     0.047 A 
BRANCH  18  20
ATOM     20  O   UNL     1      -7.768  -0.247   1.970  1.00  0.00    -0.410 OA
BRANCH  20  21
ATOM     21  C   UNL     1      -7.261  -0.806   3.136  1.00  0.00     0.417 C 
ATOM     22  O   UNL     1      -6.073  -0.896   3.439  1.00  0.00    -0.224 OA
ATOM     23  N   UNL     1      -8.205  -1.167   4.063  1.00  0.00    -0.291 N 
ATOM     24  H   UNL     1      -7.837  -1.484   4.920  1.00  0.00     0.173 HD
BRANCH  23  25
ATOM     25  C   UNL     1      -9.606  -1.161   3.998  1.00  0.00     0.044 A 
ATOM     26  C   UNL     1     -10.288  -1.129   5.223  1.00  0.00     0.026 A 
ATOM     27  C   UNL     1     -10.341  -1.200   2.812  1.00  0.00     0.026 A 
ATOM     28  C   UNL     1     -11.683  -1.090   5.261  1.00  0.00     0.002 A 
ATOM     29  C   UNL     1     -11.739  -1.180   2.853  1.00  0.00     0.002 A 
ATOM     30  C   UNL     1     -12.408  -1.115   4.074  1.00  0.00     0.000 A 
ENDBRANCH  23  25
ENDBRANCH  20  21
ENDBRANCH  18  20
ENDBRANCH  12  14
ENDBRANCH   5   7
ENDBRANCH   3   5
ENDBRANCH   2   3
ENDBRANCH   1   2
BRANCH   1  31
ATOM     31  C   UNL     1       2.281   0.091  -4.410  1.00  0.00     0.275 C 
BRANCH  31  32
ATOM     32  O   UNL     1       0.849   0.135  -4.515  1.00  0.00    -0.458 OA
BRANCH  32  33
ATOM     33  C   UNL     1       0.182  -0.905  -3.962  1.00  0.00     0.338 C 
ATOM     34  O   UNL     1       0.661  -1.893  -3.433  1.00  0.00    -0.246 OA
BRANCH  33  35
ATOM     35  C   UNL     1      -1.266  -0.667  -4.074  1.00  0.00     0.060 A 
ATOM     36  C   UNL     1      -1.824   0.469  -3.495  1.00  0.00     0.016 A 
ATOM     37  C   UNL     1      -2.088  -1.637  -4.650  1.00  0.00     0.016 A 
ATOM     38  C   UNL     1      -3.210   0.582  -3.401  1.00  0.00     0.010 A 
ATOM     39  C   UNL     1      -3.479  -1.469  -4.630  1.00  0.00     0.010 A 
ATOM     40  C   UNL     1      -4.064  -0.385  -3.955  1.00  0.00    -0.014 A 
BRANCH  40  41
ATOM     41  C   UNL     1      -5.547  -0.288  -3.770  1.00  0.00     0.031 A 
ATOM     42  C   UNL     1      -6.324  -1.435  -3.166  1.00  0.00     0.074 A 
ATOM     43  C   UNL     1      -6.214   0.834  -4.115  1.00  0.00     0.049 A 
ATOM     44  N   UNL     1      -7.621  -1.604  -3.088  1.00  0.00    -0.248 NA
ATOM     45  C   UNL     1      -5.548  -2.556  -2.612  1.00  0.00     0.031 C 
ATOM     46  C   UNL     1      -5.609   2.037  -4.685  1.00  0.00     0.029 A 
ATOM     47  N   UNL     1      -7.546   1.158  -4.007  1.00  0.00    -0.354 N 
ATOM     48  C   UNL     1      -7.810  -2.889  -2.589  1.00  0.00     0.074 A 
ATOM     49  C   UNL     1      -6.497  -3.445  -2.351  1.00  0.00     0.031 C 
ATOM     50  C   UNL     1      -6.541   2.996  -4.785  1.00  0.00     0.029 A 
ATOM     51  C   UNL     1      -7.833   2.451  -4.379  1.00  0.00     0.049 A 
ATOM     52  H   UNL     1      -8.230   0.524  -3.692  1.00  0.00     0.167 HD
ATOM     53  C   UNL     1      -8.972  -3.545  -2.351  1.00  0.00     0.034 A 
ATOM     54  C   UNL     1      -9.001   3.126  -4.398  1.00  0.00     0.034 A 
ATOM     55  C   UNL     1     -10.276  -2.945  -2.449  1.00  0.00     0.049 A 
ATOM     56  C   UNL     1     -10.267   2.413  -4.014  1.00  0.00     0.074 A 
ATOM     57  C   UNL     1     -11.510  -3.525  -2.210  1.00  0.00     0.029 A 
ATOM     58  N   UNL     1     -10.513  -1.619  -2.771  1.00  0.00    -0.354 N 
ATOM     59  N   UNL     1     -10.424   1.197  -3.553  1.00  0.00    -0.248 NA
ATOM     60  C   UNL     1     -11.523   3.166  -4.161  1.00  0.00     0.031 C 
ATOM     61  C   UNL     1     -12.495  -2.545  -2.380  1.00  0.00     0.029 A 
ATOM     62  C   UNL     1     -11.871  -1.357  -2.723  1.00  0.00     0.049 A 
ATOM     63  H   UNL     1      -9.818  -0.960  -2.999  1.00  0.00     0.167 HD
ATOM     64  C   UNL     1     -11.791   1.032  -3.370  1.00  0.00     0.074 A 
ATOM     65  C   UNL     1     -12.415   2.295  -3.708  1.00  0.00     0.031 C 
ATOM     66  C   UNL     1     -12.474  -0.080  -3.003  1.00  0.00     0.034 A 
BRANCH  53  67
ATOM     67  C   UNL     1      -8.896  -4.993  -1.942  1.00  0.00     0.023 A 
ATOM     68  C   UNL     1      -8.540  -5.338  -0.625  1.00  0.00     0.012 A 
ATOM     69  C   UNL     1      -9.255  -6.011  -2.851  1.00  0.00     0.148 A 
ATOM     70  C   UNL     1      -8.518  -6.675  -0.225  1.00  0.00     0.002 A 
ATOM     71  C   UNL     1      -9.269  -7.337  -2.433  1.00  0.00     0.091 A 
ATOM     72  F   UNL     1      -9.570  -5.667  -4.108  1.00  0.00    -0.205 F 
ATOM     73  C   UNL     1      -8.893  -7.671  -1.123  1.00  0.00     0.022 A 
BRANCH  71  74
ATOM     74  S   UNL     1      -9.821  -8.673  -3.503  1.00  0.00     0.127 S 
ATOM     75  O   UNL     1      -8.550  -9.257  -3.930  1.00  0.00    -0.237 OA
ATOM     76  O   UNL     1     -10.598  -9.510  -2.587  1.00  0.00    -0.237 OA
ATOM     77  O   UNL     1     -10.610  -8.040  -4.551  1.00  0.00    -0.744 OA
ENDBRANCH  71  74
ENDBRANCH  53  67
BRANCH  54  78
ATOM     78  C   UNL     1      -9.012   4.578  -4.741  1.00  0.00     0.023 A 
ATOM     79  C   UNL     1      -9.340   5.513  -3.739  1.00  0.00     0.012 A 
ATOM     80  C   UNL     1      -8.640   5.047  -6.014  1.00  0.00     0.148 A 
ATOM     81  C   UNL     1      -9.302   6.883  -4.001  1.00  0.00     0.002 A 
ATOM     82  C   UNL     1      -8.532   6.414  -6.247  1.00  0.00     0.091 A 
ATOM     83  F   UNL     1      -8.372   4.151  -6.975  1.00  0.00    -0.205 F 
ATOM     84  C   UNL     1      -8.878   7.335  -5.248  1.00  0.00     0.022 A 
BRANCH  82  85
ATOM     85  S   UNL     1      -7.807   7.039  -7.767  1.00  0.00     0.127 S 
ATOM     86  O   UNL     1      -8.986   7.254  -8.600  1.00  0.00    -0.237 OA
ATOM     87  O   UNL     1      -7.137   8.261  -7.320  1.00  0.00    -0.237 OA
ATOM     88  O   UNL     1      -6.892   5.989  -8.197  1.00  0.00    -0.744 OA
ENDBRANCH  82  85
ENDBRANCH  54  78
BRANCH  66  89
ATOM     89  C   UNL     1     -13.975   0.009  -2.955  1.00  0.00     0.023 A 
ATOM     90  C   UNL     1     -14.702   0.012  -4.162  1.00  0.00     0.012 A 
ATOM     91  C   UNL     1     -14.668   0.008  -1.729  1.00  0.00     0.148 A 
ATOM     92  C   UNL     1     -16.096   0.040  -4.152  1.00  0.00     0.002 A 
ATOM     93  C   UNL     1     -16.058  -0.001  -1.726  1.00  0.00     0.091 A 
ATOM     94  F   UNL     1     -13.958   0.022  -0.591  1.00  0.00    -0.205 F 
ATOM     95  C   UNL     1     -16.774   0.023  -2.935  1.00  0.00     0.022 A 
BRANCH  93  96
ATOM     96  S   UNL     1     -17.007  -0.106  -0.203  1.00  0.00     0.127 S 
ATOM     97  O   UNL     1     -17.432   1.280  -0.021  1.00  0.00    -0.237 OA
ATOM     98  O   UNL     1     -18.082  -1.031  -0.563  1.00  0.00    -0.237 OA
ATOM     99  O   UNL     1     -16.084  -0.620   0.801  1.00  0.00    -0.744 OA
ENDBRANCH  93  96
ENDBRANCH  66  89
ENDBRANCH  40  41
ENDBRANCH  33  35
ENDBRANCH  32  33
ENDBRANCH  31  32
ENDBRANCH   1  31
TORSDOF 19
