REMARK SMILES CC(C)CCNC(=O)[C@@H](C)Oc1ccc(N)cc1C(=O)OCCOC(=O)c1ccc(-c2c3nc(c(-c4cccc(S(=O)(=O)[O-])c4F)c4ccc([nH]4)c(-c4cccc(S(=O)(=O)[O-])c4F)c4nc(c(-c5cccc(S(=O)(=O)[O-])c5F)c5ccc2[nH]5)C=C4)C=C3)cc1
REMARK SMILES IDX 21 1 19 2 20 3 18 4 12 5 13 6 14 7 17 8 15 9 11 10 9 11
REMARK SMILES IDX 10 12 7 13 6 14 8 16 5 17 4 18 2 19 1 20 3 21 16 22 22 25
REMARK SMILES IDX 23 26 24 27 25 28 26 29 27 30 28 31 89 32 29 33 88 34 30 35
REMARK SMILES IDX 31 36 32 37 82 38 33 39 87 40 81 41 83 42 34 43 86 44 80 45
REMARK SMILES IDX 79 46 35 48 67 49 47 50 66 51 48 52 51 53 65 54 84 55 49 56
REMARK SMILES IDX 50 57 64 59 85 60 52 61 36 62 37 63 45 64 38 65 40 66 46 67
REMARK SMILES IDX 39 68 41 69 42 70 43 71 44 72 68 73 69 74 77 75 70 76 72 77
REMARK SMILES IDX 78 78 71 79 73 80 74 81 75 82 76 83 53 84 54 85 62 86 55 87
REMARK SMILES IDX 57 88 63 89 56 90 58 91 59 92 60 93 61 94
REMARK H PARENT 6 15 16 23 16 24 83 47 51 58
REMARK Flexibility Score: inf
ROOT
ATOM      1  O   UNL     1      -5.957  -2.235  -0.915  1.00  0.00    -0.458 OA
ENDROOT
BRANCH   1   2
ATOM      2  C   UNL     1      -5.253  -1.694  -1.937  1.00  0.00     0.342 C 
ATOM      3  O   UNL     1      -5.729  -1.284  -2.983  1.00  0.00    -0.246 OA
BRANCH   2   4
ATOM      4  C   UNL     1      -3.791  -1.620  -1.706  1.00  0.00     0.104 A 
ATOM      5  C   UNL     1      -3.016  -2.712  -1.325  1.00  0.00     0.135 A 
ATOM      6  C   UNL     1      -1.660  -2.731  -1.664  1.00  0.00     0.049 A 
ATOM      7  C   UNL     1      -1.041  -1.582  -2.172  1.00  0.00     0.029 A 
ATOM      8  C   UNL     1      -3.142  -0.450  -2.128  1.00  0.00     0.045 A 
ATOM      9  C   UNL     1      -1.765  -0.404  -2.327  1.00  0.00     0.032 A 
BRANCH   5  10
ATOM     10  O   UNL     1      -3.548  -3.786  -0.679  1.00  0.00    -0.480 OA
BRANCH  10  11
ATOM     11  C   UNL     1      -3.292  -3.791   0.735  1.00  0.00     0.258 C 
ATOM     12  C   UNL     1      -4.256  -2.901   1.525  1.00  0.00     0.064 C 
BRANCH  11  13
ATOM     13  C   UNL     1      -1.839  -3.817   1.320  1.00  0.00     0.260 C 
ATOM     14  N   UNL     1      -1.128  -2.701   1.659  1.00  0.00    -0.353 N 
ATOM     15  H   UNL     1      -0.338  -2.871   2.221  1.00  0.00     0.163 HD
ATOM     16  O   UNL     1      -1.273  -4.902   1.508  1.00  0.00    -0.271 OA
BRANCH  14  17
ATOM     17  C   UNL     1      -1.349  -1.306   1.326  1.00  0.00     0.116 C 
BRANCH  17  18
ATOM     18  C   UNL     1      -0.638  -0.319   2.248  1.00  0.00     0.024 C 
BRANCH  18  19
ATOM     19  C   UNL     1       0.896  -0.237   2.093  1.00  0.00    -0.016 C 
ATOM     20  C   UNL     1       1.349   0.073   0.662  1.00  0.00     0.007 C 
ATOM     21  C   UNL     1       1.436   0.845   3.034  1.00  0.00     0.007 C 
ENDBRANCH  18  19
ENDBRANCH  17  18
ENDBRANCH  14  17
ENDBRANCH  11  13
ENDBRANCH  10  11
ENDBRANCH   5  10
BRANCH   9  22
ATOM     22  N   UNL     1      -1.144   0.793  -2.616  1.00  0.00    -0.399 N 
ATOM     23  H   UNL     1      -0.170   0.821  -2.756  1.00  0.00     0.156 HD
ATOM     24  H   UNL     1      -1.675   1.620  -2.682  1.00  0.00     0.156 HD
ENDBRANCH   9  22
ENDBRANCH   2   4
ENDBRANCH   1   2
BRANCH   1  25
ATOM     25  C   UNL     1      -7.367  -2.404  -1.176  1.00  0.00     0.275 C 
BRANCH  25  26
ATOM     26  C   UNL     1      -8.219  -1.274  -0.595  1.00  0.00     0.275 C 
BRANCH  26  27
ATOM     27  O   UNL     1      -7.981  -0.023  -1.262  1.00  0.00    -0.458 OA
BRANCH  27  28
ATOM     28  C   UNL     1      -7.144   0.814  -0.617  1.00  0.00     0.338 C 
ATOM     29  O   UNL     1      -6.579   0.619   0.456  1.00  0.00    -0.246 OA
BRANCH  28  30
ATOM     30  C   UNL     1      -6.921   2.033  -1.401  1.00  0.00     0.060 A 
ATOM     31  C   UNL     1      -5.952   2.010  -2.399  1.00  0.00     0.016 A 
ATOM     32  C   UNL     1      -7.508   3.237  -1.022  1.00  0.00     0.016 A 
ATOM     33  C   UNL     1      -5.452   3.199  -2.918  1.00  0.00     0.010 A 
ATOM     34  C   UNL     1      -7.094   4.422  -1.641  1.00  0.00     0.010 A 
ATOM     35  C   UNL     1      -6.023   4.425  -2.555  1.00  0.00    -0.014 A 
BRANCH  35  36
ATOM     36  C   UNL     1      -5.497   5.709  -3.099  1.00  0.00     0.031 A 
ATOM     37  C   UNL     1      -5.081   6.809  -2.156  1.00  0.00     0.074 A 
ATOM     38  C   UNL     1      -5.422   5.914  -4.430  1.00  0.00     0.049 A 
ATOM     39  N   UNL     1      -4.861   8.073  -2.405  1.00  0.00    -0.248 NA
ATOM     40  C   UNL     1      -4.913   6.440  -0.740  1.00  0.00     0.031 C 
ATOM     41  C   UNL     1      -5.758   4.931  -5.461  1.00  0.00     0.029 A 
ATOM     42  N   UNL     1      -5.061   7.030  -5.145  1.00  0.00    -0.354 N 
ATOM     43  C   UNL     1      -4.628   8.669  -1.171  1.00  0.00     0.074 A 
ATOM     44  C   UNL     1      -4.705   7.622  -0.175  1.00  0.00     0.031 C 
ATOM     45  C   UNL     1      -5.583   5.479  -6.671  1.00  0.00     0.029 A 
ATOM     46  C   UNL     1      -5.217   6.880  -6.505  1.00  0.00     0.049 A 
ATOM     47  H   UNL     1      -4.725   7.856  -4.727  1.00  0.00     0.167 HD
ATOM     48  C   UNL     1      -4.373   9.970  -0.894  1.00  0.00     0.034 A 
ATOM     49  C   UNL     1      -5.139   7.778  -7.507  1.00  0.00     0.034 A 
ATOM     50  C   UNL     1      -4.209  10.988  -1.897  1.00  0.00     0.049 A 
ATOM     51  C   UNL     1      -4.824   9.209  -7.181  1.00  0.00     0.074 A 
ATOM     52  C   UNL     1      -3.914  12.329  -1.725  1.00  0.00     0.029 A 
ATOM     53  N   UNL     1      -4.302  10.771  -3.264  1.00  0.00    -0.354 N 
ATOM     54  N   UNL     1      -4.596   9.755  -6.011  1.00  0.00    -0.248 NA
ATOM     55  C   UNL     1      -4.745  10.146  -8.310  1.00  0.00     0.031 C 
ATOM     56  C   UNL     1      -3.826  12.922  -2.989  1.00  0.00     0.029 A 
ATOM     57  C   UNL     1      -4.059  11.949  -3.948  1.00  0.00     0.049 A 
ATOM     58  H   UNL     1      -4.511   9.906  -3.686  1.00  0.00     0.167 HD
ATOM     59  C   UNL     1      -4.330  11.095  -6.262  1.00  0.00     0.074 A 
ATOM     60  C   UNL     1      -4.401  11.273  -7.699  1.00  0.00     0.031 C 
ATOM     61  C   UNL     1      -4.073  12.092  -5.381  1.00  0.00     0.034 A 
BRANCH  48  62
ATOM     62  C   UNL     1      -4.234  10.365   0.553  1.00  0.00     0.023 A 
ATOM     63  C   UNL     1      -3.062  10.036   1.262  1.00  0.00     0.012 A 
ATOM     64  C   UNL     1      -5.247  11.102   1.199  1.00  0.00     0.148 A 
ATOM     65  C   UNL     1      -2.914  10.405   2.599  1.00  0.00     0.002 A 
ATOM     66  C   UNL     1      -5.075  11.500   2.521  1.00  0.00     0.091 A 
ATOM     67  F   UNL     1      -6.369  11.385   0.520  1.00  0.00    -0.205 F 
ATOM     68  C   UNL     1      -3.915  11.144   3.225  1.00  0.00     0.022 A 
BRANCH  66  69
ATOM     69  S   UNL     1      -6.286  12.518   3.374  1.00  0.00     0.127 S 
ATOM     70  O   UNL     1      -7.028  11.519   4.140  1.00  0.00    -0.237 OA
ATOM     71  O   UNL     1      -5.443  13.402   4.182  1.00  0.00    -0.237 OA
ATOM     72  O   UNL     1      -7.033  13.199   2.325  1.00  0.00    -0.744 OA
ENDBRANCH  66  69
ENDBRANCH  48  62
BRANCH  49  73
ATOM     73  C   UNL     1      -5.363   7.326  -8.909  1.00  0.00     0.023 A 
ATOM     74  C   UNL     1      -4.272   7.257  -9.795  1.00  0.00     0.012 A 
ATOM     75  C   UNL     1      -6.628   6.878  -9.341  1.00  0.00     0.148 A 
ATOM     76  C   UNL     1      -4.437   6.755 -11.087  1.00  0.00     0.002 A 
ATOM     77  C   UNL     1      -6.772   6.321 -10.606  1.00  0.00     0.091 A 
ATOM     78  F   UNL     1      -7.660   6.973  -8.490  1.00  0.00    -0.205 F 
ATOM     79  C   UNL     1      -5.681   6.271 -11.486  1.00  0.00     0.022 A 
BRANCH  77  80
ATOM     80  S   UNL     1      -8.296   5.529 -11.134  1.00  0.00     0.127 S 
ATOM     81  O   UNL     1      -8.837   6.514 -12.067  1.00  0.00    -0.237 OA
ATOM     82  O   UNL     1      -7.803   4.299 -11.754  1.00  0.00    -0.237 OA
ATOM     83  O   UNL     1      -9.066   5.315  -9.916  1.00  0.00    -0.744 OA
ENDBRANCH  77  80
ENDBRANCH  49  73
BRANCH  61  84
ATOM     84  C   UNL     1      -3.814  13.463  -5.941  1.00  0.00     0.023 A 
ATOM     85  C   UNL     1      -4.895  14.248  -6.386  1.00  0.00     0.012 A 
ATOM     86  C   UNL     1      -2.513  14.003  -5.947  1.00  0.00     0.148 A 
ATOM     87  C   UNL     1      -4.683  15.546  -6.847  1.00  0.00     0.002 A 
ATOM     88  C   UNL     1      -2.315  15.311  -6.372  1.00  0.00     0.091 A 
ATOM     89  F   UNL     1      -1.496  13.229  -5.541  1.00  0.00    -0.205 F 
ATOM     90  C   UNL     1      -3.397  16.081  -6.829  1.00  0.00     0.022 A 
BRANCH  88  91
ATOM     91  S   UNL     1      -0.705  16.105  -6.301  1.00  0.00     0.127 S 
ATOM     92  O   UNL     1      -0.296  16.077  -7.704  1.00  0.00    -0.237 OA
ATOM     93  O   UNL     1      -1.033  17.436  -5.787  1.00  0.00    -0.237 OA
ATOM     94  O   UNL     1       0.099  15.294  -5.396  1.00  0.00    -0.744 OA
ENDBRANCH  88  91
ENDBRANCH  61  84
ENDBRANCH  35  36
ENDBRANCH  28  30
ENDBRANCH  27  28
ENDBRANCH  26  27
ENDBRANCH  25  26
ENDBRANCH   1  25
TORSDOF 21
