REMARK SMILES CCC[C@@H](C)C[C@H](C(=O)OCCOC(=O)c1ccc(-c2c3nc(c(-c4cccc(S(=O)(=O)[O-])c4F)c4ccc([nH]4)c(-c4cccc(S(=O)(=O)[O-])c4F)c4nc(c(-c5cccc(S(=O)(=O)[O-])c5F)c5ccc2[nH]5)C=C4)C=C3)cc1)c1ccccc1C
REMARK SMILES IDX 11 1 10 2 8 3 9 4 7 5 6 6 4 7 5 8 3 9 2 10 1 11 79 12 80 13
REMARK SMILES IDX 84 14 81 15 83 16 85 17 82 18 12 19 13 20 14 21 15 22 16 23
REMARK SMILES IDX 17 24 78 25 18 26 77 27 19 28 20 29 21 30 71 31 22 32 76 33
REMARK SMILES IDX 70 34 72 35 23 36 75 37 69 38 68 39 24 41 56 42 36 43 55 44
REMARK SMILES IDX 37 45 40 46 54 47 73 48 38 49 39 50 53 52 74 53 41 54 25 55
REMARK SMILES IDX 26 56 34 57 27 58 29 59 35 60 28 61 30 62 31 63 32 64 33 65
REMARK SMILES IDX 57 66 58 67 66 68 59 69 61 70 67 71 60 72 62 73 63 74 64 75
REMARK SMILES IDX 65 76 42 77 43 78 51 79 44 80 46 81 52 82 45 83 47 84 48 85
REMARK SMILES IDX 49 86 50 87
REMARK H PARENT 72 40 40 51
REMARK Flexibility Score: inf
ROOT
ATOM      1  C   UNL     1      -1.220  -3.090  -1.652  1.00  0.00     0.274 C 
ENDROOT
BRANCH   1   2
ATOM      2  O   UNL     1       0.217  -3.216  -1.638  1.00  0.00    -0.462 OA
BRANCH   2   3
ATOM      3  C   UNL     1       0.741  -4.040  -2.596  1.00  0.00     0.313 C 
ATOM      4  O   UNL     1       0.051  -4.633  -3.413  1.00  0.00    -0.252 OA
BRANCH   3   5
ATOM      5  C   UNL     1       2.281  -4.016  -2.575  1.00  0.00     0.130 C 
BRANCH   5   6
ATOM      6  C   UNL     1       2.939  -4.157  -1.179  1.00  0.00     0.023 C 
BRANCH   6   7
ATOM      7  C   UNL     1       2.288  -5.103  -0.146  1.00  0.00    -0.013 C 
ATOM      8  C   UNL     1       2.945  -4.879   1.224  1.00  0.00     0.007 C 
BRANCH   7   9
ATOM      9  C   UNL     1       2.388  -6.586  -0.528  1.00  0.00     0.003 C 
BRANCH   9  10
ATOM     10  C   UNL     1       1.274  -7.469   0.043  1.00  0.00    -0.003 C 
ATOM     11  C   UNL     1      -0.119  -7.071  -0.430  1.00  0.00     0.004 C 
ENDBRANCH   9  10
ENDBRANCH   7   9
ENDBRANCH   6   7
ENDBRANCH   5   6
BRANCH   5  12
ATOM     12  C   UNL     1       2.970  -4.871  -3.661  1.00  0.00    -0.031 A 
ATOM     13  C   UNL     1       2.432  -6.125  -4.026  1.00  0.00     0.005 A 
ATOM     14  C   UNL     1       4.144  -4.449  -4.335  1.00  0.00    -0.047 A 
ATOM     15  C   UNL     1       3.026  -6.944  -4.987  1.00  0.00     0.000 A 
ATOM     16  C   UNL     1       4.728  -5.288  -5.310  1.00  0.00     0.004 A 
ATOM     17  C   UNL     1       4.806  -3.108  -4.153  1.00  0.00     0.044 C 
ATOM     18  C   UNL     1       4.181  -6.528  -5.626  1.00  0.00     0.000 A 
ENDBRANCH   5  12
ENDBRANCH   3   5
ENDBRANCH   2   3
ENDBRANCH   1   2
BRANCH   1  19
ATOM     19  C   UNL     1      -1.674  -1.770  -2.280  1.00  0.00     0.275 C 
BRANCH  19  20
ATOM     20  O   UNL     1      -1.268  -1.651  -3.657  1.00  0.00    -0.458 OA
BRANCH  20  21
ATOM     21  C   UNL     1      -0.086  -1.029  -3.855  1.00  0.00     0.338 C 
ATOM     22  O   UNL     1       0.643  -0.537  -3.001  1.00  0.00    -0.246 OA
BRANCH  21  23
ATOM     23  C   UNL     1       0.318  -1.159  -5.260  1.00  0.00     0.060 A 
ATOM     24  C   UNL     1       1.405  -1.987  -5.540  1.00  0.00     0.016 A 
ATOM     25  C   UNL     1      -0.300  -0.443  -6.285  1.00  0.00     0.016 A 
ATOM     26  C   UNL     1       1.889  -2.116  -6.831  1.00  0.00     0.010 A 
ATOM     27  C   UNL     1       0.178  -0.584  -7.593  1.00  0.00     0.010 A 
ATOM     28  C   UNL     1       1.274  -1.421  -7.872  1.00  0.00    -0.014 A 
BRANCH  28  29
ATOM     29  C   UNL     1       1.786  -1.589  -9.249  1.00  0.00     0.031 A 
ATOM     30  C   UNL     1       2.506  -0.463  -9.924  1.00  0.00     0.074 A 
ATOM     31  C   UNL     1       1.603  -2.764  -9.880  1.00  0.00     0.049 A 
ATOM     32  N   UNL     1       2.915  -0.371 -11.161  1.00  0.00    -0.248 NA
ATOM     33  C   UNL     1       2.813   0.716  -9.097  1.00  0.00     0.031 C 
ATOM     34  C   UNL     1       0.962  -3.945  -9.297  1.00  0.00     0.029 A 
ATOM     35  N   UNL     1       1.918  -3.152 -11.158  1.00  0.00    -0.354 N 
ATOM     36  C   UNL     1       3.479   0.891 -11.280  1.00  0.00     0.074 A 
ATOM     37  C   UNL     1       3.377   1.526  -9.983  1.00  0.00     0.031 C 
ATOM     38  C   UNL     1       0.907  -4.915 -10.221  1.00  0.00     0.029 A 
ATOM     39  C   UNL     1       1.453  -4.407 -11.474  1.00  0.00     0.049 A 
ATOM     40  H   UNL     1       2.426  -2.588 -11.785  1.00  0.00     0.167 HD
ATOM     41  C   UNL     1       4.035   1.462 -12.374  1.00  0.00     0.034 A 
ATOM     42  C   UNL     1       1.424  -5.053 -12.655  1.00  0.00     0.034 A 
ATOM     43  C   UNL     1       4.162   0.804 -13.647  1.00  0.00     0.049 A 
ATOM     44  C   UNL     1       1.998  -4.373 -13.867  1.00  0.00     0.074 A 
ATOM     45  C   UNL     1       4.748   1.280 -14.806  1.00  0.00     0.029 A 
ATOM     46  N   UNL     1       3.689  -0.468 -13.930  1.00  0.00    -0.354 N 
ATOM     47  N   UNL     1       2.595  -3.209 -13.953  1.00  0.00    -0.248 NA
ATOM     48  C   UNL     1       1.903  -5.097 -15.142  1.00  0.00     0.031 C 
ATOM     49  C   UNL     1       4.606   0.303 -15.799  1.00  0.00     0.029 A 
ATOM     50  C   UNL     1       3.948  -0.787 -15.252  1.00  0.00     0.049 A 
ATOM     51  H   UNL     1       3.235  -1.058 -13.286  1.00  0.00     0.167 HD
ATOM     52  C   UNL     1       2.958  -3.064 -15.286  1.00  0.00     0.074 A 
ATOM     53  C   UNL     1       2.543  -4.275 -15.964  1.00  0.00     0.031 C 
ATOM     54  C   UNL     1       3.559  -2.014 -15.899  1.00  0.00     0.034 A 
BRANCH  41  55
ATOM     55  C   UNL     1       4.554   2.868 -12.242  1.00  0.00     0.023 A 
ATOM     56  C   UNL     1       5.770   3.105 -11.573  1.00  0.00     0.012 A 
ATOM     57  C   UNL     1       3.862   3.946 -12.827  1.00  0.00     0.148 A 
ATOM     58  C   UNL     1       6.280   4.399 -11.467  1.00  0.00     0.002 A 
ATOM     59  C   UNL     1       4.394   5.228 -12.750  1.00  0.00     0.091 A 
ATOM     60  F   UNL     1       2.693   3.702 -13.436  1.00  0.00    -0.205 F 
ATOM     61  C   UNL     1       5.598   5.457 -12.063  1.00  0.00     0.022 A 
BRANCH  59  62
ATOM     62  S   UNL     1       3.623   6.644 -13.541  1.00  0.00     0.127 S 
ATOM     63  O   UNL     1       3.091   7.372 -12.390  1.00  0.00    -0.237 OA
ATOM     64  O   UNL     1       4.761   7.289 -14.197  1.00  0.00    -0.237 OA
ATOM     65  O   UNL     1       2.627   6.100 -14.454  1.00  0.00    -0.744 OA
ENDBRANCH  59  62
ENDBRANCH  41  55
BRANCH  42  66
ATOM     66  C   UNL     1       0.820  -6.412 -12.741  1.00  0.00     0.023 A 
ATOM     67  C   UNL     1       1.645  -7.524 -12.992  1.00  0.00     0.012 A 
ATOM     68  C   UNL     1      -0.560  -6.613 -12.536  1.00  0.00     0.148 A 
ATOM     69  C   UNL     1       1.105  -8.809 -13.053  1.00  0.00     0.002 A 
ATOM     70  C   UNL     1      -1.083  -7.901 -12.542  1.00  0.00     0.091 A 
ATOM     71  F   UNL     1      -1.336  -5.539 -12.326  1.00  0.00    -0.205 F 
ATOM     72  C   UNL     1      -0.255  -9.000 -12.815  1.00  0.00     0.022 A 
BRANCH  70  73
ATOM     73  S   UNL     1      -2.793  -8.243 -12.111  1.00  0.00     0.127 S 
ATOM     74  O   UNL     1      -3.373  -8.554 -13.415  1.00  0.00    -0.237 OA
ATOM     75  O   UNL     1      -2.658  -9.388 -11.209  1.00  0.00    -0.237 OA
ATOM     76  O   UNL     1      -3.284  -7.032 -11.468  1.00  0.00    -0.744 OA
ENDBRANCH  70  73
ENDBRANCH  42  66
BRANCH  54  77
ATOM     77  C   UNL     1       3.803  -2.127 -17.380  1.00  0.00     0.023 A 
ATOM     78  C   UNL     1       2.720  -1.995 -18.271  1.00  0.00     0.012 A 
ATOM     79  C   UNL     1       5.106  -2.288 -17.891  1.00  0.00     0.148 A 
ATOM     80  C   UNL     1       2.925  -2.046 -19.648  1.00  0.00     0.002 A 
ATOM     81  C   UNL     1       5.308  -2.294 -19.266  1.00  0.00     0.091 A 
ATOM     82  F   UNL     1       6.119  -2.431 -17.025  1.00  0.00    -0.205 F 
ATOM     83  C   UNL     1       4.219  -2.183 -20.145  1.00  0.00     0.022 A 
BRANCH  81  84
ATOM     84  S   UNL     1       6.947  -2.376 -19.998  1.00  0.00     0.127 S 
ATOM     85  O   UNL     1       6.961  -3.732 -20.544  1.00  0.00    -0.237 OA
ATOM     86  O   UNL     1       6.892  -1.314 -21.002  1.00  0.00    -0.237 OA
ATOM     87  O   UNL     1       7.885  -2.131 -18.910  1.00  0.00    -0.744 OA
ENDBRANCH  81  84
ENDBRANCH  54  77
ENDBRANCH  28  29
ENDBRANCH  21  23
ENDBRANCH  20  21
ENDBRANCH  19  20
ENDBRANCH   1  19
TORSDOF 19
