REMARK SMILES COc1ccc2c(c1)O[C@@]1(CCC(=O)N([C@@H](C)C(=O)OCCOC(=O)c3ccc(-c4c5nc(c(-c6cccc(S(=O)(=O)[O-])c6F)c6ccc([nH]6)c(-c6cccc(S(=O)(=O)[O-])c6F)c6nc(c(-c7cccc(S(=O)(=O)[O-])c7F)c7ccc4[nH]7)C=C6)C=C5)cc3)CC1)CC2=O
REMARK SMILES IDX 21 1 20 2 18 3 19 4 16 5 17 6 15 7 89 8 90 9 10 10 3 11 4 12
REMARK SMILES IDX 8 13 5 14 7 15 6 16 9 17 92 18 91 19 93 20 2 21 1 22 11 23
REMARK SMILES IDX 13 25 14 26 12 27 22 29 23 30 24 31 25 32 26 33 27 34 88 35
REMARK SMILES IDX 28 36 87 37 29 38 30 39 31 40 81 41 32 42 86 43 80 44 82 45
REMARK SMILES IDX 33 46 85 47 79 48 78 49 34 51 66 52 46 53 65 54 47 55 50 56
REMARK SMILES IDX 64 57 83 58 48 59 49 60 63 62 84 63 51 64 35 65 36 66 44 67
REMARK SMILES IDX 37 68 39 69 45 70 38 71 40 72 41 73 42 74 43 75 67 76 68 77
REMARK SMILES IDX 76 78 69 79 71 80 77 81 70 82 72 83 73 84 74 85 75 86 52 87
REMARK SMILES IDX 53 88 61 89 54 90 56 91 62 92 55 93 57 94 58 95 59 96 60 97
REMARK H PARENT 82 50 50 61
REMARK Flexibility Score: 80.00
ROOT
ATOM      1  C   UNL     1      -1.157   0.574   3.051  1.00  0.00     0.274 C 
ENDROOT
BRANCH   1   2
ATOM      2  O   UNL     1      -2.258  -0.296   2.757  1.00  0.00    -0.461 OA
BRANCH   2   3
ATOM      3  C   UNL     1      -3.485   0.269   2.890  1.00  0.00     0.328 C 
ATOM      4  O   UNL     1      -3.675   1.410   3.301  1.00  0.00    -0.250 OA
BRANCH   3   5
ATOM      5  C   UNL     1      -4.622  -0.704   2.547  1.00  0.00     0.192 C 
ATOM      6  C   UNL     1      -5.443  -0.942   3.825  1.00  0.00     0.044 C 
BRANCH   5   7
ATOM      7  N   UNL     1      -4.299  -1.961   1.784  1.00  0.00    -0.329 N 
BRANCH   7   8
ATOM      8  C   UNL     1      -3.489  -1.980   0.543  1.00  0.00     0.124 C 
BRANCH   8   9
ATOM      9  C   UNL     1      -4.275  -1.721  -0.804  1.00  0.00     0.070 C 
BRANCH   9  10
ATOM     10  C   UNL     1      -5.279  -0.580  -0.626  1.00  0.00     0.118 C 
ATOM     11  C   UNL     1      -1.927   2.960  -0.654  1.00  0.00     0.122 A 
ATOM     12  C   UNL     1      -2.725   3.779  -1.457  1.00  0.00     0.047 A 
ATOM     13  C   UNL     1      -2.463   1.746  -0.195  1.00  0.00     0.093 A 
ATOM     14  C   UNL     1      -4.001   3.384  -1.852  1.00  0.00     0.019 A 
ATOM     15  C   UNL     1      -3.777   1.364  -0.557  1.00  0.00     0.134 A 
ATOM     16  C   UNL     1      -4.492   2.154  -1.431  1.00  0.00     0.060 A 
ATOM     17  O   UNL     1      -4.472   0.386   0.120  1.00  0.00    -0.486 OA
ATOM     18  C   UNL     1      -5.787   1.635  -1.842  1.00  0.00     0.170 C 
ATOM     19  C   UNL     1      -5.921   0.124  -1.856  1.00  0.00     0.129 C 
ATOM     20  O   UNL     1      -6.673   2.400  -2.201  1.00  0.00    -0.294 OA
BRANCH  11  21
ATOM     21  O   UNL     1      -0.723   3.551  -0.405  1.00  0.00    -0.497 OA
ATOM     22  C   UNL     1       0.325   2.893   0.271  1.00  0.00     0.278 C 
ENDBRANCH  11  21
BRANCH  10  23
ATOM     23  C   UNL     1      -6.534  -1.256   0.123  1.00  0.00     0.059 CG0
ATOM     24  G   UNL     1      -6.496  -2.548   0.993  1.00  0.00     0.000 G0
ENDBRANCH  10  23
ENDBRANCH   9  10
ENDBRANCH   8   9
ENDBRANCH   7   8
BRANCH   7  25
ATOM     25  C   UNL     1      -5.256  -2.940   1.753  1.00  0.00     0.223 C 
ATOM     26  O   UNL     1      -5.098  -4.049   2.250  1.00  0.00    -0.275 OA
BRANCH  25  27
ATOM     27  C   UNL     1      -6.496  -2.548   0.993  1.00  0.00     0.104 CG0
ATOM     28  G   UNL     1      -6.534  -1.256   0.123  1.00  0.00     0.000 G0
ENDBRANCH  25  27
ENDBRANCH   7  25
ENDBRANCH   5   7
ENDBRANCH   3   5
ENDBRANCH   2   3
ENDBRANCH   1   2
BRANCH   1  29
ATOM     29  C   UNL     1       0.138  -0.106   2.597  1.00  0.00     0.275 C 
BRANCH  29  30
ATOM     30  O   UNL     1       0.266  -0.049   1.157  1.00  0.00    -0.458 OA
BRANCH  30  31
ATOM     31  C   UNL     1       0.226  -1.196   0.418  1.00  0.00     0.338 C 
ATOM     32  O   UNL     1       0.119  -2.314   0.833  1.00  0.00    -0.246 OA
BRANCH  31  33
ATOM     33  C   UNL     1       0.148  -0.790  -1.026  1.00  0.00     0.060 A 
ATOM     34  C   UNL     1       1.019   0.146  -1.584  1.00  0.00     0.016 A 
ATOM     35  C   UNL     1      -0.871  -1.316  -1.824  1.00  0.00     0.016 A 
ATOM     36  C   UNL     1       0.792   0.643  -2.879  1.00  0.00     0.010 A 
ATOM     37  C   UNL     1      -1.097  -0.830  -3.127  1.00  0.00     0.010 A 
ATOM     38  C   UNL     1      -0.272   0.164  -3.670  1.00  0.00    -0.014 A 
BRANCH  38  39
ATOM     39  C   UNL     1      -0.266   0.446  -5.138  1.00  0.00     0.031 A 
ATOM     40  C   UNL     1      -1.198   1.396  -5.847  1.00  0.00     0.074 A 
ATOM     41  C   UNL     1       0.652  -0.231  -5.859  1.00  0.00     0.049 A 
ATOM     42  N   UNL     1      -1.167   1.782  -7.101  1.00  0.00    -0.248 NA
ATOM     43  C   UNL     1      -2.311   1.973  -5.082  1.00  0.00     0.031 C 
ATOM     44  C   UNL     1       1.544  -1.255  -5.307  1.00  0.00     0.029 A 
ATOM     45  N   UNL     1       0.995  -0.170  -7.184  1.00  0.00    -0.354 N 
ATOM     46  C   UNL     1      -2.254   2.632  -7.285  1.00  0.00     0.074 A 
ATOM     47  C   UNL     1      -2.933   2.705  -6.006  1.00  0.00     0.031 C 
ATOM     48  C   UNL     1       2.348  -1.706  -6.277  1.00  0.00     0.029 A 
ATOM     49  C   UNL     1       2.018  -1.023  -7.523  1.00  0.00     0.049 A 
ATOM     50  H   UNL     1       0.552   0.427  -7.831  1.00  0.00     0.167 HD
ATOM     51  C   UNL     1      -2.633   3.291  -8.412  1.00  0.00     0.034 A 
ATOM     52  C   UNL     1       2.637  -1.245  -8.697  1.00  0.00     0.034 A 
ATOM     53  C   UNL     1      -1.926   3.234  -9.671  1.00  0.00     0.049 A 
ATOM     54  C   UNL     1       2.249  -0.445  -9.900  1.00  0.00     0.074 A 
ATOM     55  C   UNL     1      -2.176   3.962 -10.825  1.00  0.00     0.029 A 
ATOM     56  N   UNL     1      -0.857   2.401  -9.955  1.00  0.00    -0.354 N 
ATOM     57  N   UNL     1       1.341   0.493  -9.995  1.00  0.00    -0.248 NA
ATOM     58  C   UNL     1       2.981  -0.709 -11.146  1.00  0.00     0.031 C 
ATOM     59  C   UNL     1      -1.275   3.553 -11.811  1.00  0.00     0.029 A 
ATOM     60  C   UNL     1      -0.452   2.581 -11.269  1.00  0.00     0.049 A 
ATOM     61  H   UNL     1      -0.445   1.773  -9.318  1.00  0.00     0.167 HD
ATOM     62  C   UNL     1       1.387   0.929 -11.311  1.00  0.00     0.074 A 
ATOM     63  C   UNL     1       2.434   0.177 -11.970  1.00  0.00     0.031 C 
ATOM     64  C   UNL     1       0.609   1.856 -11.917  1.00  0.00     0.034 A 
BRANCH  51  65
ATOM     65  C   UNL     1      -3.826   4.220  -8.376  1.00  0.00     0.023 A 
ATOM     66  C   UNL     1      -3.646   5.532  -7.893  1.00  0.00     0.012 A 
ATOM     67  C   UNL     1      -5.028   3.890  -9.041  1.00  0.00     0.148 A 
ATOM     68  C   UNL     1      -4.635   6.500  -8.074  1.00  0.00     0.002 A 
ATOM     69  C   UNL     1      -6.001   4.868  -9.237  1.00  0.00     0.091 A 
ATOM     70  F   UNL     1      -5.170   2.645  -9.516  1.00  0.00    -0.205 F 
ATOM     71  C   UNL     1      -5.806   6.172  -8.754  1.00  0.00     0.022 A 
BRANCH  69  72
ATOM     72  S   UNL     1      -7.518   4.578 -10.162  1.00  0.00     0.127 S 
ATOM     73  O   UNL     1      -8.538   4.855  -9.151  1.00  0.00    -0.237 OA
ATOM     74  O   UNL     1      -7.426   5.579 -11.224  1.00  0.00    -0.237 OA
ATOM     75  O   UNL     1      -7.460   3.194 -10.610  1.00  0.00    -0.744 OA
ENDBRANCH  69  72
ENDBRANCH  51  65
BRANCH  52  76
ATOM     76  C   UNL     1       3.729  -2.251  -8.741  1.00  0.00     0.023 A 
ATOM     77  C   UNL     1       5.069  -1.824  -8.774  1.00  0.00     0.012 A 
ATOM     78  C   UNL     1       3.439  -3.623  -8.612  1.00  0.00     0.148 A 
ATOM     79  C   UNL     1       6.105  -2.752  -8.676  1.00  0.00     0.002 A 
ATOM     80  C   UNL     1       4.474  -4.535  -8.463  1.00  0.00     0.091 A 
ATOM     81  F   UNL     1       2.152  -3.999  -8.587  1.00  0.00    -0.205 F 
ATOM     82  C   UNL     1       5.809  -4.103  -8.504  1.00  0.00     0.022 A 
BRANCH  80  83
ATOM     83  S   UNL     1       4.178  -6.266  -8.089  1.00  0.00     0.127 S 
ATOM     84  O   UNL     1       4.566  -6.910  -9.341  1.00  0.00    -0.237 OA
ATOM     85  O   UNL     1       5.092  -6.494  -6.969  1.00  0.00    -0.237 OA
ATOM     86  O   UNL     1       2.767  -6.357  -7.739  1.00  0.00    -0.744 OA
ENDBRANCH  80  83
ENDBRANCH  52  76
BRANCH  64  87
ATOM     87  C   UNL     1       0.825   2.113 -13.382  1.00  0.00     0.023 A 
ATOM     88  C   UNL     1       0.268   1.224 -14.320  1.00  0.00     0.012 A 
ATOM     89  C   UNL     1       1.457   3.290 -13.826  1.00  0.00     0.148 A 
ATOM     90  C   UNL     1       0.335   1.504 -15.684  1.00  0.00     0.002 A 
ATOM     91  C   UNL     1       1.494   3.578 -15.185  1.00  0.00     0.091 A 
ATOM     92  F   UNL     1       1.984   4.115 -12.909  1.00  0.00    -0.205 F 
ATOM     93  C   UNL     1       0.936   2.684 -16.115  1.00  0.00     0.022 A 
BRANCH  91  94
ATOM     94  S   UNL     1       2.189   5.100 -15.839  1.00  0.00     0.127 S 
ATOM     95  O   UNL     1       3.282   4.596 -16.670  1.00  0.00    -0.237 OA
ATOM     96  O   UNL     1       1.061   5.656 -16.586  1.00  0.00    -0.237 OA
ATOM     97  O   UNL     1       2.607   5.884 -14.685  1.00  0.00    -0.744 OA
ENDBRANCH  91  94
ENDBRANCH  64  87
ENDBRANCH  38  39
ENDBRANCH  31  33
ENDBRANCH  30  31
ENDBRANCH  29  30
ENDBRANCH   1  29
TORSDOF 16
