REMARK SMILES O=C(Cc1cccn1-c1ccc2c(c1)OCCO2)OCCOC(=O)c1ccc(-c2c3nc(c(-c4cccc(S(=O)(=O)[O-])c4F)c4ccc([nH]4)c(-c4cccc(S(=O)(=O)[O-])c4F)c4nc(c(-c5cccc(S(=O)(=O)[O-])c5F)c5ccc2[nH]5)C=C4)C=C3)cc1
REMARK SMILES IDX 21 1 20 2 19 3 2 4 1 5 3 6 4 7 5 8 8 9 6 10 7 11 9 12 10 13
REMARK SMILES IDX 14 14 11 15 13 16 12 17 15 18 18 19 16 20 17 21 22 22 23 23
REMARK SMILES IDX 24 24 25 25 26 26 87 27 27 28 86 29 28 30 29 31 30 32 80 33
REMARK SMILES IDX 31 34 85 35 79 36 81 37 32 38 84 39 78 40 77 41 33 43 65 44
REMARK SMILES IDX 45 45 64 46 46 47 49 48 63 49 82 50 47 51 48 52 62 54 83 55
REMARK SMILES IDX 50 56 34 57 35 58 43 59 36 60 38 61 44 62 37 63 39 64 40 65
REMARK SMILES IDX 41 66 42 67 66 68 67 69 75 70 68 71 70 72 76 73 69 74 71 75
REMARK SMILES IDX 72 76 73 77 74 78 51 79 52 80 60 81 53 82 55 83 61 84 54 85
REMARK SMILES IDX 56 86 57 87 58 88 59 89
REMARK H PARENT 81 42 49 53
REMARK Flexibility Score: inf
ROOT
ATOM      1  C   UNL     1       4.686   2.039  -0.265  1.00  0.00     0.275 C 
ENDROOT
BRANCH   1   2
ATOM      2  C   UNL     1       4.390   0.933  -1.265  1.00  0.00     0.274 C 
BRANCH   2   3
ATOM      3  O   UNL     1       3.015   0.508  -1.308  1.00  0.00    -0.462 OA
BRANCH   3   4
ATOM      4  C   UNL     1       2.477  -0.552  -0.654  1.00  0.00     0.311 C 
ATOM      5  O   UNL     1       1.353  -0.937  -0.981  1.00  0.00    -0.252 OA
BRANCH   4   6
ATOM      6  C   UNL     1       3.232  -1.222   0.481  1.00  0.00     0.177 C 
BRANCH   6   7
ATOM      7  C   UNL     1       3.995  -2.444   0.070  1.00  0.00     0.034 A 
ATOM      8  C   UNL     1       5.300  -2.496  -0.399  1.00  0.00     0.024 A 
ATOM      9  N   UNL     1       3.615  -3.747   0.371  1.00  0.00    -0.320 N 
ATOM     10  C   UNL     1       5.694  -3.841  -0.482  1.00  0.00     0.020 A 
ATOM     11  C   UNL     1       4.650  -4.587   0.005  1.00  0.00     0.091 A 
BRANCH   9  12
ATOM     12  C   UNL     1       2.469  -4.171   1.088  1.00  0.00     0.049 A 
ATOM     13  C   UNL     1       2.645  -5.013   2.195  1.00  0.00     0.031 A 
ATOM     14  C   UNL     1       1.194  -3.726   0.733  1.00  0.00     0.077 A 
ATOM     15  C   UNL     1       1.542  -5.387   2.964  1.00  0.00     0.052 A 
ATOM     16  C   UNL     1       0.096  -4.111   1.500  1.00  0.00     0.163 A 
ATOM     17  C   UNL     1       0.268  -4.954   2.604  1.00  0.00     0.161 A 
ATOM     18  O   UNL     1      -1.129  -3.635   1.103  1.00  0.00    -0.486 OA
ATOM     19  O   UNL     1      -0.773  -5.396   3.380  1.00  0.00    -0.486 OA
ATOM     20  C   UNL     1      -2.110  -3.801   2.132  1.00  0.00     0.271 C 
ATOM     21  C   UNL     1      -2.027  -5.200   2.718  1.00  0.00     0.271 C 
ENDBRANCH   9  12
ENDBRANCH   6   7
ENDBRANCH   4   6
ENDBRANCH   3   4
ENDBRANCH   2   3
ENDBRANCH   1   2
BRANCH   1  22
ATOM     22  O   UNL     1       4.412   1.614   1.057  1.00  0.00    -0.458 OA
BRANCH  22  23
ATOM     23  C   UNL     1       3.126   1.773   1.456  1.00  0.00     0.338 C 
ATOM     24  O   UNL     1       2.179   2.100   0.777  1.00  0.00    -0.246 OA
BRANCH  23  25
ATOM     25  C   UNL     1       3.079   1.606   2.910  1.00  0.00     0.060 A 
ATOM     26  C   UNL     1       1.829   1.781   3.508  1.00  0.00     0.016 A 
ATOM     27  C   UNL     1       4.280   1.734   3.608  1.00  0.00     0.016 A 
ATOM     28  C   UNL     1       1.793   2.355   4.755  1.00  0.00     0.010 A 
ATOM     29  C   UNL     1       4.242   2.408   4.794  1.00  0.00     0.010 A 
ATOM     30  C   UNL     1       3.003   2.744   5.338  1.00  0.00    -0.014 A 
BRANCH  30  31
ATOM     31  C   UNL     1       2.978   3.356   6.660  1.00  0.00     0.031 A 
ATOM     32  C   UNL     1       2.985   2.196   7.705  1.00  0.00     0.074 A 
ATOM     33  C   UNL     1       2.907   4.733   6.643  1.00  0.00     0.049 A 
ATOM     34  N   UNL     1       2.363   2.088   8.837  1.00  0.00    -0.248 NA
ATOM     35  C   UNL     1       3.655   0.891   7.380  1.00  0.00     0.031 C 
ATOM     36  C   UNL     1       2.988   5.606   5.433  1.00  0.00     0.029 A 
ATOM     37  N   UNL     1       2.768   5.700   7.613  1.00  0.00    -0.354 N 
ATOM     38  C   UNL     1       2.831   0.902   9.464  1.00  0.00     0.074 A 
ATOM     39  C   UNL     1       3.446   0.120   8.448  1.00  0.00     0.031 C 
ATOM     40  C   UNL     1       2.776   6.912   5.739  1.00  0.00     0.029 A 
ATOM     41  C   UNL     1       2.571   7.044   7.170  1.00  0.00     0.049 A 
ATOM     42  H   UNL     1       2.802   5.475   8.570  1.00  0.00     0.167 HD
ATOM     43  C   UNL     1       2.884   0.763  10.823  1.00  0.00     0.034 A 
ATOM     44  C   UNL     1       2.225   8.144   7.926  1.00  0.00     0.034 A 
ATOM     45  C   UNL     1       2.408   1.973  11.408  1.00  0.00     0.049 A 
ATOM     46  C   UNL     1       2.326   7.652   9.305  1.00  0.00     0.074 A 
ATOM     47  C   UNL     1       1.160   2.537  11.451  1.00  0.00     0.029 A 
ATOM     48  N   UNL     1       3.374   2.939  11.586  1.00  0.00    -0.354 N 
ATOM     49  N   UNL     1       3.446   7.361   9.897  1.00  0.00    -0.248 NA
ATOM     50  C   UNL     1       1.091   7.288  10.007  1.00  0.00     0.031 C 
ATOM     51  C   UNL     1       1.438   3.873  11.107  1.00  0.00     0.029 A 
ATOM     52  C   UNL     1       2.811   4.132  11.232  1.00  0.00     0.049 A 
ATOM     53  H   UNL     1       4.294   2.796  11.906  1.00  0.00     0.167 HD
ATOM     54  C   UNL     1       3.037   6.443  10.829  1.00  0.00     0.074 A 
ATOM     55  C   UNL     1       1.630   6.703  11.072  1.00  0.00     0.031 C 
ATOM     56  C   UNL     1       3.673   5.241  10.920  1.00  0.00     0.034 A 
BRANCH  43  57
ATOM     57  C   UNL     1       3.597  -0.170  11.774  1.00  0.00     0.023 A 
ATOM     58  C   UNL     1       3.173  -0.061  13.131  1.00  0.00     0.012 A 
ATOM     59  C   UNL     1       4.813  -0.828  11.529  1.00  0.00     0.148 A 
ATOM     60  C   UNL     1       3.990  -0.413  14.200  1.00  0.00     0.002 A 
ATOM     61  C   UNL     1       5.603  -1.240  12.608  1.00  0.00     0.091 A 
ATOM     62  F   UNL     1       5.239  -0.981  10.272  1.00  0.00    -0.205 F 
ATOM     63  C   UNL     1       5.219  -0.985  13.935  1.00  0.00     0.022 A 
BRANCH  61  64
ATOM     64  S   UNL     1       7.171  -2.095  12.413  1.00  0.00     0.127 S 
ATOM     65  O   UNL     1       8.126  -1.081  12.854  1.00  0.00    -0.237 OA
ATOM     66  O   UNL     1       7.011  -3.219  13.339  1.00  0.00    -0.237 OA
ATOM     67  O   UNL     1       7.239  -2.484  11.012  1.00  0.00    -0.744 OA
ENDBRANCH  61  64
ENDBRANCH  43  57
BRANCH  44  68
ATOM     68  C   UNL     1       1.688   9.565   7.777  1.00  0.00     0.023 A 
ATOM     69  C   UNL     1       1.627  10.283   6.576  1.00  0.00     0.012 A 
ATOM     70  C   UNL     1       1.072  10.212   8.905  1.00  0.00     0.148 A 
ATOM     71  C   UNL     1       0.907  11.502   6.487  1.00  0.00     0.002 A 
ATOM     72  C   UNL     1       0.247  11.327   8.784  1.00  0.00     0.091 A 
ATOM     73  F   UNL     1       1.318   9.767  10.142  1.00  0.00    -0.205 F 
ATOM     74  C   UNL     1       0.171  11.992   7.568  1.00  0.00     0.022 A 
BRANCH  72  75
ATOM     75  S   UNL     1      -0.867  11.845  10.113  1.00  0.00     0.127 S 
ATOM     76  O   UNL     1      -0.538  13.260  10.268  1.00  0.00    -0.237 OA
ATOM     77  O   UNL     1      -2.177  11.582   9.515  1.00  0.00    -0.237 OA
ATOM     78  O   UNL     1      -0.552  11.008  11.263  1.00  0.00    -0.744 OA
ENDBRANCH  72  75
ENDBRANCH  44  68
BRANCH  56  79
ATOM     79  C   UNL     1       5.127   5.202  10.414  1.00  0.00     0.023 A 
ATOM     80  C   UNL     1       6.006   6.154  10.971  1.00  0.00     0.012 A 
ATOM     81  C   UNL     1       5.664   4.377   9.390  1.00  0.00     0.148 A 
ATOM     82  C   UNL     1       7.326   6.305  10.531  1.00  0.00     0.002 A 
ATOM     83  C   UNL     1       6.983   4.544   8.929  1.00  0.00     0.091 A 
ATOM     84  F   UNL     1       4.897   3.424   8.865  1.00  0.00    -0.205 F 
ATOM     85  C   UNL     1       7.814   5.506   9.509  1.00  0.00     0.022 A 
BRANCH  83  86
ATOM     86  S   UNL     1       7.718   3.630   7.551  1.00  0.00     0.127 S 
ATOM     87  O   UNL     1       8.154   4.703   6.654  1.00  0.00    -0.237 OA
ATOM     88  O   UNL     1       8.815   2.912   8.195  1.00  0.00    -0.237 OA
ATOM     89  O   UNL     1       6.660   2.791   7.006  1.00  0.00    -0.744 OA
ENDBRANCH  83  86
ENDBRANCH  56  79
ENDBRANCH  30  31
ENDBRANCH  23  25
ENDBRANCH  22  23
ENDBRANCH   1  22
TORSDOF 16
