REMARK SMILES Cc1cc(C(=O)OCCOC(=O)c2ccc(-c3c4nc(c(-c5cccc(S(=O)(=O)[O-])c5F)c5ccc([nH]5)c(-c5cccc(S(=O)(=O)[O-])c5F)c5nc(c(-c6cccc(S(=O)(=O)[O-])c6F)c6ccc3[nH]6)C=C5)C=C4)cc2)c(O)c(S(=O)(=O)N2CCCc3cc(F)cc(F)c32)c1
REMARK SMILES IDX 9 1 8 2 7 3 5 4 6 5 4 6 1 7 2 8 3 9 94 10 78 11 76 12 79 13
REMARK SMILES IDX 80 14 81 15 82 16 83 17 93 18 84 19 86 20 91 21 85 22 87 23
REMARK SMILES IDX 90 24 92 25 88 26 89 27 77 28 10 30 11 31 12 32 13 33 14 34
REMARK SMILES IDX 75 35 15 36 74 37 16 38 17 39 18 40 68 41 19 42 73 43 67 44
REMARK SMILES IDX 69 45 20 46 72 47 66 48 65 49 21 51 53 52 33 53 52 54 34 55
REMARK SMILES IDX 37 56 51 57 70 58 35 59 36 60 50 62 71 63 38 64 22 65 23 66
REMARK SMILES IDX 31 67 24 68 26 69 32 70 25 71 27 72 28 73 29 74 30 75 54 76
REMARK SMILES IDX 55 77 63 78 56 79 58 80 64 81 57 82 59 83 60 84 61 85 62 86
REMARK SMILES IDX 39 87 40 88 48 89 41 90 43 91 49 92 42 93 44 94 45 95 46 96
REMARK SMILES IDX 47 97
REMARK H PARENT 77 29 69 50 37 61
REMARK Flexibility Score: inf
ROOT
ATOM      1  C   UNL     1      -2.947   4.466   0.985  1.00  0.00     0.275 C 
ENDROOT
BRANCH   1   2
ATOM      2  C   UNL     1      -3.146   3.474  -0.158  1.00  0.00     0.275 C 
BRANCH   2   3
ATOM      3  O   UNL     1      -2.367   2.280   0.050  1.00  0.00    -0.458 OA
BRANCH   3   4
ATOM      4  C   UNL     1      -1.338   2.072  -0.806  1.00  0.00     0.342 C 
ATOM      5  O   UNL     1      -0.916   2.856  -1.647  1.00  0.00    -0.246 OA
BRANCH   4   6
ATOM      6  C   UNL     1      -0.731   0.739  -0.603  1.00  0.00     0.103 A 
ATOM      7  C   UNL     1       2.717  -0.769  -0.117  1.00  0.00     0.044 C 
ATOM      8  C   UNL     1       1.237  -0.701  -0.379  1.00  0.00    -0.049 A 
ATOM      9  C   UNL     1       0.649   0.576  -0.467  1.00  0.00     0.023 A 
ATOM     10  C   UNL     1       0.442  -1.848  -0.544  1.00  0.00     0.029 A 
ATOM     11  C   UNL     1      -0.933  -1.682  -0.698  1.00  0.00     0.130 A 
ATOM     12  C   UNL     1      -1.521  -0.394  -0.668  1.00  0.00     0.150 A 
BRANCH  11  13
ATOM     13  S   UNL     1      -2.111  -2.942  -0.985  1.00  0.00     0.268 S 
ATOM     14  O   UNL     1      -3.079  -2.671   0.071  1.00  0.00    -0.201 OA
ATOM     15  O   UNL     1      -2.512  -2.770  -2.368  1.00  0.00    -0.201 OA
BRANCH  13  16
ATOM     16  N   UNL     1      -1.621  -4.619  -0.808  1.00  0.00    -0.263 N 
ATOM     17  C   UNL     1      -0.862  -5.002   0.415  1.00  0.00     0.136 C 
ATOM     18  C   UNL     1      -2.892  -5.372  -0.978  1.00  0.00     0.091 A 
ATOM     19  C   UNL     1      -1.676  -5.798   1.438  1.00  0.00     0.028 C 
ATOM     20  C   UNL     1      -3.741  -5.362   0.151  1.00  0.00    -0.018 A 
ATOM     21  C   UNL     1      -3.456  -5.473  -2.260  1.00  0.00     0.150 A 
ATOM     22  C   UNL     1      -3.123  -5.323   1.524  1.00  0.00     0.040 C 
ATOM     23  C   UNL     1      -5.109  -5.132  -0.041  1.00  0.00     0.045 A 
ATOM     24  C   UNL     1      -4.823  -5.302  -2.444  1.00  0.00     0.080 A 
ATOM     25  F   UNL     1      -2.663  -5.577  -3.337  1.00  0.00    -0.205 F 
ATOM     26  C   UNL     1      -5.622  -5.056  -1.335  1.00  0.00     0.126 A 
ATOM     27  F   UNL     1      -6.901  -4.697  -1.512  1.00  0.00    -0.207 F 
ENDBRANCH  13  16
ENDBRANCH  11  13
BRANCH  12  28
ATOM     28  O   UNL     1      -2.882  -0.206  -0.746  1.00  0.00    -0.506 OA
ATOM     29  H   UNL     1      -3.237   0.661  -0.723  1.00  0.00     0.293 HD
ENDBRANCH  12  28
ENDBRANCH   4   6
ENDBRANCH   3   4
ENDBRANCH   2   3
ENDBRANCH   1   2
BRANCH   1  30
ATOM     30  O   UNL     1      -1.593   4.948   0.997  1.00  0.00    -0.458 OA
BRANCH  30  31
ATOM     31  C   UNL     1      -0.778   4.301   1.859  1.00  0.00     0.338 C 
ATOM     32  O   UNL     1      -1.077   3.446   2.674  1.00  0.00    -0.246 OA
BRANCH  31  33
ATOM     33  C   UNL     1       0.615   4.684   1.606  1.00  0.00     0.060 A 
ATOM     34  C   UNL     1       1.301   3.987   0.620  1.00  0.00     0.016 A 
ATOM     35  C   UNL     1       1.293   5.558   2.446  1.00  0.00     0.016 A 
ATOM     36  C   UNL     1       2.684   4.036   0.555  1.00  0.00     0.010 A 
ATOM     37  C   UNL     1       2.676   5.712   2.289  1.00  0.00     0.010 A 
ATOM     38  C   UNL     1       3.395   4.915   1.377  1.00  0.00    -0.014 A 
BRANCH  38  39
ATOM     39  C   UNL     1       4.881   4.975   1.291  1.00  0.00     0.031 A 
ATOM     40  C   UNL     1       5.722   4.763   2.523  1.00  0.00     0.074 A 
ATOM     41  C   UNL     1       5.479   5.223   0.107  1.00  0.00     0.049 A 
ATOM     42  N   UNL     1       7.007   4.938   2.686  1.00  0.00    -0.248 NA
ATOM     43  C   UNL     1       5.024   4.311   3.739  1.00  0.00     0.031 C 
ATOM     44  C   UNL     1       4.787   5.423  -1.169  1.00  0.00     0.029 A 
ATOM     45  N   UNL     1       6.807   5.362  -0.216  1.00  0.00    -0.354 N 
ATOM     46  C   UNL     1       7.257   4.708   4.034  1.00  0.00     0.074 A 
ATOM     47  C   UNL     1       5.990   4.366   4.644  1.00  0.00     0.031 C 
ATOM     48  C   UNL     1       5.690   5.633  -2.136  1.00  0.00     0.029 A 
ATOM     49  C   UNL     1       7.016   5.686  -1.537  1.00  0.00     0.049 A 
ATOM     50  H   UNL     1       7.537   5.242   0.433  1.00  0.00     0.167 HD
ATOM     51  C   UNL     1       8.434   4.775   4.702  1.00  0.00     0.034 A 
ATOM     52  C   UNL     1       8.138   6.046  -2.189  1.00  0.00     0.034 A 
ATOM     53  C   UNL     1       9.698   5.054   4.073  1.00  0.00     0.049 A 
ATOM     54  C   UNL     1       9.427   6.121  -1.425  1.00  0.00     0.074 A 
ATOM     55  C   UNL     1      10.956   5.088   4.649  1.00  0.00     0.029 A 
ATOM     56  N   UNL     1       9.867   5.350   2.728  1.00  0.00    -0.354 N 
ATOM     57  N   UNL     1       9.653   5.851  -0.163  1.00  0.00    -0.248 NA
ATOM     58  C   UNL     1      10.618   6.537  -2.177  1.00  0.00     0.031 C 
ATOM     59  C   UNL     1      11.880   5.439   3.659  1.00  0.00     0.029 A 
ATOM     60  C   UNL     1      11.205   5.581   2.458  1.00  0.00     0.049 A 
ATOM     61  H   UNL     1       9.142   5.389   2.063  1.00  0.00     0.167 HD
ATOM     62  C   UNL     1      11.016   6.037   0.027  1.00  0.00     0.074 A 
ATOM     63  C   UNL     1      11.567   6.420  -1.258  1.00  0.00     0.031 C 
ATOM     64  C   UNL     1      11.744   5.917   1.164  1.00  0.00     0.034 A 
BRANCH  51  65
ATOM     65  C   UNL     1       8.413   4.548   6.193  1.00  0.00     0.023 A 
ATOM     66  C   UNL     1       8.172   3.260   6.713  1.00  0.00     0.012 A 
ATOM     67  C   UNL     1       8.679   5.610   7.081  1.00  0.00     0.148 A 
ATOM     68  C   UNL     1       8.155   3.042   8.091  1.00  0.00     0.002 A 
ATOM     69  C   UNL     1       8.709   5.376   8.450  1.00  0.00     0.091 A 
ATOM     70  F   UNL     1       8.886   6.833   6.571  1.00  0.00    -0.205 F 
ATOM     71  C   UNL     1       8.432   4.096   8.958  1.00  0.00     0.022 A 
BRANCH  69  72
ATOM     72  S   UNL     1       9.139   6.649   9.642  1.00  0.00     0.127 S 
ATOM     73  O   UNL     1       7.851   6.898  10.286  1.00  0.00    -0.237 OA
ATOM     74  O   UNL     1      10.119   5.962  10.485  1.00  0.00    -0.237 OA
ATOM     75  O   UNL     1       9.677   7.759   8.868  1.00  0.00    -0.744 OA
ENDBRANCH  69  72
ENDBRANCH  51  65
BRANCH  52  76
ATOM     76  C   UNL     1       8.081   6.363  -3.645  1.00  0.00     0.023 A 
ATOM     77  C   UNL     1       8.705   5.502  -4.567  1.00  0.00     0.012 A 
ATOM     78  C   UNL     1       7.375   7.486  -4.122  1.00  0.00     0.148 A 
ATOM     79  C   UNL     1       8.646   5.764  -5.936  1.00  0.00     0.002 A 
ATOM     80  C   UNL     1       7.268   7.707  -5.490  1.00  0.00     0.091 A 
ATOM     81  F   UNL     1       6.801   8.302  -3.227  1.00  0.00    -0.205 F 
ATOM     82  C   UNL     1       7.917   6.857  -6.398  1.00  0.00     0.022 A 
BRANCH  80  83
ATOM     83  S   UNL     1       6.237   9.006  -6.178  1.00  0.00     0.127 S 
ATOM     84  O   UNL     1       7.235   9.910  -6.744  1.00  0.00    -0.237 OA
ATOM     85  O   UNL     1       5.444   8.270  -7.163  1.00  0.00    -0.237 OA
ATOM     86  O   UNL     1       5.467   9.535  -5.060  1.00  0.00    -0.744 OA
ENDBRANCH  80  83
ENDBRANCH  52  76
BRANCH  64  87
ATOM     87  C   UNL     1      13.228   6.152   1.064  1.00  0.00     0.023 A 
ATOM     88  C   UNL     1      13.726   7.456   0.876  1.00  0.00     0.012 A 
ATOM     89  C   UNL     1      14.130   5.081   1.217  1.00  0.00     0.148 A 
ATOM     90  C   UNL     1      15.100   7.685   0.806  1.00  0.00     0.002 A 
ATOM     91  C   UNL     1      15.497   5.324   1.201  1.00  0.00     0.091 A 
ATOM     92  F   UNL     1      13.635   3.845   1.375  1.00  0.00    -0.205 F 
ATOM     93  C   UNL     1      15.984   6.623   0.981  1.00  0.00     0.022 A 
BRANCH  91  94
ATOM     94  S   UNL     1      16.708   4.036   1.516  1.00  0.00     0.127 S 
ATOM     95  O   UNL     1      17.307   3.860   0.194  1.00  0.00    -0.237 OA
ATOM     96  O   UNL     1      17.583   4.669   2.503  1.00  0.00    -0.237 OA
ATOM     97  O   UNL     1      15.958   2.892   2.018  1.00  0.00    -0.744 OA
ENDBRANCH  91  94
ENDBRANCH  64  87
ENDBRANCH  38  39
ENDBRANCH  31  33
ENDBRANCH  30  31
ENDBRANCH   1  30
TORSDOF 17
