REMARK SMILES CC(C)Nc1ncc(C(=O)N2CCC[C@H](c3cccc(C(=O)OCCOC(=O)c4ccc(-c5c6nc(c(-c7cccc(S(=O)(=O)[O-])c7F)c7ccc([nH]7)c(-c7cccc(S(=O)(=O)[O-])c7F)c7nc(c(-c8cccc(S(=O)(=O)[O-])c8F)c8ccc5[nH]8)C=C7)C=C6)cc4)c3)C2)cn1
REMARK SMILES IDX 24 1 23 2 21 3 22 4 20 5 16 6 17 7 92 8 18 9 19 10 15 11
REMARK SMILES IDX 11 12 12 13 93 14 13 15 14 16 9 17 10 18 8 19 5 20 6 21
REMARK SMILES IDX 95 22 7 23 94 24 4 25 2 27 1 28 3 29 25 30 26 31 27 32 28 33
REMARK SMILES IDX 29 34 30 35 91 36 31 37 90 38 32 39 33 40 34 41 84 42 35 43
REMARK SMILES IDX 89 44 83 45 85 46 36 47 88 48 82 49 81 50 37 52 69 53 49 54
REMARK SMILES IDX 68 55 50 56 53 57 67 58 86 59 51 60 52 61 66 63 87 64 54 65
REMARK SMILES IDX 38 66 39 67 47 68 40 69 42 70 48 71 41 72 43 73 44 74 45 75
REMARK SMILES IDX 46 76 70 77 71 78 79 79 72 80 74 81 80 82 73 83 75 84 76 85
REMARK SMILES IDX 77 86 78 87 55 88 56 89 64 90 57 91 59 92 65 93 58 94 60 95
REMARK SMILES IDX 61 96 62 97 63 98
REMARK H PARENT 4 26 85 51 53 62
REMARK Flexibility Score: inf
ROOT
ATOM      1  C   UNL     1      -5.254  12.413  -5.463  1.00  0.00     0.275 C 
ENDROOT
BRANCH   1   2
ATOM      2  O   UNL     1      -5.009  11.061  -5.027  1.00  0.00    -0.458 OA
BRANCH   2   3
ATOM      3  C   UNL     1      -4.627  10.188  -5.997  1.00  0.00     0.338 C 
ATOM      4  O   UNL     1      -4.549  10.414  -7.186  1.00  0.00    -0.246 OA
BRANCH   3   5
ATOM      5  C   UNL     1      -4.186   8.908  -5.385  1.00  0.00     0.060 A 
ATOM      6  C   UNL     1      -4.444   7.103  -3.774  1.00  0.00    -0.042 A 
ATOM      7  C   UNL     1      -3.258   6.537  -4.265  1.00  0.00     0.004 A 
ATOM      8  C   UNL     1      -4.826   8.366  -4.269  1.00  0.00     0.019 A 
ATOM      9  C   UNL     1      -2.622   7.069  -5.380  1.00  0.00     0.001 A 
ATOM     10  C   UNL     1      -3.140   8.204  -5.987  1.00  0.00     0.016 A 
BRANCH   6  11
ATOM     11  C   UNL     1      -5.389   6.335  -2.845  1.00  0.00     0.039 C 
ATOM     12  N   UNL     1      -5.163   4.011  -3.790  1.00  0.00    -0.338 N 
ATOM     13  C   UNL     1      -6.439   4.098  -4.495  1.00  0.00     0.120 C 
ATOM     14  C   UNL     1      -5.013   4.847  -2.581  1.00  0.00     0.128 C 
ATOM     15  C   UNL     1      -6.894   5.530  -4.728  1.00  0.00     0.022 C 
ATOM     16  C   UNL     1      -6.829   6.336  -3.428  1.00  0.00     0.012 C 
BRANCH  12  17
ATOM     17  C   UNL     1      -4.163   3.220  -4.352  1.00  0.00     0.257 C 
ATOM     18  O   UNL     1      -4.097   2.977  -5.554  1.00  0.00    -0.269 OA
BRANCH  17  19
ATOM     19  C   UNL     1      -3.204   2.529  -3.478  1.00  0.00     0.076 A 
ATOM     20  C   UNL     1      -1.560   0.906  -2.034  1.00  0.00     0.222 A 
ATOM     21  N   UNL     1      -2.783   1.166  -1.545  1.00  0.00    -0.221 NA
ATOM     22  N   UNL     1      -1.098   1.410  -3.188  1.00  0.00    -0.221 NA
ATOM     23  C   UNL     1      -3.579   1.970  -2.281  1.00  0.00     0.130 A 
ATOM     24  C   UNL     1      -1.941   2.192  -3.904  1.00  0.00     0.130 A 
BRANCH  20  25
ATOM     25  N   UNL     1      -0.805   0.058  -1.279  1.00  0.00    -0.352 N 
ATOM     26  H   UNL     1      -1.260  -0.500  -0.607  1.00  0.00     0.163 HD
BRANCH  25  27
ATOM     27  C   UNL     1       0.628  -0.064  -1.413  1.00  0.00     0.076 C 
ATOM     28  C   UNL     1       1.234   0.006  -0.011  1.00  0.00     0.030 C 
ATOM     29  C   UNL     1       0.981  -1.390  -2.080  1.00  0.00     0.030 C 
ENDBRANCH  25  27
ENDBRANCH  20  25
ENDBRANCH  17  19
ENDBRANCH  12  17
ENDBRANCH   6  11
ENDBRANCH   3   5
ENDBRANCH   2   3
ENDBRANCH   1   2
BRANCH   1  30
ATOM     30  C   UNL     1      -4.118  13.335  -5.021  1.00  0.00     0.275 C 
BRANCH  30  31
ATOM     31  O   UNL     1      -2.906  12.989  -5.715  1.00  0.00    -0.458 OA
BRANCH  31  32
ATOM     32  C   UNL     1      -1.915  12.476  -4.950  1.00  0.00     0.338 C 
ATOM     33  O   UNL     1      -1.908  12.334  -3.739  1.00  0.00    -0.246 OA
BRANCH  32  34
ATOM     34  C   UNL     1      -0.820  12.011  -5.816  1.00  0.00     0.060 A 
ATOM     35  C   UNL     1      -1.030  10.866  -6.574  1.00  0.00     0.016 A 
ATOM     36  C   UNL     1       0.440  12.596  -5.780  1.00  0.00     0.016 A 
ATOM     37  C   UNL     1       0.032  10.223  -7.201  1.00  0.00     0.010 A 
ATOM     38  C   UNL     1       1.483  12.021  -6.520  1.00  0.00     0.010 A 
ATOM     39  C   UNL     1       1.306  10.802  -7.205  1.00  0.00    -0.014 A 
BRANCH  39  40
ATOM     40  C   UNL     1       2.442  10.132  -7.907  1.00  0.00     0.031 A 
ATOM     41  C   UNL     1       3.722   9.830  -7.166  1.00  0.00     0.074 A 
ATOM     42  C   UNL     1       2.345   9.803  -9.213  1.00  0.00     0.049 A 
ATOM     43  N   UNL     1       4.878   9.435  -7.637  1.00  0.00    -0.248 NA
ATOM     44  C   UNL     1       3.707  10.013  -5.705  1.00  0.00     0.031 C 
ATOM     45  C   UNL     1       1.167  10.012 -10.057  1.00  0.00     0.029 A 
ATOM     46  N   UNL     1       3.261   9.236 -10.068  1.00  0.00    -0.354 N 
ATOM     47  C   UNL     1       5.745   9.405  -6.550  1.00  0.00     0.074 A 
ATOM     48  C   UNL     1       4.979   9.811  -5.391  1.00  0.00     0.031 C 
ATOM     49  C   UNL     1       1.421   9.566 -11.295  1.00  0.00     0.029 A 
ATOM     50  C   UNL     1       2.809   9.126 -11.364  1.00  0.00     0.049 A 
ATOM     51  H   UNL     1       4.154   8.937  -9.781  1.00  0.00     0.167 HD
ATOM     52  C   UNL     1       7.057   9.066  -6.517  1.00  0.00     0.034 A 
ATOM     53  C   UNL     1       3.444   8.767 -12.497  1.00  0.00     0.034 A 
ATOM     54  C   UNL     1       7.797   8.587  -7.655  1.00  0.00     0.049 A 
ATOM     55  C   UNL     1       4.898   8.393 -12.433  1.00  0.00     0.074 A 
ATOM     56  C   UNL     1       9.115   8.167  -7.708  1.00  0.00     0.029 A 
ATOM     57  N   UNL     1       7.285   8.454  -8.936  1.00  0.00    -0.354 N 
ATOM     58  N   UNL     1       5.688   8.329 -11.389  1.00  0.00    -0.248 NA
ATOM     59  C   UNL     1       5.547   8.033 -13.702  1.00  0.00     0.031 C 
ATOM     60  C   UNL     1       9.406   7.801  -9.026  1.00  0.00     0.029 A 
ATOM     61  C   UNL     1       8.261   7.966  -9.789  1.00  0.00     0.049 A 
ATOM     62  H   UNL     1       6.362   8.673  -9.201  1.00  0.00     0.167 HD
ATOM     63  C   UNL     1       6.919   7.900 -11.870  1.00  0.00     0.074 A 
ATOM     64  C   UNL     1       6.762   7.692 -13.295  1.00  0.00     0.031 C 
ATOM     65  C   UNL     1       8.080   7.714 -11.195  1.00  0.00     0.034 A 
BRANCH  52  66
ATOM     66  C   UNL     1       7.784   9.184  -5.201  1.00  0.00     0.023 A 
ATOM     67  C   UNL     1       7.533   8.258  -4.170  1.00  0.00     0.012 A 
ATOM     68  C   UNL     1       8.764  10.180  -5.011  1.00  0.00     0.148 A 
ATOM     69  C   UNL     1       8.220   8.341  -2.958  1.00  0.00     0.002 A 
ATOM     70  C   UNL     1       9.476  10.229  -3.818  1.00  0.00     0.091 A 
ATOM     71  F   UNL     1       8.977  11.065  -5.996  1.00  0.00    -0.205 F 
ATOM     72  C   UNL     1       9.197   9.318  -2.787  1.00  0.00     0.022 A 
BRANCH  70  73
ATOM     73  S   UNL     1      10.810  11.399  -3.533  1.00  0.00     0.127 S 
ATOM     74  O   UNL     1      10.204  12.306  -2.560  1.00  0.00    -0.237 OA
ATOM     75  O   UNL     1      11.863  10.539  -2.990  1.00  0.00    -0.237 OA
ATOM     76  O   UNL     1      11.115  11.985  -4.830  1.00  0.00    -0.744 OA
ENDBRANCH  70  73
ENDBRANCH  52  66
BRANCH  53  77
ATOM     77  C   UNL     1       2.704   8.749 -13.792  1.00  0.00     0.023 A 
ATOM     78  C   UNL     1       2.448   7.520 -14.429  1.00  0.00     0.012 A 
ATOM     79  C   UNL     1       2.220   9.938 -14.376  1.00  0.00     0.148 A 
ATOM     80  C   UNL     1       1.745   7.476 -15.634  1.00  0.00     0.002 A 
ATOM     81  C   UNL     1       1.466   9.881 -15.541  1.00  0.00     0.091 A 
ATOM     82  F   UNL     1       2.493  11.101 -13.768  1.00  0.00    -0.205 F 
ATOM     83  C   UNL     1       1.242   8.653 -16.182  1.00  0.00     0.022 A 
BRANCH  81  84
ATOM     84  S   UNL     1       0.660  11.330 -16.234  1.00  0.00     0.127 S 
ATOM     85  O   UNL     1       1.463  11.577 -17.428  1.00  0.00    -0.237 OA
ATOM     86  O   UNL     1      -0.692  10.830 -16.492  1.00  0.00    -0.237 OA
ATOM     87  O   UNL     1       0.732  12.351 -15.198  1.00  0.00    -0.744 OA
ENDBRANCH  81  84
ENDBRANCH  53  77
BRANCH  65  88
ATOM     88  C   UNL     1       9.270   7.228 -11.979  1.00  0.00     0.023 A 
ATOM     89  C   UNL     1       9.935   8.104 -12.859  1.00  0.00     0.012 A 
ATOM     90  C   UNL     1       9.770   5.924 -11.792  1.00  0.00     0.148 A 
ATOM     91  C   UNL     1      11.060   7.680 -13.566  1.00  0.00     0.002 A 
ATOM     92  C   UNL     1      10.919   5.524 -12.462  1.00  0.00     0.091 A 
ATOM     93  F   UNL     1       9.111   5.099 -10.964  1.00  0.00    -0.205 F 
ATOM     94  C   UNL     1      11.559   6.396 -13.358  1.00  0.00     0.022 A 
BRANCH  92  95
ATOM     95  S   UNL     1      11.688   3.924 -12.186  1.00  0.00     0.127 S 
ATOM     96  O   UNL     1      11.386   3.229 -13.437  1.00  0.00    -0.237 OA
ATOM     97  O   UNL     1      13.096   4.282 -12.011  1.00  0.00    -0.237 OA
ATOM     98  O   UNL     1      11.053   3.372 -10.996  1.00  0.00    -0.744 OA
ENDBRANCH  92  95
ENDBRANCH  65  88
ENDBRANCH  39  40
ENDBRANCH  32  34
ENDBRANCH  31  32
ENDBRANCH  30  31
ENDBRANCH   1  30
TORSDOF 19
