REMARK SMILES Cc1c(N[C@@H]2CC[C@@H]([NH3+])C2)cccc1C(=O)OCCOC(=O)c1ccc(-c2c3nc(c(-c4cccc(S(=O)(=O)[O-])c4F)c4ccc([nH]4)c(-c4cccc(S(=O)(=O)[O-])c4F)c4nc(c(-c5cccc(S(=O)(=O)[O-])c5F)c5ccc2[nH]5)C=C4)C=C3)cc1
REMARK SMILES IDX 18 1 17 2 15 3 16 4 14 5 1 6 2 7 3 8 11 9 13 10 12 11 4 12
REMARK SMILES IDX 5 14 6 15 10 16 7 17 8 18 9 19 19 23 20 24 21 25 22 26 23 27
REMARK SMILES IDX 24 28 85 29 25 30 84 31 26 32 27 33 28 34 78 35 29 36 83 37
REMARK SMILES IDX 77 38 79 39 30 40 82 41 76 42 75 43 31 45 63 46 43 47 62 48
REMARK SMILES IDX 44 49 47 50 61 51 80 52 45 53 46 54 60 56 81 57 48 58 32 59
REMARK SMILES IDX 33 60 41 61 34 62 36 63 42 64 35 65 37 66 38 67 39 68 40 69
REMARK SMILES IDX 64 70 65 71 73 72 66 73 68 74 74 75 67 76 69 77 70 78 71 79
REMARK SMILES IDX 72 80 49 81 50 82 58 83 51 84 53 85 59 86 52 87 54 88 55 89
REMARK SMILES IDX 56 90 57 91
REMARK H PARENT 4 13 9 20 9 21 9 22 79 44 47 55
REMARK Flexibility Score: inf
ROOT
ATOM      1  C   UNL     1       3.604   3.005  -1.994  1.00  0.00     0.275 C 
ENDROOT
BRANCH   1   2
ATOM      2  O   UNL     1       2.687   2.048  -1.471  1.00  0.00    -0.458 OA
BRANCH   2   3
ATOM      3  C   UNL     1       1.958   1.337  -2.348  1.00  0.00     0.338 C 
ATOM      4  O   UNL     1       1.965   1.470  -3.561  1.00  0.00    -0.246 OA
BRANCH   3   5
ATOM      5  C   UNL     1       1.058   0.427  -1.601  1.00  0.00     0.065 A 
ATOM      6  C   UNL     1       3.005  -0.789  -0.519  1.00  0.00     0.047 C 
ATOM      7  C   UNL     1       1.528  -0.631  -0.782  1.00  0.00    -0.013 A 
ATOM      8  C   UNL     1       0.585  -1.559  -0.273  1.00  0.00     0.038 A 
ATOM      9  C   UNL     1      -0.780  -1.258  -0.406  1.00  0.00     0.026 A 
ATOM     10  C   UNL     1      -0.311   0.640  -1.792  1.00  0.00     0.016 A 
ATOM     11  C   UNL     1      -1.230  -0.159  -1.132  1.00  0.00     0.003 A 
BRANCH   8  12
ATOM     12  N   UNL     1       0.994  -2.789   0.215  1.00  0.00    -0.382 N 
ATOM     13  H   UNL     1       1.812  -2.792   0.763  1.00  0.00     0.160 HD
BRANCH  12  14
ATOM     14  C   UNL     1       0.348  -4.078   0.007  1.00  0.00     0.085 C 
ATOM     15  C   UNL     1      -0.391  -4.273  -1.329  1.00  0.00     0.031 C 
ATOM     16  C   UNL     1      -0.644  -4.446   1.110  1.00  0.00     0.089 C 
ATOM     17  C   UNL     1      -1.773  -4.819  -0.959  1.00  0.00     0.067 C 
ATOM     18  C   UNL     1      -1.612  -5.422   0.436  1.00  0.00     0.182 C 
BRANCH  18  19
ATOM     19  N   UNL     1      -1.073  -6.784   0.357  1.00  0.00    -0.355 N 
ATOM     20  H   UNL     1      -0.188  -6.771  -0.150  1.00  0.00     0.344 HD
ATOM     21  H   UNL     1      -1.736  -7.384  -0.134  1.00  0.00     0.344 HD
ATOM     22  H   UNL     1      -0.920  -7.145   1.298  1.00  0.00     0.344 HD
ENDBRANCH  18  19
ENDBRANCH  12  14
ENDBRANCH   8  12
ENDBRANCH   3   5
ENDBRANCH   2   3
ENDBRANCH   1   2
BRANCH   1  23
ATOM     23  C   UNL     1       3.059   4.166  -2.856  1.00  0.00     0.275 C 
BRANCH  23  24
ATOM     24  O   UNL     1       1.656   4.575  -2.921  1.00  0.00    -0.458 OA
BRANCH  24  25
ATOM     25  C   UNL     1       0.620   4.596  -2.052  1.00  0.00     0.338 C 
ATOM     26  O   UNL     1      -0.510   4.925  -2.393  1.00  0.00    -0.246 OA
BRANCH  25  27
ATOM     27  C   UNL     1       0.892   4.194  -0.678  1.00  0.00     0.060 A 
ATOM     28  C   UNL     1       0.027   3.313  -0.004  1.00  0.00     0.016 A 
ATOM     29  C   UNL     1       2.071   4.640  -0.105  1.00  0.00     0.016 A 
ATOM     30  C   UNL     1       0.396   2.799   1.232  1.00  0.00     0.010 A 
ATOM     31  C   UNL     1       2.525   3.998   1.013  1.00  0.00     0.010 A 
ATOM     32  C   UNL     1       1.642   3.168   1.729  1.00  0.00    -0.014 A 
BRANCH  32  33
ATOM     33  C   UNL     1       1.951   3.206   3.147  1.00  0.00     0.031 A 
ATOM     34  C   UNL     1       2.578   2.095   3.853  1.00  0.00     0.074 A 
ATOM     35  C   UNL     1       1.884   4.483   3.594  1.00  0.00     0.049 A 
ATOM     36  N   UNL     1       2.727   2.079   5.127  1.00  0.00    -0.248 NA
ATOM     37  C   UNL     1       3.068   0.889   3.198  1.00  0.00     0.031 C 
ATOM     38  C   UNL     1       2.553   5.153   4.687  1.00  0.00     0.029 A 
ATOM     39  N   UNL     1       1.059   5.481   3.048  1.00  0.00    -0.354 N 
ATOM     40  C   UNL     1       3.586   1.045   5.433  1.00  0.00     0.074 A 
ATOM     41  C   UNL     1       3.652   0.257   4.226  1.00  0.00     0.031 C 
ATOM     42  C   UNL     1       1.923   6.327   4.906  1.00  0.00     0.029 A 
ATOM     43  C   UNL     1       0.713   6.333   4.085  1.00  0.00     0.049 A 
ATOM     44  H   UNL     1       0.779   5.560   2.107  1.00  0.00     0.167 HD
ATOM     45  C   UNL     1       4.246   1.107   6.624  1.00  0.00     0.034 A 
ATOM     46  C   UNL     1      -0.583   6.364   4.522  1.00  0.00     0.034 A 
ATOM     47  C   UNL     1       3.748   2.263   7.398  1.00  0.00     0.049 A 
ATOM     48  C   UNL     1      -0.658   5.824   5.937  1.00  0.00     0.074 A 
ATOM     49  C   UNL     1       4.221   3.558   7.534  1.00  0.00     0.029 A 
ATOM     50  N   UNL     1       2.428   2.279   7.846  1.00  0.00    -0.354 N 
ATOM     51  N   UNL     1       0.286   5.122   6.503  1.00  0.00    -0.248 NA
ATOM     52  C   UNL     1      -1.797   6.037   6.819  1.00  0.00     0.031 C 
ATOM     53  C   UNL     1       3.127   4.378   7.936  1.00  0.00     0.029 A 
ATOM     54  C   UNL     1       2.003   3.580   8.088  1.00  0.00     0.049 A 
ATOM     55  H   UNL     1       1.872   1.476   7.974  1.00  0.00     0.167 HD
ATOM     56  C   UNL     1      -0.108   4.721   7.743  1.00  0.00     0.074 A 
ATOM     57  C   UNL     1      -1.400   5.372   7.917  1.00  0.00     0.031 C 
ATOM     58  C   UNL     1       0.624   3.846   8.500  1.00  0.00     0.034 A 
BRANCH  45  59
ATOM     59  C   UNL     1       5.510   0.351   7.029  1.00  0.00     0.023 A 
ATOM     60  C   UNL     1       6.137   0.775   8.226  1.00  0.00     0.012 A 
ATOM     61  C   UNL     1       6.185  -0.672   6.318  1.00  0.00     0.148 A 
ATOM     62  C   UNL     1       7.367   0.269   8.664  1.00  0.00     0.002 A 
ATOM     63  C   UNL     1       7.411  -1.191   6.761  1.00  0.00     0.091 A 
ATOM     64  F   UNL     1       5.668  -1.161   5.192  1.00  0.00    -0.205 F 
ATOM     65  C   UNL     1       8.010  -0.712   7.928  1.00  0.00     0.022 A 
BRANCH  63  66
ATOM     66  S   UNL     1       8.312  -2.482   5.874  1.00  0.00     0.127 S 
ATOM     67  O   UNL     1       9.549  -1.794   5.504  1.00  0.00    -0.237 OA
ATOM     68  O   UNL     1       8.473  -3.512   6.899  1.00  0.00    -0.237 OA
ATOM     69  O   UNL     1       7.473  -2.872   4.746  1.00  0.00    -0.744 OA
ENDBRANCH  63  66
ENDBRANCH  45  59
BRANCH  46  70
ATOM     70  C   UNL     1      -1.613   6.101   3.444  1.00  0.00     0.023 A 
ATOM     71  C   UNL     1      -1.571   6.919   2.282  1.00  0.00     0.012 A 
ATOM     72  C   UNL     1      -2.345   4.901   3.372  1.00  0.00     0.148 A 
ATOM     73  C   UNL     1      -2.123   6.496   1.067  1.00  0.00     0.002 A 
ATOM     74  C   UNL     1      -2.897   4.486   2.153  1.00  0.00     0.091 A 
ATOM     75  F   UNL     1      -2.450   4.138   4.467  1.00  0.00    -0.205 F 
ATOM     76  C   UNL     1      -2.765   5.267   0.996  1.00  0.00     0.022 A 
BRANCH  74  77
ATOM     77  S   UNL     1      -3.651   2.857   2.004  1.00  0.00     0.127 S 
ATOM     78  O   UNL     1      -3.601   2.594   0.564  1.00  0.00    -0.237 OA
ATOM     79  O   UNL     1      -2.777   1.995   2.787  1.00  0.00    -0.237 OA
ATOM     80  O   UNL     1      -4.989   3.095   2.536  1.00  0.00    -0.744 OA
ENDBRANCH  74  77
ENDBRANCH  46  70
BRANCH  58  81
ATOM     81  C   UNL     1       0.073   3.151   9.722  1.00  0.00     0.023 A 
ATOM     82  C   UNL     1      -1.307   2.930   9.890  1.00  0.00     0.012 A 
ATOM     83  C   UNL     1       0.939   2.547  10.664  1.00  0.00     0.148 A 
ATOM     84  C   UNL     1      -1.814   2.233  10.988  1.00  0.00     0.002 A 
ATOM     85  C   UNL     1       0.436   1.737  11.675  1.00  0.00     0.091 A 
ATOM     86  F   UNL     1       2.262   2.760  10.594  1.00  0.00    -0.205 F 
ATOM     87  C   UNL     1      -0.941   1.615  11.870  1.00  0.00     0.022 A 
BRANCH  85  88
ATOM     88  S   UNL     1       1.536   0.682  12.626  1.00  0.00     0.127 S 
ATOM     89  O   UNL     1       1.859   1.529  13.771  1.00  0.00    -0.237 OA
ATOM     90  O   UNL     1       0.681  -0.466  12.938  1.00  0.00    -0.237 OA
ATOM     91  O   UNL     1       2.633   0.374  11.718  1.00  0.00    -0.744 OA
ENDBRANCH  85  88
ENDBRANCH  58  81
ENDBRANCH  32  33
ENDBRANCH  25  27
ENDBRANCH  24  25
ENDBRANCH  23  24
ENDBRANCH   1  23
TORSDOF 17
