REMARK SMILES CCCC[C@@H](Sc1nc(OCCC2CCCCC2)cc(OCCC2CCCCC2)n1)C(=O)OCCOC(=O)c1ccc(-c2c3nc(c(-c4cccc(S(=O)(=O)[O-])c4F)c4ccc([nH]4)c(-c4cccc(S(=O)(=O)[O-])c4F)c4nc(c(-c5cccc(S(=O)(=O)[O-])c5F)c5ccc2[nH]5)C=C4)C=C3)cc1
REMARK SMILES IDX 33 1 31 2 32 3 5 4 4 5 3 6 2 7 1 8 6 9 7 10 8 11 30 12 9 13
REMARK SMILES IDX 20 14 19 15 10 16 11 17 12 18 13 19 14 20 18 21 15 22 17 23
REMARK SMILES IDX 16 24 21 25 22 26 23 27 24 28 25 29 29 30 26 31 28 32 27 33
REMARK SMILES IDX 34 34 35 35 36 36 37 37 38 38 39 39 40 40 101 41 41 42
REMARK SMILES IDX 100 43 42 44 43 45 44 46 94 47 45 48 99 49 93 50 95 51 46 52
REMARK SMILES IDX 98 53 92 54 91 55 47 57 79 58 59 59 78 60 60 61 63 62 77 63
REMARK SMILES IDX 96 64 61 65 62 66 76 68 97 69 64 70 48 71 49 72 57 73 50 74
REMARK SMILES IDX 52 75 58 76 51 77 53 78 54 79 55 80 56 81 80 82 81 83 89 84
REMARK SMILES IDX 82 85 84 86 90 87 83 88 85 89 86 90 87 91 88 92 65 93 66 94
REMARK SMILES IDX 74 95 67 96 69 97 75 98 68 99 70 100 71 101 72 102 73 103
REMARK H PARENT 95 56 63 67
REMARK Flexibility Score: inf
ROOT
ATOM      1  O   UNL     1      -1.107   1.094  -5.164  1.00  0.00    -0.461 OA
ENDROOT
BRANCH   1   2
ATOM      2  C   UNL     1      -1.767   1.227  -3.977  1.00  0.00     0.319 C 
ATOM      3  O   UNL     1      -2.905   0.824  -3.769  1.00  0.00    -0.251 OA
BRANCH   2   4
ATOM      4  C   UNL     1      -0.950   1.999  -2.939  1.00  0.00     0.164 C 
BRANCH   4   5
ATOM      5  C   UNL     1       0.547   1.618  -3.017  1.00  0.00     0.027 C 
BRANCH   5   6
ATOM      6  C   UNL     1       1.429   1.799  -1.771  1.00  0.00     0.001 C 
BRANCH   6   7
ATOM      7  C   UNL     1       0.967   1.079  -0.499  1.00  0.00    -0.003 C 
ATOM      8  C   UNL     1       1.338  -0.397  -0.493  1.00  0.00     0.004 C 
ENDBRANCH   6   7
ENDBRANCH   5   6
ENDBRANCH   4   5
BRANCH   4   9
ATOM      9  S   UNL     1      -1.347   3.764  -3.266  1.00  0.00    -0.071 SA
BRANCH   9  10
ATOM     10  C   UNL     1      -1.335   4.395  -1.618  1.00  0.00     0.195 A 
ATOM     11  N   UNL     1      -2.333   5.211  -1.246  1.00  0.00    -0.187 NA
ATOM     12  N   UNL     1      -0.213   4.189  -0.927  1.00  0.00    -0.187 NA
ATOM     13  C   UNL     1      -2.123   5.940  -0.141  1.00  0.00     0.221 A 
ATOM     14  C   UNL     1      -0.031   4.938   0.152  1.00  0.00     0.221 A 
ATOM     15  C   UNL     1      -0.925   5.903   0.520  1.00  0.00     0.136 A 
BRANCH  13  16
ATOM     16  O   UNL     1      -3.212   6.665   0.268  1.00  0.00    -0.477 OA
BRANCH  16  17
ATOM     17  C   UNL     1      -3.132   7.461   1.452  1.00  0.00     0.231 C 
BRANCH  17  18
ATOM     18  C   UNL     1      -3.594   6.782   2.761  1.00  0.00     0.045 C 
BRANCH  18  19
ATOM     19  C   UNL     1      -2.950   5.427   3.107  1.00  0.00    -0.008 C 
ATOM     20  C   UNL     1      -2.894   5.172   4.624  1.00  0.00     0.004 C 
ATOM     21  C   UNL     1      -3.672   4.253   2.428  1.00  0.00     0.004 C 
ATOM     22  C   UNL     1      -2.197   3.843   4.936  1.00  0.00     0.000 C 
ATOM     23  C   UNL     1      -2.943   2.938   2.693  1.00  0.00     0.000 C 
ATOM     24  C   UNL     1      -2.821   2.667   4.188  1.00  0.00     0.000 C 
ENDBRANCH  18  19
ENDBRANCH  17  18
ENDBRANCH  16  17
ENDBRANCH  13  16
BRANCH  14  25
ATOM     25  O   UNL     1       1.181   4.779   0.771  1.00  0.00    -0.477 OA
BRANCH  25  26
ATOM     26  C   UNL     1       1.111   4.506   2.178  1.00  0.00     0.231 C 
BRANCH  26  27
ATOM     27  C   UNL     1       2.156   5.348   2.937  1.00  0.00     0.045 C 
BRANCH  27  28
ATOM     28  C   UNL     1       2.111   6.838   2.566  1.00  0.00    -0.008 C 
ATOM     29  C   UNL     1       0.876   7.568   3.108  1.00  0.00     0.004 C 
ATOM     30  C   UNL     1       3.330   7.641   3.038  1.00  0.00     0.004 C 
ATOM     31  C   UNL     1       0.735   8.873   2.326  1.00  0.00     0.000 C 
ATOM     32  C   UNL     1       3.290   9.050   2.425  1.00  0.00     0.000 C 
ATOM     33  C   UNL     1       1.944   9.769   2.587  1.00  0.00     0.000 C 
ENDBRANCH  27  28
ENDBRANCH  26  27
ENDBRANCH  25  26
ENDBRANCH  14  25
ENDBRANCH   9  10
ENDBRANCH   4   9
ENDBRANCH   2   4
ENDBRANCH   1   2
BRANCH   1  34
ATOM     34  C   UNL     1      -1.823   0.419  -6.213  1.00  0.00     0.274 C 
BRANCH  34  35
ATOM     35  C   UNL     1      -1.478  -1.071  -6.266  1.00  0.00     0.275 C 
BRANCH  35  36
ATOM     36  O   UNL     1      -1.953  -1.765  -5.098  1.00  0.00    -0.458 OA
BRANCH  36  37
ATOM     37  C   UNL     1      -1.022  -1.966  -4.138  1.00  0.00     0.338 C 
ATOM     38  O   UNL     1       0.164  -1.686  -4.192  1.00  0.00    -0.246 OA
BRANCH  37  39
ATOM     39  C   UNL     1      -1.650  -2.487  -2.915  1.00  0.00     0.060 A 
ATOM     40  C   UNL     1      -1.726  -1.647  -1.803  1.00  0.00     0.016 A 
ATOM     41  C   UNL     1      -2.006  -3.831  -2.813  1.00  0.00     0.016 A 
ATOM     42  C   UNL     1      -2.101  -2.153  -0.564  1.00  0.00     0.010 A 
ATOM     43  C   UNL     1      -2.404  -4.336  -1.570  1.00  0.00     0.010 A 
ATOM     44  C   UNL     1      -2.415  -3.509  -0.432  1.00  0.00    -0.014 A 
BRANCH  44  45
ATOM     45  C   UNL     1      -2.658  -4.072   0.918  1.00  0.00     0.031 A 
ATOM     46  C   UNL     1      -1.622  -4.960   1.551  1.00  0.00     0.074 A 
ATOM     47  C   UNL     1      -3.790  -3.772   1.581  1.00  0.00     0.049 A 
ATOM     48  N   UNL     1      -1.661  -5.587   2.698  1.00  0.00    -0.248 NA
ATOM     49  C   UNL     1      -0.379  -5.174   0.791  1.00  0.00     0.031 C 
ATOM     50  C   UNL     1      -4.861  -2.912   1.076  1.00  0.00     0.029 A 
ATOM     51  N   UNL     1      -4.232  -4.169   2.817  1.00  0.00    -0.354 N 
ATOM     52  C   UNL     1      -0.475  -6.306   2.778  1.00  0.00     0.074 A 
ATOM     53  C   UNL     1       0.264  -6.040   1.563  1.00  0.00     0.031 C 
ATOM     54  C   UNL     1      -5.844  -2.858   1.989  1.00  0.00     0.029 A 
ATOM     55  C   UNL     1      -5.487  -3.701   3.127  1.00  0.00     0.049 A 
ATOM     56  H   UNL     1      -3.703  -4.736   3.423  1.00  0.00     0.167 HD
ATOM     57  C   UNL     1      -0.032  -7.103   3.780  1.00  0.00     0.034 A 
ATOM     58  C   UNL     1      -6.266  -3.938   4.200  1.00  0.00     0.034 A 
ATOM     59  C   UNL     1      -0.745  -7.325   5.010  1.00  0.00     0.049 A 
ATOM     60  C   UNL     1      -5.742  -4.815   5.306  1.00  0.00     0.074 A 
ATOM     61  C   UNL     1      -0.361  -8.082   6.103  1.00  0.00     0.029 A 
ATOM     62  N   UNL     1      -1.986  -6.787   5.313  1.00  0.00    -0.354 N 
ATOM     63  N   UNL     1      -4.578  -5.410   5.407  1.00  0.00    -0.248 NA
ATOM     64  C   UNL     1      -6.627  -5.027   6.460  1.00  0.00     0.031 C 
ATOM     65  C   UNL     1      -1.374  -8.005   7.065  1.00  0.00     0.029 A 
ATOM     66  C   UNL     1      -2.384  -7.193   6.575  1.00  0.00     0.049 A 
ATOM     67  H   UNL     1      -2.508  -6.202   4.717  1.00  0.00     0.167 HD
ATOM     68  C   UNL     1      -4.580  -6.044   6.644  1.00  0.00     0.074 A 
ATOM     69  C   UNL     1      -5.851  -5.736   7.268  1.00  0.00     0.031 C 
ATOM     70  C   UNL     1      -3.627  -6.830   7.205  1.00  0.00     0.034 A 
BRANCH  57  71
ATOM     71  C   UNL     1       1.307  -7.766   3.602  1.00  0.00     0.023 A 
ATOM     72  C   UNL     1       2.484  -7.003   3.742  1.00  0.00     0.012 A 
ATOM     73  C   UNL     1       1.405  -9.147   3.344  1.00  0.00     0.148 A 
ATOM     74  C   UNL     1       3.737  -7.598   3.601  1.00  0.00     0.002 A 
ATOM     75  C   UNL     1       2.658  -9.740   3.241  1.00  0.00     0.091 A 
ATOM     76  F   UNL     1       0.275  -9.851   3.187  1.00  0.00    -0.205 F 
ATOM     77  C   UNL     1       3.824  -8.967   3.361  1.00  0.00     0.022 A 
BRANCH  75  78
ATOM     78  S   UNL     1       2.870 -11.508   3.001  1.00  0.00     0.127 S 
ATOM     79  O   UNL     1       3.248 -11.572   1.591  1.00  0.00    -0.237 OA
ATOM     80  O   UNL     1       3.951 -11.822   3.937  1.00  0.00    -0.237 OA
ATOM     81  O   UNL     1       1.587 -12.111   3.338  1.00  0.00    -0.744 OA
ENDBRANCH  75  78
ENDBRANCH  57  71
BRANCH  58  82
ATOM     82  C   UNL     1      -7.605  -3.295   4.300  1.00  0.00     0.023 A 
ATOM     83  C   UNL     1      -7.812  -2.275   5.248  1.00  0.00     0.012 A 
ATOM     84  C   UNL     1      -8.661  -3.663   3.445  1.00  0.00     0.148 A 
ATOM     85  C   UNL     1      -9.054  -1.649   5.359  1.00  0.00     0.002 A 
ATOM     86  C   UNL     1      -9.880  -2.999   3.525  1.00  0.00     0.091 A 
ATOM     87  F   UNL     1      -8.453  -4.653   2.564  1.00  0.00    -0.205 F 
ATOM     88  C   UNL     1     -10.083  -2.002   4.490  1.00  0.00     0.022 A 
BRANCH  86  89
ATOM     89  S   UNL     1     -11.213  -3.306   2.359  1.00  0.00     0.127 S 
ATOM     90  O   UNL     1     -12.127  -4.118   3.158  1.00  0.00    -0.237 OA
ATOM     91  O   UNL     1     -11.685  -1.952   2.069  1.00  0.00    -0.237 OA
ATOM     92  O   UNL     1     -10.588  -3.975   1.226  1.00  0.00    -0.744 OA
ENDBRANCH  86  89
ENDBRANCH  58  82
BRANCH  70  93
ATOM     93  C   UNL     1      -3.910  -7.395   8.572  1.00  0.00     0.023 A 
ATOM     94  C   UNL     1      -4.831  -8.453   8.707  1.00  0.00     0.012 A 
ATOM     95  C   UNL     1      -3.226  -6.924   9.708  1.00  0.00     0.148 A 
ATOM     96  C   UNL     1      -5.090  -9.011   9.959  1.00  0.00     0.002 A 
ATOM     97  C   UNL     1      -3.458  -7.513  10.946  1.00  0.00     0.091 A 
ATOM     98  F   UNL     1      -2.371  -5.900   9.566  1.00  0.00    -0.205 F 
ATOM     99  C   UNL     1      -4.396  -8.550  11.075  1.00  0.00     0.022 A 
BRANCH  97 100
ATOM    100  S   UNL     1      -2.537  -7.030  12.412  1.00  0.00     0.127 S 
ATOM    101  O   UNL     1      -3.459  -6.095  13.051  1.00  0.00    -0.237 OA
ATOM    102  O   UNL     1      -2.372  -8.302  13.118  1.00  0.00    -0.237 OA
ATOM    103  O   UNL     1      -1.292  -6.457  11.917  1.00  0.00    -0.744 OA
ENDBRANCH  97 100
ENDBRANCH  70  93
ENDBRANCH  44  45
ENDBRANCH  37  39
ENDBRANCH  36  37
ENDBRANCH  35  36
ENDBRANCH  34  35
ENDBRANCH   1  34
TORSDOF 27
