REMARK SMILES O=C(CCN1C(=O)c2ccc(NC(=O)c3cc4ccccc4o3)cc2C1=O)OCCOC(=O)c1ccc(-c2c3nc(c(-c4cccc(S(=O)(=O)[O-])c4F)c4ccc([nH]4)c(-c4cccc(S(=O)(=O)[O-])c4F)c4nc(c(-c5cccc(S(=O)(=O)[O-])c5F)c5ccc2[nH]5)C=C4)C=C3)cc1
REMARK SMILES IDX 29 1 28 2 2 3 1 4 3 5 4 6 5 7 6 8 26 9 7 10 8 11 25 12 27 13
REMARK SMILES IDX 9 14 24 15 10 16 11 17 12 18 13 19 14 21 15 22 16 23 23 24
REMARK SMILES IDX 17 25 22 26 18 27 21 28 19 29 20 30 30 31 31 32 32 33 33 34
REMARK SMILES IDX 34 35 35 36 96 37 36 38 95 39 37 40 38 41 39 42 89 43 40 44
REMARK SMILES IDX 94 45 88 46 90 47 41 48 93 49 87 50 86 51 42 53 74 54 54 55
REMARK SMILES IDX 73 56 55 57 58 58 72 59 91 60 56 61 57 62 71 64 92 65 59 66
REMARK SMILES IDX 43 67 44 68 52 69 45 70 47 71 53 72 46 73 48 74 49 75 50 76
REMARK SMILES IDX 51 77 75 78 76 79 84 80 77 81 79 82 85 83 78 84 80 85 81 86
REMARK SMILES IDX 82 87 83 88 60 89 61 90 69 91 62 92 64 93 70 94 63 95 65 96
REMARK SMILES IDX 66 97 67 98 68 99
REMARK H PARENT 12 20 90 52 58 63
REMARK Flexibility Score: inf
ROOT
ATOM      1  C   UNL     1       3.062   0.941  -0.795  1.00  0.00     0.274 C 
ENDROOT
BRANCH   1   2
ATOM      2  O   UNL     1       2.060  -0.050  -0.534  1.00  0.00    -0.462 OA
BRANCH   2   3
ATOM      3  C   UNL     1       2.416  -1.335  -0.807  1.00  0.00     0.307 C 
ATOM      4  O   UNL     1       1.890  -1.964  -1.716  1.00  0.00    -0.252 OA
BRANCH   3   5
ATOM      5  C   UNL     1       3.385  -1.955   0.174  1.00  0.00     0.145 C 
BRANCH   5   6
ATOM      6  C   UNL     1       4.572  -2.647  -0.499  1.00  0.00     0.141 C 
BRANCH   6   7
ATOM      7  N   UNL     1       5.538  -1.740  -1.115  1.00  0.00    -0.274 N 
ATOM      8  C   UNL     1       6.121  -1.964  -2.334  1.00  0.00     0.261 C 
ATOM      9  C   UNL     1       6.037  -0.603  -0.545  1.00  0.00     0.261 C 
ATOM     10  O   UNL     1       6.045  -2.925  -3.074  1.00  0.00    -0.269 OA
ATOM     11  C   UNL     1       6.870  -0.751  -2.661  1.00  0.00     0.053 A 
ATOM     12  C   UNL     1       6.730   0.124  -1.605  1.00  0.00     0.055 A 
ATOM     13  O   UNL     1       5.930  -0.183   0.589  1.00  0.00    -0.269 OA
ATOM     14  C   UNL     1       7.492  -0.374  -3.828  1.00  0.00     0.017 A 
ATOM     15  C   UNL     1       7.055   1.471  -1.701  1.00  0.00     0.040 A 
ATOM     16  C   UNL     1       7.876   0.968  -3.933  1.00  0.00     0.027 A 
ATOM     17  C   UNL     1       7.586   1.912  -2.912  1.00  0.00     0.042 A 
BRANCH  17  18
ATOM     18  N   UNL     1       7.836   3.252  -3.246  1.00  0.00    -0.319 N 
ATOM     19  C   UNL     1       7.275   4.458  -2.878  1.00  0.00     0.291 C 
ATOM     20  H   UNL     1       8.578   3.354  -3.885  1.00  0.00     0.170 HD
ATOM     21  O   UNL     1       7.688   5.446  -3.496  1.00  0.00    -0.265 OA
BRANCH  19  22
ATOM     22  C   UNL     1       6.165   4.559  -1.963  1.00  0.00     0.193 A 
ATOM     23  C   UNL     1       4.865   4.980  -2.187  1.00  0.00     0.065 A 
ATOM     24  O   UNL     1       6.381   4.436  -0.618  1.00  0.00    -0.451 OA
ATOM     25  C   UNL     1       4.242   5.107  -0.919  1.00  0.00     0.021 A 
ATOM     26  C   UNL     1       5.219   4.775   0.012  1.00  0.00     0.135 A 
ATOM     27  C   UNL     1       2.966   5.478  -0.455  1.00  0.00     0.012 A 
ATOM     28  C   UNL     1       5.015   4.777   1.390  1.00  0.00     0.048 A 
ATOM     29  C   UNL     1       2.726   5.475   0.927  1.00  0.00     0.001 A 
ATOM     30  C   UNL     1       3.734   5.129   1.832  1.00  0.00     0.004 A 
ENDBRANCH  19  22
ENDBRANCH  17  18
ENDBRANCH   6   7
ENDBRANCH   5   6
ENDBRANCH   3   5
ENDBRANCH   2   3
ENDBRANCH   1   2
BRANCH   1  31
ATOM     31  C   UNL     1       3.461   1.743   0.443  1.00  0.00     0.275 C 
BRANCH  31  32
ATOM     32  O   UNL     1       3.349   0.976   1.642  1.00  0.00    -0.458 OA
BRANCH  32  33
ATOM     33  C   UNL     1       2.155   1.113   2.259  1.00  0.00     0.338 C 
ATOM     34  O   UNL     1       1.300   1.952   2.028  1.00  0.00    -0.246 OA
BRANCH  33  35
ATOM     35  C   UNL     1       1.933  -0.043   3.142  1.00  0.00     0.060 A 
ATOM     36  C   UNL     1       0.660  -0.617   3.105  1.00  0.00     0.016 A 
ATOM     37  C   UNL     1       2.917  -0.535   4.008  1.00  0.00     0.016 A 
ATOM     38  C   UNL     1       0.334  -1.625   4.000  1.00  0.00     0.010 A 
ATOM     39  C   UNL     1       2.588  -1.558   4.904  1.00  0.00     0.010 A 
ATOM     40  C   UNL     1       1.278  -2.063   4.939  1.00  0.00    -0.014 A 
BRANCH  40  41
ATOM     41  C   UNL     1       0.799  -2.918   6.048  1.00  0.00     0.031 A 
ATOM     42  C   UNL     1       0.449  -2.273   7.361  1.00  0.00     0.074 A 
ATOM     43  C   UNL     1       0.574  -4.229   5.852  1.00  0.00     0.049 A 
ATOM     44  N   UNL     1      -0.199  -2.775   8.379  1.00  0.00    -0.248 NA
ATOM     45  C   UNL     1       0.876  -0.876   7.549  1.00  0.00     0.031 C 
ATOM     46  C   UNL     1       0.893  -4.969   4.632  1.00  0.00     0.029 A 
ATOM     47  N   UNL     1       0.010  -5.166   6.679  1.00  0.00    -0.354 N 
ATOM     48  C   UNL     1      -0.258  -1.760   9.325  1.00  0.00     0.074 A 
ATOM     49  C   UNL     1       0.449  -0.624   8.777  1.00  0.00     0.031 C 
ATOM     50  C   UNL     1       0.514  -6.249   4.789  1.00  0.00     0.029 A 
ATOM     51  C   UNL     1      -0.083  -6.414   6.113  1.00  0.00     0.049 A 
ATOM     52  H   UNL     1      -0.299  -4.964   7.591  1.00  0.00     0.167 HD
ATOM     53  C   UNL     1      -0.875  -1.760  10.529  1.00  0.00     0.034 A 
ATOM     54  C   UNL     1      -0.616  -7.552   6.600  1.00  0.00     0.034 A 
ATOM     55  C   UNL     1      -1.595  -2.883  11.063  1.00  0.00     0.049 A 
ATOM     56  C   UNL     1      -1.307  -7.523   7.939  1.00  0.00     0.074 A 
ATOM     57  C   UNL     1      -2.297  -2.971  12.251  1.00  0.00     0.029 A 
ATOM     58  N   UNL     1      -1.695  -4.120  10.444  1.00  0.00    -0.354 N 
ATOM     59  N   UNL     1      -1.506  -6.508   8.746  1.00  0.00    -0.248 NA
ATOM     60  C   UNL     1      -1.895  -8.786   8.410  1.00  0.00     0.031 C 
ATOM     61  C   UNL     1      -2.809  -4.269  12.358  1.00  0.00     0.029 A 
ATOM     62  C   UNL     1      -2.438  -4.983  11.229  1.00  0.00     0.049 A 
ATOM     63  H   UNL     1      -1.295  -4.350   9.575  1.00  0.00     0.167 HD
ATOM     64  C   UNL     1      -2.276  -6.999   9.795  1.00  0.00     0.074 A 
ATOM     65  C   UNL     1      -2.522  -8.398   9.512  1.00  0.00     0.031 C 
ATOM     66  C   UNL     1      -2.728  -6.354  10.900  1.00  0.00     0.034 A 
BRANCH  53  67
ATOM     67  C   UNL     1      -0.837  -0.487  11.329  1.00  0.00     0.023 A 
ATOM     68  C   UNL     1      -1.649   0.598  10.941  1.00  0.00     0.012 A 
ATOM     69  C   UNL     1      -0.034  -0.374  12.479  1.00  0.00     0.148 A 
ATOM     70  C   UNL     1      -1.644   1.786  11.670  1.00  0.00     0.002 A 
ATOM     71  C   UNL     1      -0.060   0.801  13.222  1.00  0.00     0.091 A 
ATOM     72  F   UNL     1       0.755  -1.405  12.814  1.00  0.00    -0.205 F 
ATOM     73  C   UNL     1      -0.858   1.883  12.815  1.00  0.00     0.022 A 
BRANCH  71  74
ATOM     74  S   UNL     1       0.870   0.996  14.746  1.00  0.00     0.127 S 
ATOM     75  O   UNL     1       1.968   1.858  14.313  1.00  0.00    -0.237 OA
ATOM     76  O   UNL     1      -0.104   1.646  15.624  1.00  0.00    -0.237 OA
ATOM     77  O   UNL     1       1.248  -0.349  15.156  1.00  0.00    -0.744 OA
ENDBRANCH  71  74
ENDBRANCH  53  67
BRANCH  54  78
ATOM     78  C   UNL     1      -0.599  -8.792   5.776  1.00  0.00     0.023 A 
ATOM     79  C   UNL     1      -1.803  -9.283   5.234  1.00  0.00     0.012 A 
ATOM     80  C   UNL     1       0.603  -9.477   5.512  1.00  0.00     0.148 A 
ATOM     81  C   UNL     1      -1.815 -10.451   4.470  1.00  0.00     0.002 A 
ATOM     82  C   UNL     1       0.591 -10.612   4.709  1.00  0.00     0.091 A 
ATOM     83  F   UNL     1       1.735  -9.005   6.052  1.00  0.00    -0.205 F 
ATOM     84  C   UNL     1      -0.618 -11.109   4.199  1.00  0.00     0.022 A 
BRANCH  82  85
ATOM     85  S   UNL     1       2.102 -11.449   4.216  1.00  0.00     0.127 S 
ATOM     86  O   UNL     1       2.075 -12.638   5.062  1.00  0.00    -0.237 OA
ATOM     87  O   UNL     1       1.863 -11.698   2.793  1.00  0.00    -0.237 OA
ATOM     88  O   UNL     1       3.175 -10.500   4.482  1.00  0.00    -0.744 OA
ENDBRANCH  82  85
ENDBRANCH  54  78
BRANCH  66  89
ATOM     89  C   UNL     1      -3.564  -7.140  11.876  1.00  0.00     0.023 A 
ATOM     90  C   UNL     1      -2.950  -8.099  12.706  1.00  0.00     0.012 A 
ATOM     91  C   UNL     1      -4.939  -6.873  12.028  1.00  0.00     0.148 A 
ATOM     92  C   UNL     1      -3.697  -8.802  13.649  1.00  0.00     0.002 A 
ATOM     93  C   UNL     1      -5.668  -7.545  13.002  1.00  0.00     0.091 A 
ATOM     94  F   UNL     1      -5.512  -5.973  11.216  1.00  0.00    -0.205 F 
ATOM     95  C   UNL     1      -5.052  -8.517  13.806  1.00  0.00     0.022 A 
BRANCH  93  96
ATOM     96  S   UNL     1      -7.393  -7.161  13.329  1.00  0.00     0.127 S 
ATOM     97  O   UNL     1      -8.081  -8.217  12.589  1.00  0.00    -0.237 OA
ATOM     98  O   UNL     1      -7.476  -7.285  14.785  1.00  0.00    -0.237 OA
ATOM     99  O   UNL     1      -7.592  -5.806  12.833  1.00  0.00    -0.744 OA
ENDBRANCH  93  96
ENDBRANCH  66  89
ENDBRANCH  40  41
ENDBRANCH  33  35
ENDBRANCH  32  33
ENDBRANCH  31  32
ENDBRANCH   1  31
TORSDOF 18
