REMARK SMILES O=C(OCCOC(=O)[C@@H]1[C@@H](C(=O)Nc2ccc(F)c(F)c2)[C@H]2CC[C@@H]1O2)c1ccc(-c2c3nc(c(-c4cccc(S(=O)(=O)[O-])c4F)c4ccc([nH]4)c(-c4cccc(S(=O)(=O)[O-])c4F)c4nc(c(-c5cccc(S(=O)(=O)[O-])c5F)c5ccc2[nH]5)C=C4)C=C3)cc1
REMARK SMILES IDX 4 1 3 2 2 3 1 4 27 5 28 6 89 7 29 8 88 9 30 10 31 11 32 12
REMARK SMILES IDX 82 13 33 14 87 15 81 16 83 17 34 18 86 19 80 20 79 21 35 23
REMARK SMILES IDX 67 24 47 25 66 26 48 27 51 28 65 29 84 30 49 31 50 32 64 34
REMARK SMILES IDX 85 35 52 36 36 37 37 38 45 39 38 40 40 41 46 42 39 43 41 44
REMARK SMILES IDX 42 45 43 46 44 47 68 48 69 49 77 50 70 51 72 52 78 53 71 54
REMARK SMILES IDX 73 55 74 56 75 57 76 58 53 59 54 60 62 61 55 62 57 63 63 64
REMARK SMILES IDX 56 65 58 66 59 67 60 68 61 69 5 70 6 71 7 72 8 73 9 74 10 75
REMARK SMILES IDX 25 76 22 77 24 78 26 79 23 80 11 81 12 82 13 83 14 85 15 86
REMARK SMILES IDX 21 87 16 88 19 89 17 90 20 91 18 92
REMARK H PARENT 83 22 51 33 13 84
REMARK Flexibility Score: inf
ROOT
ATOM      1  C   UNL     1       4.163  -0.899   1.184  1.00  0.00     0.275 C 
ENDROOT
BRANCH   1   2
ATOM      2  O   UNL     1       3.270   0.217   1.254  1.00  0.00    -0.458 OA
BRANCH   2   3
ATOM      3  C   UNL     1       3.348   1.404   0.608  1.00  0.00     0.338 C 
ATOM      4  O   UNL     1       2.606   2.314   0.976  1.00  0.00    -0.246 OA
BRANCH   3   5
ATOM      5  C   UNL     1       4.157   1.612  -0.637  1.00  0.00     0.060 A 
ATOM      6  C   UNL     1       5.319   0.928  -1.018  1.00  0.00     0.016 A 
ATOM      7  C   UNL     1       3.628   2.544  -1.540  1.00  0.00     0.016 A 
ATOM      8  C   UNL     1       5.857   1.052  -2.309  1.00  0.00     0.010 A 
ATOM      9  C   UNL     1       4.121   2.623  -2.844  1.00  0.00     0.010 A 
ATOM     10  C   UNL     1       5.241   1.871  -3.249  1.00  0.00    -0.014 A 
BRANCH  10  11
ATOM     11  C   UNL     1       5.813   2.127  -4.597  1.00  0.00     0.031 A 
ATOM     12  C   UNL     1       6.221   3.541  -4.878  1.00  0.00     0.074 A 
ATOM     13  C   UNL     1       5.875   1.204  -5.581  1.00  0.00     0.049 A 
ATOM     14  N   UNL     1       6.564   4.095  -6.005  1.00  0.00    -0.248 NA
ATOM     15  C   UNL     1       6.222   4.462  -3.724  1.00  0.00     0.031 C 
ATOM     16  C   UNL     1       5.590  -0.221  -5.453  1.00  0.00     0.029 A 
ATOM     17  N   UNL     1       6.120   1.357  -6.929  1.00  0.00    -0.354 N 
ATOM     18  C   UNL     1       6.822   5.418  -5.687  1.00  0.00     0.074 A 
ATOM     19  C   UNL     1       6.433   5.623  -4.314  1.00  0.00     0.031 C 
ATOM     20  C   UNL     1       5.501  -0.774  -6.677  1.00  0.00     0.029 A 
ATOM     21  C   UNL     1       5.778   0.248  -7.676  1.00  0.00     0.049 A 
ATOM     22  H   UNL     1       6.501   2.176  -7.320  1.00  0.00     0.167 HD
ATOM     23  C   UNL     1       7.446   6.354  -6.433  1.00  0.00     0.034 A 
ATOM     24  C   UNL     1       5.690   0.082  -9.012  1.00  0.00     0.034 A 
ATOM     25  C   UNL     1       7.868   6.125  -7.778  1.00  0.00     0.049 A 
ATOM     26  C   UNL     1       6.245   1.176  -9.886  1.00  0.00     0.074 A 
ATOM     27  C   UNL     1       8.597   6.950  -8.608  1.00  0.00     0.029 A 
ATOM     28  N   UNL     1       7.570   4.978  -8.497  1.00  0.00    -0.354 N 
ATOM     29  N   UNL     1       6.682   2.361  -9.535  1.00  0.00    -0.248 NA
ATOM     30  C   UNL     1       6.415   0.874 -11.315  1.00  0.00     0.031 C 
ATOM     31  C   UNL     1       8.700   6.317  -9.851  1.00  0.00     0.029 A 
ATOM     32  C   UNL     1       8.073   5.081  -9.777  1.00  0.00     0.049 A 
ATOM     33  H   UNL     1       7.072   4.204  -8.146  1.00  0.00     0.167 HD
ATOM     34  C   UNL     1       7.275   2.902 -10.669  1.00  0.00     0.074 A 
ATOM     35  C   UNL     1       7.099   1.933 -11.732  1.00  0.00     0.031 C 
ATOM     36  C   UNL     1       7.936   4.078 -10.803  1.00  0.00     0.034 A 
BRANCH  23  37
ATOM     37  C   UNL     1       7.735   7.654  -5.743  1.00  0.00     0.023 A 
ATOM     38  C   UNL     1       8.648   7.681  -4.663  1.00  0.00     0.012 A 
ATOM     39  C   UNL     1       7.025   8.815  -6.081  1.00  0.00     0.148 A 
ATOM     40  C   UNL     1       8.780   8.821  -3.875  1.00  0.00     0.002 A 
ATOM     41  C   UNL     1       7.205   9.965  -5.326  1.00  0.00     0.091 A 
ATOM     42  F   UNL     1       6.147   8.757  -7.092  1.00  0.00    -0.205 F 
ATOM     43  C   UNL     1       8.060   9.964  -4.209  1.00  0.00     0.022 A 
BRANCH  41  44
ATOM     44  S   UNL     1       6.374  11.506  -5.711  1.00  0.00     0.127 S 
ATOM     45  O   UNL     1       5.454  11.635  -4.580  1.00  0.00    -0.237 OA
ATOM     46  O   UNL     1       7.486  12.458  -5.705  1.00  0.00    -0.237 OA
ATOM     47  O   UNL     1       5.746  11.312  -7.008  1.00  0.00    -0.744 OA
ENDBRANCH  41  44
ENDBRANCH  23  37
BRANCH  24  48
ATOM     48  C   UNL     1       5.182  -1.193  -9.602  1.00  0.00     0.023 A 
ATOM     49  C   UNL     1       6.094  -2.133 -10.120  1.00  0.00     0.012 A 
ATOM     50  C   UNL     1       3.800  -1.477  -9.664  1.00  0.00     0.148 A 
ATOM     51  C   UNL     1       5.644  -3.309 -10.726  1.00  0.00     0.002 A 
ATOM     52  C   UNL     1       3.360  -2.666 -10.244  1.00  0.00     0.091 A 
ATOM     53  F   UNL     1       2.945  -0.580  -9.155  1.00  0.00    -0.205 F 
ATOM     54  C   UNL     1       4.280  -3.575 -10.789  1.00  0.00     0.022 A 
BRANCH  52  55
ATOM     55  S   UNL     1       1.626  -3.143 -10.319  1.00  0.00     0.127 S 
ATOM     56  O   UNL     1       1.421  -3.307 -11.759  1.00  0.00    -0.237 OA
ATOM     57  O   UNL     1       1.632  -4.394  -9.555  1.00  0.00    -0.237 OA
ATOM     58  O   UNL     1       0.887  -2.056  -9.706  1.00  0.00    -0.744 OA
ENDBRANCH  52  55
ENDBRANCH  24  48
BRANCH  36  59
ATOM     59  C   UNL     1       8.602   4.372 -12.116  1.00  0.00     0.023 A 
ATOM     60  C   UNL     1       7.835   4.751 -13.231  1.00  0.00     0.012 A 
ATOM     61  C   UNL     1      10.009   4.420 -12.185  1.00  0.00     0.148 A 
ATOM     62  C   UNL     1       8.461   5.169 -14.404  1.00  0.00     0.002 A 
ATOM     63  C   UNL     1      10.624   4.895 -13.334  1.00  0.00     0.091 A 
ATOM     64  F   UNL     1      10.716   4.033 -11.113  1.00  0.00    -0.205 F 
ATOM     65  C   UNL     1       9.852   5.260 -14.448  1.00  0.00     0.022 A 
BRANCH  63  66
ATOM     66  S   UNL     1      12.396   5.168 -13.433  1.00  0.00     0.127 S 
ATOM     67  O   UNL     1      12.799   4.154 -14.405  1.00  0.00    -0.237 OA
ATOM     68  O   UNL     1      12.467   6.546 -13.921  1.00  0.00    -0.237 OA
ATOM     69  O   UNL     1      12.913   4.975 -12.084  1.00  0.00    -0.744 OA
ENDBRANCH  63  66
ENDBRANCH  36  59
ENDBRANCH  10  11
ENDBRANCH   3   5
ENDBRANCH   2   3
ENDBRANCH   1   2
BRANCH   1  70
ATOM     70  C   UNL     1       3.853  -1.925   0.087  1.00  0.00     0.274 C 
BRANCH  70  71
ATOM     71  O   UNL     1       3.278  -1.401  -1.124  1.00  0.00    -0.462 OA
BRANCH  71  72
ATOM     72  C   UNL     1       1.917  -1.385  -1.198  1.00  0.00     0.312 C 
ATOM     73  O   UNL     1       1.194  -1.684  -0.252  1.00  0.00    -0.252 OA
BRANCH  72  74
ATOM     74  C   UNL     1       1.347  -1.043  -2.580  1.00  0.00     0.143 C 
ATOM     75  C   UNL     1       1.671  -2.073  -3.666  1.00  0.00     0.124 C 
ATOM     76  C   UNL     1       2.015   0.187  -3.140  1.00  0.00     0.133 C 
ATOM     77  C   UNL     1       2.550  -1.272  -4.640  1.00  0.00     0.132 C 
ATOM     78  C   UNL     1       1.358   0.749  -4.397  1.00  0.00     0.036 C 
ATOM     79  O   UNL     1       3.213  -0.406  -3.679  1.00  0.00    -0.373 OA
ATOM     80  C   UNL     1       1.875  -0.196  -5.477  1.00  0.00     0.035 C 
BRANCH  75  81
ATOM     81  C   UNL     1       0.413  -2.637  -4.314  1.00  0.00     0.231 C 
ATOM     82  O   UNL     1      -0.397  -1.942  -4.921  1.00  0.00    -0.274 OA
ATOM     83  N   UNL     1       0.212  -3.992  -4.223  1.00  0.00    -0.326 N 
ATOM     84  H   UNL     1      -0.289  -4.421  -4.954  1.00  0.00     0.169 HD
BRANCH  83  85
ATOM     85  C   UNL     1       0.656  -4.817  -3.185  1.00  0.00     0.044 A 
ATOM     86  C   UNL     1       0.659  -4.350  -1.865  1.00  0.00     0.029 A 
ATOM     87  C   UNL     1       1.109  -6.099  -3.467  1.00  0.00     0.068 A 
ATOM     88  C   UNL     1       1.263  -5.082  -0.848  1.00  0.00     0.044 A 
ATOM     89  C   UNL     1       1.699  -6.837  -2.442  1.00  0.00     0.160 A 
ATOM     90  C   UNL     1       1.803  -6.320  -1.152  1.00  0.00     0.158 A 
ATOM     91  F   UNL     1       2.198  -8.050  -2.715  1.00  0.00    -0.204 F 
ATOM     92  F   UNL     1       2.418  -7.019  -0.188  1.00  0.00    -0.204 F 
ENDBRANCH  83  85
ENDBRANCH  75  81
ENDBRANCH  72  74
ENDBRANCH  71  72
ENDBRANCH  70  71
ENDBRANCH   1  70
TORSDOF 16
