REMARK SMILES Cc1cc(N(C)C(C)C)cc(C(=O)OCCOC(=O)c2ccc(-c3c4nc(c(-c5cccc(S(=O)(=O)[O-])c5F)c5ccc([nH]5)c(-c5cccc(S(=O)(=O)[O-])c5F)c5nc(c(-c6cccc(S(=O)(=O)[O-])c6F)c6ccc3[nH]6)C=C5)C=C4)cc2)c1N
REMARK SMILES IDX 16 1 15 2 14 3 12 4 13 5 11 6 1 7 2 8 3 9 83 10 4 11 10 12
REMARK SMILES IDX 84 13 5 16 6 17 7 18 8 19 9 20 17 21 18 22 19 23 20 24 21 25
REMARK SMILES IDX 82 26 22 27 81 28 23 29 24 30 25 31 75 32 26 33 80 34 74 35
REMARK SMILES IDX 76 36 27 37 79 38 73 39 72 40 28 42 60 43 40 44 59 45 41 46
REMARK SMILES IDX 44 47 58 48 77 49 42 50 43 51 57 53 78 54 45 55 29 56 30 57
REMARK SMILES IDX 38 58 31 59 33 60 39 61 32 62 34 63 35 64 36 65 37 66 61 67
REMARK SMILES IDX 62 68 70 69 63 70 65 71 71 72 64 73 66 74 67 75 68 76 69 77
REMARK SMILES IDX 46 78 47 79 55 80 48 81 50 82 56 83 49 84 51 85 52 86 53 87
REMARK SMILES IDX 54 88
REMARK H PARENT 84 14 84 15 76 41 44 52
REMARK Flexibility Score: inf
ROOT
ATOM      1  C   UNL     1      -1.081  -5.162  -1.105  1.00  0.00     0.275 C 
ENDROOT
BRANCH   1   2
ATOM      2  C   UNL     1      -1.795  -4.619   0.134  1.00  0.00     0.275 C 
BRANCH   2   3
ATOM      3  O   UNL     1      -1.812  -3.175   0.108  1.00  0.00    -0.458 OA
BRANCH   3   4
ATOM      4  C   UNL     1      -0.963  -2.549   0.968  1.00  0.00     0.340 C 
ATOM      5  O   UNL     1      -0.254  -3.091   1.802  1.00  0.00    -0.246 OA
BRANCH   4   6
ATOM      6  C   UNL     1      -0.946  -1.085   0.697  1.00  0.00     0.085 A 
ATOM      7  C   UNL     1       1.541   1.737   0.180  1.00  0.00     0.047 C 
ATOM      8  C   UNL     1       0.263   0.954   0.336  1.00  0.00    -0.025 A 
ATOM      9  C   UNL     1      -0.957   1.575  -0.007  1.00  0.00     0.031 A 
ATOM     10  C   UNL     1       0.259  -0.367   0.797  1.00  0.00     0.049 A 
ATOM     11  C   UNL     1      -2.206   0.943   0.075  1.00  0.00     0.038 A 
ATOM     12  C   UNL     1      -2.152  -0.428   0.373  1.00  0.00     0.043 A 
BRANCH  10  13
ATOM     13  N   UNL     1       1.447  -0.970   1.200  1.00  0.00    -0.398 N 
ATOM     14  H   UNL     1       2.274  -0.438   1.260  1.00  0.00     0.156 HD
ATOM     15  H   UNL     1       1.461  -1.928   1.426  1.00  0.00     0.156 HD
ENDBRANCH  10  13
BRANCH  11  16
ATOM     16  N   UNL     1      -3.407   1.619  -0.138  1.00  0.00    -0.372 N 
ATOM     17  C   UNL     1      -4.665   0.869  -0.117  1.00  0.00     0.144 C 
BRANCH  16  18
ATOM     18  C   UNL     1      -3.565   3.095  -0.088  1.00  0.00     0.075 C 
ATOM     19  C   UNL     1      -2.988   3.733   1.177  1.00  0.00     0.030 C 
ATOM     20  C   UNL     1      -3.130   3.771  -1.387  1.00  0.00     0.030 C 
ENDBRANCH  16  18
ENDBRANCH  11  16
ENDBRANCH   4   6
ENDBRANCH   3   4
ENDBRANCH   2   3
ENDBRANCH   1   2
BRANCH   1  21
ATOM     21  O   UNL     1       0.292  -4.752  -1.061  1.00  0.00    -0.458 OA
BRANCH  21  22
ATOM     22  C   UNL     1       0.926  -4.657  -2.257  1.00  0.00     0.338 C 
ATOM     23  O   UNL     1       0.481  -4.998  -3.339  1.00  0.00    -0.246 OA
BRANCH  22  24
ATOM     24  C   UNL     1       2.268  -4.051  -2.055  1.00  0.00     0.060 A 
ATOM     25  C   UNL     1       2.492  -3.166  -1.002  1.00  0.00     0.016 A 
ATOM     26  C   UNL     1       3.300  -4.309  -2.957  1.00  0.00     0.016 A 
ATOM     27  C   UNL     1       3.711  -2.497  -0.878  1.00  0.00     0.010 A 
ATOM     28  C   UNL     1       4.553  -3.698  -2.781  1.00  0.00     0.010 A 
ATOM     29  C   UNL     1       4.770  -2.758  -1.756  1.00  0.00    -0.014 A 
BRANCH  29  30
ATOM     30  C   UNL     1       6.063  -2.010  -1.646  1.00  0.00     0.031 A 
ATOM     31  C   UNL     1       6.612  -1.277  -2.847  1.00  0.00     0.074 A 
ATOM     32  C   UNL     1       6.760  -1.962  -0.490  1.00  0.00     0.049 A 
ATOM     33  N   UNL     1       7.808  -0.781  -3.039  1.00  0.00    -0.248 NA
ATOM     34  C   UNL     1       5.702  -1.097  -3.990  1.00  0.00     0.031 C 
ATOM     35  C   UNL     1       6.362  -2.585   0.772  1.00  0.00     0.029 A 
ATOM     36  N   UNL     1       7.962  -1.358  -0.191  1.00  0.00    -0.354 N 
ATOM     37  C   UNL     1       7.828  -0.334  -4.356  1.00  0.00     0.074 A 
ATOM     38  C   UNL     1       6.513  -0.587  -4.906  1.00  0.00     0.031 C 
ATOM     39  C   UNL     1       7.272  -2.298   1.715  1.00  0.00     0.029 A 
ATOM     40  C   UNL     1       8.371  -1.553   1.110  1.00  0.00     0.049 A 
ATOM     41  H   UNL     1       8.479  -0.835  -0.845  1.00  0.00     0.167 HD
ATOM     42  C   UNL     1       8.844   0.239  -5.044  1.00  0.00     0.034 A 
ATOM     43  C   UNL     1       9.516  -1.215   1.740  1.00  0.00     0.034 A 
ATOM     44  C   UNL     1      10.111   0.605  -4.469  1.00  0.00     0.049 A 
ATOM     45  C   UNL     1      10.608  -0.522   0.971  1.00  0.00     0.074 A 
ATOM     46  C   UNL     1      11.194   1.208  -5.087  1.00  0.00     0.029 A 
ATOM     47  N   UNL     1      10.453   0.441  -3.137  1.00  0.00    -0.354 N 
ATOM     48  N   UNL     1      10.615  -0.129  -0.279  1.00  0.00    -0.248 NA
ATOM     49  C   UNL     1      11.854  -0.231   1.698  1.00  0.00     0.031 C 
ATOM     50  C   UNL     1      12.186   1.422  -4.124  1.00  0.00     0.029 A 
ATOM     51  C   UNL     1      11.720   0.952  -2.908  1.00  0.00     0.049 A 
ATOM     52  H   UNL     1       9.880   0.024  -2.454  1.00  0.00     0.167 HD
ATOM     53  C   UNL     1      11.860   0.456  -0.488  1.00  0.00     0.074 A 
ATOM     54  C   UNL     1      12.564   0.407   0.776  1.00  0.00     0.031 C 
ATOM     55  C   UNL     1      12.387   0.953  -1.633  1.00  0.00     0.034 A 
BRANCH  42  56
ATOM     56  C   UNL     1       8.625   0.538  -6.503  1.00  0.00     0.023 A 
ATOM     57  C   UNL     1       7.847   1.649  -6.883  1.00  0.00     0.012 A 
ATOM     58  C   UNL     1       9.253  -0.241  -7.496  1.00  0.00     0.148 A 
ATOM     59  C   UNL     1       7.678   1.967  -8.230  1.00  0.00     0.002 A 
ATOM     60  C   UNL     1       9.113   0.106  -8.835  1.00  0.00     0.091 A 
ATOM     61  F   UNL     1       9.971  -1.307  -7.115  1.00  0.00    -0.205 F 
ATOM     62  C   UNL     1       8.319   1.204  -9.204  1.00  0.00     0.022 A 
BRANCH  60  63
ATOM     63  S   UNL     1       9.967  -0.767 -10.153  1.00  0.00     0.127 S 
ATOM     64  O   UNL     1       8.877  -1.534 -10.754  1.00  0.00    -0.237 OA
ATOM     65  O   UNL     1      10.467   0.331 -10.981  1.00  0.00    -0.237 OA
ATOM     66  O   UNL     1      11.005  -1.554  -9.502  1.00  0.00    -0.744 OA
ENDBRANCH  60  63
ENDBRANCH  42  56
BRANCH  43  67
ATOM     67  C   UNL     1       9.688  -1.529   3.189  1.00  0.00     0.023 A 
ATOM     68  C   UNL     1       9.744  -0.478   4.125  1.00  0.00     0.012 A 
ATOM     69  C   UNL     1       9.754  -2.858   3.651  1.00  0.00     0.148 A 
ATOM     70  C   UNL     1       9.872  -0.744   5.489  1.00  0.00     0.002 A 
ATOM     71  C   UNL     1       9.808  -3.117   5.016  1.00  0.00     0.091 A 
ATOM     72  F   UNL     1       9.744  -3.850   2.750  1.00  0.00    -0.205 F 
ATOM     73  C   UNL     1       9.884  -2.063   5.937  1.00  0.00     0.022 A 
BRANCH  71  74
ATOM     74  S   UNL     1       9.644  -4.789   5.654  1.00  0.00     0.127 S 
ATOM     75  O   UNL     1      11.037  -5.180   5.842  1.00  0.00    -0.237 OA
ATOM     76  O   UNL     1       8.890  -4.580   6.892  1.00  0.00    -0.237 OA
ATOM     77  O   UNL     1       8.903  -5.509   4.626  1.00  0.00    -0.744 OA
ENDBRANCH  71  74
ENDBRANCH  43  67
BRANCH  55  78
ATOM     78  C   UNL     1      13.788   1.499  -1.577  1.00  0.00     0.023 A 
ATOM     79  C   UNL     1      14.875   0.603  -1.540  1.00  0.00     0.012 A 
ATOM     80  C   UNL     1      14.033   2.884  -1.629  1.00  0.00     0.148 A 
ATOM     81  C   UNL     1      16.185   1.079  -1.531  1.00  0.00     0.002 A 
ATOM     82  C   UNL     1      15.343   3.351  -1.657  1.00  0.00     0.091 A 
ATOM     83  F   UNL     1      12.985   3.720  -1.642  1.00  0.00    -0.205 F 
ATOM     84  C   UNL     1      16.419   2.451  -1.600  1.00  0.00     0.022 A 
BRANCH  82  85
ATOM     85  S   UNL     1      15.732   5.097  -1.821  1.00  0.00     0.127 S 
ATOM     86  O   UNL     1      16.077   5.457  -0.447  1.00  0.00    -0.237 OA
ATOM     87  O   UNL     1      16.863   5.083  -2.750  1.00  0.00    -0.237 OA
ATOM     88  O   UNL     1      14.527   5.722  -2.353  1.00  0.00    -0.744 OA
ENDBRANCH  82  85
ENDBRANCH  55  78
ENDBRANCH  29  30
ENDBRANCH  22  24
ENDBRANCH  21  22
ENDBRANCH   1  21
TORSDOF 17
