REMARK SMILES Cc1oc(C)c(S(=O)(=O)Nn2c(C)ccc2C)c1C(=O)OCCOC(=O)c1ccc(-c2c3nc(c(-c4cccc(S(=O)(=O)[O-])c4F)c4ccc([nH]4)c(-c4cccc(S(=O)(=O)[O-])c4F)c4nc(c(-c5cccc(S(=O)(=O)[O-])c5F)c5ccc2[nH]5)C=C4)C=C3)cc1
REMARK SMILES IDX 22 1 21 2 19 3 20 4 18 5 1 6 2 7 3 8 4 9 6 10 5 11 7 12 8 13
REMARK SMILES IDX 9 14 10 15 11 17 12 18 16 19 13 20 14 21 15 22 17 23 23 24
REMARK SMILES IDX 24 25 25 26 26 27 27 28 28 29 89 30 29 31 88 32 30 33 31 34
REMARK SMILES IDX 32 35 82 36 33 37 87 38 81 39 83 40 34 41 86 42 80 43 79 44
REMARK SMILES IDX 35 46 67 47 47 48 66 49 48 50 51 51 65 52 84 53 49 54 50 55
REMARK SMILES IDX 64 57 85 58 52 59 36 60 37 61 45 62 38 63 40 64 46 65 39 66
REMARK SMILES IDX 41 67 42 68 43 69 44 70 68 71 69 72 77 73 70 74 72 75 78 76
REMARK SMILES IDX 71 77 73 78 74 79 75 80 76 81 53 82 54 83 62 84 55 85 57 86
REMARK SMILES IDX 63 87 56 88 58 89 59 90 60 91 61 92
REMARK H PARENT 10 16 83 45 51 56
REMARK Flexibility Score: inf
ROOT
ATOM      1  C   UNL     1       3.159   4.097  -1.210  1.00  0.00     0.275 C 
ENDROOT
BRANCH   1   2
ATOM      2  O   UNL     1       2.257   2.884  -1.014  1.00  0.00    -0.458 OA
BRANCH   2   3
ATOM      3  C   UNL     1       1.834   2.453   0.267  1.00  0.00     0.343 C 
ATOM      4  O   UNL     1       2.239   2.954   1.309  1.00  0.00    -0.246 OA
BRANCH   3   5
ATOM      5  C   UNL     1       0.895   1.282   0.286  1.00  0.00     0.122 A 
ATOM      6  C   UNL     1       2.633  -0.719  -0.062  1.00  0.00     0.088 C 
ATOM      7  C   UNL     1       1.330  -0.033   0.075  1.00  0.00     0.117 A 
ATOM      8  O   UNL     1       0.291  -0.904   0.026  1.00  0.00    -0.464 OA
ATOM      9  C   UNL     1      -0.838  -0.225   0.313  1.00  0.00     0.122 A 
ATOM     10  C   UNL     1      -0.529   1.089   0.648  1.00  0.00     0.145 A 
ATOM     11  C   UNL     1      -2.087  -1.030   0.234  1.00  0.00     0.089 C 
BRANCH  10  12
ATOM     12  S   UNL     1      -1.806   2.048   1.333  1.00  0.00     0.279 S 
ATOM     13  O   UNL     1      -2.955   1.835   0.485  1.00  0.00    -0.200 OA
ATOM     14  O   UNL     1      -1.855   1.581   2.711  1.00  0.00    -0.200 OA
BRANCH  12  15
ATOM     15  N   UNL     1      -1.667   3.683   1.401  1.00  0.00    -0.216 N 
ATOM     16  H   UNL     1      -2.148   4.198   2.089  1.00  0.00     0.202 HD
BRANCH  15  17
ATOM     17  N   UNL     1      -0.876   4.318   0.489  1.00  0.00    -0.256 N 
ATOM     18  C   UNL     1      -0.653   4.010  -0.819  1.00  0.00     0.038 A 
ATOM     19  C   UNL     1      -0.094   5.366   0.914  1.00  0.00     0.038 A 
ATOM     20  C   UNL     1      -1.173   3.006  -1.794  1.00  0.00     0.067 C 
ATOM     21  C   UNL     1       0.376   4.832  -1.163  1.00  0.00     0.025 A 
ATOM     22  C   UNL     1       0.777   5.647  -0.101  1.00  0.00     0.025 A 
ATOM     23  C   UNL     1      -0.139   5.980   2.262  1.00  0.00     0.067 C 
ENDBRANCH  15  17
ENDBRANCH  12  15
ENDBRANCH  10  12
ENDBRANCH   3   5
ENDBRANCH   2   3
ENDBRANCH   1   2
BRANCH   1  24
ATOM     24  C   UNL     1       2.962   5.135  -2.573  1.00  0.00     0.275 C 
BRANCH  24  25
ATOM     25  O   UNL     1       1.984   6.413  -2.704  1.00  0.00    -0.458 OA
BRANCH  25  26
ATOM     26  C   UNL     1       0.926   6.473  -3.674  1.00  0.00     0.338 C 
ATOM     27  O   UNL     1       0.694   5.447  -4.315  1.00  0.00    -0.246 OA
BRANCH  26  28
ATOM     28  C   UNL     1      -0.120   7.730  -3.865  1.00  0.00     0.060 A 
ATOM     29  C   UNL     1      -1.488   7.525  -3.669  1.00  0.00     0.016 A 
ATOM     30  C   UNL     1       0.060   8.968  -4.548  1.00  0.00     0.016 A 
ATOM     31  C   UNL     1      -2.550   8.498  -4.069  1.00  0.00     0.010 A 
ATOM     32  C   UNL     1      -1.062   9.955  -5.001  1.00  0.00     0.010 A 
ATOM     33  C   UNL     1      -2.444   9.765  -4.795  1.00  0.00    -0.014 A 
BRANCH  33  34
ATOM     34  C   UNL     1      -3.888  10.649  -5.282  1.00  0.00     0.031 A 
ATOM     35  C   UNL     1      -4.974   9.725  -4.874  1.00  0.00     0.074 A 
ATOM     36  C   UNL     1      -4.506  11.750  -5.992  1.00  0.00     0.049 A 
ATOM     37  N   UNL     1      -5.012   8.546  -5.408  1.00  0.00    -0.248 NA
ATOM     38  C   UNL     1      -5.831   9.872  -3.700  1.00  0.00     0.031 C 
ATOM     39  C   UNL     1      -3.873  12.822  -6.798  1.00  0.00     0.029 A 
ATOM     40  N   UNL     1      -5.923  12.174  -6.222  1.00  0.00    -0.354 N 
ATOM     41  C   UNL     1      -6.066   7.881  -4.874  1.00  0.00     0.074 A 
ATOM     42  C   UNL     1      -6.441   8.676  -3.711  1.00  0.00     0.031 C 
ATOM     43  C   UNL     1      -4.760  13.767  -7.259  1.00  0.00     0.029 A 
ATOM     44  C   UNL     1      -6.158  13.465  -6.912  1.00  0.00     0.049 A 
ATOM     45  H   UNL     1      -6.676  11.614  -5.923  1.00  0.00     0.167 HD
ATOM     46  C   UNL     1      -6.792   7.167  -5.775  1.00  0.00     0.034 A 
ATOM     47  C   UNL     1      -7.325  14.191  -7.296  1.00  0.00     0.034 A 
ATOM     48  C   UNL     1      -8.053   7.785  -6.047  1.00  0.00     0.049 A 
ATOM     49  C   UNL     1      -8.385  13.194  -7.527  1.00  0.00     0.074 A 
ATOM     50  C   UNL     1      -8.966   8.456  -5.258  1.00  0.00     0.029 A 
ATOM     51  N   UNL     1      -8.253   8.206  -7.344  1.00  0.00    -0.354 N 
ATOM     52  N   UNL     1      -8.416  12.525  -8.641  1.00  0.00    -0.248 NA
ATOM     53  C   UNL     1      -9.591  13.074  -6.711  1.00  0.00     0.031 C 
ATOM     54  C   UNL     1      -9.295   9.609  -6.001  1.00  0.00     0.029 A 
ATOM     55  C   UNL     1      -8.878   9.433  -7.315  1.00  0.00     0.049 A 
ATOM     56  H   UNL     1      -7.992   7.713  -8.155  1.00  0.00     0.167 HD
ATOM     57  C   UNL     1      -9.291  11.523  -8.370  1.00  0.00     0.074 A 
ATOM     58  C   UNL     1     -10.176  12.056  -7.351  1.00  0.00     0.031 C 
ATOM     59  C   UNL     1      -8.775  10.276  -8.479  1.00  0.00     0.034 A 
BRANCH  46  60
ATOM     60  C   UNL     1      -5.943   6.438  -6.809  1.00  0.00     0.023 A 
ATOM     61  C   UNL     1      -5.930   5.037  -6.752  1.00  0.00     0.012 A 
ATOM     62  C   UNL     1      -5.019   7.090  -7.674  1.00  0.00     0.148 A 
ATOM     63  C   UNL     1      -4.979   4.309  -7.474  1.00  0.00     0.002 A 
ATOM     64  C   UNL     1      -3.990   6.373  -8.271  1.00  0.00     0.091 A 
ATOM     65  F   UNL     1      -5.146   8.408  -7.901  1.00  0.00    -0.205 F 
ATOM     66  C   UNL     1      -3.982   4.976  -8.188  1.00  0.00     0.022 A 
BRANCH  64  67
ATOM     67  S   UNL     1      -2.507   7.197  -8.899  1.00  0.00     0.127 S 
ATOM     68  O   UNL     1      -1.437   6.293  -8.464  1.00  0.00    -0.237 OA
ATOM     69  O   UNL     1      -2.721   7.219 -10.341  1.00  0.00    -0.237 OA
ATOM     70  O   UNL     1      -2.462   8.501  -8.245  1.00  0.00    -0.744 OA
ENDBRANCH  64  67
ENDBRANCH  46  60
BRANCH  47  71
ATOM     71  C   UNL     1      -7.974  15.569  -7.908  1.00  0.00     0.023 A 
ATOM     72  C   UNL     1      -8.949  15.463  -8.981  1.00  0.00     0.012 A 
ATOM     73  C   UNL     1      -8.067  16.804  -7.209  1.00  0.00     0.148 A 
ATOM     74  C   UNL     1      -9.970  16.407  -9.260  1.00  0.00     0.002 A 
ATOM     75  C   UNL     1      -9.075  17.779  -7.524  1.00  0.00     0.091 A 
ATOM     76  F   UNL     1      -7.243  17.003  -6.174  1.00  0.00    -0.205 F 
ATOM     77  C   UNL     1     -10.039  17.566  -8.522  1.00  0.00     0.022 A 
BRANCH  75  78
ATOM     78  S   UNL     1      -9.299  19.351  -6.642  1.00  0.00     0.127 S 
ATOM     79  O   UNL     1      -9.475  20.312  -7.735  1.00  0.00    -0.237 OA
ATOM     80  O   UNL     1     -10.513  19.098  -5.866  1.00  0.00    -0.237 OA
ATOM     81  O   UNL     1      -8.081  19.535  -5.867  1.00  0.00    -0.744 OA
ENDBRANCH  75  78
ENDBRANCH  47  71
BRANCH  59  82
ATOM     82  C   UNL     1      -7.848  10.008  -9.656  1.00  0.00     0.023 A 
ATOM     83  C   UNL     1      -6.726  10.798 -10.003  1.00  0.00     0.012 A 
ATOM     84  C   UNL     1      -8.133   8.903 -10.470  1.00  0.00     0.148 A 
ATOM     85  C   UNL     1      -5.947  10.519 -11.130  1.00  0.00     0.002 A 
ATOM     86  C   UNL     1      -7.326   8.590 -11.561  1.00  0.00     0.091 A 
ATOM     87  F   UNL     1      -9.211   8.165 -10.161  1.00  0.00    -0.205 F 
ATOM     88  C   UNL     1      -6.235   9.400 -11.902  1.00  0.00     0.022 A 
BRANCH  86  89
ATOM     89  S   UNL     1      -7.654   7.126 -12.541  1.00  0.00     0.127 S 
ATOM     90  O   UNL     1      -8.369   7.684 -13.689  1.00  0.00    -0.237 OA
ATOM     91  O   UNL     1      -6.324   6.609 -12.846  1.00  0.00    -0.237 OA
ATOM     92  O   UNL     1      -8.450   6.258 -11.677  1.00  0.00    -0.744 OA
ENDBRANCH  86  89
ENDBRANCH  59  82
ENDBRANCH  33  34
ENDBRANCH  26  28
ENDBRANCH  25  26
ENDBRANCH  24  25
ENDBRANCH   1  24
TORSDOF 17
