REMARK SMILES CC[C@@H]1CCC[C@@](C[C@@H]2CSc3ccccc32)(C(=O)OCCOC(=O)c2ccc(-c3c4nc(c(-c5cccc(S(=O)(=O)[O-])c5F)c5ccc([nH]5)c(-c5cccc(S(=O)(=O)[O-])c5F)c5nc(c(-c6cccc(S(=O)(=O)[O-])c6F)c6ccc3[nH]6)C=C5)C=C4)cc2)C1
REMARK SMILES IDX 22 1 21 2 20 3 18 4 19 5 7 6 3 7 4 8 89 9 5 10 6 11 2 12
REMARK SMILES IDX 1 13 8 14 9 15 10 16 17 17 11 18 12 19 16 20 13 21 15 22
REMARK SMILES IDX 14 23 23 24 24 25 25 26 26 27 27 28 88 29 28 30 87 31 29 32
REMARK SMILES IDX 30 33 31 34 81 35 32 36 86 37 80 38 82 39 33 40 85 41 79 42
REMARK SMILES IDX 78 43 34 45 66 46 46 47 65 48 47 49 50 50 64 51 83 52 48 53
REMARK SMILES IDX 49 54 63 56 84 57 51 58 35 59 36 60 44 61 37 62 39 63 45 64
REMARK SMILES IDX 38 65 40 66 41 67 42 68 43 69 67 70 68 71 76 72 69 73 71 74
REMARK SMILES IDX 77 75 70 76 72 77 73 78 74 79 75 80 52 81 53 82 61 83 54 84
REMARK SMILES IDX 56 85 62 86 55 87 57 88 58 89 59 90 60 91
REMARK H PARENT 82 44 50 55
REMARK Flexibility Score: inf
ROOT
ATOM      1  C   UNL     1       5.875   9.638  -4.082  1.00  0.00     0.275 C 
ENDROOT
BRANCH   1   2
ATOM      2  C   UNL     1       4.973   8.776  -3.209  1.00  0.00     0.274 C 
BRANCH   2   3
ATOM      3  O   UNL     1       3.673   8.617  -3.816  1.00  0.00    -0.462 OA
BRANCH   3   4
ATOM      4  C   UNL     1       2.652   9.337  -3.277  1.00  0.00     0.312 C 
ATOM      5  O   UNL     1       2.798  10.152  -2.372  1.00  0.00    -0.252 OA
BRANCH   4   6
ATOM      6  C   UNL     1       1.266   8.898  -3.793  1.00  0.00     0.069 C 
ATOM      7  C   UNL     1       0.534  10.927  -5.338  1.00  0.00    -0.010 C 
ATOM      8  C   UNL     1       0.527   9.987  -6.538  1.00  0.00     0.003 C 
ATOM      9  C   UNL     1       0.361  10.162  -4.008  1.00  0.00     0.022 C 
ATOM     10  C   UNL     1       1.610   8.939  -6.362  1.00  0.00     0.001 C 
ATOM     11  C   UNL     1       1.334   8.108  -5.116  1.00  0.00     0.019 C 
BRANCH   7  12
ATOM     12  C   UNL     1      -0.533  12.034  -5.454  1.00  0.00     0.000 C 
ATOM     13  C   UNL     1      -0.377  12.907  -6.692  1.00  0.00     0.004 C 
ENDBRANCH   7  12
BRANCH   6  14
ATOM     14  C   UNL     1       0.635   8.098  -2.575  1.00  0.00     0.028 C 
BRANCH  14  15
ATOM     15  C   UNL     1       0.752   6.560  -2.418  1.00  0.00     0.032 C 
ATOM     16  C   UNL     1       2.177   5.997  -2.282  1.00  0.00     0.083 C 
ATOM     17  C   UNL     1       0.036   5.796  -3.501  1.00  0.00    -0.030 A 
ATOM     18  S   UNL     1       2.512   4.874  -3.676  1.00  0.00    -0.125 SA
ATOM     19  C   UNL     1       0.850   4.965  -4.272  1.00  0.00     0.011 A 
ATOM     20  C   UNL     1      -1.306   5.978  -3.839  1.00  0.00     0.005 A 
ATOM     21  C   UNL     1       0.369   4.386  -5.437  1.00  0.00     0.015 A 
ATOM     22  C   UNL     1      -1.797   5.392  -5.004  1.00  0.00     0.000 A 
ATOM     23  C   UNL     1      -0.958   4.617  -5.811  1.00  0.00     0.001 A 
ENDBRANCH  14  15
ENDBRANCH   6  14
ENDBRANCH   4   6
ENDBRANCH   3   4
ENDBRANCH   2   3
ENDBRANCH   1   2
BRANCH   1  24
ATOM     24  O   UNL     1       5.331  10.964  -4.120  1.00  0.00    -0.458 OA
BRANCH  24  25
ATOM     25  C   UNL     1       5.240  11.538  -5.338  1.00  0.00     0.338 C 
ATOM     26  O   UNL     1       5.694  11.108  -6.389  1.00  0.00    -0.246 OA
BRANCH  25  27
ATOM     27  C   UNL     1       4.477  12.796  -5.226  1.00  0.00     0.060 A 
ATOM     28  C   UNL     1       4.823  13.889  -6.014  1.00  0.00     0.016 A 
ATOM     29  C   UNL     1       3.341  12.860  -4.422  1.00  0.00     0.016 A 
ATOM     30  C   UNL     1       4.029  15.041  -5.981  1.00  0.00     0.010 A 
ATOM     31  C   UNL     1       2.482  13.955  -4.499  1.00  0.00     0.010 A 
ATOM     32  C   UNL     1       2.819  15.077  -5.257  1.00  0.00    -0.014 A 
BRANCH  32  33
ATOM     33  C   UNL     1       1.922  16.266  -5.339  1.00  0.00     0.031 A 
ATOM     34  C   UNL     1       1.435  16.993  -4.107  1.00  0.00     0.074 A 
ATOM     35  C   UNL     1       1.511  16.701  -6.551  1.00  0.00     0.049 A 
ATOM     36  N   UNL     1       0.843  18.160  -4.032  1.00  0.00    -0.248 NA
ATOM     37  C   UNL     1       1.579  16.327  -2.801  1.00  0.00     0.031 C 
ATOM     38  C   UNL     1       1.721  16.000  -7.822  1.00  0.00     0.029 A 
ATOM     39  N   UNL     1       0.856  17.851  -6.918  1.00  0.00    -0.354 N 
ATOM     40  C   UNL     1       0.526  18.345  -2.691  1.00  0.00     0.074 A 
ATOM     41  C   UNL     1       0.920  17.146  -1.994  1.00  0.00     0.031 C 
ATOM     42  C   UNL     1       1.286  16.770  -8.830  1.00  0.00     0.029 A 
ATOM     43  C   UNL     1       0.776  18.023  -8.282  1.00  0.00     0.049 A 
ATOM     44  H   UNL     1       0.480  18.490  -6.270  1.00  0.00     0.167 HD
ATOM     45  C   UNL     1       0.028  19.443  -2.076  1.00  0.00     0.034 A 
ATOM     46  C   UNL     1       0.406  19.093  -9.014  1.00  0.00     0.034 A 
ATOM     47  C   UNL     1      -0.243  20.679  -2.749  1.00  0.00     0.049 A 
ATOM     48  C   UNL     1       0.030  20.368  -8.314  1.00  0.00     0.074 A 
ATOM     49  C   UNL     1      -0.566  21.906  -2.200  1.00  0.00     0.029 A 
ATOM     50  N   UNL     1      -0.204  20.846  -4.123  1.00  0.00    -0.354 N 
ATOM     51  N   UNL     1      -0.017  20.614  -7.028  1.00  0.00    -0.248 NA
ATOM     52  C   UNL     1      -0.296  21.527  -9.160  1.00  0.00     0.031 C 
ATOM     53  C   UNL     1      -0.708  22.823  -3.246  1.00  0.00     0.029 A 
ATOM     54  C   UNL     1      -0.489  22.158  -4.443  1.00  0.00     0.049 A 
ATOM     55  H   UNL     1      -0.002  20.135  -4.774  1.00  0.00     0.167 HD
ATOM     56  C   UNL     1      -0.356  21.956  -6.909  1.00  0.00     0.074 A 
ATOM     57  C   UNL     1      -0.487  22.478  -8.253  1.00  0.00     0.031 C 
ATOM     58  C   UNL     1      -0.558  22.680  -5.782  1.00  0.00     0.034 A 
BRANCH  45  59
ATOM     59  C   UNL     1      -0.106  19.405  -0.578  1.00  0.00     0.023 A 
ATOM     60  C   UNL     1       1.063  19.510   0.204  1.00  0.00     0.012 A 
ATOM     61  C   UNL     1      -1.361  19.325   0.056  1.00  0.00     0.148 A 
ATOM     62  C   UNL     1       0.992  19.504   1.595  1.00  0.00     0.002 A 
ATOM     63  C   UNL     1      -1.426  19.349   1.445  1.00  0.00     0.091 A 
ATOM     64  F   UNL     1      -2.458  19.221  -0.707  1.00  0.00    -0.205 F 
ATOM     65  C   UNL     1      -0.252  19.430   2.215  1.00  0.00     0.022 A 
BRANCH  63  66
ATOM     66  S   UNL     1      -2.975  19.304   2.355  1.00  0.00     0.127 S 
ATOM     67  O   UNL     1      -2.863  18.030   3.065  1.00  0.00    -0.237 OA
ATOM     68  O   UNL     1      -2.863  20.488   3.207  1.00  0.00    -0.237 OA
ATOM     69  O   UNL     1      -4.033  19.364   1.357  1.00  0.00    -0.744 OA
ENDBRANCH  63  66
ENDBRANCH  45  59
BRANCH  46  70
ATOM     70  C   UNL     1       0.561  19.048 -10.495  1.00  0.00     0.023 A 
ATOM     71  C   UNL     1       1.692  19.657 -11.074  1.00  0.00     0.012 A 
ATOM     72  C   UNL     1      -0.349  18.357 -11.316  1.00  0.00     0.148 A 
ATOM     73  C   UNL     1       1.909  19.591 -12.450  1.00  0.00     0.002 A 
ATOM     74  C   UNL     1      -0.112  18.270 -12.684  1.00  0.00     0.091 A 
ATOM     75  F   UNL     1      -1.414  17.784 -10.739  1.00  0.00    -0.205 F 
ATOM     76  C   UNL     1       1.012  18.892 -13.253  1.00  0.00     0.022 A 
BRANCH  74  77
ATOM     77  S   UNL     1      -1.159  17.324 -13.796  1.00  0.00     0.127 S 
ATOM     78  O   UNL     1      -1.728  18.376 -14.636  1.00  0.00    -0.237 OA
ATOM     79  O   UNL     1      -0.185  16.462 -14.465  1.00  0.00    -0.237 OA
ATOM     80  O   UNL     1      -2.107  16.620 -12.944  1.00  0.00    -0.744 OA
ENDBRANCH  74  77
ENDBRANCH  46  70
BRANCH  58  81
ATOM     81  C   UNL     1      -0.955  24.122  -5.918  1.00  0.00     0.023 A 
ATOM     82  C   UNL     1      -2.308  24.431  -6.153  1.00  0.00     0.012 A 
ATOM     83  C   UNL     1      -0.040  25.153  -5.633  1.00  0.00     0.148 A 
ATOM     84  C   UNL     1      -2.749  25.751  -6.095  1.00  0.00     0.002 A 
ATOM     85  C   UNL     1      -0.492  26.463  -5.547  1.00  0.00     0.091 A 
ATOM     86  F   UNL     1       1.242  24.825  -5.416  1.00  0.00    -0.205 F 
ATOM     87  C   UNL     1      -1.846  26.764  -5.779  1.00  0.00     0.022 A 
BRANCH  85  88
ATOM     88  S   UNL     1       0.570  27.829  -5.063  1.00  0.00     0.127 S 
ATOM     89  O   UNL     1       0.551  28.662  -6.264  1.00  0.00    -0.237 OA
ATOM     90  O   UNL     1      -0.151  28.388  -3.920  1.00  0.00    -0.237 OA
ATOM     91  O   UNL     1       1.864  27.242  -4.741  1.00  0.00    -0.744 OA
ENDBRANCH  85  88
ENDBRANCH  58  81
ENDBRANCH  32  33
ENDBRANCH  25  27
ENDBRANCH  24  25
ENDBRANCH   1  24
TORSDOF 17
