REMARK SMILES Cc1nccc(CNC(=O)N2CC[C@@H](C(=O)OCCOC(=O)c3ccc(-c4c5nc(c(-c6cccc(S(=O)(=O)[O-])c6F)c6ccc([nH]6)c(-c6cccc(S(=O)(=O)[O-])c6F)c6nc(c(-c7cccc(S(=O)(=O)[O-])c7F)c7ccc4[nH]7)C=C6)C=C5)cc3)[C@H]2C)n1
REMARK SMILES IDX 18 1 17 2 15 3 16 4 14 5 11 6 12 7 86 8 13 9 87 10 9 11 8 12
REMARK SMILES IDX 10 14 7 15 6 16 1 17 2 18 3 19 88 20 4 21 5 22 19 23 20 24
REMARK SMILES IDX 21 25 22 26 23 27 24 28 85 29 25 30 84 31 26 32 27 33 28 34
REMARK SMILES IDX 78 35 29 36 83 37 77 38 79 39 30 40 82 41 76 42 75 43 31 45
REMARK SMILES IDX 63 46 43 47 62 48 44 49 47 50 61 51 80 52 45 53 46 54 60 56
REMARK SMILES IDX 81 57 48 58 32 59 33 60 41 61 34 62 36 63 42 64 35 65 37 66
REMARK SMILES IDX 38 67 39 68 40 69 64 70 65 71 73 72 66 73 68 74 74 75 67 76
REMARK SMILES IDX 69 77 70 78 71 79 72 80 49 81 50 82 58 83 51 84 53 85 59 86
REMARK SMILES IDX 52 87 54 88 55 89 56 90 57 91
REMARK H PARENT 8 13 79 44 47 55
REMARK Flexibility Score: inf
ROOT
ATOM      1  C   UNL     1       4.389   3.287  -6.100  1.00  0.00     0.274 C 
ENDROOT
BRANCH   1   2
ATOM      2  O   UNL     1       4.524   2.776  -4.757  1.00  0.00    -0.462 OA
BRANCH   2   3
ATOM      3  C   UNL     1       5.543   3.272  -4.020  1.00  0.00     0.311 C 
ATOM      4  O   UNL     1       6.482   3.902  -4.493  1.00  0.00    -0.252 OA
BRANCH   3   5
ATOM      5  C   UNL     1       5.461   2.942  -2.544  1.00  0.00     0.123 C 
ATOM      6  N   UNL     1       4.378   2.180  -0.555  1.00  0.00    -0.321 N 
ATOM      7  C   UNL     1       5.625   1.447  -0.761  1.00  0.00     0.122 C 
ATOM      8  C   UNL     1       4.159   3.115  -1.711  1.00  0.00     0.098 C 
ATOM      9  C   UNL     1       5.898   1.518  -2.247  1.00  0.00     0.039 C 
ATOM     10  C   UNL     1       2.862   2.841  -2.463  1.00  0.00     0.032 C 
BRANCH   6  11
ATOM     11  C   UNL     1       4.043   2.388   0.757  1.00  0.00     0.317 C 
ATOM     12  N   UNL     1       2.776   2.574   1.159  1.00  0.00    -0.332 N 
ATOM     13  H   UNL     1       2.711   2.902   2.085  1.00  0.00     0.165 HD
ATOM     14  O   UNL     1       4.875   2.284   1.663  1.00  0.00    -0.249 OA
BRANCH  12  15
ATOM     15  C   UNL     1       1.488   2.400   0.532  1.00  0.00     0.174 C 
BRANCH  15  16
ATOM     16  C   UNL     1       0.891   1.013   0.556  1.00  0.00     0.063 A 
ATOM     17  C   UNL     1      -2.530  -0.280   0.199  1.00  0.00     0.089 C 
ATOM     18  C   UNL     1      -1.042  -0.241   0.351  1.00  0.00     0.125 A 
ATOM     19  N   UNL     1      -0.376  -1.407   0.313  1.00  0.00    -0.242 NA
ATOM     20  N   UNL     1      -0.462   0.966   0.477  1.00  0.00    -0.236 NA
ATOM     21  C   UNL     1       0.965  -1.322   0.397  1.00  0.00     0.115 A 
ATOM     22  C   UNL     1       1.655  -0.136   0.511  1.00  0.00     0.046 A 
ENDBRANCH  15  16
ENDBRANCH  12  15
ENDBRANCH   6  11
ENDBRANCH   3   5
ENDBRANCH   2   3
ENDBRANCH   1   2
BRANCH   1  23
ATOM     23  C   UNL     1       3.569   4.587  -6.137  1.00  0.00     0.275 C 
BRANCH  23  24
ATOM     24  O   UNL     1       4.338   5.719  -5.688  1.00  0.00    -0.458 OA
BRANCH  24  25
ATOM     25  C   UNL     1       4.138   6.107  -4.410  1.00  0.00     0.338 C 
ATOM     26  O   UNL     1       3.340   5.630  -3.610  1.00  0.00    -0.246 OA
BRANCH  25  27
ATOM     27  C   UNL     1       5.138   7.106  -4.016  1.00  0.00     0.060 A 
ATOM     28  C   UNL     1       6.021   6.775  -2.985  1.00  0.00     0.016 A 
ATOM     29  C   UNL     1       5.160   8.377  -4.591  1.00  0.00     0.016 A 
ATOM     30  C   UNL     1       6.936   7.711  -2.518  1.00  0.00     0.010 A 
ATOM     31  C   UNL     1       6.079   9.319  -4.119  1.00  0.00     0.010 A 
ATOM     32  C   UNL     1       6.961   8.994  -3.073  1.00  0.00    -0.014 A 
BRANCH  32  33
ATOM     33  C   UNL     1       7.877  10.011  -2.509  1.00  0.00     0.031 A 
ATOM     34  C   UNL     1       7.326  11.101  -1.639  1.00  0.00     0.074 A 
ATOM     35  C   UNL     1       9.195   9.941  -2.770  1.00  0.00     0.049 A 
ATOM     36  N   UNL     1       7.945  12.116  -1.095  1.00  0.00    -0.248 NA
ATOM     37  C   UNL     1       5.885  11.045  -1.342  1.00  0.00     0.031 C 
ATOM     38  C   UNL     1       9.839   8.909  -3.585  1.00  0.00     0.029 A 
ATOM     39  N   UNL     1      10.226  10.760  -2.388  1.00  0.00    -0.354 N 
ATOM     40  C   UNL     1       6.968  12.841  -0.426  1.00  0.00     0.074 A 
ATOM     41  C   UNL     1       5.712  12.151  -0.632  1.00  0.00     0.031 C 
ATOM     42  C   UNL     1      11.155   9.165  -3.653  1.00  0.00     0.029 A 
ATOM     43  C   UNL     1      11.441  10.393  -2.917  1.00  0.00     0.049 A 
ATOM     44  H   UNL     1      10.107  11.535  -1.794  1.00  0.00     0.167 HD
ATOM     45  C   UNL     1       7.108  13.971   0.306  1.00  0.00     0.034 A 
ATOM     46  C   UNL     1      12.644  10.993  -2.829  1.00  0.00     0.034 A 
ATOM     47  C   UNL     1       8.366  14.629   0.534  1.00  0.00     0.049 A 
ATOM     48  C   UNL     1      12.771  12.251  -2.012  1.00  0.00     0.074 A 
ATOM     49  C   UNL     1       8.620  15.769   1.275  1.00  0.00     0.029 A 
ATOM     50  N   UNL     1       9.584  14.202   0.026  1.00  0.00    -0.354 N 
ATOM     51  N   UNL     1      11.851  12.883  -1.322  1.00  0.00    -0.248 NA
ATOM     52  C   UNL     1      14.105  12.862  -1.935  1.00  0.00     0.031 C 
ATOM     53  C   UNL     1       9.993  16.036   1.209  1.00  0.00     0.029 A 
ATOM     54  C   UNL     1      10.595  15.053   0.438  1.00  0.00     0.049 A 
ATOM     55  H   UNL     1       9.711  13.409  -0.544  1.00  0.00     0.167 HD
ATOM     56  C   UNL     1      12.500  13.944  -0.703  1.00  0.00     0.074 A 
ATOM     57  C   UNL     1      13.896  13.859  -1.085  1.00  0.00     0.031 C 
ATOM     58  C   UNL     1      11.987  14.913   0.096  1.00  0.00     0.034 A 
BRANCH  45  59
ATOM     59  C   UNL     1       5.869  14.549   0.934  1.00  0.00     0.023 A 
ATOM     60  C   UNL     1       5.303  13.921   2.062  1.00  0.00     0.012 A 
ATOM     61  C   UNL     1       5.285  15.729   0.434  1.00  0.00     0.148 A 
ATOM     62  C   UNL     1       4.157  14.440   2.663  1.00  0.00     0.002 A 
ATOM     63  C   UNL     1       4.164  16.262   1.063  1.00  0.00     0.091 A 
ATOM     64  F   UNL     1       5.820  16.297  -0.656  1.00  0.00    -0.205 F 
ATOM     65  C   UNL     1       3.594  15.614   2.171  1.00  0.00     0.022 A 
BRANCH  63  66
ATOM     66  S   UNL     1       3.412  17.807   0.538  1.00  0.00     0.127 S 
ATOM     67  O   UNL     1       2.225  17.332  -0.171  1.00  0.00    -0.237 OA
ATOM     68  O   UNL     1       3.136  18.469   1.814  1.00  0.00    -0.237 OA
ATOM     69  O   UNL     1       4.411  18.476  -0.284  1.00  0.00    -0.744 OA
ENDBRANCH  63  66
ENDBRANCH  45  59
BRANCH  46  70
ATOM     70  C   UNL     1      13.828  10.381  -3.494  1.00  0.00     0.023 A 
ATOM     71  C   UNL     1      14.842   9.806  -2.704  1.00  0.00     0.012 A 
ATOM     72  C   UNL     1      13.938  10.328  -4.897  1.00  0.00     0.148 A 
ATOM     73  C   UNL     1      15.954   9.208  -3.299  1.00  0.00     0.002 A 
ATOM     74  C   UNL     1      15.021   9.684  -5.484  1.00  0.00     0.091 A 
ATOM     75  F   UNL     1      12.973  10.899  -5.632  1.00  0.00    -0.205 F 
ATOM     76  C   UNL     1      16.038   9.136  -4.687  1.00  0.00     0.022 A 
BRANCH  74  77
ATOM     77  S   UNL     1      15.141   9.432  -7.259  1.00  0.00     0.127 S 
ATOM     78  O   UNL     1      16.171  10.398  -7.630  1.00  0.00    -0.237 OA
ATOM     79  O   UNL     1      15.552   8.030  -7.342  1.00  0.00    -0.237 OA
ATOM     80  O   UNL     1      13.806   9.694  -7.781  1.00  0.00    -0.744 OA
ENDBRANCH  74  77
ENDBRANCH  46  70
BRANCH  58  81
ATOM     81  C   UNL     1      12.942  15.940   0.644  1.00  0.00     0.023 A 
ATOM     82  C   UNL     1      13.436  16.953  -0.200  1.00  0.00     0.012 A 
ATOM     83  C   UNL     1      13.287  15.945   2.010  1.00  0.00     0.148 A 
ATOM     84  C   UNL     1      14.282  17.941   0.301  1.00  0.00     0.002 A 
ATOM     85  C   UNL     1      14.095  16.958   2.511  1.00  0.00     0.091 A 
ATOM     86  F   UNL     1      12.824  14.959   2.792  1.00  0.00    -0.205 F 
ATOM     87  C   UNL     1      14.601  17.951   1.657  1.00  0.00     0.022 A 
BRANCH  85  88
ATOM     88  S   UNL     1      14.477  17.095   4.261  1.00  0.00     0.127 S 
ATOM     89  O   UNL     1      15.837  16.561   4.313  1.00  0.00    -0.237 OA
ATOM     90  O   UNL     1      14.380  18.537   4.494  1.00  0.00    -0.237 OA
ATOM     91  O   UNL     1      13.463  16.308   4.950  1.00  0.00    -0.744 OA
ENDBRANCH  85  88
ENDBRANCH  58  81
ENDBRANCH  32  33
ENDBRANCH  25  27
ENDBRANCH  24  25
ENDBRANCH  23  24
ENDBRANCH   1  23
TORSDOF 17
