REMARK SMILES Cc1ccnc(C(=O)c2[nH]c3ccc(C(C)(C)C)cc3c2CC(=O)OCCOC(=O)c2ccc(-c3c4nc(c(-c5cccc(S(=O)(=O)[O-])c5F)c5ccc([nH]5)c(-c5cccc(S(=O)(=O)[O-])c5F)c5nc(c(-c6cccc(S(=O)(=O)[O-])c6F)c6ccc3[nH]6)C=C5)C=C4)cc2)c1
REMARK SMILES IDX 26 1 25 2 23 3 24 4 22 5 21 6 9 7 10 8 11 9 20 11 12 12
REMARK SMILES IDX 19 13 13 14 14 15 7 16 8 17 6 18 1 19 2 20 3 21 94 22 4 23
REMARK SMILES IDX 5 24 15 25 16 26 17 27 18 28 27 29 28 30 29 31 30 32 31 33
REMARK SMILES IDX 32 34 93 35 33 36 92 37 34 38 35 39 36 40 86 41 37 42 91 43
REMARK SMILES IDX 85 44 87 45 38 46 90 47 84 48 83 49 39 51 71 52 51 53 70 54
REMARK SMILES IDX 52 55 55 56 69 57 88 58 53 59 54 60 68 62 89 63 56 64 40 65
REMARK SMILES IDX 41 66 49 67 42 68 44 69 50 70 43 71 45 72 46 73 47 74 48 75
REMARK SMILES IDX 72 76 73 77 81 78 74 79 76 80 82 81 75 82 77 83 78 84 79 85
REMARK SMILES IDX 80 86 57 87 58 88 66 89 59 90 61 91 67 92 60 93 62 94 63 95
REMARK SMILES IDX 64 96 65 97
REMARK H PARENT 10 10 87 50 55 61
REMARK Flexibility Score: inf
ROOT
ATOM      1  C   UNL     1       5.186  -5.351   0.616  1.00  0.00     0.274 C 
ENDROOT
BRANCH   1   2
ATOM      2  O   UNL     1       3.757  -5.176   0.487  1.00  0.00    -0.462 OA
BRANCH   2   3
ATOM      3  C   UNL     1       3.056  -5.077   1.644  1.00  0.00     0.310 C 
ATOM      4  O   UNL     1       3.538  -5.276   2.757  1.00  0.00    -0.252 OA
BRANCH   3   5
ATOM      5  C   UNL     1       1.653  -4.535   1.485  1.00  0.00     0.161 C 
BRANCH   5   6
ATOM      6  C   UNL     1       0.873  -4.897   0.262  1.00  0.00     0.000 A 
ATOM      7  C   UNL     1       0.716  -4.152  -0.906  1.00  0.00     0.093 A 
ATOM      8  N   UNL     1      -0.119  -4.865  -1.730  1.00  0.00    -0.352 N 
ATOM      9  C   UNL     1      -0.642  -5.947  -1.079  1.00  0.00     0.046 A 
ATOM     10  H   UNL     1      -0.316  -4.629  -2.665  1.00  0.00     0.167 HD
ATOM     11  C   UNL     1       0.013  -6.046   0.142  1.00  0.00     0.004 A 
ATOM     12  C   UNL     1      -1.632  -6.837  -1.486  1.00  0.00     0.027 A 
ATOM     13  C   UNL     1      -0.307  -7.141   0.979  1.00  0.00     0.015 A 
ATOM     14  C   UNL     1      -1.948  -7.893  -0.627  1.00  0.00     0.006 A 
ATOM     15  C   UNL     1      -1.292  -8.087   0.599  1.00  0.00    -0.042 A 
BRANCH   7  16
ATOM     16  C   UNL     1       1.257  -2.887  -1.383  1.00  0.00     0.227 C 
ATOM     17  O   UNL     1       1.969  -2.867  -2.386  1.00  0.00    -0.285 OA
BRANCH  16  18
ATOM     18  C   UNL     1       0.697  -1.589  -0.844  1.00  0.00     0.113 A 
ATOM     19  C   UNL     1      -2.557  -0.178   0.521  1.00  0.00     0.044 C 
ATOM     20  C   UNL     1      -1.157  -0.295  -0.007  1.00  0.00    -0.047 A 
ATOM     21  C   UNL     1      -0.448   0.859  -0.342  1.00  0.00     0.023 A 
ATOM     22  C   UNL     1      -0.563  -1.542  -0.243  1.00  0.00     0.036 A 
ATOM     23  C   UNL     1       0.808   0.723  -0.908  1.00  0.00     0.112 A 
ATOM     24  N   UNL     1       1.386  -0.465  -1.175  1.00  0.00    -0.253 NA
ENDBRANCH  16  18
ENDBRANCH   7  16
BRANCH  15  25
ATOM     25  C   UNL     1      -1.605  -9.288   1.510  1.00  0.00    -0.013 C 
ATOM     26  C   UNL     1      -0.345 -10.171   1.637  1.00  0.00     0.016 C 
ATOM     27  C   UNL     1      -2.030  -8.802   2.912  1.00  0.00     0.016 C 
ATOM     28  C   UNL     1      -2.744 -10.191   0.980  1.00  0.00     0.016 C 
ENDBRANCH  15  25
ENDBRANCH   5   6
ENDBRANCH   3   5
ENDBRANCH   2   3
ENDBRANCH   1   2
BRANCH   1  29
ATOM     29  C   UNL     1       5.944  -4.075   0.225  1.00  0.00     0.275 C 
BRANCH  29  30
ATOM     30  O   UNL     1       5.683  -2.983   1.132  1.00  0.00    -0.458 OA
BRANCH  30  31
ATOM     31  C   UNL     1       4.613  -2.244   0.784  1.00  0.00     0.338 C 
ATOM     32  O   UNL     1       3.868  -2.446  -0.170  1.00  0.00    -0.246 OA
BRANCH  31  33
ATOM     33  C   UNL     1       4.306  -1.184   1.740  1.00  0.00     0.060 A 
ATOM     34  C   UNL     1       3.308  -1.432   2.681  1.00  0.00     0.016 A 
ATOM     35  C   UNL     1       4.789   0.110   1.537  1.00  0.00     0.016 A 
ATOM     36  C   UNL     1       2.716  -0.371   3.352  1.00  0.00     0.010 A 
ATOM     37  C   UNL     1       4.254   1.166   2.283  1.00  0.00     0.010 A 
ATOM     38  C   UNL     1       3.187   0.939   3.167  1.00  0.00    -0.014 A 
BRANCH  38  39
ATOM     39  C   UNL     1       2.574   2.033   3.962  1.00  0.00     0.031 A 
ATOM     40  C   UNL     1       1.756   3.116   3.318  1.00  0.00     0.074 A 
ATOM     41  C   UNL     1       2.719   2.001   5.301  1.00  0.00     0.049 A 
ATOM     42  N   UNL     1       1.066   4.071   3.889  1.00  0.00    -0.248 NA
ATOM     43  C   UNL     1       1.691   3.131   1.849  1.00  0.00     0.031 C 
ATOM     44  C   UNL     1       3.505   1.006   6.035  1.00  0.00     0.029 A 
ATOM     45  N   UNL     1       2.211   2.813   6.280  1.00  0.00    -0.354 N 
ATOM     46  C   UNL     1       0.485   4.796   2.856  1.00  0.00     0.074 A 
ATOM     47  C   UNL     1       0.918   4.184   1.617  1.00  0.00     0.031 C 
ATOM     48  C   UNL     1       3.406   1.250   7.348  1.00  0.00     0.029 A 
ATOM     49  C   UNL     1       2.591   2.442   7.548  1.00  0.00     0.049 A 
ATOM     50  H   UNL     1       1.631   3.586   6.095  1.00  0.00     0.167 HD
ATOM     51  C   UNL     1      -0.348   5.861   2.934  1.00  0.00     0.034 A 
ATOM     52  C   UNL     1       2.324   3.005   8.742  1.00  0.00     0.034 A 
ATOM     53  C   UNL     1      -0.766   6.478   4.165  1.00  0.00     0.049 A 
ATOM     54  C   UNL     1       1.442   4.216   8.791  1.00  0.00     0.074 A 
ATOM     55  C   UNL     1      -1.616   7.555   4.345  1.00  0.00     0.029 A 
ATOM     56  N   UNL     1      -0.350   6.084   5.428  1.00  0.00    -0.354 N 
ATOM     57  N   UNL     1       0.803   4.810   7.812  1.00  0.00    -0.248 NA
ATOM     58  C   UNL     1       1.228   4.825  10.110  1.00  0.00     0.031 C 
ATOM     59  C   UNL     1      -1.706   7.819   5.717  1.00  0.00     0.029 A 
ATOM     60  C   UNL     1      -0.913   6.905   6.391  1.00  0.00     0.049 A 
ATOM     61  H   UNL     1       0.256   5.330   5.613  1.00  0.00     0.167 HD
ATOM     62  C   UNL     1       0.104   5.857   8.396  1.00  0.00     0.074 A 
ATOM     63  C   UNL     1       0.368   5.793   9.820  1.00  0.00     0.031 C 
ATOM     64  C   UNL     1      -0.665   6.805   7.806  1.00  0.00     0.034 A 
BRANCH  51  65
ATOM     65  C   UNL     1      -0.917   6.399   1.649  1.00  0.00     0.023 A 
ATOM     66  C   UNL     1      -2.024   5.746   1.071  1.00  0.00     0.012 A 
ATOM     67  C   UNL     1      -0.419   7.577   1.058  1.00  0.00     0.148 A 
ATOM     68  C   UNL     1      -2.624   6.251  -0.082  1.00  0.00     0.002 A 
ATOM     69  C   UNL     1      -1.036   8.086  -0.080  1.00  0.00     0.091 A 
ATOM     70  F   UNL     1       0.648   8.168   1.613  1.00  0.00    -0.205 F 
ATOM     71  C   UNL     1      -2.136   7.424  -0.651  1.00  0.00     0.022 A 
BRANCH  69  72
ATOM     72  S   UNL     1      -0.513   9.614  -0.868  1.00  0.00     0.127 S 
ATOM     73  O   UNL     1       0.092   9.114  -2.102  1.00  0.00    -0.237 OA
ATOM     74  O   UNL     1      -1.783  10.317  -1.052  1.00  0.00    -0.237 OA
ATOM     75  O   UNL     1       0.405  10.251   0.065  1.00  0.00    -0.744 OA
ENDBRANCH  69  72
ENDBRANCH  51  65
BRANCH  52  76
ATOM     76  C   UNL     1       2.876   2.390   9.979  1.00  0.00     0.023 A 
ATOM     77  C   UNL     1       2.009   1.750  10.884  1.00  0.00     0.012 A 
ATOM     78  C   UNL     1       4.261   2.374  10.229  1.00  0.00     0.148 A 
ATOM     79  C   UNL     1       2.513   1.115  12.020  1.00  0.00     0.002 A 
ATOM     80  C   UNL     1       4.760   1.688  11.330  1.00  0.00     0.091 A 
ATOM     81  F   UNL     1       5.077   3.009   9.374  1.00  0.00    -0.205 F 
ATOM     82  C   UNL     1       3.889   1.069  12.235  1.00  0.00     0.022 A 
BRANCH  80  83
ATOM     83  S   UNL     1       6.531   1.473  11.540  1.00  0.00     0.127 S 
ATOM     84  O   UNL     1       6.905   2.692  12.250  1.00  0.00    -0.237 OA
ATOM     85  O   UNL     1       6.617   0.248  12.336  1.00  0.00    -0.237 OA
ATOM     86  O   UNL     1       7.038   1.329  10.181  1.00  0.00    -0.744 OA
ENDBRANCH  80  83
ENDBRANCH  52  76
BRANCH  64  87
ATOM     87  C   UNL     1      -1.257   7.856   8.703  1.00  0.00     0.023 A 
ATOM     88  C   UNL     1      -0.427   8.884   9.194  1.00  0.00     0.012 A 
ATOM     89  C   UNL     1      -2.624   7.855   9.031  1.00  0.00     0.148 A 
ATOM     90  C   UNL     1      -0.944   9.877  10.024  1.00  0.00     0.002 A 
ATOM     91  C   UNL     1      -3.140   8.871   9.830  1.00  0.00     0.091 A 
ATOM     92  F   UNL     1      -3.397   6.857   8.579  1.00  0.00    -0.205 F 
ATOM     93  C   UNL     1      -2.302   9.877  10.334  1.00  0.00     0.022 A 
BRANCH  91  94
ATOM     94  S   UNL     1      -4.897   8.956  10.193  1.00  0.00     0.127 S 
ATOM     95  O   UNL     1      -5.000   8.132  11.395  1.00  0.00    -0.237 OA
ATOM     96  O   UNL     1      -5.115  10.386  10.417  1.00  0.00    -0.237 OA
ATOM     97  O   UNL     1      -5.552   8.436   8.999  1.00  0.00    -0.744 OA
ENDBRANCH  91  94
ENDBRANCH  64  87
ENDBRANCH  38  39
ENDBRANCH  31  33
ENDBRANCH  30  31
ENDBRANCH  29  30
ENDBRANCH   1  29
TORSDOF 18
