REMARK SMILES O=C(OCCOC(=O)c1ccc(-c2c3nc(c(-c4cccc(S(=O)(=O)[O-])c4F)c4ccc([nH]4)c(-c4cccc(S(=O)(=O)[O-])c4F)c4nc(c(-c5cccc(S(=O)(=O)[O-])c5F)c5ccc2[nH]5)C=C4)C=C3)cc1)C1=Cc2cc(S(F)(F)(F)(F)F)cc(Br)c2O[C@H]1C(F)(F)F
REMARK SMILES IDX 5 1 4 2 3 3 2 4 1 5 72 6 73 7 88 8 74 9 87 10 75 11 86 12
REMARK SMILES IDX 76 13 84 14 83 15 85 16 89 17 90 18 91 19 92 20 77 21 78 22
REMARK SMILES IDX 79 23 80 24 81 25 82 26 6 27 7 28 8 29 9 30 10 31 71 32
REMARK SMILES IDX 11 33 70 34 12 35 13 36 14 37 64 38 15 39 69 40 63 41 65 42
REMARK SMILES IDX 16 43 68 44 62 45 61 46 17 48 49 49 29 50 48 51 30 52 33 53
REMARK SMILES IDX 47 54 66 55 31 56 32 57 46 59 67 60 34 61 18 62 19 63 27 64
REMARK SMILES IDX 20 65 22 66 28 67 21 68 23 69 24 70 25 71 26 72 50 73 51 74
REMARK SMILES IDX 59 75 52 76 54 77 60 78 53 79 55 80 56 81 57 82 58 83 35 84
REMARK SMILES IDX 36 85 44 86 37 87 39 88 45 89 38 90 40 91 41 92 42 93 43 94
REMARK H PARENT 65 47 33 58
REMARK Flexibility Score: inf
ROOT
ATOM      1  C   UNL     1       4.956   0.930  -0.887  1.00  0.00     0.275 C 
ENDROOT
BRANCH   1   2
ATOM      2  C   UNL     1       4.449  -0.473  -1.178  1.00  0.00     0.275 C 
BRANCH   2   3
ATOM      3  O   UNL     1       3.029  -0.473  -1.178  1.00  0.00    -0.459 OA
BRANCH   3   4
ATOM      4  C   UNL     1       2.319  -0.087  -0.011  1.00  0.00     0.338 C 
ATOM      5  O   UNL     1       1.048  -0.087  -0.011  1.00  0.00    -0.246 OA
BRANCH   4   6
ATOM      6  C   UNL     1       3.079   0.326   1.239  1.00  0.00     0.087 C 
ATOM      7  C   UNL     1       4.439   0.326   1.239  1.00  0.00     0.027 C 
ATOM      8  C   UNL     1       2.319   0.739   2.489  1.00  0.00     0.316 C 
ATOM      9  C   UNL     1       5.199  -0.087  -0.011  1.00  0.00     0.020 A 
ATOM     10  O   UNL     1       3.668   1.177  -1.317  1.00  0.00    -0.474 OA
ATOM     11  C   UNL     1       6.236  -0.997   0.120  1.00  0.00     0.036 A 
ATOM     12  C   UNL     1       4.833   0.373  -1.201  1.00  0.00     0.142 A 
ATOM     13  C   UNL     1       7.021  -1.143  -1.048  1.00  0.00     0.109 A 
ATOM     14  C   UNL     1       5.571   0.078  -2.322  1.00  0.00     0.062 A 
ATOM     15  C   UNL     1       6.643  -0.767  -2.256  1.00  0.00     0.044 A 
ATOM     16  Br  UNL     1       5.078   0.881  -4.041  1.00  0.00    -0.047 Br
BRANCH   8  17
ATOM     17  C   UNL     1       0.825   0.652   2.225  1.00  0.00     0.430 C 
ATOM     18  F   UNL     1       0.616   0.093   1.037  1.00  0.00    -0.167 F 
ATOM     19  F   UNL     1       0.250  -0.088   3.170  1.00  0.00    -0.167 F 
ATOM     20  F   UNL     1       0.300   1.874   2.239  1.00  0.00    -0.167 F 
ENDBRANCH   8  17
BRANCH  13  21
ATOM     21  S   UNL     1       8.656  -1.900  -0.874  1.00  0.00     0.310 S 
ATOM     22  F   UNL     1       8.553  -1.905   0.709  1.00  0.00    -0.094 F 
ATOM     23  F   UNL     1       9.282  -0.459  -0.759  1.00  0.00    -0.094 F 
ATOM     24  F   UNL     1      10.059  -2.552  -0.724  1.00  0.00    -0.094 F 
ATOM     25  F   UNL     1       7.995  -3.334  -0.849  1.00  0.00    -0.094 F 
ATOM     26  F   UNL     1       7.214  -1.253  -0.913  1.00  0.00    -0.094 F 
ENDBRANCH  13  21
ENDBRANCH   4   6
ENDBRANCH   3   4
ENDBRANCH   2   3
ENDBRANCH   1   2
BRANCH   1  27
ATOM     27  O   UNL     1       4.482   1.350   0.384  1.00  0.00    -0.458 OA
BRANCH  27  28
ATOM     28  C   UNL     1       3.086   1.432   0.630  1.00  0.00     0.338 C 
ATOM     29  O   UNL     1       2.260   1.129  -0.287  1.00  0.00    -0.246 OA
BRANCH  28  30
ATOM     30  C   UNL     1       2.579   1.881   1.991  1.00  0.00     0.060 A 
ATOM     31  C   UNL     1       1.483   1.237   2.541  1.00  0.00     0.016 A 
ATOM     32  C   UNL     1       3.128   2.935   2.584  1.00  0.00     0.016 A 
ATOM     33  C   UNL     1       0.854   1.962   3.580  1.00  0.00     0.010 A 
ATOM     34  C   UNL     1       2.530   3.511   3.679  1.00  0.00     0.010 A 
ATOM     35  C   UNL     1       1.411   2.962   4.239  1.00  0.00    -0.014 A 
BRANCH  35  36
ATOM     36  C   UNL     1       0.837   3.474   5.551  1.00  0.00     0.031 A 
ATOM     37  C   UNL     1       0.422   4.804   5.642  1.00  0.00     0.074 A 
ATOM     38  C   UNL     1       0.668   2.540   6.558  1.00  0.00     0.049 A 
ATOM     39  N   UNL     1      -0.217   5.389   6.656  1.00  0.00    -0.248 NA
ATOM     40  C   UNL     1       0.632   5.807   4.587  1.00  0.00     0.031 C 
ATOM     41  C   UNL     1       1.076   1.194   6.470  1.00  0.00     0.029 A 
ATOM     42  N   UNL     1       0.092   2.726   7.795  1.00  0.00    -0.354 N 
ATOM     43  C   UNL     1      -0.463   6.669   6.368  1.00  0.00     0.074 A 
ATOM     44  C   UNL     1       0.085   6.958   5.036  1.00  0.00     0.031 C 
ATOM     45  C   UNL     1       0.761   0.582   7.641  1.00  0.00     0.029 A 
ATOM     46  C   UNL     1       0.151   1.533   8.480  1.00  0.00     0.049 A 
ATOM     47  H   UNL     1      -0.295   3.566   8.131  1.00  0.00     0.167 HD
ATOM     48  C   UNL     1      -1.125   7.606   7.164  1.00  0.00     0.034 A 
ATOM     49  C   UNL     1      -0.295   1.270   9.766  1.00  0.00     0.034 A 
ATOM     50  C   UNL     1      -1.610   7.331   8.433  1.00  0.00     0.049 A 
ATOM     51  C   UNL     1      -0.905   2.223  10.585  1.00  0.00     0.074 A 
ATOM     52  C   UNL     1      -2.286   8.261   9.245  1.00  0.00     0.029 A 
ATOM     53  N   UNL     1      -1.529   6.144   9.128  1.00  0.00    -0.354 N 
ATOM     54  N   UNL     1      -1.186   3.491  10.283  1.00  0.00    -0.248 NA
ATOM     55  C   UNL     1      -1.352   1.964  11.960  1.00  0.00     0.031 C 
ATOM     56  C   UNL     1      -2.600   7.648  10.417  1.00  0.00     0.029 A 
ATOM     57  C   UNL     1      -2.124   6.324  10.357  1.00  0.00     0.049 A 
ATOM     58  H   UNL     1      -1.116   5.312   8.803  1.00  0.00     0.167 HD
ATOM     59  C   UNL     1      -1.789   4.087  11.313  1.00  0.00     0.074 A 
ATOM     60  C   UNL     1      -1.897   3.115  12.410  1.00  0.00     0.031 C 
ATOM     61  C   UNL     1      -2.256   5.401  11.382  1.00  0.00     0.034 A 
BRANCH  48  62
ATOM     62  C   UNL     1      -1.325   9.006   6.607  1.00  0.00     0.023 A 
ATOM     63  C   UNL     1      -2.102   9.096   5.464  1.00  0.00     0.012 A 
ATOM     64  C   UNL     1      -0.836  10.092   7.195  1.00  0.00     0.148 A 
ATOM     65  C   UNL     1      -2.067  10.368   4.846  1.00  0.00     0.002 A 
ATOM     66  C   UNL     1      -0.958  11.324   6.600  1.00  0.00     0.091 A 
ATOM     67  F   UNL     1      -0.224   9.985   8.371  1.00  0.00    -0.205 F 
ATOM     68  C   UNL     1      -1.661  11.477   5.437  1.00  0.00     0.022 A 
BRANCH  66  69
ATOM     69  S   UNL     1      -0.175  12.765   7.365  1.00  0.00     0.127 S 
ATOM     70  O   UNL     1       0.836  13.374   6.391  1.00  0.00    -0.237 OA
ATOM     71  O   UNL     1      -1.244  13.805   7.707  1.00  0.00    -0.237 OA
ATOM     72  O   UNL     1       0.630  12.284   8.795  1.00  0.00    -0.744 OA
ENDBRANCH  66  69
ENDBRANCH  48  62
BRANCH  49  73
ATOM     73  C   UNL     1      -0.109  -0.135  10.316  1.00  0.00     0.023 A 
ATOM     74  C   UNL     1      -1.191  -0.862  10.786  1.00  0.00     0.012 A 
ATOM     75  C   UNL     1       1.129  -0.607  10.406  1.00  0.00     0.148 A 
ATOM     76  C   UNL     1      -0.832  -1.960  11.603  1.00  0.00     0.002 A 
ATOM     77  C   UNL     1       1.389  -1.760  11.106  1.00  0.00     0.091 A 
ATOM     78  F   UNL     1       2.126   0.043   9.812  1.00  0.00    -0.205 F 
ATOM     79  C   UNL     1       0.373  -2.498  11.648  1.00  0.00     0.022 A 
BRANCH  77  80
ATOM     80  S   UNL     1       3.100  -2.311  11.313  1.00  0.00     0.127 S 
ATOM     81  O   UNL     1       3.438  -2.377  12.804  1.00  0.00    -0.237 OA
ATOM     82  O   UNL     1       3.268  -3.699  10.690  1.00  0.00    -0.237 OA
ATOM     83  O   UNL     1       4.152  -1.208  10.539  1.00  0.00    -0.744 OA
ENDBRANCH  77  80
ENDBRANCH  49  73
BRANCH  61  84
ATOM     84  C   UNL     1      -2.950   5.845  12.659  1.00  0.00     0.023 A 
ATOM     85  C   UNL     1      -2.274   5.721  13.861  1.00  0.00     0.012 A 
ATOM     86  C   UNL     1      -4.207   6.271  12.616  1.00  0.00     0.148 A 
ATOM     87  C   UNL     1      -3.111   5.797  15.000  1.00  0.00     0.002 A 
ATOM     88  C   UNL     1      -4.924   6.454  13.774  1.00  0.00     0.091 A 
ATOM     89  F   UNL     1      -4.778   6.523  11.441  1.00  0.00    -0.205 F 
ATOM     90  C   UNL     1      -4.336   6.291  14.998  1.00  0.00     0.022 A 
BRANCH  88  91
ATOM     91  S   UNL     1      -6.671   6.917  13.678  1.00  0.00     0.127 S 
ATOM     92  O   UNL     1      -7.521   5.846  14.365  1.00  0.00    -0.237 OA
ATOM     93  O   UNL     1      -6.881   8.262  14.379  1.00  0.00    -0.237 OA
ATOM     94  O   UNL     1      -7.136   7.050  12.039  1.00  0.00    -0.744 OA
ENDBRANCH  88  91
ENDBRANCH  61  84
ENDBRANCH  35  36
ENDBRANCH  28  30
ENDBRANCH  27  28
ENDBRANCH   1  27
TORSDOF 16
