REMARK SMILES NC(=O)[C@@H]1CCCCN1c1cncc(C(=O)OCCOC(=O)c2ccc(-c3c4nc(c(-c5cccc(S(=O)(=O)[O-])c5F)c5ccc([nH]5)c(-c5cccc(S(=O)(=O)[O-])c5F)c5nc(c(-c6cccc(S(=O)(=O)[O-])c6F)c6ccc3[nH]6)C=C5)C=C4)cc2)n1
REMARK SMILES IDX 19 1 18 2 17 3 15 4 16 5 14 6 10 7 11 8 86 9 12 10 13 11
REMARK SMILES IDX 9 12 4 13 5 14 6 15 8 16 7 17 2 18 1 19 3 22 20 23 21 24
REMARK SMILES IDX 22 25 23 26 24 27 85 28 25 29 84 30 26 31 27 32 28 33 78 34
REMARK SMILES IDX 29 35 83 36 77 37 79 38 30 39 82 40 76 41 75 42 31 44 63 45
REMARK SMILES IDX 43 46 62 47 44 48 47 49 61 50 80 51 45 52 46 53 60 55 81 56
REMARK SMILES IDX 48 57 32 58 33 59 41 60 34 61 36 62 42 63 35 64 37 65 38 66
REMARK SMILES IDX 39 67 40 68 64 69 65 70 73 71 66 72 68 73 74 74 67 75 69 76
REMARK SMILES IDX 70 77 71 78 72 79 49 80 50 81 58 82 51 83 53 84 59 85 52 86
REMARK SMILES IDX 54 87 55 88 56 89 57 90
REMARK H PARENT 1 20 1 21 79 43 47 54
REMARK Flexibility Score: inf
ROOT
ATOM      1  C   UNL     1      -6.340   2.125   1.684  1.00  0.00     0.275 C 
ENDROOT
BRANCH   1   2
ATOM      2  C   UNL     1      -5.121   1.206   1.602  1.00  0.00     0.275 C 
BRANCH   2   3
ATOM      3  O   UNL     1      -3.932   1.945   1.252  1.00  0.00    -0.457 OA
BRANCH   3   4
ATOM      4  C   UNL     1      -3.525   1.830  -0.038  1.00  0.00     0.358 C 
ATOM      5  O   UNL     1      -4.077   1.188  -0.920  1.00  0.00    -0.244 OA
BRANCH   4   6
ATOM      6  C   UNL     1      -2.356   2.692  -0.306  1.00  0.00     0.169 A 
ATOM      7  C   UNL     1      -0.212   3.365   0.186  1.00  0.00     0.148 A 
ATOM      8  C   UNL     1      -0.265   4.190  -0.951  1.00  0.00     0.157 A 
ATOM      9  N   UNL     1      -1.289   2.634   0.537  1.00  0.00    -0.220 NA
ATOM     10  N   UNL     1      -1.317   4.262  -1.795  1.00  0.00    -0.258 NA
ATOM     11  C   UNL     1      -2.351   3.462  -1.460  1.00  0.00     0.147 A 
BRANCH   7  12
ATOM     12  N   UNL     1       0.976   3.223   0.885  1.00  0.00    -0.343 N 
ATOM     13  C   UNL     1       1.312   1.948   1.567  1.00  0.00     0.172 C 
ATOM     14  C   UNL     1       1.003   2.037   3.061  1.00  0.00     0.035 C 
ATOM     15  C   UNL     1       1.692   3.254   3.675  1.00  0.00     0.004 C 
ATOM     16  C   UNL     1       1.556   4.442   1.453  1.00  0.00     0.119 C 
ATOM     17  C   UNL     1       1.261   4.528   2.953  1.00  0.00     0.022 C 
BRANCH  13  18
ATOM     18  C   UNL     1       0.716   0.670   0.933  1.00  0.00     0.240 C 
ATOM     19  N   UNL     1       1.172   0.374  -0.325  1.00  0.00    -0.368 N 
ATOM     20  H   UNL     1       0.839  -0.425  -0.794  1.00  0.00     0.159 HD
ATOM     21  H   UNL     1       1.833   0.961  -0.760  1.00  0.00     0.159 HD
ATOM     22  O   UNL     1      -0.038  -0.112   1.507  1.00  0.00    -0.273 OA
ENDBRANCH  13  18
ENDBRANCH   7  12
ENDBRANCH   4   6
ENDBRANCH   3   4
ENDBRANCH   2   3
ENDBRANCH   1   2
BRANCH   1  23
ATOM     23  O   UNL     1      -6.636   2.657   0.382  1.00  0.00    -0.458 OA
BRANCH  23  24
ATOM     24  C   UNL     1      -6.593   4.003   0.264  1.00  0.00     0.338 C 
ATOM     25  O   UNL     1      -6.389   4.820   1.145  1.00  0.00    -0.246 OA
BRANCH  24  26
ATOM     26  C   UNL     1      -6.782   4.378  -1.148  1.00  0.00     0.060 A 
ATOM     27  C   UNL     1      -5.915   3.869  -2.110  1.00  0.00     0.016 A 
ATOM     28  C   UNL     1      -7.737   5.326  -1.506  1.00  0.00     0.016 A 
ATOM     29  C   UNL     1      -5.913   4.386  -3.402  1.00  0.00     0.010 A 
ATOM     30  C   UNL     1      -7.824   5.744  -2.840  1.00  0.00     0.010 A 
ATOM     31  C   UNL     1      -6.891   5.307  -3.799  1.00  0.00    -0.014 A 
BRANCH  31  32
ATOM     32  C   UNL     1      -6.948   5.801  -5.207  1.00  0.00     0.031 A 
ATOM     33  C   UNL     1      -6.952   7.280  -5.497  1.00  0.00     0.074 A 
ATOM     34  C   UNL     1      -7.032   4.925  -6.231  1.00  0.00     0.049 A 
ATOM     35  N   UNL     1      -7.222   7.902  -6.616  1.00  0.00    -0.248 NA
ATOM     36  C   UNL     1      -6.629   8.181  -4.378  1.00  0.00     0.031 C 
ATOM     37  C   UNL     1      -7.025   3.466  -6.104  1.00  0.00     0.029 A 
ATOM     38  N   UNL     1      -7.162   5.133  -7.584  1.00  0.00    -0.354 N 
ATOM     39  C   UNL     1      -7.185   9.260  -6.318  1.00  0.00     0.074 A 
ATOM     40  C   UNL     1      -6.851   9.373  -4.915  1.00  0.00     0.031 C 
ATOM     41  C   UNL     1      -7.123   2.913  -7.320  1.00  0.00     0.029 A 
ATOM     42  C   UNL     1      -7.304   3.970  -8.306  1.00  0.00     0.049 A 
ATOM     43  H   UNL     1      -7.154   6.027  -7.996  1.00  0.00     0.167 HD
ATOM     44  C   UNL     1      -7.402  10.315  -7.140  1.00  0.00     0.034 A 
ATOM     45  C   UNL     1      -7.609   3.763  -9.602  1.00  0.00     0.034 A 
ATOM     46  C   UNL     1      -7.652  10.199  -8.552  1.00  0.00     0.049 A 
ATOM     47  C   UNL     1      -7.845   4.948 -10.493  1.00  0.00     0.074 A 
ATOM     48  C   UNL     1      -7.831  11.210  -9.480  1.00  0.00     0.029 A 
ATOM     49  N   UNL     1      -7.747   9.001  -9.245  1.00  0.00    -0.354 N 
ATOM     50  N   UNL     1      -7.767   6.224 -10.203  1.00  0.00    -0.248 NA
ATOM     51  C   UNL     1      -8.211   4.668 -11.888  1.00  0.00     0.031 C 
ATOM     52  C   UNL     1      -8.046  10.624 -10.732  1.00  0.00     0.029 A 
ATOM     53  C   UNL     1      -7.988   9.247 -10.586  1.00  0.00     0.049 A 
ATOM     54  H   UNL     1      -7.657   8.107  -8.842  1.00  0.00     0.167 HD
ATOM     55  C   UNL     1      -8.064   6.899 -11.380  1.00  0.00     0.074 A 
ATOM     56  C   UNL     1      -8.291   5.891 -12.395  1.00  0.00     0.031 C 
ATOM     57  C   UNL     1      -8.166   8.234 -11.594  1.00  0.00     0.034 A 
BRANCH  44  58
ATOM     58  C   UNL     1      -7.354  11.697  -6.542  1.00  0.00     0.023 A 
ATOM     59  C   UNL     1      -6.112  12.271  -6.203  1.00  0.00     0.012 A 
ATOM     60  C   UNL     1      -8.532  12.453  -6.377  1.00  0.00     0.148 A 
ATOM     61  C   UNL     1      -6.047  13.563  -5.681  1.00  0.00     0.002 A 
ATOM     62  C   UNL     1      -8.455  13.755  -5.894  1.00  0.00     0.091 A 
ATOM     63  F   UNL     1      -9.706  11.884  -6.685  1.00  0.00    -0.205 F 
ATOM     64  C   UNL     1      -7.215  14.308  -5.537  1.00  0.00     0.022 A 
BRANCH  62  65
ATOM     65  S   UNL     1      -9.897  14.817  -5.745  1.00  0.00     0.127 S 
ATOM     66  O   UNL     1     -10.110  14.824  -4.299  1.00  0.00    -0.237 OA
ATOM     67  O   UNL     1      -9.409  16.083  -6.294  1.00  0.00    -0.237 OA
ATOM     68  O   UNL     1     -10.944  14.182  -6.532  1.00  0.00    -0.744 OA
ENDBRANCH  62  65
ENDBRANCH  44  58
BRANCH  45  69
ATOM     69  C   UNL     1      -7.715   2.369 -10.121  1.00  0.00     0.023 A 
ATOM     70  C   UNL     1      -6.745   1.887 -11.019  1.00  0.00     0.012 A 
ATOM     71  C   UNL     1      -8.733   1.499  -9.679  1.00  0.00     0.148 A 
ATOM     72  C   UNL     1      -6.791   0.569 -11.475  1.00  0.00     0.002 A 
ATOM     73  C   UNL     1      -8.736   0.171 -10.086  1.00  0.00     0.091 A 
ATOM     74  F   UNL     1      -9.666   1.982  -8.846  1.00  0.00    -0.205 F 
ATOM     75  C   UNL     1      -7.775  -0.293 -10.996  1.00  0.00     0.022 A 
BRANCH  73  76
ATOM     76  S   UNL     1      -9.871  -1.037  -9.390  1.00  0.00     0.127 S 
ATOM     77  O   UNL     1     -10.833  -1.203 -10.476  1.00  0.00    -0.237 OA
ATOM     78  O   UNL     1      -8.994  -2.186  -9.162  1.00  0.00    -0.237 OA
ATOM     79  O   UNL     1     -10.383  -0.428  -8.170  1.00  0.00    -0.744 OA
ENDBRANCH  73  76
ENDBRANCH  45  69
BRANCH  57  80
ATOM     80  C   UNL     1      -8.528   8.687 -12.981  1.00  0.00     0.023 A 
ATOM     81  C   UNL     1      -9.860   8.563 -13.423  1.00  0.00     0.012 A 
ATOM     82  C   UNL     1      -7.574   9.303 -13.814  1.00  0.00     0.148 A 
ATOM     83  C   UNL     1     -10.233   9.026 -14.684  1.00  0.00     0.002 A 
ATOM     84  C   UNL     1      -7.962   9.800 -15.052  1.00  0.00     0.091 A 
ATOM     85  F   UNL     1      -6.309   9.393 -13.379  1.00  0.00    -0.205 F 
ATOM     86  C   UNL     1      -9.289   9.654 -15.492  1.00  0.00     0.022 A 
BRANCH  84  87
ATOM     87  S   UNL     1      -6.838  10.697 -16.128  1.00  0.00     0.127 S 
ATOM     88  O   UNL     1      -6.636   9.739 -17.214  1.00  0.00    -0.237 OA
ATOM     89  O   UNL     1      -7.628  11.874 -16.490  1.00  0.00    -0.237 OA
ATOM     90  O   UNL     1      -5.657  10.986 -15.324  1.00  0.00    -0.744 OA
ENDBRANCH  84  87
ENDBRANCH  57  80
ENDBRANCH  31  32
ENDBRANCH  24  26
ENDBRANCH  23  24
ENDBRANCH   1  23
TORSDOF 16
