REMARK SMILES Nc1c(Nc2ccc(I)cc2)ncnc1Nc1ccc(C(=O)OCCOC(=O)c2ccc(-c3c4nc(c(-c5cccc(S(=O)(=O)[O-])c5F)c5ccc([nH]5)c(-c5cccc(S(=O)(=O)[O-])c5F)c5nc(c(-c6cccc(S(=O)(=O)[O-])c6F)c6ccc3[nH]6)C=C5)C=C4)cc2)cc1
REMARK SMILES IDX 24 1 23 2 21 3 22 4 20 5 17 6 18 7 93 8 19 9 92 10 16 11
REMARK SMILES IDX 15 13 2 14 3 15 12 16 14 17 13 18 1 19 4 22 5 24 6 25 11 26
REMARK SMILES IDX 7 27 10 28 8 29 9 30 25 31 26 32 27 33 28 34 29 35 30 36
REMARK SMILES IDX 91 37 31 38 90 39 32 40 33 41 34 42 84 43 35 44 89 45 83 46
REMARK SMILES IDX 85 47 36 48 88 49 82 50 81 51 37 53 69 54 49 55 68 56 50 57
REMARK SMILES IDX 53 58 67 59 86 60 51 61 52 62 66 64 87 65 54 66 38 67 39 68
REMARK SMILES IDX 47 69 40 70 42 71 48 72 41 73 43 74 44 75 45 76 46 77 70 78
REMARK SMILES IDX 71 79 79 80 72 81 74 82 80 83 73 84 75 85 76 86 77 87 78 88
REMARK SMILES IDX 55 89 56 90 64 91 57 92 59 93 65 94 58 95 60 96 61 97 62 98
REMARK SMILES IDX 63 99
REMARK H PARENT 16 12 1 20 1 21 4 23 85 52 53 63
REMARK Flexibility Score: inf
ROOT
ATOM      1  C   UNL     1       3.498   0.741  10.260  1.00  0.00     0.275 C 
ENDROOT
BRANCH   1   2
ATOM      2  O   UNL     1       3.390   0.418   8.858  1.00  0.00    -0.458 OA
BRANCH   2   3
ATOM      3  C   UNL     1       2.313   0.948   8.225  1.00  0.00     0.338 C 
ATOM      4  O   UNL     1       1.426   1.607   8.736  1.00  0.00    -0.246 OA
BRANCH   3   5
ATOM      5  C   UNL     1       2.377   0.698   6.766  1.00  0.00     0.060 A 
ATOM      6  C   UNL     1       2.215   0.262   3.999  1.00  0.00     0.040 A 
ATOM      7  C   UNL     1       1.891   1.509   4.530  1.00  0.00     0.027 A 
ATOM      8  C   UNL     1       2.651  -0.756   4.862  1.00  0.00     0.027 A 
ATOM      9  C   UNL     1       1.930   1.704   5.904  1.00  0.00     0.018 A 
ATOM     10  C   UNL     1       2.761  -0.535   6.240  1.00  0.00     0.018 A 
BRANCH   6  11
ATOM     11  N   UNL     1       1.844  -0.004   2.664  1.00  0.00    -0.338 N 
ATOM     12  H   UNL     1       2.393   0.364   1.935  1.00  0.00     0.168 HD
BRANCH  11  13
ATOM     13  C   UNL     1       0.704  -0.788   2.340  1.00  0.00     0.159 A 
ATOM     14  C   UNL     1       0.310  -0.894   1.003  1.00  0.00     0.118 A 
ATOM     15  C   UNL     1      -0.811  -1.706   0.780  1.00  0.00     0.159 A 
ATOM     16  N   UNL     1      -1.520  -2.265   1.779  1.00  0.00    -0.217 NA
ATOM     17  N   UNL     1       0.029  -1.386   3.342  1.00  0.00    -0.217 NA
ATOM     18  C   UNL     1      -1.064  -2.072   3.014  1.00  0.00     0.226 A 
BRANCH  14  19
ATOM     19  N   UNL     1       1.021  -0.309  -0.058  1.00  0.00    -0.393 N 
ATOM     20  H   UNL     1       0.701  -0.414  -0.983  1.00  0.00     0.156 HD
ATOM     21  H   UNL     1       1.839   0.207   0.124  1.00  0.00     0.156 HD
ENDBRANCH  14  19
BRANCH  15  22
ATOM     22  N   UNL     1      -1.176  -1.976  -0.564  1.00  0.00    -0.338 N 
ATOM     23  H   UNL     1      -0.652  -1.532  -1.269  1.00  0.00     0.168 HD
BRANCH  22  24
ATOM     24  C   UNL     1      -2.218  -2.821  -0.981  1.00  0.00     0.040 A 
ATOM     25  C   UNL     1      -1.931  -3.890  -1.839  1.00  0.00     0.027 A 
ATOM     26  C   UNL     1      -3.513  -2.709  -0.458  1.00  0.00     0.027 A 
ATOM     27  C   UNL     1      -2.910  -4.835  -2.154  1.00  0.00     0.017 A 
ATOM     28  C   UNL     1      -4.501  -3.643  -0.780  1.00  0.00     0.017 A 
ATOM     29  C   UNL     1      -4.191  -4.709  -1.620  1.00  0.00     0.013 A 
ATOM     30  I   UNL     1      -5.635  -6.139  -2.053  1.00  0.00    -0.044 I 
ENDBRANCH  22  24
ENDBRANCH  15  22
ENDBRANCH  11  13
ENDBRANCH   6  11
ENDBRANCH   3   5
ENDBRANCH   2   3
ENDBRANCH   1   2
BRANCH   1  31
ATOM     31  C   UNL     1       4.513   1.859  10.501  1.00  0.00     0.275 C 
BRANCH  31  32
ATOM     32  O   UNL     1       4.031   3.119  10.002  1.00  0.00    -0.458 OA
BRANCH  32  33
ATOM     33  C   UNL     1       4.549   3.491   8.811  1.00  0.00     0.338 C 
ATOM     34  O   UNL     1       5.376   2.890   8.143  1.00  0.00    -0.246 OA
BRANCH  33  35
ATOM     35  C   UNL     1       3.921   4.730   8.334  1.00  0.00     0.060 A 
ATOM     36  C   UNL     1       2.689   4.630   7.700  1.00  0.00     0.016 A 
ATOM     37  C   UNL     1       4.628   5.927   8.300  1.00  0.00     0.016 A 
ATOM     38  C   UNL     1       2.238   5.657   6.881  1.00  0.00     0.010 A 
ATOM     39  C   UNL     1       4.092   7.017   7.604  1.00  0.00     0.010 A 
ATOM     40  C   UNL     1       2.917   6.881   6.840  1.00  0.00    -0.014 A 
BRANCH  40  41
ATOM     41  C   UNL     1       2.401   8.016   6.022  1.00  0.00     0.031 A 
ATOM     42  C   UNL     1       3.296   8.706   5.022  1.00  0.00     0.074 A 
ATOM     43  C   UNL     1       1.136   8.454   6.197  1.00  0.00     0.049 A 
ATOM     44  N   UNL     1       3.114   9.839   4.394  1.00  0.00    -0.248 NA
ATOM     45  C   UNL     1       4.570   8.043   4.695  1.00  0.00     0.031 C 
ATOM     46  C   UNL     1       0.147   7.856   7.098  1.00  0.00     0.029 A 
ATOM     47  N   UNL     1       0.466   9.518   5.641  1.00  0.00    -0.354 N 
ATOM     48  C   UNL     1       4.274  10.061   3.657  1.00  0.00     0.074 A 
ATOM     49  C   UNL     1       5.152   8.940   3.910  1.00  0.00     0.031 C 
ATOM     50  C   UNL     1      -1.000   8.542   7.020  1.00  0.00     0.029 A 
ATOM     51  C   UNL     1      -0.799   9.694   6.154  1.00  0.00     0.049 A 
ATOM     52  H   UNL     1       0.853  10.096   4.944  1.00  0.00     0.167 HD
ATOM     53  C   UNL     1       4.572  11.103   2.843  1.00  0.00     0.034 A 
ATOM     54  C   UNL     1      -1.683  10.698   6.003  1.00  0.00     0.034 A 
ATOM     55  C   UNL     1       3.665  12.186   2.563  1.00  0.00     0.049 A 
ATOM     56  C   UNL     1      -1.315  11.858   5.126  1.00  0.00     0.074 A 
ATOM     57  C   UNL     1       3.864  13.282   1.740  1.00  0.00     0.029 A 
ATOM     58  N   UNL     1       2.386  12.309   3.086  1.00  0.00    -0.354 N 
ATOM     59  N   UNL     1      -0.219  12.050   4.432  1.00  0.00    -0.248 NA
ATOM     60  C   UNL     1      -2.308  12.932   4.995  1.00  0.00     0.031 C 
ATOM     61  C   UNL     1       2.717  14.080   1.789  1.00  0.00     0.029 A 
ATOM     62  C   UNL     1       1.785  13.460   2.606  1.00  0.00     0.049 A 
ATOM     63  H   UNL     1       1.968  11.671   3.708  1.00  0.00     0.167 HD
ATOM     64  C   UNL     1      -0.404  13.248   3.754  1.00  0.00     0.074 A 
ATOM     65  C   UNL     1      -1.726  13.726   4.106  1.00  0.00     0.031 C 
ATOM     66  C   UNL     1       0.449  13.897   2.924  1.00  0.00     0.034 A 
BRANCH  53  67
ATOM     67  C   UNL     1       5.925  11.125   2.172  1.00  0.00     0.023 A 
ATOM     68  C   UNL     1       6.207  10.224   1.125  1.00  0.00     0.012 A 
ATOM     69  C   UNL     1       6.881  12.106   2.510  1.00  0.00     0.148 A 
ATOM     70  C   UNL     1       7.424  10.282   0.444  1.00  0.00     0.002 A 
ATOM     71  C   UNL     1       8.070  12.190   1.793  1.00  0.00     0.091 A 
ATOM     72  F   UNL     1       6.606  12.945   3.518  1.00  0.00    -0.205 F 
ATOM     73  C   UNL     1       8.348  11.271   0.768  1.00  0.00     0.022 A 
BRANCH  71  74
ATOM     74  S   UNL     1       9.286  13.485   2.069  1.00  0.00     0.127 S 
ATOM     75  O   UNL     1      10.415  12.722   2.599  1.00  0.00    -0.237 OA
ATOM     76  O   UNL     1       9.485  14.010   0.718  1.00  0.00    -0.237 OA
ATOM     77  O   UNL     1       8.675  14.420   3.003  1.00  0.00    -0.744 OA
ENDBRANCH  71  74
ENDBRANCH  53  67
BRANCH  54  78
ATOM     78  C   UNL     1      -3.006  10.627   6.690  1.00  0.00     0.023 A 
ATOM     79  C   UNL     1      -4.171  10.450   5.920  1.00  0.00     0.012 A 
ATOM     80  C   UNL     1      -3.109  10.653   8.096  1.00  0.00     0.148 A 
ATOM     81  C   UNL     1      -5.416  10.315   6.536  1.00  0.00     0.002 A 
ATOM     82  C   UNL     1      -4.342  10.450   8.704  1.00  0.00     0.091 A 
ATOM     83  F   UNL     1      -1.990  10.836   8.812  1.00  0.00    -0.205 F 
ATOM     84  C   UNL     1      -5.500  10.298   7.926  1.00  0.00     0.022 A 
BRANCH  82  85
ATOM     85  S   UNL     1      -4.524  10.257  10.482  1.00  0.00     0.127 S 
ATOM     86  O   UNL     1      -5.283  11.454  10.836  1.00  0.00    -0.237 OA
ATOM     87  O   UNL     1      -5.273   9.003  10.571  1.00  0.00    -0.237 OA
ATOM     88  O   UNL     1      -3.170  10.189  11.013  1.00  0.00    -0.744 OA
ENDBRANCH  82  85
ENDBRANCH  54  78
BRANCH  66  89
ATOM     89  C   UNL     1      -0.033  15.176   2.289  1.00  0.00     0.023 A 
ATOM     90  C   UNL     1      -0.184  16.339   3.069  1.00  0.00     0.012 A 
ATOM     91  C   UNL     1      -0.259  15.240   0.900  1.00  0.00     0.148 A 
ATOM     92  C   UNL     1      -0.587  17.538   2.482  1.00  0.00     0.002 A 
ATOM     93  C   UNL     1      -0.603  16.451   0.312  1.00  0.00     0.091 A 
ATOM     94  F   UNL     1      -0.130  14.117   0.178  1.00  0.00    -0.205 F 
ATOM     95  C   UNL     1      -0.782  17.597   1.103  1.00  0.00     0.022 A 
BRANCH  93  96
ATOM     96  S   UNL     1      -0.764  16.646  -1.466  1.00  0.00     0.127 S 
ATOM     97  O   UNL     1      -2.209  16.807  -1.617  1.00  0.00    -0.237 OA
ATOM     98  O   UNL     1       0.015  17.859  -1.715  1.00  0.00    -0.237 OA
ATOM     99  O   UNL     1      -0.205  15.437  -2.056  1.00  0.00    -0.744 OA
ENDBRANCH  93  96
ENDBRANCH  66  89
ENDBRANCH  40  41
ENDBRANCH  33  35
ENDBRANCH  32  33
ENDBRANCH  31  32
ENDBRANCH   1  31
TORSDOF 19
