REMARK SMILES CC[NH2+][C@]1(C(=O)OCCOC(=O)c2ccc(-c3c4nc(c(-c5cccc(S(=O)(=O)[O-])c5F)c5ccc([nH]5)c(-c5cccc(S(=O)(=O)[O-])c5F)c5nc(c(-c6cccc(S(=O)(=O)[O-])c6F)c6ccc3[nH]6)C=C5)C=C4)cc2)CCC[C@@H](n2cccn2)C1
REMARK SMILES IDX 9 1 8 2 7 3 5 4 6 5 4 6 76 7 85 8 77 9 79 10 78 11 3 12 2 15
REMARK SMILES IDX 1 16 80 17 81 18 84 19 82 20 83 21 10 22 11 23 12 24 13 25
REMARK SMILES IDX 14 26 75 27 15 28 74 29 16 30 17 31 18 32 68 33 19 34 73 35
REMARK SMILES IDX 67 36 69 37 20 38 72 39 66 40 65 41 21 43 53 44 33 45 52 46
REMARK SMILES IDX 34 47 37 48 51 49 70 50 35 51 36 52 50 54 71 55 38 56 22 57
REMARK SMILES IDX 23 58 31 59 24 60 26 61 32 62 25 63 27 64 28 65 29 66 30 67
REMARK SMILES IDX 54 68 55 69 63 70 56 71 58 72 64 73 57 74 59 75 60 76 61 77
REMARK SMILES IDX 62 78 39 79 40 80 48 81 41 82 43 83 49 84 42 85 44 86 45 87
REMARK SMILES IDX 46 88 47 89
REMARK H PARENT 3 13 3 14 69 42 37 53
REMARK Flexibility Score: inf
ROOT
ATOM      1  C   UNL     1       2.865   0.495   0.325  1.00  0.00     0.275 C 
ENDROOT
BRANCH   1   2
ATOM      2  C   UNL     1       2.322   0.939   1.677  1.00  0.00     0.274 C 
BRANCH   2   3
ATOM      3  O   UNL     1       1.956  -0.215   2.465  1.00  0.00    -0.457 OA
BRANCH   3   4
ATOM      4  C   UNL     1       0.679  -0.236   2.938  1.00  0.00     0.368 C 
ATOM      5  O   UNL     1      -0.151   0.644   2.729  1.00  0.00    -0.245 OA
BRANCH   4   6
ATOM      6  C   UNL     1       0.420  -1.444   3.892  1.00  0.00     0.196 C 
ATOM      7  C   UNL     1       0.821  -2.805   3.290  1.00  0.00     0.081 C 
ATOM      8  C   UNL     1       1.294  -1.192   5.141  1.00  0.00     0.108 C 
ATOM      9  C   UNL     1       0.684  -3.950   4.294  1.00  0.00     0.009 C 
ATOM     10  C   UNL     1       1.218  -2.321   6.184  1.00  0.00     0.114 C 
ATOM     11  C   UNL     1       1.514  -3.691   5.543  1.00  0.00     0.028 C 
BRANCH   6  12
ATOM     12  N   UNL     1      -1.012  -1.408   4.345  1.00  0.00    -0.332 N 
ATOM     13  H   UNL     1      -1.107  -2.026   5.151  1.00  0.00     0.347 HD
ATOM     14  H   UNL     1      -1.223  -0.433   4.561  1.00  0.00     0.347 HD
BRANCH  12  15
ATOM     15  C   UNL     1      -1.986  -1.829   3.326  1.00  0.00     0.257 C 
ATOM     16  C   UNL     1      -3.403  -1.571   3.821  1.00  0.00     0.071 C 
ENDBRANCH  12  15
ENDBRANCH   6  12
BRANCH  10  17
ATOM     17  N   UNL     1       2.103  -2.018   7.315  1.00  0.00    -0.269 N 
ATOM     18  C   UNL     1       2.035  -0.913   8.124  1.00  0.00     0.109 A 
ATOM     19  N   UNL     1       3.127  -2.834   7.641  1.00  0.00    -0.181 NA
ATOM     20  C   UNL     1       3.087  -1.012   9.003  1.00  0.00     0.042 A 
ATOM     21  C   UNL     1       3.717  -2.221   8.667  1.00  0.00     0.135 A 
ENDBRANCH  10  17
ENDBRANCH   4   6
ENDBRANCH   3   4
ENDBRANCH   2   3
ENDBRANCH   1   2
BRANCH   1  22
ATOM     22  O   UNL     1       1.850  -0.270  -0.343  1.00  0.00    -0.458 OA
BRANCH  22  23
ATOM     23  C   UNL     1       2.138  -1.573  -0.535  1.00  0.00     0.338 C 
ATOM     24  O   UNL     1       3.202  -2.145  -0.322  1.00  0.00    -0.246 OA
BRANCH  23  25
ATOM     25  C   UNL     1       0.932  -2.268  -0.993  1.00  0.00     0.060 A 
ATOM     26  C   UNL     1      -0.184  -2.317  -0.156  1.00  0.00     0.016 A 
ATOM     27  C   UNL     1       0.947  -2.971  -2.193  1.00  0.00     0.016 A 
ATOM     28  C   UNL     1      -1.250  -3.156  -0.464  1.00  0.00     0.010 A 
ATOM     29  C   UNL     1      -0.170  -3.725  -2.552  1.00  0.00     0.010 A 
ATOM     30  C   UNL     1      -1.264  -3.859  -1.675  1.00  0.00    -0.014 A 
BRANCH  30  31
ATOM     31  C   UNL     1      -2.394  -4.753  -2.044  1.00  0.00     0.031 A 
ATOM     32  C   UNL     1      -2.121  -6.194  -2.376  1.00  0.00     0.074 A 
ATOM     33  C   UNL     1      -3.645  -4.266  -2.157  1.00  0.00     0.049 A 
ATOM     34  N   UNL     1      -2.874  -7.054  -3.009  1.00  0.00    -0.248 NA
ATOM     35  C   UNL     1      -0.814  -6.731  -1.960  1.00  0.00     0.031 C 
ATOM     36  C   UNL     1      -4.057  -2.900  -1.835  1.00  0.00     0.029 A 
ATOM     37  N   UNL     1      -4.795  -4.860  -2.619  1.00  0.00    -0.354 N 
ATOM     38  C   UNL     1      -2.100  -8.199  -3.152  1.00  0.00     0.074 A 
ATOM     39  C   UNL     1      -0.829  -7.936  -2.511  1.00  0.00     0.031 C 
ATOM     40  C   UNL     1      -5.358  -2.753  -2.122  1.00  0.00     0.029 A 
ATOM     41  C   UNL     1      -5.849  -3.984  -2.732  1.00  0.00     0.049 A 
ATOM     42  H   UNL     1      -4.858  -5.816  -2.846  1.00  0.00     0.167 HD
ATOM     43  C   UNL     1      -2.420  -9.362  -3.767  1.00  0.00     0.034 A 
ATOM     44  C   UNL     1      -7.053  -4.124  -3.322  1.00  0.00     0.034 A 
ATOM     45  C   UNL     1      -3.713  -9.644  -4.328  1.00  0.00     0.049 A 
ATOM     46  C   UNL     1      -7.396  -5.429  -3.982  1.00  0.00     0.074 A 
ATOM     47  C   UNL     1      -4.157 -10.810  -4.927  1.00  0.00     0.029 A 
ATOM     48  N   UNL     1      -4.776  -8.754  -4.347  1.00  0.00    -0.354 N 
ATOM     49  N   UNL     1      -6.670  -6.516  -4.081  1.00  0.00    -0.248 NA
ATOM     50  C   UNL     1      -8.723  -5.531  -4.605  1.00  0.00     0.031 C 
ATOM     51  C   UNL     1      -5.489 -10.622  -5.311  1.00  0.00     0.029 A 
ATOM     52  C   UNL     1      -5.876  -9.343  -4.946  1.00  0.00     0.049 A 
ATOM     53  H   UNL     1      -4.752  -7.838  -3.988  1.00  0.00     0.167 HD
ATOM     54  C   UNL     1      -7.456  -7.438  -4.762  1.00  0.00     0.074 A 
ATOM     55  C   UNL     1      -8.724  -6.788  -5.030  1.00  0.00     0.031 C 
ATOM     56  C   UNL     1      -7.149  -8.700  -5.150  1.00  0.00     0.034 A 
BRANCH  43  57
ATOM     57  C   UNL     1      -1.357 -10.423  -3.853  1.00  0.00     0.023 A 
ATOM     58  C   UNL     1      -1.042 -11.195  -2.718  1.00  0.00     0.012 A 
ATOM     59  C   UNL     1      -0.698 -10.681  -5.071  1.00  0.00     0.148 A 
ATOM     60  C   UNL     1      -0.067 -12.190  -2.788  1.00  0.00     0.002 A 
ATOM     61  C   UNL     1       0.247 -11.698  -5.141  1.00  0.00     0.091 A 
ATOM     62  F   UNL     1      -0.987  -9.915  -6.133  1.00  0.00    -0.205 F 
ATOM     63  C   UNL     1       0.570 -12.448  -4.000  1.00  0.00     0.022 A 
BRANCH  61  64
ATOM     64  S   UNL     1       1.060 -12.133  -6.684  1.00  0.00     0.127 S 
ATOM     65  O   UNL     1       2.323 -11.407  -6.570  1.00  0.00    -0.237 OA
ATOM     66  O   UNL     1       1.182 -13.588  -6.580  1.00  0.00    -0.237 OA
ATOM     67  O   UNL     1       0.160 -11.682  -7.737  1.00  0.00    -0.744 OA
ENDBRANCH  61  64
ENDBRANCH  43  57
BRANCH  44  68
ATOM     68  C   UNL     1      -8.008  -2.981  -3.309  1.00  0.00     0.023 A 
ATOM     69  C   UNL     1      -9.155  -3.048  -2.498  1.00  0.00     0.012 A 
ATOM     70  C   UNL     1      -7.740  -1.796  -4.025  1.00  0.00     0.148 A 
ATOM     71  C   UNL     1     -10.023  -1.959  -2.404  1.00  0.00     0.002 A 
ATOM     72  C   UNL     1      -8.573  -0.694  -3.878  1.00  0.00     0.091 A 
ATOM     73  F   UNL     1      -6.653  -1.759  -4.810  1.00  0.00    -0.205 F 
ATOM     74  C   UNL     1      -9.723  -0.778  -3.079  1.00  0.00     0.022 A 
BRANCH  72  75
ATOM     75  S   UNL     1      -8.173   0.910  -4.582  1.00  0.00     0.127 S 
ATOM     76  O   UNL     1      -9.127   1.002  -5.683  1.00  0.00    -0.237 OA
ATOM     77  O   UNL     1      -8.439   1.811  -3.459  1.00  0.00    -0.237 OA
ATOM     78  O   UNL     1      -6.768   0.830  -4.961  1.00  0.00    -0.744 OA
ENDBRANCH  72  75
ENDBRANCH  44  68
BRANCH  56  79
ATOM     79  C   UNL     1      -8.204  -9.480  -5.884  1.00  0.00     0.023 A 
ATOM     80  C   UNL     1      -8.440  -9.213  -7.247  1.00  0.00     0.012 A 
ATOM     81  C   UNL     1      -8.893 -10.533  -5.253  1.00  0.00     0.148 A 
ATOM     82  C   UNL     1      -9.358  -9.975  -7.967  1.00  0.00     0.002 A 
ATOM     83  C   UNL     1      -9.778 -11.313  -5.987  1.00  0.00     0.091 A 
ATOM     84  F   UNL     1      -8.670 -10.753  -3.948  1.00  0.00    -0.205 F 
ATOM     85  C   UNL     1     -10.017 -11.032  -7.342  1.00  0.00     0.022 A 
BRANCH  83  86
ATOM     86  S   UNL     1     -10.601 -12.745  -5.279  1.00  0.00     0.127 S 
ATOM     87  O   UNL     1     -11.947 -12.228  -5.040  1.00  0.00    -0.237 OA
ATOM     88  O   UNL     1     -10.509 -13.727  -6.360  1.00  0.00    -0.237 OA
ATOM     89  O   UNL     1      -9.839 -13.091  -4.087  1.00  0.00    -0.744 OA
ENDBRANCH  83  86
ENDBRANCH  56  79
ENDBRANCH  30  31
ENDBRANCH  23  25
ENDBRANCH  22  23
ENDBRANCH   1  22
TORSDOF 17
