REMARK SMILES Cc1c(NC(=O)[C@@H]2CC=CC[C@@H]2C(=O)OCCOC(=O)c2ccc(-c3c4nc(c(-c5cccc(S(=O)(=O)[O-])c5F)c5ccc([nH]5)c(-c5cccc(S(=O)(=O)[O-])c5F)c5nc(c(-c6cccc(S(=O)(=O)[O-])c6F)c6ccc3[nH]6)C=C5)C=C4)cc2)cccc1C(=O)N1CCOCC1
REMARK SMILES IDX 16 1 15 2 13 3 14 4 12 5 7 6 8 7 9 8 11 9 10 10 5 11 4 12
REMARK SMILES IDX 6 14 3 15 1 16 2 17 87 18 84 19 86 20 85 21 88 22 89 23
REMARK SMILES IDX 90 24 91 25 95 26 92 27 94 28 93 29 17 30 18 31 19 32 20 33
REMARK SMILES IDX 21 34 22 35 83 36 23 37 82 38 24 39 25 40 26 41 76 42 27 43
REMARK SMILES IDX 81 44 75 45 77 46 28 47 80 48 74 49 73 50 29 52 61 53 41 54
REMARK SMILES IDX 60 55 42 56 45 57 59 58 78 59 43 60 44 61 58 63 79 64 46 65
REMARK SMILES IDX 30 66 31 67 39 68 32 69 34 70 40 71 33 72 35 73 36 74 37 75
REMARK SMILES IDX 38 76 62 77 63 78 71 79 64 80 66 81 72 82 65 83 67 84 68 85
REMARK SMILES IDX 69 86 70 87 47 88 48 89 56 90 49 91 51 92 57 93 50 94 52 95
REMARK SMILES IDX 53 96 54 97 55 98
REMARK H PARENT 4 13 77 51 45 62
REMARK Flexibility Score: inf
ROOT
ATOM      1  C   UNL     1      -5.378  -2.652   1.562  1.00  0.00     0.274 C 
ENDROOT
BRANCH   1   2
ATOM      2  O   UNL     1      -3.988  -2.385   1.411  1.00  0.00    -0.462 OA
BRANCH   2   3
ATOM      3  C   UNL     1      -3.280  -3.327   0.740  1.00  0.00     0.310 C 
ATOM      4  O   UNL     1      -3.752  -4.387   0.341  1.00  0.00    -0.252 OA
BRANCH   3   5
ATOM      5  C   UNL     1      -1.807  -2.973   0.616  1.00  0.00     0.116 C 
ATOM      6  C   UNL     1      -1.042  -3.733   1.700  1.00  0.00     0.097 C 
ATOM      7  C   UNL     1      -1.500  -3.310   3.098  1.00  0.00     0.041 C 
ATOM      8  C   UNL     1      -1.478  -1.807   3.225  1.00  0.00    -0.030 C 
ATOM      9  C   UNL     1      -1.488  -1.476   0.736  1.00  0.00     0.043 C 
ATOM     10  C   UNL     1      -1.436  -0.987   2.162  1.00  0.00    -0.030 C 
BRANCH   6  11
ATOM     11  C   UNL     1      -1.182  -5.215   1.444  1.00  0.00     0.228 C 
ATOM     12  N   UNL     1      -0.289  -5.750   0.531  1.00  0.00    -0.326 N 
ATOM     13  H   UNL     1      -0.535  -5.914  -0.408  1.00  0.00     0.169 HD
ATOM     14  O   UNL     1      -2.067  -5.897   1.954  1.00  0.00    -0.274 OA
BRANCH  12  15
ATOM     15  C   UNL     1       1.005  -6.047   1.037  1.00  0.00     0.044 A 
ATOM     16  C   UNL     1       0.185  -8.393   1.422  1.00  0.00     0.047 C 
ATOM     17  C   UNL     1       1.261  -7.342   1.543  1.00  0.00    -0.015 A 
ATOM     18  C   UNL     1       2.493  -7.567   2.195  1.00  0.00     0.045 A 
ATOM     19  C   UNL     1       1.941  -5.016   1.167  1.00  0.00     0.026 A 
ATOM     20  C   UNL     1       3.380  -6.487   2.396  1.00  0.00     0.014 A 
ATOM     21  C   UNL     1       3.110  -5.222   1.883  1.00  0.00     0.003 A 
BRANCH  18  22
ATOM     22  C   UNL     1       2.847  -8.819   2.928  1.00  0.00     0.254 C 
ATOM     23  O   UNL     1       3.428  -8.696   4.010  1.00  0.00    -0.269 OA
ATOM     24  N   UNL     1       2.449 -10.060   2.464  1.00  0.00    -0.334 N 
ATOM     25  C   UNL     1       2.481 -10.526   1.062  1.00  0.00     0.148 C 
ATOM     26  C   UNL     1       2.221 -11.109   3.453  1.00  0.00     0.148 C 
ATOM     27  C   UNL     1       1.370 -11.552   0.762  1.00  0.00     0.181 C 
ATOM     28  C   UNL     1       1.028 -11.968   3.047  1.00  0.00     0.181 C 
ATOM     29  O   UNL     1       1.314 -12.569   1.782  1.00  0.00    -0.378 OA
ENDBRANCH  18  22
ENDBRANCH  12  15
ENDBRANCH   6  11
ENDBRANCH   3   5
ENDBRANCH   2   3
ENDBRANCH   1   2
BRANCH   1  30
ATOM     30  C   UNL     1      -6.185  -1.360   1.405  1.00  0.00     0.275 C 
BRANCH  30  31
ATOM     31  O   UNL     1      -5.598  -0.238   0.667  1.00  0.00    -0.458 OA
BRANCH  31  32
ATOM     32  C   UNL     1      -4.900  -0.171  -0.501  1.00  0.00     0.338 C 
ATOM     33  O   UNL     1      -4.337   0.863  -0.839  1.00  0.00    -0.246 OA
BRANCH  32  34
ATOM     34  C   UNL     1      -4.820  -1.375  -1.345  1.00  0.00     0.060 A 
ATOM     35  C   UNL     1      -3.641  -1.721  -2.036  1.00  0.00     0.016 A 
ATOM     36  C   UNL     1      -5.920  -2.213  -1.381  1.00  0.00     0.016 A 
ATOM     37  C   UNL     1      -3.533  -2.970  -2.660  1.00  0.00     0.010 A 
ATOM     38  C   UNL     1      -5.750  -3.503  -1.814  1.00  0.00     0.010 A 
ATOM     39  C   UNL     1      -4.586  -3.873  -2.514  1.00  0.00    -0.014 A 
BRANCH  39  40
ATOM     40  C   UNL     1      -4.803  -5.041  -3.363  1.00  0.00     0.031 A 
ATOM     41  C   UNL     1      -4.085  -6.322  -3.256  1.00  0.00     0.074 A 
ATOM     42  C   UNL     1      -5.847  -4.840  -4.204  1.00  0.00     0.049 A 
ATOM     43  N   UNL     1      -3.974  -7.133  -4.252  1.00  0.00    -0.248 NA
ATOM     44  C   UNL     1      -3.428  -6.816  -2.048  1.00  0.00     0.031 C 
ATOM     45  C   UNL     1      -6.639  -5.753  -4.998  1.00  0.00     0.029 A 
ATOM     46  N   UNL     1      -6.335  -3.574  -4.575  1.00  0.00    -0.354 N 
ATOM     47  C   UNL     1      -3.524  -8.343  -3.760  1.00  0.00     0.074 A 
ATOM     48  C   UNL     1      -3.093  -8.066  -2.410  1.00  0.00     0.031 C 
ATOM     49  C   UNL     1      -7.279  -5.036  -5.947  1.00  0.00     0.029 A 
ATOM     50  C   UNL     1      -6.762  -3.669  -5.887  1.00  0.00     0.049 A 
ATOM     51  H   UNL     1      -6.366  -2.771  -4.006  1.00  0.00     0.167 HD
ATOM     52  C   UNL     1      -3.758  -9.473  -4.488  1.00  0.00     0.034 A 
ATOM     53  C   UNL     1      -6.117  -2.972  -6.871  1.00  0.00     0.034 A 
ATOM     54  C   UNL     1      -4.461  -9.133  -5.728  1.00  0.00     0.049 A 
ATOM     55  C   UNL     1      -5.547  -3.929  -7.892  1.00  0.00     0.074 A 
ATOM     56  C   UNL     1      -5.813  -9.086  -6.026  1.00  0.00     0.029 A 
ATOM     57  N   UNL     1      -3.805  -8.443  -6.738  1.00  0.00    -0.354 N 
ATOM     58  N   UNL     1      -5.309  -5.186  -7.652  1.00  0.00    -0.248 NA
ATOM     59  C   UNL     1      -5.186  -3.536  -9.246  1.00  0.00     0.031 C 
ATOM     60  C   UNL     1      -5.977  -8.287  -7.182  1.00  0.00     0.029 A 
ATOM     61  C   UNL     1      -4.726  -7.866  -7.599  1.00  0.00     0.049 A 
ATOM     62  H   UNL     1      -2.828  -8.373  -6.829  1.00  0.00     0.167 HD
ATOM     63  C   UNL     1      -4.730  -5.763  -8.745  1.00  0.00     0.074 A 
ATOM     64  C   UNL     1      -4.712  -4.696  -9.733  1.00  0.00     0.031 C 
ATOM     65  C   UNL     1      -4.285  -7.056  -8.726  1.00  0.00     0.034 A 
BRANCH  52  66
ATOM     66  C   UNL     1      -3.715 -10.897  -3.958  1.00  0.00     0.023 A 
ATOM     67  C   UNL     1      -4.674 -11.801  -4.482  1.00  0.00     0.012 A 
ATOM     68  C   UNL     1      -2.837 -11.421  -2.986  1.00  0.00     0.148 A 
ATOM     69  C   UNL     1      -4.819 -13.114  -4.032  1.00  0.00     0.002 A 
ATOM     70  C   UNL     1      -2.992 -12.740  -2.522  1.00  0.00     0.091 A 
ATOM     71  F   UNL     1      -1.832 -10.658  -2.535  1.00  0.00    -0.205 F 
ATOM     72  C   UNL     1      -3.986 -13.582  -3.036  1.00  0.00     0.022 A 
BRANCH  70  73
ATOM     73  S   UNL     1      -1.985 -13.452  -1.213  1.00  0.00     0.127 S 
ATOM     74  O   UNL     1      -2.997 -13.900  -0.254  1.00  0.00    -0.237 OA
ATOM     75  O   UNL     1      -1.283 -14.531  -1.905  1.00  0.00    -0.237 OA
ATOM     76  O   UNL     1      -1.147 -12.359  -0.739  1.00  0.00    -0.744 OA
ENDBRANCH  70  73
ENDBRANCH  52  66
BRANCH  53  77
ATOM     77  C   UNL     1      -5.406  -1.711  -6.424  1.00  0.00     0.023 A 
ATOM     78  C   UNL     1      -6.132  -0.753  -5.665  1.00  0.00     0.012 A 
ATOM     79  C   UNL     1      -4.004  -1.596  -6.448  1.00  0.00     0.148 A 
ATOM     80  C   UNL     1      -5.481   0.198  -4.869  1.00  0.00     0.002 A 
ATOM     81  C   UNL     1      -3.361  -0.646  -5.648  1.00  0.00     0.091 A 
ATOM     82  F   UNL     1      -3.293  -2.437  -7.210  1.00  0.00    -0.205 F 
ATOM     83  C   UNL     1      -4.092   0.238  -4.845  1.00  0.00     0.022 A 
BRANCH  81  84
ATOM     84  S   UNL     1      -1.567  -0.659  -5.503  1.00  0.00     0.127 S 
ATOM     85  O   UNL     1      -1.330   0.034  -4.236  1.00  0.00    -0.237 OA
ATOM     86  O   UNL     1      -1.230  -2.076  -5.463  1.00  0.00    -0.237 OA
ATOM     87  O   UNL     1      -1.163   0.082  -6.694  1.00  0.00    -0.744 OA
ENDBRANCH  81  84
ENDBRANCH  53  77
BRANCH  65  88
ATOM     88  C   UNL     1      -3.419  -7.690  -9.787  1.00  0.00     0.023 A 
ATOM     89  C   UNL     1      -2.621  -6.923 -10.655  1.00  0.00     0.012 A 
ATOM     90  C   UNL     1      -3.258  -9.098  -9.846  1.00  0.00     0.148 A 
ATOM     91  C   UNL     1      -1.775  -7.515 -11.595  1.00  0.00     0.002 A 
ATOM     92  C   UNL     1      -2.317  -9.675 -10.690  1.00  0.00     0.091 A 
ATOM     93  F   UNL     1      -4.031  -9.898  -9.097  1.00  0.00    -0.205 F 
ATOM     94  C   UNL     1      -1.603  -8.892 -11.597  1.00  0.00     0.022 A 
BRANCH  92  95
ATOM     95  S   UNL     1      -1.868 -11.406 -10.511  1.00  0.00     0.127 S 
ATOM     96  O   UNL     1      -2.767 -12.054 -11.462  1.00  0.00    -0.237 OA
ATOM     97  O   UNL     1      -0.458 -11.408 -10.906  1.00  0.00    -0.237 OA
ATOM     98  O   UNL     1      -2.089 -11.706  -9.102  1.00  0.00    -0.744 OA
ENDBRANCH  92  95
ENDBRANCH  65  88
ENDBRANCH  39  40
ENDBRANCH  32  34
ENDBRANCH  31  32
ENDBRANCH  30  31
ENDBRANCH   1  30
TORSDOF 17
