REMARK SMILES C[C@H](c1ccccc1)N1C(=O)c2ccc(C(=O)OCCOC(=O)c3ccc(-c4c5nc(c(-c6cccc(S(=O)(=O)[O-])c6F)c6ccc([nH]6)c(-c6cccc(S(=O)(=O)[O-])c6F)c6nc(c(-c7cccc(S(=O)(=O)[O-])c7F)c7ccc4[nH]7)C=C6)C=C5)cc3)cc2C1=O
REMARK SMILES IDX 20 1 19 2 18 3 16 4 17 5 15 6 9 7 10 8 89 9 11 10 12 11
REMARK SMILES IDX 88 12 90 13 13 14 87 15 14 16 2 17 1 18 3 19 4 20 8 21 5 22
REMARK SMILES IDX 7 23 6 24 21 25 22 26 23 27 24 28 25 29 86 30 26 31 85 32
REMARK SMILES IDX 27 33 28 34 29 35 79 36 30 37 84 38 78 39 80 40 31 41 83 42
REMARK SMILES IDX 77 43 76 44 32 46 64 47 44 48 63 49 45 50 48 51 62 52 81 53
REMARK SMILES IDX 46 54 47 55 61 57 82 58 49 59 33 60 34 61 42 62 35 63 37 64
REMARK SMILES IDX 43 65 36 66 38 67 39 68 40 69 41 70 65 71 66 72 74 73 67 74
REMARK SMILES IDX 69 75 75 76 68 77 70 78 71 79 72 80 73 81 50 82 51 83 59 84
REMARK SMILES IDX 52 85 54 86 60 87 53 88 55 89 56 90 57 91 58 92
REMARK H PARENT 80 45 48 56
REMARK Flexibility Score: inf
ROOT
ATOM      1  C   UNL     1     -10.002   0.248   2.654  1.00  0.00     0.275 C 
ENDROOT
BRANCH   1   2
ATOM      2  C   UNL     1      -9.237  -0.932   2.067  1.00  0.00     0.275 C 
BRANCH   2   3
ATOM      3  O   UNL     1      -7.824  -0.706   2.230  1.00  0.00    -0.458 OA
BRANCH   3   4
ATOM      4  C   UNL     1      -7.083  -0.776   1.103  1.00  0.00     0.338 C 
ATOM      5  O   UNL     1      -7.444  -1.101  -0.013  1.00  0.00    -0.246 OA
BRANCH   4   6
ATOM      6  C   UNL     1      -5.690  -0.412   1.416  1.00  0.00     0.060 A 
ATOM      7  N   UNL     1      -1.115  -0.615   1.341  1.00  0.00    -0.267 N 
ATOM      8  C   UNL     1      -1.651   0.532   1.859  1.00  0.00     0.262 C 
ATOM      9  C   UNL     1      -2.092  -1.524   1.027  1.00  0.00     0.262 C 
ATOM     10  O   UNL     1      -1.113   1.505   2.350  1.00  0.00    -0.269 OA
ATOM     11  C   UNL     1      -3.096   0.390   1.782  1.00  0.00     0.053 A 
ATOM     12  C   UNL     1      -3.374  -0.868   1.279  1.00  0.00     0.054 A 
ATOM     13  O   UNL     1      -1.986  -2.675   0.647  1.00  0.00    -0.269 OA
ATOM     14  C   UNL     1      -4.085   1.287   2.125  1.00  0.00     0.015 A 
ATOM     15  C   UNL     1      -4.668  -1.303   1.071  1.00  0.00     0.030 A 
ATOM     16  C   UNL     1      -5.401   0.862   1.956  1.00  0.00     0.016 A 
BRANCH   7  17
ATOM     17  C   UNL     1       0.310  -0.866   1.140  1.00  0.00     0.121 C 
ATOM     18  C   UNL     1       1.129  -0.669   2.417  1.00  0.00     0.037 C 
BRANCH  17  19
ATOM     19  C   UNL     1       0.857  -0.079  -0.047  1.00  0.00    -0.025 A 
ATOM     20  C   UNL     1       0.973   1.321  -0.023  1.00  0.00     0.006 A 
ATOM     21  C   UNL     1       1.233  -0.753  -1.221  1.00  0.00     0.006 A 
ATOM     22  C   UNL     1       1.420   2.027  -1.141  1.00  0.00     0.000 A 
ATOM     23  C   UNL     1       1.701  -0.046  -2.333  1.00  0.00     0.000 A 
ATOM     24  C   UNL     1       1.785   1.343  -2.296  1.00  0.00     0.000 A 
ENDBRANCH  17  19
ENDBRANCH   7  17
ENDBRANCH   4   6
ENDBRANCH   3   4
ENDBRANCH   2   3
ENDBRANCH   1   2
BRANCH   1  25
ATOM     25  O   UNL     1      -9.689   1.447   1.920  1.00  0.00    -0.458 OA
BRANCH  25  26
ATOM     26  C   UNL     1      -8.853   2.298   2.554  1.00  0.00     0.338 C 
ATOM     27  O   UNL     1      -8.357   2.167   3.662  1.00  0.00    -0.246 OA
BRANCH  26  28
ATOM     28  C   UNL     1      -8.553   3.456   1.702  1.00  0.00     0.060 A 
ATOM     29  C   UNL     1      -7.642   3.332   0.651  1.00  0.00     0.016 A 
ATOM     30  C   UNL     1      -9.037   4.706   2.081  1.00  0.00     0.016 A 
ATOM     31  C   UNL     1      -7.136   4.481   0.042  1.00  0.00     0.010 A 
ATOM     32  C   UNL     1      -8.602   5.843   1.400  1.00  0.00     0.010 A 
ATOM     33  C   UNL     1      -7.614   5.751   0.403  1.00  0.00    -0.014 A 
BRANCH  33  34
ATOM     34  C   UNL     1      -7.097   6.995  -0.236  1.00  0.00     0.031 A 
ATOM     35  C   UNL     1      -6.520   8.100   0.612  1.00  0.00     0.074 A 
ATOM     36  C   UNL     1      -7.215   7.172  -1.567  1.00  0.00     0.049 A 
ATOM     37  N   UNL     1      -6.258   9.341   0.290  1.00  0.00    -0.248 NA
ATOM     38  C   UNL     1      -6.221   7.772   2.016  1.00  0.00     0.031 C 
ATOM     39  C   UNL     1      -7.752   6.188  -2.507  1.00  0.00     0.029 A 
ATOM     40  N   UNL     1      -6.924   8.260  -2.354  1.00  0.00    -0.354 N 
ATOM     41  C   UNL     1      -5.848   9.962   1.465  1.00  0.00     0.074 A 
ATOM     42  C   UNL     1      -5.877   8.956   2.505  1.00  0.00     0.031 C 
ATOM     43  C   UNL     1      -7.756   6.713  -3.740  1.00  0.00     0.029 A 
ATOM     44  C   UNL     1      -7.301   8.097  -3.667  1.00  0.00     0.049 A 
ATOM     45  H   UNL     1      -6.489   9.074  -2.013  1.00  0.00     0.167 HD
ATOM     46  C   UNL     1      -5.477  11.252   1.658  1.00  0.00     0.034 A 
ATOM     47  C   UNL     1      -7.332   8.971  -4.692  1.00  0.00     0.034 A 
ATOM     48  C   UNL     1      -5.370  12.226   0.604  1.00  0.00     0.049 A 
ATOM     49  C   UNL     1      -6.881  10.385  -4.465  1.00  0.00     0.074 A 
ATOM     50  C   UNL     1      -4.944  13.540   0.687  1.00  0.00     0.029 A 
ATOM     51  N   UNL     1      -5.678  11.989  -0.727  1.00  0.00    -0.354 N 
ATOM     52  N   UNL     1      -6.448  10.941  -3.360  1.00  0.00    -0.248 NA
ATOM     53  C   UNL     1      -6.907  11.287  -5.624  1.00  0.00     0.031 C 
ATOM     54  C   UNL     1      -5.000  14.100  -0.594  1.00  0.00     0.029 A 
ATOM     55  C   UNL     1      -5.448  13.130  -1.477  1.00  0.00     0.049 A 
ATOM     56  H   UNL     1      -6.011  11.135  -1.086  1.00  0.00     0.167 HD
ATOM     57  C   UNL     1      -6.127  12.251  -3.694  1.00  0.00     0.074 A 
ATOM     58  C   UNL     1      -6.398  12.399  -5.110  1.00  0.00     0.031 C 
ATOM     59  C   UNL     1      -5.666  13.245  -2.896  1.00  0.00     0.034 A 
BRANCH  46  60
ATOM     60  C   UNL     1      -5.132  11.683   3.061  1.00  0.00     0.023 A 
ATOM     61  C   UNL     1      -3.912  11.279   3.639  1.00  0.00     0.012 A 
ATOM     62  C   UNL     1      -5.991  12.532   3.787  1.00  0.00     0.148 A 
ATOM     63  C   UNL     1      -3.569  11.685   4.929  1.00  0.00     0.002 A 
ATOM     64  C   UNL     1      -5.623  12.965   5.057  1.00  0.00     0.091 A 
ATOM     65  F   UNL     1      -7.160  12.888   3.234  1.00  0.00    -0.205 F 
ATOM     66  C   UNL     1      -4.418  12.536   5.633  1.00  0.00     0.022 A 
BRANCH  64  67
ATOM     67  S   UNL     1      -6.627  14.123   5.997  1.00  0.00     0.127 S 
ATOM     68  O   UNL     1      -7.341  13.227   6.905  1.00  0.00    -0.237 OA
ATOM     69  O   UNL     1      -5.617  14.964   6.643  1.00  0.00    -0.237 OA
ATOM     70  O   UNL     1      -7.447  14.818   5.015  1.00  0.00    -0.744 OA
ENDBRANCH  64  67
ENDBRANCH  46  60
BRANCH  47  71
ATOM     71  C   UNL     1      -7.796   8.504  -6.029  1.00  0.00     0.023 A 
ATOM     72  C   UNL     1      -6.859   8.334  -7.064  1.00  0.00     0.012 A 
ATOM     73  C   UNL     1      -9.139   8.133  -6.247  1.00  0.00     0.148 A 
ATOM     74  C   UNL     1      -7.250   7.808  -8.296  1.00  0.00     0.002 A 
ATOM     75  C   UNL     1      -9.508   7.552  -7.454  1.00  0.00     0.091 A 
ATOM     76  F   UNL     1     -10.019   8.320  -5.253  1.00  0.00    -0.205 F 
ATOM     77  C   UNL     1      -8.568   7.401  -8.485  1.00  0.00     0.022 A 
BRANCH  75  78
ATOM     78  S   UNL     1     -11.142   6.854  -7.723  1.00  0.00     0.127 S 
ATOM     79  O   UNL     1     -11.726   7.811  -8.658  1.00  0.00    -0.237 OA
ATOM     80  O   UNL     1     -10.822   5.547  -8.298  1.00  0.00    -0.237 OA
ATOM     81  O   UNL     1     -11.763   6.792  -6.407  1.00  0.00    -0.744 OA
ENDBRANCH  75  78
ENDBRANCH  47  71
BRANCH  59  82
ATOM     82  C   UNL     1      -5.387  14.579  -3.533  1.00  0.00     0.023 A 
ATOM     83  C   UNL     1      -6.457  15.435  -3.856  1.00  0.00     0.012 A 
ATOM     84  C   UNL     1      -4.063  15.018  -3.730  1.00  0.00     0.148 A 
ATOM     85  C   UNL     1      -6.215  16.703  -4.383  1.00  0.00     0.002 A 
ATOM     86  C   UNL     1      -3.828  16.298  -4.218  1.00  0.00     0.091 A 
ATOM     87  F   UNL     1      -3.060  14.177  -3.436  1.00  0.00    -0.205 F 
ATOM     88  C   UNL     1      -4.902  17.138  -4.552  1.00  0.00     0.022 A 
BRANCH  86  89
ATOM     89  S   UNL     1      -2.171  16.971  -4.385  1.00  0.00     0.127 S 
ATOM     90  O   UNL     1      -1.975  16.924  -5.833  1.00  0.00    -0.237 OA
ATOM     91  O   UNL     1      -2.324  18.319  -3.834  1.00  0.00    -0.237 OA
ATOM     92  O   UNL     1      -1.304  16.098  -3.606  1.00  0.00    -0.744 OA
ENDBRANCH  86  89
ENDBRANCH  59  82
ENDBRANCH  33  34
ENDBRANCH  26  28
ENDBRANCH  25  26
ENDBRANCH   1  25
TORSDOF 16
