REMARK SMILES C[C@@H]1[C@@H](C(=O)OCCOC(=O)c2ccc(-c3c4nc(c(-c5cccc(S(=O)(=O)[O-])c5F)c5ccc([nH]5)c(-c5cccc(S(=O)(=O)[O-])c5F)c5nc(c(-c6cccc(S(=O)(=O)[O-])c6F)c6ccc3[nH]6)C=C5)C=C4)cc2)CCN1C(=O)CN1C(=O)CNC1=O
REMARK SMILES IDX 7 1 6 2 4 3 5 4 3 5 1 6 2 7 77 8 75 9 76 10 78 11 79 12
REMARK SMILES IDX 80 13 81 14 82 15 86 16 83 17 84 18 85 19 87 20 8 22 9 23
REMARK SMILES IDX 10 24 11 25 12 26 13 27 74 28 14 29 73 30 15 31 16 32 17 33
REMARK SMILES IDX 67 34 18 35 72 36 66 37 68 38 19 39 71 40 65 41 64 42 20 44
REMARK SMILES IDX 52 45 32 46 51 47 33 48 36 49 50 50 69 51 34 52 35 53 49 55
REMARK SMILES IDX 70 56 37 57 21 58 22 59 30 60 23 61 25 62 31 63 24 64 26 65
REMARK SMILES IDX 27 66 28 67 29 68 53 69 54 70 62 71 55 72 57 73 63 74 56 75
REMARK SMILES IDX 58 76 59 77 60 78 61 79 38 80 39 81 47 82 40 83 42 84 48 85
REMARK SMILES IDX 41 86 43 87 44 88 45 89 46 90
REMARK H PARENT 85 21 68 43 36 54
REMARK Flexibility Score: inf
ROOT
ATOM      1  C   UNL     1      -1.893   2.298  -3.350  1.00  0.00     0.274 C 
ENDROOT
BRANCH   1   2
ATOM      2  O   UNL     1      -1.588   2.049  -1.961  1.00  0.00    -0.462 OA
BRANCH   2   3
ATOM      3  C   UNL     1      -0.598   1.138  -1.757  1.00  0.00     0.311 C 
ATOM      4  O   UNL     1       0.076   0.657  -2.659  1.00  0.00    -0.252 OA
BRANCH   3   5
ATOM      5  C   UNL     1      -0.299   0.922  -0.285  1.00  0.00     0.123 C 
ATOM      6  C   UNL     1       1.529  -0.220   1.060  1.00  0.00     0.032 C 
ATOM      7  C   UNL     1       0.565  -0.340  -0.122  1.00  0.00     0.096 C 
ATOM      8  N   UNL     1      -0.409  -1.413   0.105  1.00  0.00    -0.338 N 
ATOM      9  C   UNL     1      -1.521   0.625   0.585  1.00  0.00     0.039 C 
ATOM     10  C   UNL     1      -1.699  -0.885   0.498  1.00  0.00     0.121 C 
BRANCH   8  11
ATOM     11  C   UNL     1      -0.320  -2.748  -0.266  1.00  0.00     0.243 C 
ATOM     12  O   UNL     1      -1.228  -3.547  -0.021  1.00  0.00    -0.273 OA
BRANCH  11  13
ATOM     13  C   UNL     1       0.885  -3.165  -1.100  1.00  0.00     0.230 C 
BRANCH  13  14
ATOM     14  N   UNL     1       0.667  -3.130  -2.535  1.00  0.00    -0.253 N 
ATOM     15  C   UNL     1       1.504  -3.773  -3.404  1.00  0.00     0.250 C 
ATOM     16  C   UNL     1      -0.184  -2.322  -3.226  1.00  0.00     0.325 C 
ATOM     17  O   UNL     1       2.341  -4.604  -3.085  1.00  0.00    -0.272 OA
ATOM     18  C   UNL     1       1.262  -3.246  -4.810  1.00  0.00     0.218 C 
ATOM     19  N   UNL     1       0.175  -2.344  -4.554  1.00  0.00    -0.329 N 
ATOM     20  O   UNL     1      -1.147  -1.703  -2.805  1.00  0.00    -0.248 OA
ATOM     21  H   UNL     1      -0.263  -1.802  -5.250  1.00  0.00     0.165 HD
ENDBRANCH  13  14
ENDBRANCH  11  13
ENDBRANCH   8  11
ENDBRANCH   3   5
ENDBRANCH   2   3
ENDBRANCH   1   2
BRANCH   1  22
ATOM     22  C   UNL     1      -1.014   3.386  -3.988  1.00  0.00     0.275 C 
BRANCH  22  23
ATOM     23  O   UNL     1       0.333   2.935  -4.238  1.00  0.00    -0.458 OA
BRANCH  23  24
ATOM     24  C   UNL     1       1.226   3.194  -3.249  1.00  0.00     0.338 C 
ATOM     25  O   UNL     1       1.026   3.892  -2.265  1.00  0.00    -0.246 OA
BRANCH  24  26
ATOM     26  C   UNL     1       2.433   2.342  -3.393  1.00  0.00     0.060 A 
ATOM     27  C   UNL     1       2.983   1.808  -2.217  1.00  0.00     0.016 A 
ATOM     28  C   UNL     1       3.009   2.036  -4.629  1.00  0.00     0.016 A 
ATOM     29  C   UNL     1       4.093   0.967  -2.268  1.00  0.00     0.010 A 
ATOM     30  C   UNL     1       4.145   1.216  -4.678  1.00  0.00     0.010 A 
ATOM     31  C   UNL     1       4.697   0.686  -3.498  1.00  0.00    -0.014 A 
BRANCH  31  32
ATOM     32  C   UNL     1       5.976  -0.063  -3.533  1.00  0.00     0.031 A 
ATOM     33  C   UNL     1       7.266   0.691  -3.423  1.00  0.00     0.074 A 
ATOM     34  C   UNL     1       5.998  -1.402  -3.655  1.00  0.00     0.049 A 
ATOM     35  N   UNL     1       8.488   0.230  -3.417  1.00  0.00    -0.248 NA
ATOM     36  C   UNL     1       7.165   2.152  -3.279  1.00  0.00     0.031 C 
ATOM     37  C   UNL     1       4.817  -2.253  -3.720  1.00  0.00     0.029 A 
ATOM     38  N   UNL     1       7.050  -2.276  -3.773  1.00  0.00    -0.354 N 
ATOM     39  C   UNL     1       9.305   1.338  -3.251  1.00  0.00     0.074 A 
ATOM     40  C   UNL     1       8.441   2.499  -3.188  1.00  0.00     0.031 C 
ATOM     41  C   UNL     1       5.207  -3.522  -3.933  1.00  0.00     0.029 A 
ATOM     42  C   UNL     1       6.661  -3.572  -4.016  1.00  0.00     0.049 A 
ATOM     43  H   UNL     1       7.992  -2.001  -3.692  1.00  0.00     0.167 HD
ATOM     44  C   UNL     1      10.652   1.383  -3.135  1.00  0.00     0.034 A 
ATOM     45  C   UNL     1       7.387  -4.675  -4.290  1.00  0.00     0.034 A 
ATOM     46  C   UNL     1      11.515   0.238  -3.226  1.00  0.00     0.049 A 
ATOM     47  C   UNL     1       8.888  -4.579  -4.274  1.00  0.00     0.074 A 
ATOM     48  C   UNL     1      12.893   0.190  -3.116  1.00  0.00     0.029 A 
ATOM     49  N   UNL     1      11.088  -1.057  -3.475  1.00  0.00    -0.354 N 
ATOM     50  N   UNL     1       9.642  -3.546  -3.991  1.00  0.00    -0.248 NA
ATOM     51  C   UNL     1       9.639  -5.807  -4.574  1.00  0.00     0.031 C 
ATOM     52  C   UNL     1      13.302  -1.133  -3.318  1.00  0.00     0.029 A 
ATOM     53  C   UNL     1      12.176  -1.911  -3.538  1.00  0.00     0.049 A 
ATOM     54  H   UNL     1      10.149  -1.330  -3.589  1.00  0.00     0.167 HD
ATOM     55  C   UNL     1      10.952  -4.009  -4.026  1.00  0.00     0.074 A 
ATOM     56  C   UNL     1      10.889  -5.418  -4.356  1.00  0.00     0.031 C 
ATOM     57  C   UNL     1      12.101  -3.324  -3.809  1.00  0.00     0.034 A 
BRANCH  44  58
ATOM     58  C   UNL     1      11.265   2.725  -2.861  1.00  0.00     0.023 A 
ATOM     59  C   UNL     1      11.180   3.263  -1.560  1.00  0.00     0.012 A 
ATOM     60  C   UNL     1      11.937   3.440  -3.868  1.00  0.00     0.148 A 
ATOM     61  C   UNL     1      11.738   4.507  -1.272  1.00  0.00     0.002 A 
ATOM     62  C   UNL     1      12.517   4.665  -3.565  1.00  0.00     0.091 A 
ATOM     63  F   UNL     1      11.974   2.921  -5.104  1.00  0.00    -0.205 F 
ATOM     64  C   UNL     1      12.413   5.203  -2.271  1.00  0.00     0.022 A 
BRANCH  62  65
ATOM     65  S   UNL     1      13.449   5.614  -4.771  1.00  0.00     0.127 S 
ATOM     66  O   UNL     1      12.527   6.713  -5.055  1.00  0.00    -0.237 OA
ATOM     67  O   UNL     1      14.639   5.996  -4.011  1.00  0.00    -0.237 OA
ATOM     68  O   UNL     1      13.704   4.708  -5.882  1.00  0.00    -0.744 OA
ENDBRANCH  62  65
ENDBRANCH  44  58
BRANCH  45  69
ATOM     69  C   UNL     1       6.710  -5.974  -4.565  1.00  0.00     0.023 A 
ATOM     70  C   UNL     1       6.805  -7.022  -3.630  1.00  0.00     0.012 A 
ATOM     71  C   UNL     1       5.974  -6.178  -5.748  1.00  0.00     0.148 A 
ATOM     72  C   UNL     1       6.207  -8.258  -3.882  1.00  0.00     0.002 A 
ATOM     73  C   UNL     1       5.343  -7.397  -5.974  1.00  0.00     0.091 A 
ATOM     74  F   UNL     1       5.913  -5.179  -6.641  1.00  0.00    -0.205 F 
ATOM     75  C   UNL     1       5.470  -8.444  -5.049  1.00  0.00     0.022 A 
BRANCH  73  76
ATOM     76  S   UNL     1       4.295  -7.668  -7.408  1.00  0.00     0.127 S 
ATOM     77  O   UNL     1       5.193  -8.390  -8.305  1.00  0.00    -0.237 OA
ATOM     78  O   UNL     1       3.203  -8.471  -6.855  1.00  0.00    -0.237 OA
ATOM     79  O   UNL     1       3.888  -6.337  -7.843  1.00  0.00    -0.744 OA
ENDBRANCH  73  76
ENDBRANCH  45  69
BRANCH  57  80
ATOM     80  C   UNL     1      13.395  -4.091  -3.879  1.00  0.00     0.023 A 
ATOM     81  C   UNL     1      13.906  -4.488  -5.129  1.00  0.00     0.012 A 
ATOM     82  C   UNL     1      14.141  -4.348  -2.712  1.00  0.00     0.148 A 
ATOM     83  C   UNL     1      15.129  -5.153  -5.215  1.00  0.00     0.002 A 
ATOM     84  C   UNL     1      15.380  -4.970  -2.809  1.00  0.00     0.091 A 
ATOM     85  F   UNL     1      13.626  -3.982  -1.529  1.00  0.00    -0.205 F 
ATOM     86  C   UNL     1      15.871  -5.382  -4.059  1.00  0.00     0.022 A 
BRANCH  84  87
ATOM     87  S   UNL     1      16.443  -5.218  -1.382  1.00  0.00     0.127 S 
ATOM     88  O   UNL     1      16.288  -6.652  -1.140  1.00  0.00    -0.237 OA
ATOM     89  O   UNL     1      17.755  -4.825  -1.898  1.00  0.00    -0.237 OA
ATOM     90  O   UNL     1      15.921  -4.345  -0.340  1.00  0.00    -0.744 OA
ENDBRANCH  84  87
ENDBRANCH  57  80
ENDBRANCH  31  32
ENDBRANCH  24  26
ENDBRANCH  23  24
ENDBRANCH  22  23
ENDBRANCH   1  22
TORSDOF 17
