REMARK SMILES Cc1nc(-c2ccccc2)sc1C(=O)N[C@@H](CC1=c2ccccc2=NC1)C(=O)OCCOC(=O)c1ccc(-c2c3nc(c(-c4cccc(S(=O)(=O)[O-])c4F)c4ccc([nH]4)c(-c4cccc(S(=O)(=O)[O-])c4F)c4nc(c(-c5cccc(S(=O)(=O)[O-])c5F)c5ccc2[nH]5)C=C4)C=C3)cc1
REMARK SMILES IDX 30 1 29 2 27 3 28 4 16 5 15 6 13 7 14 8 12 10 1 11 2 12 3 13
REMARK SMILES IDX 4 14 11 15 5 16 6 17 10 18 7 19 9 20 8 21 17 22 18 23 19 24
REMARK SMILES IDX 26 25 20 26 24 27 25 28 21 29 23 30 22 31 31 32 32 33 33 34
REMARK SMILES IDX 34 35 35 36 36 37 97 38 37 39 96 40 38 41 39 42 40 43 90 44
REMARK SMILES IDX 41 45 95 46 89 47 91 48 42 49 94 50 88 51 87 52 43 54 75 55
REMARK SMILES IDX 55 56 74 57 56 58 59 59 73 60 92 61 57 62 58 63 72 65 93 66
REMARK SMILES IDX 60 67 44 68 45 69 53 70 46 71 48 72 54 73 47 74 49 75 50 76
REMARK SMILES IDX 51 77 52 78 76 79 77 80 85 81 78 82 80 83 86 84 79 85 81 86
REMARK SMILES IDX 82 87 83 88 84 89 61 90 62 91 70 92 63 93 65 94 71 95 64 96
REMARK SMILES IDX 66 97 67 98 68 99 69 100
REMARK H PARENT 15 9 91 53 59 64
REMARK Flexibility Score: inf
ROOT
ATOM      1  C   UNL     1      -4.694  -3.962   3.040  1.00  0.00     0.274 C 
ENDROOT
BRANCH   1   2
ATOM      2  O   UNL     1      -3.827  -3.615   1.942  1.00  0.00    -0.461 OA
BRANCH   2   3
ATOM      3  C   UNL     1      -4.333  -2.723   1.050  1.00  0.00     0.329 C 
ATOM      4  O   UNL     1      -5.484  -2.300   1.054  1.00  0.00    -0.250 OA
BRANCH   3   5
ATOM      5  C   UNL     1      -3.326  -2.328  -0.038  1.00  0.00     0.196 C 
BRANCH   5   6
ATOM      6  N   UNL     1      -1.946  -2.745   0.182  1.00  0.00    -0.338 N 
ATOM      7  C   UNL     1      -0.728  -2.173  -0.086  1.00  0.00     0.264 C 
ATOM      8  O   UNL     1       0.216  -2.965   0.029  1.00  0.00    -0.268 OA
ATOM      9  H   UNL     1      -1.873  -3.626   0.617  1.00  0.00     0.164 HD
BRANCH   7  10
ATOM     10  C   UNL     1      -0.524  -0.768  -0.432  1.00  0.00     0.115 A 
ATOM     11  C   UNL     1      -2.509   0.295  -1.808  1.00  0.00     0.068 C 
ATOM     12  C   UNL     1      -1.215   0.254  -1.082  1.00  0.00     0.062 A 
ATOM     13  N   UNL     1      -0.564   1.478  -1.106  1.00  0.00    -0.241 NA
ATOM     14  C   UNL     1       0.641   1.401  -0.602  1.00  0.00     0.124 A 
ATOM     15  S   UNL     1       1.048  -0.128   0.027  1.00  0.00    -0.108 S 
BRANCH  14  16
ATOM     16  C   UNL     1       1.562   2.534  -0.549  1.00  0.00     0.010 A 
ATOM     17  C   UNL     1       1.184   3.684   0.155  1.00  0.00     0.011 A 
ATOM     18  C   UNL     1       2.760   2.547  -1.276  1.00  0.00     0.011 A 
ATOM     19  C   UNL     1       1.996   4.817   0.159  1.00  0.00     0.001 A 
ATOM     20  C   UNL     1       3.564   3.692  -1.289  1.00  0.00     0.001 A 
ATOM     21  C   UNL     1       3.184   4.823  -0.567  1.00  0.00     0.000 A 
ENDBRANCH  14  16
ENDBRANCH   7  10
ENDBRANCH   5   6
BRANCH   5  22
ATOM     22  C   UNL     1      -3.833  -2.836  -1.405  1.00  0.00     0.070 C 
BRANCH  22  23
ATOM     23  C   UNL     1      -4.027  -4.320  -1.477  1.00  0.00    -0.037 C 
ATOM     24  C   UNL     1      -3.108  -5.258  -1.688  1.00  0.00     0.001 A 
ATOM     25  C   UNL     1      -5.380  -4.938  -1.284  1.00  0.00     0.174 C 
ATOM     26  C   UNL     1      -1.704  -5.267  -1.942  1.00  0.00     0.010 A 
ATOM     27  C   UNL     1      -3.874  -6.502  -1.519  1.00  0.00     0.065 A 
ATOM     28  N   UNL     1      -5.151  -6.403  -1.305  1.00  0.00    -0.280 NA
ATOM     29  C   UNL     1      -1.064  -6.446  -1.981  1.00  0.00     0.001 A 
ATOM     30  C   UNL     1      -3.100  -7.760  -1.574  1.00  0.00     0.028 A 
ATOM     31  C   UNL     1      -1.773  -7.699  -1.779  1.00  0.00     0.002 A 
ENDBRANCH  22  23
ENDBRANCH   5  22
ENDBRANCH   3   5
ENDBRANCH   2   3
ENDBRANCH   1   2
BRANCH   1  32
ATOM     32  C   UNL     1      -4.082  -3.522   4.370  1.00  0.00     0.275 C 
BRANCH  32  33
ATOM     33  O   UNL     1      -3.757  -2.119   4.353  1.00  0.00    -0.458 OA
BRANCH  33  34
ATOM     34  C   UNL     1      -2.469  -1.848   4.038  1.00  0.00     0.338 C 
ATOM     35  O   UNL     1      -1.585  -2.652   3.782  1.00  0.00    -0.246 OA
BRANCH  34  36
ATOM     36  C   UNL     1      -2.271  -0.398   3.937  1.00  0.00     0.060 A 
ATOM     37  C   UNL     1      -2.358   0.193   2.678  1.00  0.00     0.016 A 
ATOM     38  C   UNL     1      -1.856   0.346   5.039  1.00  0.00     0.016 A 
ATOM     39  C   UNL     1      -1.974   1.518   2.499  1.00  0.00     0.010 A 
ATOM     40  C   UNL     1      -1.520   1.695   4.868  1.00  0.00     0.010 A 
ATOM     41  C   UNL     1      -1.545   2.286   3.591  1.00  0.00    -0.014 A 
BRANCH  41  42
ATOM     42  C   UNL     1      -1.064   3.677   3.373  1.00  0.00     0.031 A 
ATOM     43  C   UNL     1       0.375   4.033   3.639  1.00  0.00     0.074 A 
ATOM     44  C   UNL     1      -1.893   4.613   2.869  1.00  0.00     0.049 A 
ATOM     45  N   UNL     1       0.959   5.202   3.572  1.00  0.00    -0.248 NA
ATOM     46  C   UNL     1       1.277   2.931   4.012  1.00  0.00     0.031 C 
ATOM     47  C   UNL     1      -3.297   4.398   2.520  1.00  0.00     0.029 A 
ATOM     48  N   UNL     1      -1.672   5.933   2.558  1.00  0.00    -0.354 N 
ATOM     49  C   UNL     1       2.286   4.983   3.922  1.00  0.00     0.074 A 
ATOM     50  C   UNL     1       2.417   3.574   4.222  1.00  0.00     0.031 C 
ATOM     51  C   UNL     1      -3.808   5.537   2.030  1.00  0.00     0.029 A 
ATOM     52  C   UNL     1      -2.790   6.582   2.089  1.00  0.00     0.049 A 
ATOM     53  H   UNL     1      -0.796   6.372   2.660  1.00  0.00     0.167 HD
ATOM     54  C   UNL     1       3.315   5.863   3.949  1.00  0.00     0.034 A 
ATOM     55  C   UNL     1      -2.990   7.878   1.774  1.00  0.00     0.034 A 
ATOM     56  C   UNL     1       3.218   7.247   3.572  1.00  0.00     0.049 A 
ATOM     57  C   UNL     1      -1.852   8.852   1.900  1.00  0.00     0.074 A 
ATOM     58  C   UNL     1       4.223   8.198   3.534  1.00  0.00     0.029 A 
ATOM     59  N   UNL     1       2.056   7.878   3.159  1.00  0.00    -0.354 N 
ATOM     60  N   UNL     1      -0.599   8.621   2.205  1.00  0.00    -0.248 NA
ATOM     61  C   UNL     1      -2.155  10.266   1.633  1.00  0.00     0.031 C 
ATOM     62  C   UNL     1       3.668   9.405   3.095  1.00  0.00     0.029 A 
ATOM     63  C   UNL     1       2.318   9.204   2.860  1.00  0.00     0.049 A 
ATOM     64  H   UNL     1       1.174   7.446   3.088  1.00  0.00     0.167 HD
ATOM     65  C   UNL     1       0.039   9.855   2.152  1.00  0.00     0.074 A 
ATOM     66  C   UNL     1      -0.959  10.827   1.757  1.00  0.00     0.031 C 
ATOM     67  C   UNL     1       1.331  10.159   2.429  1.00  0.00     0.034 A 
BRANCH  54  68
ATOM     68  C   UNL     1       4.665   5.339   4.350  1.00  0.00     0.023 A 
ATOM     69  C   UNL     1       5.435   4.627   3.410  1.00  0.00     0.012 A 
ATOM     70  C   UNL     1       5.195   5.601   5.628  1.00  0.00     0.148 A 
ATOM     71  C   UNL     1       6.709   4.168   3.741  1.00  0.00     0.002 A 
ATOM     72  C   UNL     1       6.478   5.167   5.941  1.00  0.00     0.091 A 
ATOM     73  F   UNL     1       4.432   6.255   6.516  1.00  0.00    -0.205 F 
ATOM     74  C   UNL     1       7.234   4.447   5.002  1.00  0.00     0.022 A 
BRANCH  72  75
ATOM     75  S   UNL     1       7.253   5.532   7.520  1.00  0.00     0.127 S 
ATOM     76  O   UNL     1       7.101   4.261   8.226  1.00  0.00    -0.237 OA
ATOM     77  O   UNL     1       8.626   5.852   7.130  1.00  0.00    -0.237 OA
ATOM     78  O   UNL     1       6.508   6.655   8.074  1.00  0.00    -0.744 OA
ENDBRANCH  72  75
ENDBRANCH  54  68
BRANCH  55  79
ATOM     79  C   UNL     1      -4.332   8.327   1.305  1.00  0.00     0.023 A 
ATOM     80  C   UNL     1      -4.497   8.759  -0.024  1.00  0.00     0.012 A 
ATOM     81  C   UNL     1      -5.452   8.293   2.159  1.00  0.00     0.148 A 
ATOM     82  C   UNL     1      -5.750   9.162  -0.490  1.00  0.00     0.002 A 
ATOM     83  C   UNL     1      -6.707   8.634   1.671  1.00  0.00     0.091 A 
ATOM     84  F   UNL     1      -5.271   7.917   3.433  1.00  0.00    -0.205 F 
ATOM     85  C   UNL     1      -6.857   9.083   0.351  1.00  0.00     0.022 A 
BRANCH  83  86
ATOM     86  S   UNL     1      -8.193   8.405   2.655  1.00  0.00     0.127 S 
ATOM     87  O   UNL     1      -8.448   9.760   3.135  1.00  0.00    -0.237 OA
ATOM     88  O   UNL     1      -9.150   7.913   1.662  1.00  0.00    -0.237 OA
ATOM     89  O   UNL     1      -7.832   7.421   3.667  1.00  0.00    -0.744 OA
ENDBRANCH  83  86
ENDBRANCH  55  79
BRANCH  67  90
ATOM     90  C   UNL     1       1.748  11.600   2.315  1.00  0.00     0.023 A 
ATOM     91  C   UNL     1       1.367  12.509   3.322  1.00  0.00     0.012 A 
ATOM     92  C   UNL     1       2.569  12.042   1.259  1.00  0.00     0.148 A 
ATOM     93  C   UNL     1       1.776  13.841   3.267  1.00  0.00     0.002 A 
ATOM     94  C   UNL     1       3.006  13.362   1.232  1.00  0.00     0.091 A 
ATOM     95  F   UNL     1       2.902  11.168   0.298  1.00  0.00    -0.205 F 
ATOM     96  C   UNL     1       2.604  14.264   2.230  1.00  0.00     0.022 A 
BRANCH  94  97
ATOM     97  S   UNL     1       4.143  13.966  -0.021  1.00  0.00     0.127 S 
ATOM     98  O   UNL     1       3.244  14.692  -0.915  1.00  0.00    -0.237 OA
ATOM     99  O   UNL     1       5.047  14.816   0.757  1.00  0.00    -0.237 OA
ATOM    100  O   UNL     1       4.774  12.780  -0.585  1.00  0.00    -0.744 OA
ENDBRANCH  94  97
ENDBRANCH  67  90
ENDBRANCH  41  42
ENDBRANCH  34  36
ENDBRANCH  33  34
ENDBRANCH  32  33
ENDBRANCH   1  32
TORSDOF 19
