REMARK SMILES CC(=O)Oc1ccccc1C(=O)OCCOC(=O)c1ccc(-c2c3nc(c(-c4cccc(S(=O)(=O)[O-])c4F)c4ccc([nH]4)c(-c4cccc(S(=O)(=O)[O-])c4F)c4nc(c(-c5cccc(S(=O)(=O)[O-])c5F)c5ccc2[nH]5)C=C4)C=C3)cc1
REMARK SMILES IDX 15 1 14 2 13 3 11 4 12 5 10 6 5 7 6 8 7 9 9 10 8 11 4 12
REMARK SMILES IDX 2 13 1 14 3 15 16 16 17 17 18 18 19 19 20 20 81 21 21 22
REMARK SMILES IDX 80 23 22 24 23 25 24 26 74 27 25 28 79 29 73 30 75 31 26 32
REMARK SMILES IDX 78 33 72 34 71 35 27 37 59 38 39 39 58 40 40 41 43 42 57 43
REMARK SMILES IDX 76 44 41 45 42 46 56 48 77 49 44 50 28 51 29 52 37 53 30 54
REMARK SMILES IDX 32 55 38 56 31 57 33 58 34 59 35 60 36 61 60 62 61 63 69 64
REMARK SMILES IDX 62 65 64 66 70 67 63 68 65 69 66 70 67 71 68 72 45 73 46 74
REMARK SMILES IDX 54 75 47 76 49 77 55 78 48 79 50 80 51 81 52 82 53 83
REMARK H PARENT 75 36 43 47
REMARK Flexibility Score: inf
ROOT
ATOM      1  C   UNL     1      -3.460   0.757   0.467  1.00  0.00     0.275 C 
ENDROOT
BRANCH   1   2
ATOM      2  C   UNL     1      -2.202   0.745  -0.400  1.00  0.00     0.275 C 
BRANCH   2   3
ATOM      3  O   UNL     1      -1.303   1.822  -0.059  1.00  0.00    -0.458 OA
BRANCH   3   4
ATOM      4  C   UNL     1      -1.201   2.825  -0.973  1.00  0.00     0.342 C 
ATOM      5  O   UNL     1      -1.851   2.929  -1.994  1.00  0.00    -0.246 OA
BRANCH   4   6
ATOM      6  C   UNL     1      -0.219   3.856  -0.544  1.00  0.00     0.102 A 
ATOM      7  C   UNL     1       1.020   3.558   0.034  1.00  0.00     0.145 A 
ATOM      8  C   UNL     1       1.905   4.582   0.391  1.00  0.00     0.048 A 
ATOM      9  C   UNL     1       1.554   5.917   0.179  1.00  0.00     0.004 A 
ATOM     10  C   UNL     1      -0.537   5.203  -0.784  1.00  0.00     0.019 A 
ATOM     11  C   UNL     1       0.327   6.228  -0.397  1.00  0.00     0.001 A 
BRANCH   7  12
ATOM     12  O   UNL     1       1.410   2.256   0.382  1.00  0.00    -0.426 OA
BRANCH  12  13
ATOM     13  C   UNL     1       1.499   1.343  -0.661  1.00  0.00     0.308 C 
ATOM     14  C   UNL     1       1.593  -0.038  -0.086  1.00  0.00     0.139 C 
ATOM     15  O   UNL     1       1.514   1.598  -1.856  1.00  0.00    -0.252 OA
ENDBRANCH  12  13
ENDBRANCH   7  12
ENDBRANCH   4   6
ENDBRANCH   3   4
ENDBRANCH   2   3
ENDBRANCH   1   2
BRANCH   1  16
ATOM     16  O   UNL     1      -4.279   1.894   0.154  1.00  0.00    -0.458 OA
BRANCH  16  17
ATOM     17  C   UNL     1      -4.148   2.936   1.004  1.00  0.00     0.338 C 
ATOM     18  O   UNL     1      -3.481   2.984   2.025  1.00  0.00    -0.246 OA
BRANCH  17  19
ATOM     19  C   UNL     1      -4.846   4.106   0.462  1.00  0.00     0.060 A 
ATOM     20  C   UNL     1      -4.157   4.890  -0.454  1.00  0.00     0.016 A 
ATOM     21  C   UNL     1      -6.072   4.526   0.964  1.00  0.00     0.016 A 
ATOM     22  C   UNL     1      -4.616   6.157  -0.783  1.00  0.00     0.010 A 
ATOM     23  C   UNL     1      -6.597   5.750   0.534  1.00  0.00     0.010 A 
ATOM     24  C   UNL     1      -5.856   6.600  -0.312  1.00  0.00    -0.014 A 
BRANCH  24  25
ATOM     25  C   UNL     1      -6.361   7.947  -0.698  1.00  0.00     0.031 A 
ATOM     26  C   UNL     1      -6.748   8.946   0.360  1.00  0.00     0.074 A 
ATOM     27  C   UNL     1      -6.484   8.270  -2.002  1.00  0.00     0.049 A 
ATOM     28  N   UNL     1      -7.365  10.092   0.228  1.00  0.00    -0.248 NA
ATOM     29  C   UNL     1      -6.415   8.605   1.753  1.00  0.00     0.031 C 
ATOM     30  C   UNL     1      -6.124   7.405  -3.129  1.00  0.00     0.029 A 
ATOM     31  N   UNL     1      -6.958   9.410  -2.604  1.00  0.00    -0.354 N 
ATOM     32  C   UNL     1      -7.574  10.565   1.519  1.00  0.00     0.074 A 
ATOM     33  C   UNL     1      -7.004   9.587   2.421  1.00  0.00     0.031 C 
ATOM     34  C   UNL     1      -6.364   8.050  -4.279  1.00  0.00     0.029 A 
ATOM     35  C   UNL     1      -6.991   9.329  -3.978  1.00  0.00     0.049 A 
ATOM     36  H   UNL     1      -7.246  10.207  -2.103  1.00  0.00     0.167 HD
ATOM     37  C   UNL     1      -8.184  11.708   1.914  1.00  0.00     0.034 A 
ATOM     38  C   UNL     1      -7.518  10.159  -4.898  1.00  0.00     0.034 A 
ATOM     39  C   UNL     1      -8.689  12.703   1.004  1.00  0.00     0.049 A 
ATOM     40  C   UNL     1      -8.197  11.414  -4.434  1.00  0.00     0.074 A 
ATOM     41  C   UNL     1      -9.268  13.925   1.300  1.00  0.00     0.029 A 
ATOM     42  N   UNL     1      -8.681  12.591  -0.379  1.00  0.00    -0.354 N 
ATOM     43  N   UNL     1      -8.339  11.871  -3.214  1.00  0.00    -0.248 NA
ATOM     44  C   UNL     1      -8.781  12.272  -5.473  1.00  0.00     0.031 C 
ATOM     45  C   UNL     1      -9.642  14.534   0.098  1.00  0.00     0.029 A 
ATOM     46  C   UNL     1      -9.261  13.711  -0.950  1.00  0.00     0.049 A 
ATOM     47  H   UNL     1      -8.315  11.826  -0.880  1.00  0.00     0.167 HD
ATOM     48  C   UNL     1      -9.009  13.081  -3.337  1.00  0.00     0.074 A 
ATOM     49  C   UNL     1      -9.219  13.298  -4.755  1.00  0.00     0.031 C 
ATOM     50  C   UNL     1      -9.428  13.928  -2.365  1.00  0.00     0.034 A 
BRANCH  37  51
ATOM     51  C   UNL     1      -8.345  11.945   3.396  1.00  0.00     0.023 A 
ATOM     52  C   UNL     1      -7.224  12.243   4.196  1.00  0.00     0.012 A 
ATOM     53  C   UNL     1      -9.624  11.909   3.989  1.00  0.00     0.148 A 
ATOM     54  C   UNL     1      -7.366  12.457   5.568  1.00  0.00     0.002 A 
ATOM     55  C   UNL     1      -9.764  12.172   5.347  1.00  0.00     0.091 A 
ATOM     56  F   UNL     1     -10.678  11.604   3.219  1.00  0.00    -0.205 F 
ATOM     57  C   UNL     1      -8.635  12.432   6.140  1.00  0.00     0.022 A 
BRANCH  55  58
ATOM     58  S   UNL     1     -11.365  12.244   6.159  1.00  0.00     0.127 S 
ATOM     59  O   UNL     1     -11.342  11.023   6.963  1.00  0.00    -0.237 OA
ATOM     60  O   UNL     1     -11.263  13.483   6.931  1.00  0.00    -0.237 OA
ATOM     61  O   UNL     1     -12.356  12.274   5.093  1.00  0.00    -0.744 OA
ENDBRANCH  55  58
ENDBRANCH  37  51
BRANCH  38  62
ATOM     62  C   UNL     1      -7.420   9.818  -6.346  1.00  0.00     0.023 A 
ATOM     63  C   UNL     1      -6.595  10.590  -7.184  1.00  0.00     0.012 A 
ATOM     64  C   UNL     1      -8.093   8.701  -6.882  1.00  0.00     0.148 A 
ATOM     65  C   UNL     1      -6.454  10.267  -8.534  1.00  0.00     0.002 A 
ATOM     66  C   UNL     1      -7.899   8.348  -8.212  1.00  0.00     0.091 A 
ATOM     67  F   UNL     1      -8.886   7.987  -6.070  1.00  0.00    -0.205 F 
ATOM     68  C   UNL     1      -7.093   9.140  -9.044  1.00  0.00     0.022 A 
BRANCH  66  69
ATOM     69  S   UNL     1      -8.568   6.838  -8.918  1.00  0.00     0.127 S 
ATOM     70  O   UNL     1      -9.553   7.360  -9.862  1.00  0.00    -0.237 OA
ATOM     71  O   UNL     1      -7.380   6.242  -9.532  1.00  0.00    -0.237 OA
ATOM     72  O   UNL     1      -9.108   6.082  -7.796  1.00  0.00    -0.744 OA
ENDBRANCH  66  69
ENDBRANCH  38  62
BRANCH  50  73
ATOM     73  C   UNL     1     -10.128  15.188  -2.803  1.00  0.00     0.023 A 
ATOM     74  C   UNL     1     -11.435  15.120  -3.325  1.00  0.00     0.012 A 
ATOM     75  C   UNL     1      -9.509  16.443  -2.645  1.00  0.00     0.148 A 
ATOM     76  C   UNL     1     -12.101  16.281  -3.717  1.00  0.00     0.002 A 
ATOM     77  C   UNL     1     -10.199  17.599  -2.987  1.00  0.00     0.091 A 
ATOM     78  F   UNL     1      -8.258  16.482  -2.164  1.00  0.00    -0.205 F 
ATOM     79  C   UNL     1     -11.489  17.519  -3.538  1.00  0.00     0.022 A 
BRANCH  77  80
ATOM     80  S   UNL     1      -9.529  19.240  -2.701  1.00  0.00     0.127 S 
ATOM     81  O   UNL     1      -9.258  19.693  -4.065  1.00  0.00    -0.237 OA
ATOM     82  O   UNL     1     -10.646  19.919  -2.043  1.00  0.00    -0.237 OA
ATOM     83  O   UNL     1      -8.354  19.055  -1.861  1.00  0.00    -0.744 OA
ENDBRANCH  77  80
ENDBRANCH  50  73
ENDBRANCH  24  25
ENDBRANCH  17  19
ENDBRANCH  16  17
ENDBRANCH   1  16
TORSDOF 16
