REMARK SMILES O=C(Cn1nc(-c2cccs2)ccc1=O)N[C@H](Cc1ccccc1)C(=O)OCCOC(=O)c1ccc(-c2c3nc(c(-c4cccc(S(=O)(=O)[O-])c4F)c4ccc([nH]4)c(-c4cccc(S(=O)(=O)[O-])c4F)c4nc(c(-c5cccc(S(=O)(=O)[O-])c5F)c5ccc2[nH]5)C=C4)C=C3)cc1
REMARK SMILES IDX 28 1 27 2 25 3 26 4 17 5 16 6 1 7 2 8 3 10 4 11 5 12 14 13
REMARK SMILES IDX 6 14 13 15 15 16 12 17 7 18 8 19 11 20 9 21 10 22 18 23
REMARK SMILES IDX 19 24 20 25 24 26 21 27 23 28 22 29 29 30 30 31 31 32 32 33
REMARK SMILES IDX 33 34 34 35 95 36 35 37 94 38 36 39 37 40 38 41 88 42 39 43
REMARK SMILES IDX 93 44 87 45 89 46 40 47 92 48 86 49 85 50 41 52 73 53 53 54
REMARK SMILES IDX 72 55 54 56 57 57 71 58 90 59 55 60 56 61 70 63 91 64 58 65
REMARK SMILES IDX 42 66 43 67 51 68 44 69 46 70 52 71 45 72 47 73 48 74 49 75
REMARK SMILES IDX 50 76 74 77 75 78 83 79 76 80 78 81 84 82 77 83 79 84 80 85
REMARK SMILES IDX 81 86 82 87 59 88 60 89 68 90 61 91 63 92 69 93 62 94 64 95
REMARK SMILES IDX 65 96 66 97 67 98
REMARK H PARENT 16 9 89 51 57 62
REMARK Flexibility Score: inf
ROOT
ATOM      1  C   UNL     1       4.460   0.780  -4.863  1.00  0.00     0.274 C 
ENDROOT
BRANCH   1   2
ATOM      2  O   UNL     1       4.133   0.731  -3.463  1.00  0.00    -0.461 OA
BRANCH   2   3
ATOM      3  C   UNL     1       3.131   1.563  -3.081  1.00  0.00     0.329 C 
ATOM      4  O   UNL     1       2.486   2.275  -3.852  1.00  0.00    -0.250 OA
BRANCH   3   5
ATOM      5  C   UNL     1       2.977   1.694  -1.564  1.00  0.00     0.196 C 
BRANCH   5   6
ATOM      6  N   UNL     1       3.471   3.050  -1.265  1.00  0.00    -0.341 N 
ATOM      7  O   UNL     1       5.712   2.530  -1.292  1.00  0.00    -0.273 OA
ATOM      8  C   UNL     1       4.817   3.369  -1.247  1.00  0.00     0.242 C 
ATOM      9  H   UNL     1       2.816   3.759  -1.071  1.00  0.00     0.164 HD
BRANCH   8  10
ATOM     10  C   UNL     1       5.109   4.864  -1.213  1.00  0.00     0.248 C 
BRANCH  10  11
ATOM     11  N   UNL     1       4.787   5.420  -2.521  1.00  0.00    -0.220 N 
ATOM     12  N   UNL     1       3.487   5.856  -2.700  1.00  0.00    -0.168 NA
ATOM     13  C   UNL     1       5.757   5.433  -3.514  1.00  0.00     0.267 A 
ATOM     14  C   UNL     1       3.134   6.264  -3.885  1.00  0.00     0.101 A 
ATOM     15  C   UNL     1       5.321   5.926  -4.835  1.00  0.00     0.075 A 
ATOM     16  O   UNL     1       6.924   5.082  -3.372  1.00  0.00    -0.268 OA
ATOM     17  C   UNL     1       4.064   6.318  -5.038  1.00  0.00     0.037 A 
BRANCH  14  18
ATOM     18  C   UNL     1       1.773   6.734  -4.064  1.00  0.00     0.054 A 
ATOM     19  C   UNL     1       1.027   7.505  -3.192  1.00  0.00     0.022 A 
ATOM     20  S   UNL     1       0.863   6.308  -5.452  1.00  0.00    -0.142 S 
ATOM     21  C   UNL     1      -0.284   7.768  -3.683  1.00  0.00     0.012 A 
ATOM     22  C   UNL     1      -0.510   7.161  -4.898  1.00  0.00     0.065 A 
ENDBRANCH  14  18
ENDBRANCH  10  11
ENDBRANCH   8  10
ENDBRANCH   5   6
BRANCH   5  23
ATOM     23  C   UNL     1       3.566   0.587  -0.677  1.00  0.00     0.072 C 
BRANCH  23  24
ATOM     24  C   UNL     1       2.985  -0.808  -0.785  1.00  0.00    -0.045 A 
ATOM     25  C   UNL     1       3.856  -1.904  -0.656  1.00  0.00     0.004 A 
ATOM     26  C   UNL     1       1.615  -1.067  -0.918  1.00  0.00     0.004 A 
ATOM     27  C   UNL     1       3.382  -3.216  -0.710  1.00  0.00     0.000 A 
ATOM     28  C   UNL     1       1.142  -2.383  -0.992  1.00  0.00     0.000 A 
ATOM     29  C   UNL     1       2.025  -3.455  -0.892  1.00  0.00     0.000 A 
ENDBRANCH  23  24
ENDBRANCH   5  23
ENDBRANCH   3   5
ENDBRANCH   2   3
ENDBRANCH   1   2
BRANCH   1  30
ATOM     30  C   UNL     1       3.795  -0.363  -5.619  1.00  0.00     0.275 C 
BRANCH  30  31
ATOM     31  O   UNL     1       2.378  -0.340  -5.385  1.00  0.00    -0.458 OA
BRANCH  31  32
ATOM     32  C   UNL     1       1.871  -1.456  -4.811  1.00  0.00     0.338 C 
ATOM     33  O   UNL     1       2.460  -2.495  -4.568  1.00  0.00    -0.246 OA
BRANCH  32  34
ATOM     34  C   UNL     1       0.424  -1.280  -4.610  1.00  0.00     0.060 A 
ATOM     35  C   UNL     1      -0.434  -2.220  -5.180  1.00  0.00     0.016 A 
ATOM     36  C   UNL     1      -0.084  -0.249  -3.815  1.00  0.00     0.016 A 
ATOM     37  C   UNL     1      -1.808  -2.109  -4.975  1.00  0.00     0.010 A 
ATOM     38  C   UNL     1      -1.453  -0.188  -3.545  1.00  0.00     0.010 A 
ATOM     39  C   UNL     1      -2.331  -1.102  -4.144  1.00  0.00    -0.014 A 
BRANCH  39  40
ATOM     40  C   UNL     1      -3.797  -1.025  -3.926  1.00  0.00     0.031 A 
ATOM     41  C   UNL     1      -4.595   0.125  -4.475  1.00  0.00     0.074 A 
ATOM     42  C   UNL     1      -4.420  -2.014  -3.255  1.00  0.00     0.049 A 
ATOM     43  N   UNL     1      -5.895   0.260  -4.540  1.00  0.00    -0.248 NA
ATOM     44  C   UNL     1      -3.848   1.276  -5.010  1.00  0.00     0.031 C 
ATOM     45  C   UNL     1      -3.751  -3.137  -2.594  1.00  0.00     0.029 A 
ATOM     46  N   UNL     1      -5.754  -2.243  -3.031  1.00  0.00    -0.354 N 
ATOM     47  C   UNL     1      -6.120   1.504  -5.114  1.00  0.00     0.074 A 
ATOM     48  C   UNL     1      -4.826   2.108  -5.340  1.00  0.00     0.031 C 
ATOM     49  C   UNL     1      -4.680  -3.957  -2.075  1.00  0.00     0.029 A 
ATOM     50  C   UNL     1      -6.007  -3.422  -2.370  1.00  0.00     0.049 A 
ATOM     51  H   UNL     1      -6.463  -1.622  -3.316  1.00  0.00     0.167 HD
ATOM     52  C   UNL     1      -7.295   2.074  -5.465  1.00  0.00     0.034 A 
ATOM     53  C   UNL     1      -7.174  -4.027  -2.073  1.00  0.00     0.034 A 
ATOM     54  C   UNL     1      -8.577   1.451  -5.295  1.00  0.00     0.049 A 
ATOM     55  C   UNL     1      -8.464  -3.407  -2.531  1.00  0.00     0.074 A 
ATOM     56  C   UNL     1      -9.816   1.909  -5.707  1.00  0.00     0.029 A 
ATOM     57  N   UNL     1      -8.786   0.236  -4.664  1.00  0.00    -0.354 N 
ATOM     58  N   UNL     1      -8.647  -2.313  -3.230  1.00  0.00    -0.248 NA
ATOM     59  C   UNL     1      -9.706  -4.121  -2.197  1.00  0.00     0.031 C 
ATOM     60  C   UNL     1     -10.776   0.968  -5.325  1.00  0.00     0.029 A 
ATOM     61  C   UNL     1     -10.133  -0.073  -4.673  1.00  0.00     0.049 A 
ATOM     62  H   UNL     1      -8.080  -0.324  -4.268  1.00  0.00     0.167 HD
ATOM     63  C   UNL     1     -10.018  -2.219  -3.438  1.00  0.00     0.074 A 
ATOM     64  C   UNL     1     -10.620  -3.374  -2.805  1.00  0.00     0.031 C 
ATOM     65  C   UNL     1     -10.713  -1.252  -4.084  1.00  0.00     0.034 A 
BRANCH  52  66
ATOM     66  C   UNL     1      -7.245   3.402  -6.165  1.00  0.00     0.023 A 
ATOM     67  C   UNL     1      -6.923   3.431  -7.537  1.00  0.00     0.012 A 
ATOM     68  C   UNL     1      -7.580   4.597  -5.502  1.00  0.00     0.148 A 
ATOM     69  C   UNL     1      -6.923   4.634  -8.239  1.00  0.00     0.002 A 
ATOM     70  C   UNL     1      -7.600   5.790  -6.215  1.00  0.00     0.091 A 
ATOM     71  F   UNL     1      -7.867   4.543  -4.194  1.00  0.00    -0.205 F 
ATOM     72  C   UNL     1      -7.269   5.811  -7.581  1.00  0.00     0.022 A 
BRANCH  70  73
ATOM     73  S   UNL     1      -8.063   7.360  -5.476  1.00  0.00     0.127 S 
ATOM     74  O   UNL     1      -6.799   8.095  -5.531  1.00  0.00    -0.237 OA
ATOM     75  O   UNL     1      -9.090   7.843  -6.398  1.00  0.00    -0.237 OA
ATOM     76  O   UNL     1      -8.540   7.051  -4.135  1.00  0.00    -0.744 OA
ENDBRANCH  70  73
ENDBRANCH  52  66
BRANCH  53  77
ATOM     77  C   UNL     1      -7.157  -5.359  -1.410  1.00  0.00     0.023 A 
ATOM     78  C   UNL     1      -7.395  -6.511  -2.185  1.00  0.00     0.012 A 
ATOM     79  C   UNL     1      -6.848  -5.497  -0.044  1.00  0.00     0.148 A 
ATOM     80  C   UNL     1      -7.337  -7.779  -1.608  1.00  0.00     0.002 A 
ATOM     81  C   UNL     1      -6.759  -6.766   0.518  1.00  0.00     0.091 A 
ATOM     82  F   UNL     1      -6.629  -4.384   0.670  1.00  0.00    -0.205 F 
ATOM     83  C   UNL     1      -7.011  -7.907  -0.261  1.00  0.00     0.022 A 
BRANCH  81  84
ATOM     84  S   UNL     1      -6.260  -7.042   2.221  1.00  0.00     0.127 S 
ATOM     85  O   UNL     1      -7.471  -7.623   2.796  1.00  0.00    -0.237 OA
ATOM     86  O   UNL     1      -5.146  -7.976   2.058  1.00  0.00    -0.237 OA
ATOM     87  O   UNL     1      -5.886  -5.735   2.741  1.00  0.00    -0.744 OA
ENDBRANCH  81  84
ENDBRANCH  53  77
BRANCH  65  88
ATOM     88  C   UNL     1     -12.209  -1.376  -4.150  1.00  0.00     0.023 A 
ATOM     89  C   UNL     1     -12.976  -0.988  -3.035  1.00  0.00     0.012 A 
ATOM     90  C   UNL     1     -12.853  -1.732  -5.351  1.00  0.00     0.148 A 
ATOM     91  C   UNL     1     -14.367  -0.953  -3.114  1.00  0.00     0.002 A 
ATOM     92  C   UNL     1     -14.238  -1.663  -5.432  1.00  0.00     0.091 A 
ATOM     93  F   UNL     1     -12.097  -2.106  -6.394  1.00  0.00    -0.205 F 
ATOM     94  C   UNL     1     -14.997  -1.277  -4.314  1.00  0.00     0.022 A 
BRANCH  92  95
ATOM     95  S   UNL     1     -15.137  -1.982  -6.955  1.00  0.00     0.127 S 
ATOM     96  O   UNL     1     -15.840  -3.222  -6.632  1.00  0.00    -0.237 OA
ATOM     97  O   UNL     1     -15.996  -0.802  -7.060  1.00  0.00    -0.237 OA
ATOM     98  O   UNL     1     -14.130  -2.094  -8.002  1.00  0.00    -0.744 OA
ENDBRANCH  92  95
ENDBRANCH  65  88
ENDBRANCH  39  40
ENDBRANCH  32  34
ENDBRANCH  31  32
ENDBRANCH  30  31
ENDBRANCH   1  30
TORSDOF 20
