REMARK SMILES C[C@H](CNC(=O)Cn1cccc1C(=O)OCCOC(=O)c1ccc(-c2c3nc(c(-c4cccc(S(=O)(=O)[O-])c4F)c4ccc([nH]4)c(-c4cccc(S(=O)(=O)[O-])c4F)c4nc(c(-c5cccc(S(=O)(=O)[O-])c5F)c5ccc2[nH]5)C=C4)C=C3)cc1)[NH+](C)C
REMARK SMILES IDX 16 1 15 2 13 3 14 4 12 5 8 6 9 7 10 8 11 9 7 10 5 11 4 12
REMARK SMILES IDX 6 14 3 15 2 16 1 17 84 18 85 19 86 20 17 22 18 23 19 24
REMARK SMILES IDX 20 25 21 26 22 27 83 28 23 29 82 30 24 31 25 32 26 33 76 34
REMARK SMILES IDX 27 35 81 36 75 37 77 38 28 39 80 40 74 41 73 42 29 44 61 45
REMARK SMILES IDX 41 46 60 47 42 48 45 49 59 50 78 51 43 52 44 53 58 55 79 56
REMARK SMILES IDX 46 57 30 58 31 59 39 60 32 61 34 62 40 63 33 64 35 65 36 66
REMARK SMILES IDX 37 67 38 68 62 69 63 70 71 71 64 72 66 73 72 74 65 75 67 76
REMARK SMILES IDX 68 77 69 78 70 79 47 80 48 81 56 82 49 83 51 84 57 85 50 86
REMARK SMILES IDX 52 87 53 88 54 89 55 90
REMARK H PARENT 4 13 84 21 77 43 45 54
REMARK Flexibility Score: inf
ROOT
ATOM      1  C   UNL     1       1.656  -3.570   2.165  1.00  0.00     0.275 C 
ENDROOT
BRANCH   1   2
ATOM      2  O   UNL     1       2.158  -2.699   1.140  1.00  0.00    -0.457 OA
BRANCH   2   3
ATOM      3  C   UNL     1       3.355  -3.045   0.602  1.00  0.00     0.355 C 
ATOM      4  O   UNL     1       4.114  -3.896   1.059  1.00  0.00    -0.244 OA
BRANCH   3   5
ATOM      5  C   UNL     1       3.515  -2.398  -0.683  1.00  0.00     0.128 A 
ATOM      6  N   UNL     1       3.760  -1.066  -0.981  1.00  0.00    -0.333 N 
ATOM      7  C   UNL     1       3.848  -0.925  -2.356  1.00  0.00     0.087 A 
ATOM      8  C   UNL     1       3.588  -2.137  -2.945  1.00  0.00     0.020 A 
ATOM      9  C   UNL     1       3.381  -3.058  -1.901  1.00  0.00     0.035 A 
BRANCH   6  10
ATOM     10  C   UNL     1       4.101   0.045  -0.093  1.00  0.00     0.222 C 
BRANCH  10  11
ATOM     11  C   UNL     1       3.195   0.343   1.081  1.00  0.00     0.240 C 
ATOM     12  N   UNL     1       2.075   1.115   0.938  1.00  0.00    -0.349 N 
ATOM     13  H   UNL     1       1.713   1.488   1.774  1.00  0.00     0.163 HD
ATOM     14  O   UNL     1       3.511  -0.008   2.222  1.00  0.00    -0.273 OA
BRANCH  12  15
ATOM     15  C   UNL     1       1.337   1.468  -0.272  1.00  0.00     0.180 C 
BRANCH  15  16
ATOM     16  C   UNL     1       0.131   0.538  -0.576  1.00  0.00     0.199 C 
ATOM     17  C   UNL     1       0.400  -0.879  -0.125  1.00  0.00     0.077 C 
BRANCH  16  18
ATOM     18  N   UNL     1      -1.169   1.050  -0.086  1.00  0.00    -0.336 N 
ATOM     19  C   UNL     1      -2.256   0.345  -0.775  1.00  0.00     0.332 C 
ATOM     20  C   UNL     1      -1.407   0.891   1.352  1.00  0.00     0.332 C 
ATOM     21  H   UNL     1      -1.141   2.051  -0.280  1.00  0.00     0.347 HD
ENDBRANCH  16  18
ENDBRANCH  15  16
ENDBRANCH  12  15
ENDBRANCH  10  11
ENDBRANCH   6  10
ENDBRANCH   3   5
ENDBRANCH   2   3
ENDBRANCH   1   2
BRANCH   1  22
ATOM     22  C   UNL     1       0.153  -3.363   2.397  1.00  0.00     0.275 C 
BRANCH  22  23
ATOM     23  O   UNL     1      -0.842  -3.804   1.441  1.00  0.00    -0.458 OA
BRANCH  23  24
ATOM     24  C   UNL     1      -0.611  -4.033   0.130  1.00  0.00     0.338 C 
ATOM     25  O   UNL     1       0.449  -4.362  -0.373  1.00  0.00    -0.246 OA
BRANCH  24  26
ATOM     26  C   UNL     1      -1.824  -3.580  -0.643  1.00  0.00     0.060 A 
ATOM     27  C   UNL     1      -1.673  -3.252  -1.998  1.00  0.00     0.016 A 
ATOM     28  C   UNL     1      -3.052  -3.305  -0.017  1.00  0.00     0.016 A 
ATOM     29  C   UNL     1      -2.724  -2.642  -2.703  1.00  0.00     0.010 A 
ATOM     30  C   UNL     1      -4.097  -2.674  -0.717  1.00  0.00     0.010 A 
ATOM     31  C   UNL     1      -3.953  -2.347  -2.074  1.00  0.00    -0.014 A 
BRANCH  31  32
ATOM     32  C   UNL     1      -5.149  -2.124  -2.963  1.00  0.00     0.031 A 
ATOM     33  C   UNL     1      -5.574  -3.502  -3.518  1.00  0.00     0.074 A 
ATOM     34  C   UNL     1      -5.642  -0.873  -3.266  1.00  0.00     0.049 A 
ATOM     35  N   UNL     1      -5.863  -3.860  -4.733  1.00  0.00    -0.248 NA
ATOM     36  C   UNL     1      -5.469  -4.695  -2.627  1.00  0.00     0.031 C 
ATOM     37  C   UNL     1      -5.258   0.377  -2.592  1.00  0.00     0.029 A 
ATOM     38  N   UNL     1      -6.576  -0.378  -4.175  1.00  0.00    -0.354 N 
ATOM     39  C   UNL     1      -6.177  -5.239  -4.678  1.00  0.00     0.074 A 
ATOM     40  C   UNL     1      -5.672  -5.730  -3.439  1.00  0.00     0.031 C 
ATOM     41  C   UNL     1      -5.826   1.468  -3.162  1.00  0.00     0.029 A 
ATOM     42  C   UNL     1      -6.710   1.048  -4.235  1.00  0.00     0.049 A 
ATOM     43  H   UNL     1      -7.114  -0.974  -4.744  1.00  0.00     0.167 HD
ATOM     44  C   UNL     1      -7.054  -5.849  -5.526  1.00  0.00     0.034 A 
ATOM     45  C   UNL     1      -7.470   1.836  -5.076  1.00  0.00     0.034 A 
ATOM     46  C   UNL     1      -7.637  -4.864  -6.371  1.00  0.00     0.049 A 
ATOM     47  C   UNL     1      -8.355   0.898  -5.771  1.00  0.00     0.074 A 
ATOM     48  C   UNL     1      -7.145  -4.137  -7.420  1.00  0.00     0.029 A 
ATOM     49  N   UNL     1      -8.762  -4.258  -5.857  1.00  0.00    -0.354 N 
ATOM     50  N   UNL     1      -9.388   0.327  -5.228  1.00  0.00    -0.248 NA
ATOM     51  C   UNL     1      -8.042   0.520  -7.154  1.00  0.00     0.031 C 
ATOM     52  C   UNL     1      -7.737  -2.877  -7.229  1.00  0.00     0.029 A 
ATOM     53  C   UNL     1      -8.742  -2.952  -6.254  1.00  0.00     0.049 A 
ATOM     54  H   UNL     1      -9.454  -4.689  -5.304  1.00  0.00     0.167 HD
ATOM     55  C   UNL     1      -9.572  -0.743  -6.066  1.00  0.00     0.074 A 
ATOM     56  C   UNL     1      -9.023  -0.358  -7.348  1.00  0.00     0.031 C 
ATOM     57  C   UNL     1      -9.543  -1.993  -5.531  1.00  0.00     0.034 A 
BRANCH  44  58
ATOM     58  C   UNL     1      -7.730  -7.195  -5.527  1.00  0.00     0.023 A 
ATOM     59  C   UNL     1      -8.299  -7.583  -6.774  1.00  0.00     0.012 A 
ATOM     60  C   UNL     1      -8.097  -7.935  -4.392  1.00  0.00     0.148 A 
ATOM     61  C   UNL     1      -9.267  -8.579  -6.873  1.00  0.00     0.002 A 
ATOM     62  C   UNL     1      -9.024  -8.972  -4.506  1.00  0.00     0.091 A 
ATOM     63  F   UNL     1      -7.635  -7.578  -3.190  1.00  0.00    -0.205 F 
ATOM     64  C   UNL     1      -9.637  -9.269  -5.733  1.00  0.00     0.022 A 
BRANCH  62  65
ATOM     65  S   UNL     1      -9.518  -9.986  -3.109  1.00  0.00     0.127 S 
ATOM     66  O   UNL     1     -10.879  -9.516  -2.861  1.00  0.00    -0.237 OA
ATOM     67  O   UNL     1      -9.435 -11.335  -3.675  1.00  0.00    -0.237 OA
ATOM     68  O   UNL     1      -8.541  -9.721  -2.062  1.00  0.00    -0.744 OA
ENDBRANCH  62  65
ENDBRANCH  44  58
BRANCH  45  69
ATOM     69  C   UNL     1      -7.655   3.301  -5.486  1.00  0.00     0.023 A 
ATOM     70  C   UNL     1      -7.181   4.405  -4.766  1.00  0.00     0.012 A 
ATOM     71  C   UNL     1      -8.311   3.629  -6.726  1.00  0.00     0.148 A 
ATOM     72  C   UNL     1      -7.278   5.721  -5.288  1.00  0.00     0.002 A 
ATOM     73  C   UNL     1      -8.286   4.898  -7.298  1.00  0.00     0.091 A 
ATOM     74  F   UNL     1      -9.037   2.708  -7.364  1.00  0.00    -0.205 F 
ATOM     75  C   UNL     1      -7.782   5.964  -6.569  1.00  0.00     0.022 A 
BRANCH  73  76
ATOM     76  S   UNL     1      -8.772   5.179  -9.020  1.00  0.00     0.127 S 
ATOM     77  O   UNL     1      -9.686   6.315  -8.910  1.00  0.00    -0.237 OA
ATOM     78  O   UNL     1      -7.482   5.488  -9.638  1.00  0.00    -0.237 OA
ATOM     79  O   UNL     1      -9.385   3.942  -9.487  1.00  0.00    -0.744 OA
ENDBRANCH  73  76
ENDBRANCH  45  69
BRANCH  57  80
ATOM     80  C   UNL     1     -10.066  -2.079  -4.098  1.00  0.00     0.023 A 
ATOM     81  C   UNL     1     -11.388  -1.635  -3.876  1.00  0.00     0.012 A 
ATOM     82  C   UNL     1      -9.310  -2.436  -2.956  1.00  0.00     0.148 A 
ATOM     83  C   UNL     1     -11.929  -1.528  -2.592  1.00  0.00     0.002 A 
ATOM     84  C   UNL     1      -9.844  -2.312  -1.665  1.00  0.00     0.091 A 
ATOM     85  F   UNL     1      -8.072  -2.893  -3.130  1.00  0.00    -0.205 F 
ATOM     86  C   UNL     1     -11.158  -1.861  -1.486  1.00  0.00     0.022 A 
BRANCH  84  87
ATOM     87  S   UNL     1      -8.910  -2.628  -0.151  1.00  0.00     0.127 S 
ATOM     88  O   UNL     1      -9.139  -1.407   0.627  1.00  0.00    -0.237 OA
ATOM     89  O   UNL     1      -9.579  -3.810   0.386  1.00  0.00    -0.237 OA
ATOM     90  O   UNL     1      -7.522  -2.823  -0.551  1.00  0.00    -0.744 OA
ENDBRANCH  84  87
ENDBRANCH  57  80
ENDBRANCH  31  32
ENDBRANCH  24  26
ENDBRANCH  23  24
ENDBRANCH  22  23
ENDBRANCH   1  22
TORSDOF 19
