REMARK SMILES C[C@@H](C(=O)OCCOC(=O)c1ccc(-c2c3nc(c(-c4cccc(S(=O)(=O)[O-])c4F)c4ccc([nH]4)c(-c4cccc(S(=O)(=O)[O-])c4F)c4nc(c(-c5cccc(S(=O)(=O)[O-])c5F)c5ccc2[nH]5)C=C4)C=C3)cc1)c1ccc(OC2CCCC2)cc1F
REMARK SMILES IDX 6 1 5 2 3 3 4 4 2 5 1 6 74 7 75 8 85 9 76 10 84 11 86 12
REMARK SMILES IDX 77 13 78 14 79 15 80 16 83 17 81 18 82 19 7 20 8 21 9 22
REMARK SMILES IDX 10 23 11 24 12 25 73 26 13 27 72 28 14 29 15 30 16 31 66 32
REMARK SMILES IDX 17 33 71 34 65 35 67 36 18 37 70 38 64 39 63 40 19 42 51 43
REMARK SMILES IDX 31 44 50 45 32 46 35 47 49 48 68 49 33 50 34 51 48 53 69 54
REMARK SMILES IDX 36 55 20 56 21 57 29 58 22 59 24 60 30 61 23 62 25 63 26 64
REMARK SMILES IDX 27 65 28 66 52 67 53 68 61 69 54 70 56 71 62 72 55 73 57 74
REMARK SMILES IDX 58 75 59 76 60 77 37 78 38 79 46 80 39 81 41 82 47 83 40 84
REMARK SMILES IDX 42 85 43 86 44 87 45 88
REMARK H PARENT 67 41 35 52
REMARK Flexibility Score: inf
ROOT
ATOM      1  C   UNL     1       2.582   1.220  -3.567  1.00  0.00     0.274 C 
ENDROOT
BRANCH   1   2
ATOM      2  O   UNL     1       2.190   0.959  -2.204  1.00  0.00    -0.462 OA
BRANCH   2   3
ATOM      3  C   UNL     1       1.100   1.630  -1.738  1.00  0.00     0.313 C 
ATOM      4  O   UNL     1       0.468   2.444  -2.402  1.00  0.00    -0.252 OA
BRANCH   3   5
ATOM      5  C   UNL     1       0.806   1.335  -0.259  1.00  0.00     0.129 C 
ATOM      6  C   UNL     1       1.659   0.195   0.308  1.00  0.00     0.025 C 
BRANCH   5   7
ATOM      7  C   UNL     1      -0.690   1.201   0.009  1.00  0.00     0.002 A 
ATOM      8  C   UNL     1      -1.490   2.356   0.047  1.00  0.00     0.011 A 
ATOM      9  C   UNL     1      -1.342  -0.026   0.174  1.00  0.00     0.130 A 
ATOM     10  C   UNL     1      -2.872   2.267   0.256  1.00  0.00     0.047 A 
ATOM     11  C   UNL     1      -2.722  -0.116   0.382  1.00  0.00     0.086 A 
ATOM     12  F   UNL     1      -0.655  -1.175   0.114  1.00  0.00    -0.207 F 
ATOM     13  C   UNL     1      -3.501   1.031   0.429  1.00  0.00     0.122 A 
BRANCH  13  14
ATOM     14  O   UNL     1      -4.845   1.113   0.626  1.00  0.00    -0.490 OA
BRANCH  14  15
ATOM     15  C   UNL     1      -5.722  -0.008   0.641  1.00  0.00     0.173 C 
ATOM     16  C   UNL     1      -5.737  -0.872  -0.611  1.00  0.00     0.045 C 
ATOM     17  C   UNL     1      -5.571  -0.960   1.820  1.00  0.00     0.045 C 
ATOM     18  C   UNL     1      -6.223  -2.243  -0.161  1.00  0.00     0.004 C 
ATOM     19  C   UNL     1      -6.255  -2.240   1.364  1.00  0.00     0.004 C 
ENDBRANCH  14  15
ENDBRANCH  13  14
ENDBRANCH   5   7
ENDBRANCH   3   5
ENDBRANCH   2   3
ENDBRANCH   1   2
BRANCH   1  20
ATOM     20  C   UNL     1       2.175   0.074  -4.490  1.00  0.00     0.275 C 
BRANCH  20  21
ATOM     21  O   UNL     1       0.752   0.076  -4.701  1.00  0.00    -0.458 OA
BRANCH  21  22
ATOM     22  C   UNL     1       0.063  -0.866  -4.018  1.00  0.00     0.338 C 
ATOM     23  O   UNL     1       0.514  -1.730  -3.288  1.00  0.00    -0.246 OA
BRANCH  22  24
ATOM     24  C   UNL     1      -1.377  -0.653  -4.221  1.00  0.00     0.060 A 
ATOM     25  C   UNL     1      -2.044   0.181  -3.333  1.00  0.00     0.016 A 
ATOM     26  C   UNL     1      -2.085  -1.355  -5.197  1.00  0.00     0.016 A 
ATOM     27  C   UNL     1      -3.433   0.252  -3.359  1.00  0.00     0.010 A 
ATOM     28  C   UNL     1      -3.482  -1.228  -5.262  1.00  0.00     0.010 A 
ATOM     29  C   UNL     1      -4.178  -0.460  -4.314  1.00  0.00    -0.014 A 
BRANCH  29  30
ATOM     30  C   UNL     1      -5.669  -0.415  -4.247  1.00  0.00     0.031 A 
ATOM     31  C   UNL     1      -6.473  -1.657  -3.943  1.00  0.00     0.074 A 
ATOM     32  C   UNL     1      -6.309   0.772  -4.320  1.00  0.00     0.049 A 
ATOM     33  N   UNL     1      -7.759  -1.766  -3.713  1.00  0.00    -0.248 NA
ATOM     34  C   UNL     1      -5.743  -2.932  -3.848  1.00  0.00     0.031 C 
ATOM     35  C   UNL     1      -5.665   2.060  -4.578  1.00  0.00     0.029 A 
ATOM     36  N   UNL     1      -7.637   1.091  -4.159  1.00  0.00    -0.354 N 
ATOM     37  C   UNL     1      -7.984  -3.105  -3.415  1.00  0.00     0.074 A 
ATOM     38  C   UNL     1      -6.716  -3.786  -3.559  1.00  0.00     0.031 C 
ATOM     39  C   UNL     1      -6.590   3.031  -4.534  1.00  0.00     0.029 A 
ATOM     40  C   UNL     1      -7.902   2.434  -4.300  1.00  0.00     0.049 A 
ATOM     41  H   UNL     1      -8.332   0.422  -3.962  1.00  0.00     0.167 HD
ATOM     42  C   UNL     1      -9.120  -3.705  -2.985  1.00  0.00     0.034 A 
ATOM     43  C   UNL     1      -9.066   3.115  -4.272  1.00  0.00     0.034 A 
ATOM     44  C   UNL     1     -10.383  -3.044  -2.802  1.00  0.00     0.049 A 
ATOM     45  C   UNL     1     -10.347   2.382  -3.995  1.00  0.00     0.074 A 
ATOM     46  C   UNL     1     -11.571  -3.578  -2.332  1.00  0.00     0.029 A 
ATOM     47  N   UNL     1     -10.633  -1.714  -3.094  1.00  0.00    -0.354 N 
ATOM     48  N   UNL     1     -10.520   1.139  -3.618  1.00  0.00    -0.248 NA
ATOM     49  C   UNL     1     -11.597   3.147  -4.131  1.00  0.00     0.031 C 
ATOM     50  C   UNL     1     -12.546  -2.574  -2.358  1.00  0.00     0.029 A 
ATOM     51  C   UNL     1     -11.963  -1.416  -2.846  1.00  0.00     0.049 A 
ATOM     52  H   UNL     1      -9.963  -1.074  -3.427  1.00  0.00     0.167 HD
ATOM     53  C   UNL     1     -11.891   0.976  -3.458  1.00  0.00     0.074 A 
ATOM     54  C   UNL     1     -12.503   2.255  -3.752  1.00  0.00     0.031 C 
ATOM     55  C   UNL     1     -12.577  -0.142  -3.115  1.00  0.00     0.034 A 
BRANCH  42  56
ATOM     56  C   UNL     1      -9.026  -5.149  -2.579  1.00  0.00     0.023 A 
ATOM     57  C   UNL     1      -8.561  -5.456  -1.284  1.00  0.00     0.012 A 
ATOM     58  C   UNL     1      -9.453  -6.186  -3.427  1.00  0.00     0.148 A 
ATOM     59  C   UNL     1      -8.510  -6.776  -0.841  1.00  0.00     0.002 A 
ATOM     60  C   UNL     1      -9.420  -7.500  -2.971  1.00  0.00     0.091 A 
ATOM     61  F   UNL     1      -9.866  -5.873  -4.663  1.00  0.00    -0.205 F 
ATOM     62  C   UNL     1      -8.948  -7.796  -1.681  1.00  0.00     0.022 A 
BRANCH  60  63
ATOM     63  S   UNL     1     -10.003  -8.877  -3.965  1.00  0.00     0.127 S 
ATOM     64  O   UNL     1      -8.744  -9.476  -4.404  1.00  0.00    -0.237 OA
ATOM     65  O   UNL     1     -10.749  -9.674  -2.990  1.00  0.00    -0.237 OA
ATOM     66  O   UNL     1     -10.821  -8.289  -5.016  1.00  0.00    -0.744 OA
ENDBRANCH  60  63
ENDBRANCH  42  56
BRANCH  43  67
ATOM     67  C   UNL     1      -9.066   4.584  -4.526  1.00  0.00     0.023 A 
ATOM     68  C   UNL     1      -9.426   5.478  -3.500  1.00  0.00     0.012 A 
ATOM     69  C   UNL     1      -8.672   5.100  -5.777  1.00  0.00     0.148 A 
ATOM     70  C   UNL     1      -9.400   6.857  -3.720  1.00  0.00     0.002 A 
ATOM     71  C   UNL     1      -8.583   6.473  -5.966  1.00  0.00     0.091 A 
ATOM     72  F   UNL     1      -8.380   4.237  -6.761  1.00  0.00    -0.205 F 
ATOM     73  C   UNL     1      -8.960   7.355  -4.945  1.00  0.00     0.022 A 
BRANCH  71  74
ATOM     74  S   UNL     1      -7.870   7.161  -7.465  1.00  0.00     0.127 S 
ATOM     75  O   UNL     1      -9.059   7.449  -8.261  1.00  0.00    -0.237 OA
ATOM     76  O   UNL     1      -7.162   8.340  -6.964  1.00  0.00    -0.237 OA
ATOM     77  O   UNL     1      -6.990   6.117  -7.976  1.00  0.00    -0.744 OA
ENDBRANCH  71  74
ENDBRANCH  43  67
BRANCH  55  78
ATOM     78  C   UNL     1     -14.079  -0.053  -3.061  1.00  0.00     0.023 A 
ATOM     79  C   UNL     1     -14.806  -0.009  -4.268  1.00  0.00     0.012 A 
ATOM     80  C   UNL     1     -14.776  -0.084  -1.837  1.00  0.00     0.148 A 
ATOM     81  C   UNL     1     -16.200   0.025  -4.258  1.00  0.00     0.002 A 
ATOM     82  C   UNL     1     -16.168  -0.092  -1.836  1.00  0.00     0.091 A 
ATOM     83  F   UNL     1     -14.070  -0.101  -0.697  1.00  0.00    -0.205 F 
ATOM     84  C   UNL     1     -16.881  -0.029  -3.044  1.00  0.00     0.022 A 
BRANCH  82  85
ATOM     85  S   UNL     1     -17.119  -0.251  -0.320  1.00  0.00     0.127 S 
ATOM     86  O   UNL     1     -17.527   1.131  -0.075  1.00  0.00    -0.237 OA
ATOM     87  O   UNL     1     -18.207  -1.146  -0.720  1.00  0.00    -0.237 OA
ATOM     88  O   UNL     1     -16.204  -0.823   0.659  1.00  0.00    -0.744 OA
ENDBRANCH  82  85
ENDBRANCH  55  78
ENDBRANCH  29  30
ENDBRANCH  22  24
ENDBRANCH  21  22
ENDBRANCH  20  21
ENDBRANCH   1  20
TORSDOF 17
