REMARK SMILES Cc1cc(=O)n(CC(=O)OCCOC(=O)c2ccc(-c3c4nc(c(-c5cccc(S(=O)(=O)[O-])c5F)c5ccc([nH]5)c(-c5cccc(S(=O)(=O)[O-])c5F)c5nc(c(-c6cccc(S(=O)(=O)[O-])c6F)c6ccc3[nH]6)C=C5)C=C4)cc2)c(N2CCC(C)CC2)n1
REMARK SMILES IDX 12 1 11 2 10 3 8 4 9 5 7 6 6 7 1 8 2 9 3 10 87 11 4 12 79 13
REMARK SMILES IDX 5 14 80 15 81 16 86 17 82 18 85 19 83 20 84 21 13 22 14 23
REMARK SMILES IDX 15 24 16 25 17 26 78 27 18 28 77 29 19 30 20 31 21 32 71 33
REMARK SMILES IDX 22 34 76 35 70 36 72 37 23 38 75 39 69 40 68 41 24 43 56 44
REMARK SMILES IDX 36 45 55 46 37 47 40 48 54 49 73 50 38 51 39 52 53 54 74 55
REMARK SMILES IDX 41 56 25 57 26 58 34 59 27 60 29 61 35 62 28 63 30 64 31 65
REMARK SMILES IDX 32 66 33 67 57 68 58 69 66 70 59 71 61 72 67 73 60 74 62 75
REMARK SMILES IDX 63 76 64 77 65 78 42 79 43 80 51 81 44 82 46 83 52 84 45 85
REMARK SMILES IDX 47 86 48 87 49 88 50 89
REMARK H PARENT 72 42 40 53
REMARK Flexibility Score: inf
ROOT
ATOM      1  C   UNL     1       3.009  -6.295  -3.225  1.00  0.00     0.275 C 
ENDROOT
BRANCH   1   2
ATOM      2  C   UNL     1       1.623  -5.978  -3.782  1.00  0.00     0.274 C 
BRANCH   2   3
ATOM      3  O   UNL     1       0.809  -5.271  -2.822  1.00  0.00    -0.461 OA
BRANCH   3   4
ATOM      4  C   UNL     1      -0.079  -6.042  -2.140  1.00  0.00     0.326 C 
ATOM      5  O   UNL     1      -0.234  -7.246  -2.329  1.00  0.00    -0.250 OA
BRANCH   4   6
ATOM      6  C   UNL     1      -0.974  -5.276  -1.177  1.00  0.00     0.251 C 
BRANCH   6   7
ATOM      7  N   UNL     1      -0.627  -3.887  -0.892  1.00  0.00    -0.267 N 
ATOM      8  C   UNL     1       0.720   0.064  -0.487  1.00  0.00     0.067 C 
ATOM      9  C   UNL     1       0.249  -1.359  -0.562  1.00  0.00     0.047 A 
ATOM     10  C   UNL     1       0.926  -2.320   0.071  1.00  0.00     0.095 A 
ATOM     11  N   UNL     1      -0.912  -1.582  -1.261  1.00  0.00    -0.220 NA
ATOM     12  C   UNL     1       0.398  -3.679   0.001  1.00  0.00     0.255 A 
ATOM     13  C   UNL     1      -1.339  -2.809  -1.388  1.00  0.00     0.209 A 
ATOM     14  O   UNL     1       0.848  -4.537   0.752  1.00  0.00    -0.269 OA
BRANCH  13  15
ATOM     15  N   UNL     1      -2.557  -3.040  -1.996  1.00  0.00    -0.342 N 
ATOM     16  C   UNL     1      -2.848  -2.511  -3.322  1.00  0.00     0.120 C 
ATOM     17  C   UNL     1      -3.655  -3.687  -1.270  1.00  0.00     0.120 C 
ATOM     18  C   UNL     1      -4.129  -1.680  -3.329  1.00  0.00     0.025 C 
ATOM     19  C   UNL     1      -4.902  -2.820  -1.253  1.00  0.00     0.025 C 
ATOM     20  C   UNL     1      -5.292  -2.445  -2.684  1.00  0.00    -0.011 C 
ATOM     21  C   UNL     1      -6.580  -1.633  -2.698  1.00  0.00     0.008 C 
ENDBRANCH  13  15
ENDBRANCH   6   7
ENDBRANCH   4   6
ENDBRANCH   3   4
ENDBRANCH   2   3
ENDBRANCH   1   2
BRANCH   1  22
ATOM     22  O   UNL     1       2.910  -7.092  -2.035  1.00  0.00    -0.458 OA
BRANCH  22  23
ATOM     23  C   UNL     1       3.088  -6.410  -0.876  1.00  0.00     0.338 C 
ATOM     24  O   UNL     1       3.392  -5.237  -0.756  1.00  0.00    -0.246 OA
BRANCH  23  25
ATOM     25  C   UNL     1       2.834  -7.326   0.245  1.00  0.00     0.060 A 
ATOM     26  C   UNL     1       3.878  -8.057   0.802  1.00  0.00     0.016 A 
ATOM     27  C   UNL     1       1.555  -7.397   0.796  1.00  0.00     0.016 A 
ATOM     28  C   UNL     1       3.623  -8.865   1.913  1.00  0.00     0.010 A 
ATOM     29  C   UNL     1       1.313  -8.146   1.941  1.00  0.00     0.010 A 
ATOM     30  C   UNL     1       2.342  -8.903   2.499  1.00  0.00    -0.014 A 
BRANCH  30  31
ATOM     31  C   UNL     1       2.099  -9.696   3.725  1.00  0.00     0.031 A 
ATOM     32  C   UNL     1       1.212 -10.906   3.702  1.00  0.00     0.074 A 
ATOM     33  C   UNL     1       2.678  -9.302   4.875  1.00  0.00     0.049 A 
ATOM     34  N   UNL     1       1.033 -11.804   4.636  1.00  0.00    -0.248 NA
ATOM     35  C   UNL     1       0.409 -11.137   2.489  1.00  0.00     0.031 C 
ATOM     36  C   UNL     1       3.456  -8.073   5.047  1.00  0.00     0.029 A 
ATOM     37  N   UNL     1       2.716  -9.898   6.109  1.00  0.00    -0.354 N 
ATOM     38  C   UNL     1       0.108 -12.705   4.125  1.00  0.00     0.074 A 
ATOM     39  C   UNL     1      -0.280 -12.221   2.819  1.00  0.00     0.031 C 
ATOM     40  C   UNL     1       3.946  -8.037   6.295  1.00  0.00     0.029 A 
ATOM     41  C   UNL     1       3.516  -9.236   7.009  1.00  0.00     0.049 A 
ATOM     42  H   UNL     1       2.219 -10.719   6.328  1.00  0.00     0.167 HD
ATOM     43  C   UNL     1      -0.339 -13.857   4.676  1.00  0.00     0.034 A 
ATOM     44  C   UNL     1       3.898  -9.580   8.253  1.00  0.00     0.034 A 
ATOM     45  C   UNL     1       0.079 -14.348   5.960  1.00  0.00     0.049 A 
ATOM     46  C   UNL     1       3.446 -10.894   8.821  1.00  0.00     0.074 A 
ATOM     47  C   UNL     1      -0.255 -15.540   6.575  1.00  0.00     0.029 A 
ATOM     48  N   UNL     1       0.924 -13.671   6.825  1.00  0.00    -0.354 N 
ATOM     49  N   UNL     1       2.702 -11.817   8.260  1.00  0.00    -0.248 NA
ATOM     50  C   UNL     1       3.909 -11.233  10.173  1.00  0.00     0.031 C 
ATOM     51  C   UNL     1       0.389 -15.585   7.815  1.00  0.00     0.029 A 
ATOM     52  C   UNL     1       1.126 -14.421   7.970  1.00  0.00     0.049 A 
ATOM     53  H   UNL     1       1.322 -12.787   6.651  1.00  0.00     0.167 HD
ATOM     54  C   UNL     1       2.620 -12.853   9.182  1.00  0.00     0.074 A 
ATOM     55  C   UNL     1       3.405 -12.451  10.332  1.00  0.00     0.031 C 
ATOM     56  C   UNL     1       1.943 -14.022   9.087  1.00  0.00     0.034 A 
BRANCH  43  57
ATOM     57  C   UNL     1      -1.249 -14.721   3.848  1.00  0.00     0.023 A 
ATOM     58  C   UNL     1      -0.687 -15.483   2.802  1.00  0.00     0.012 A 
ATOM     59  C   UNL     1      -2.620 -14.847   4.140  1.00  0.00     0.148 A 
ATOM     60  C   UNL     1      -1.479 -16.346   2.048  1.00  0.00     0.002 A 
ATOM     61  C   UNL     1      -3.398 -15.732   3.400  1.00  0.00     0.091 A 
ATOM     62  F   UNL     1      -3.134 -14.102   5.128  1.00  0.00    -0.205 F 
ATOM     63  C   UNL     1      -2.830 -16.477   2.352  1.00  0.00     0.022 A 
BRANCH  61  64
ATOM     64  S   UNL     1      -5.139 -16.016   3.738  1.00  0.00     0.127 S 
ATOM     65  O   UNL     1      -5.767 -15.451   2.544  1.00  0.00    -0.237 OA
ATOM     66  O   UNL     1      -5.201 -17.475   3.825  1.00  0.00    -0.237 OA
ATOM     67  O   UNL     1      -5.429 -15.317   4.981  1.00  0.00    -0.744 OA
ENDBRANCH  61  64
ENDBRANCH  43  57
BRANCH  44  68
ATOM     68  C   UNL     1       4.874  -8.716   8.969  1.00  0.00     0.023 A 
ATOM     69  C   UNL     1       6.228  -9.102   9.001  1.00  0.00     0.012 A 
ATOM     70  C   UNL     1       4.493  -7.476   9.517  1.00  0.00     0.148 A 
ATOM     71  C   UNL     1       7.189  -8.268   9.571  1.00  0.00     0.002 A 
ATOM     72  C   UNL     1       5.462  -6.635  10.052  1.00  0.00     0.091 A 
ATOM     73  F   UNL     1       3.199  -7.133   9.466  1.00  0.00    -0.205 F 
ATOM     74  C   UNL     1       6.808  -7.032  10.087  1.00  0.00     0.022 A 
BRANCH  72  75
ATOM     75  S   UNL     1       5.091  -4.984  10.654  1.00  0.00     0.127 S 
ATOM     76  O   UNL     1       5.478  -5.084  12.060  1.00  0.00    -0.237 OA
ATOM     77  O   UNL     1       5.976  -4.161   9.830  1.00  0.00    -0.237 OA
ATOM     78  O   UNL     1       3.669  -4.781  10.414  1.00  0.00    -0.744 OA
ENDBRANCH  72  75
ENDBRANCH  44  68
BRANCH  56  79
ATOM     79  C   UNL     1       1.999 -14.966  10.256  1.00  0.00     0.023 A 
ATOM     80  C   UNL     1       1.176 -14.723  11.371  1.00  0.00     0.012 A 
ATOM     81  C   UNL     1       2.755 -16.152  10.191  1.00  0.00     0.148 A 
ATOM     82  C   UNL     1       1.107 -15.647  12.412  1.00  0.00     0.002 A 
ATOM     83  C   UNL     1       2.657 -17.084  11.217  1.00  0.00     0.091 A 
ATOM     84  F   UNL     1       3.535 -16.353   9.119  1.00  0.00    -0.205 F 
ATOM     85  C   UNL     1       1.837 -16.831  12.329  1.00  0.00     0.022 A 
BRANCH  83  86
ATOM     86  S   UNL     1       3.497 -18.671  11.170  1.00  0.00     0.127 S 
ATOM     87  O   UNL     1       4.450 -18.536  12.270  1.00  0.00    -0.237 OA
ATOM     88  O   UNL     1       2.401 -19.607  11.423  1.00  0.00    -0.237 OA
ATOM     89  O   UNL     1       4.093 -18.775   9.844  1.00  0.00    -0.744 OA
ENDBRANCH  83  86
ENDBRANCH  56  79
ENDBRANCH  30  31
ENDBRANCH  23  25
ENDBRANCH  22  23
ENDBRANCH   1  22
TORSDOF 16
