REMARK SMILES CCCSc1nc2n(n1)[C@@H](c1ccc(C(=O)OCCOC(=O)c3ccc(-c4c5nc(c(-c6cccc(S(=O)(=O)[O-])c6F)c6ccc([nH]6)c(-c6cccc(S(=O)(=O)[O-])c6F)c6nc(c(-c7cccc(S(=O)(=O)[O-])c7F)c7ccc4[nH]7)C=C6)C=C5)cc3)cc1)C(C(=O)Nc1cccc(C)c1)=C(C)N2
REMARK SMILES IDX 18 1 17 2 15 3 16 4 14 5 11 6 12 7 87 8 13 9 86 10 10 11
REMARK SMILES IDX 5 12 6 13 9 14 7 15 8 16 101 17 99 18 88 20 100 21 4 22 3 23
REMARK SMILES IDX 2 24 1 25 89 26 90 27 91 28 92 30 93 31 98 32 94 33 96 34
REMARK SMILES IDX 95 35 97 36 19 37 20 38 21 39 22 40 23 41 24 42 85 43 25 44
REMARK SMILES IDX 84 45 26 46 27 47 28 48 78 49 29 50 83 51 77 52 79 53 30 54
REMARK SMILES IDX 82 55 76 56 75 57 31 59 63 60 43 61 62 62 44 63 47 64 61 65
REMARK SMILES IDX 80 66 45 67 46 68 60 70 81 71 48 72 32 73 33 74 41 75 34 76
REMARK SMILES IDX 36 77 42 78 35 79 37 80 38 81 39 82 40 83 64 84 65 85 73 86
REMARK SMILES IDX 66 87 68 88 74 89 67 90 69 91 70 92 71 93 72 94 49 95 50 96
REMARK SMILES IDX 58 97 51 98 53 99 59 100 52 101 54 102 55 103 56 104 57 105
REMARK H PARENT 101 19 91 29 79 58 47 69
REMARK Flexibility Score: inf
ROOT
ATOM      1  C   UNL     1       8.016  -9.451   0.595  1.00  0.00     0.275 C 
ENDROOT
BRANCH   1   2
ATOM      2  O   UNL     1       6.811  -8.828   1.066  1.00  0.00    -0.458 OA
BRANCH   2   3
ATOM      3  C   UNL     1       6.690  -7.510   0.768  1.00  0.00     0.338 C 
ATOM      4  O   UNL     1       7.585  -6.773   0.378  1.00  0.00    -0.246 OA
BRANCH   3   5
ATOM      5  C   UNL     1       5.281  -7.068   0.894  1.00  0.00     0.060 A 
ATOM      6  C   UNL     1       2.686  -6.003   1.247  1.00  0.00    -0.019 A 
ATOM      7  C   UNL     1       3.611  -5.396   0.375  1.00  0.00     0.007 A 
ATOM      8  C   UNL     1       3.047  -7.246   1.801  1.00  0.00     0.007 A 
ATOM      9  C   UNL     1       4.896  -5.914   0.211  1.00  0.00     0.016 A 
ATOM     10  C   UNL     1       4.336  -7.765   1.646  1.00  0.00     0.016 A 
BRANCH   6  11
ATOM     11  C   UNL     1       1.430  -5.251   1.791  1.00  0.00     0.179 C 
ATOM     12  C   UNL     1       0.671  -2.808  -0.601  1.00  0.00     0.210 A 
ATOM     13  N   UNL     1       1.542  -2.087   0.173  1.00  0.00    -0.185 NA
ATOM     14  N   UNL     1       0.384  -4.040  -0.149  1.00  0.00    -0.141 NA
ATOM     15  C   UNL     1       1.758  -2.876   1.183  1.00  0.00     0.227 A 
ATOM     16  N   UNL     1       1.129  -4.071   0.974  1.00  0.00    -0.218 N 
ATOM     17  N   UNL     1       2.514  -2.724   2.279  1.00  0.00    -0.328 N 
ATOM     18  C   UNL     1       2.519  -3.634   3.335  1.00  0.00     0.026 C 
ATOM     19  H   UNL     1       3.094  -1.931   2.342  1.00  0.00     0.169 HD
ATOM     20  C   UNL     1       1.774  -4.776   3.248  1.00  0.00     0.065 C 
ATOM     21  C   UNL     1       3.465  -3.237   4.435  1.00  0.00     0.065 C 
BRANCH  12  22
ATOM     22  S   UNL     1      -0.055  -2.151  -2.038  1.00  0.00    -0.084 SA
BRANCH  22  23
ATOM     23  C   UNL     1       0.886  -0.604  -2.257  1.00  0.00     0.078 C 
BRANCH  23  24
ATOM     24  C   UNL     1       0.306   0.605  -1.513  1.00  0.00     0.008 C 
ATOM     25  C   UNL     1       0.608   0.660  -0.023  1.00  0.00     0.005 C 
ENDBRANCH  23  24
ENDBRANCH  22  23
ENDBRANCH  12  22
BRANCH  20  26
ATOM     26  C   UNL     1       1.405  -5.802   4.291  1.00  0.00     0.255 C 
ATOM     27  O   UNL     1       0.965  -6.901   3.948  1.00  0.00    -0.269 OA
ATOM     28  N   UNL     1       1.552  -5.605   5.631  1.00  0.00    -0.322 N 
ATOM     29  H   UNL     1       1.739  -6.423   6.147  1.00  0.00     0.170 HD
BRANCH  28  30
ATOM     30  C   UNL     1       1.482  -4.439   6.393  1.00  0.00     0.041 A 
ATOM     31  C   UNL     1       2.273  -4.369   7.543  1.00  0.00     0.026 A 
ATOM     32  C   UNL     1       0.709  -3.346   6.002  1.00  0.00     0.029 A 
ATOM     33  C   UNL     1       2.401  -3.156   8.216  1.00  0.00     0.002 A 
ATOM     34  C   UNL     1       0.826  -2.128   6.679  1.00  0.00    -0.049 A 
ATOM     35  C   UNL     1       1.693  -2.036   7.776  1.00  0.00     0.003 A 
ATOM     36  C   UNL     1       0.104  -0.914   6.176  1.00  0.00     0.044 C 
ENDBRANCH  28  30
ENDBRANCH  20  26
ENDBRANCH   6  11
ENDBRANCH   3   5
ENDBRANCH   2   3
ENDBRANCH   1   2
BRANCH   1  37
ATOM     37  C   UNL     1       7.814 -10.029  -0.799  1.00  0.00     0.275 C 
BRANCH  37  38
ATOM     38  O   UNL     1       7.650  -9.002  -1.776  1.00  0.00    -0.458 OA
BRANCH  38  39
ATOM     39  C   UNL     1       6.364  -8.708  -2.070  1.00  0.00     0.338 C 
ATOM     40  O   UNL     1       5.374  -8.968  -1.406  1.00  0.00    -0.246 OA
BRANCH  39  41
ATOM     41  C   UNL     1       6.282  -8.206  -3.441  1.00  0.00     0.060 A 
ATOM     42  C   UNL     1       5.104  -7.561  -3.833  1.00  0.00     0.016 A 
ATOM     43  C   UNL     1       7.244  -8.631  -4.367  1.00  0.00     0.016 A 
ATOM     44  C   UNL     1       4.828  -7.463  -5.181  1.00  0.00     0.010 A 
ATOM     45  C   UNL     1       6.960  -8.544  -5.707  1.00  0.00     0.010 A 
ATOM     46  C   UNL     1       5.728  -8.020  -6.095  1.00  0.00    -0.014 A 
BRANCH  46  47
ATOM     47  C   UNL     1       5.401  -7.958  -7.505  1.00  0.00     0.031 A 
ATOM     48  C   UNL     1       5.518  -6.597  -8.081  1.00  0.00     0.074 A 
ATOM     49  C   UNL     1       5.194  -9.074  -8.230  1.00  0.00     0.049 A 
ATOM     50  N   UNL     1       4.602  -5.897  -8.664  1.00  0.00    -0.248 NA
ATOM     51  C   UNL     1       6.778  -5.869  -7.852  1.00  0.00     0.031 C 
ATOM     52  C   UNL     1       5.383 -10.464  -7.802  1.00  0.00     0.029 A 
ATOM     53  N   UNL     1       4.944  -9.192  -9.562  1.00  0.00    -0.354 N 
ATOM     54  C   UNL     1       5.241  -4.730  -9.076  1.00  0.00     0.074 A 
ATOM     55  C   UNL     1       6.503  -4.682  -8.388  1.00  0.00     0.031 C 
ATOM     56  C   UNL     1       5.518 -11.244  -8.897  1.00  0.00     0.029 A 
ATOM     57  C   UNL     1       5.306 -10.431 -10.082  1.00  0.00     0.049 A 
ATOM     58  H   UNL     1       4.547  -8.472 -10.105  1.00  0.00     0.167 HD
ATOM     59  C   UNL     1       4.807  -4.026 -10.154  1.00  0.00     0.034 A 
ATOM     60  C   UNL     1       5.535 -10.718 -11.387  1.00  0.00     0.034 A 
ATOM     61  C   UNL     1       3.448  -4.350 -10.495  1.00  0.00     0.049 A 
ATOM     62  C   UNL     1       4.907  -9.646 -12.197  1.00  0.00     0.074 A 
ATOM     63  C   UNL     1       2.245  -4.323  -9.817  1.00  0.00     0.029 A 
ATOM     64  N   UNL     1       3.244  -5.151 -11.592  1.00  0.00    -0.354 N 
ATOM     65  N   UNL     1       3.619  -9.452 -12.268  1.00  0.00    -0.248 NA
ATOM     66  C   UNL     1       5.734  -8.513 -12.580  1.00  0.00     0.031 C 
ATOM     67  C   UNL     1       1.552  -5.487 -10.260  1.00  0.00     0.029 A 
ATOM     68  C   UNL     1       2.345  -6.115 -11.222  1.00  0.00     0.049 A 
ATOM     69  H   UNL     1       3.665  -5.051 -12.476  1.00  0.00     0.167 HD
ATOM     70  C   UNL     1       3.478  -8.070 -12.257  1.00  0.00     0.074 A 
ATOM     71  C   UNL     1       4.810  -7.548 -12.555  1.00  0.00     0.031 C 
ATOM     72  C   UNL     1       2.373  -7.473 -11.718  1.00  0.00     0.034 A 
BRANCH  59  73
ATOM     73  C   UNL     1       5.726  -3.318 -11.119  1.00  0.00     0.023 A 
ATOM     74  C   UNL     1       5.135  -2.469 -12.078  1.00  0.00     0.012 A 
ATOM     75  C   UNL     1       7.089  -3.650 -11.307  1.00  0.00     0.148 A 
ATOM     76  C   UNL     1       5.852  -2.010 -13.189  1.00  0.00     0.002 A 
ATOM     77  C   UNL     1       7.820  -3.119 -12.361  1.00  0.00     0.091 A 
ATOM     78  F   UNL     1       7.661  -4.595 -10.555  1.00  0.00    -0.205 F 
ATOM     79  C   UNL     1       7.198  -2.325 -13.325  1.00  0.00     0.022 A 
BRANCH  77  80
ATOM     80  S   UNL     1       9.578  -3.446 -12.538  1.00  0.00     0.127 S 
ATOM     81  O   UNL     1       9.587  -4.422 -13.623  1.00  0.00    -0.237 OA
ATOM     82  O   UNL     1      10.095  -2.123 -12.889  1.00  0.00    -0.237 OA
ATOM     83  O   UNL     1      10.015  -3.927 -11.233  1.00  0.00    -0.744 OA
ENDBRANCH  77  80
ENDBRANCH  59  73
BRANCH  60  84
ATOM     84  C   UNL     1       6.514 -11.671 -11.965  1.00  0.00     0.023 A 
ATOM     85  C   UNL     1       6.355 -12.114 -13.292  1.00  0.00     0.012 A 
ATOM     86  C   UNL     1       7.738 -11.949 -11.315  1.00  0.00     0.148 A 
ATOM     87  C   UNL     1       7.386 -12.793 -13.955  1.00  0.00     0.002 A 
ATOM     88  C   UNL     1       8.752 -12.641 -11.969  1.00  0.00     0.091 A 
ATOM     89  F   UNL     1       7.949 -11.453 -10.088  1.00  0.00    -0.205 F 
ATOM     90  C   UNL     1       8.585 -13.055 -13.295  1.00  0.00     0.022 A 
BRANCH  88  91
ATOM     91  S   UNL     1      10.323 -13.009 -11.173  1.00  0.00     0.127 S 
ATOM     92  O   UNL     1      10.515 -14.419 -11.516  1.00  0.00    -0.237 OA
ATOM     93  O   UNL     1      11.230 -12.086 -11.849  1.00  0.00    -0.237 OA
ATOM     94  O   UNL     1      10.113 -12.767  -9.751  1.00  0.00    -0.744 OA
ENDBRANCH  88  91
ENDBRANCH  60  84
BRANCH  72  95
ATOM     95  C   UNL     1       1.194  -8.338 -11.348  1.00  0.00     0.023 A 
ATOM     96  C   UNL     1       1.282  -9.353 -10.371  1.00  0.00     0.012 A 
ATOM     97  C   UNL     1      -0.071  -7.988 -11.850  1.00  0.00     0.148 A 
ATOM     98  C   UNL     1       0.137 -10.018  -9.923  1.00  0.00     0.002 A 
ATOM     99  C   UNL     1      -1.212  -8.618 -11.367  1.00  0.00     0.091 A 
ATOM    100  F   UNL     1      -0.140  -7.017 -12.773  1.00  0.00    -0.205 F 
ATOM    101  C   UNL     1      -1.112  -9.640 -10.410  1.00  0.00     0.022 A 
BRANCH  99 102
ATOM    102  S   UNL     1      -2.853  -8.087 -11.861  1.00  0.00     0.127 S 
ATOM    103  O   UNL     1      -3.247  -9.139 -12.796  1.00  0.00    -0.237 OA
ATOM    104  O   UNL     1      -3.583  -8.093 -10.592  1.00  0.00    -0.237 OA
ATOM    105  O   UNL     1      -2.686  -6.761 -12.443  1.00  0.00    -0.744 OA
ENDBRANCH  99 102
ENDBRANCH  72  95
ENDBRANCH  46  47
ENDBRANCH  39  41
ENDBRANCH  38  39
ENDBRANCH  37  38
ENDBRANCH   1  37
TORSDOF 20
