REMARK SMILES O=C(CCN1C(=O)[C@@H]2[C@@H](C1=O)[C@H]1c3ccccc3[C@]2(Br)c2ccccc21)OCCOC(=O)c1ccc(-c2c3nc(c(-c4cccc(S(=O)(=O)[O-])c4F)c4ccc([nH]4)c(-c4cccc(S(=O)(=O)[O-])c4F)c4nc(c(-c5cccc(S(=O)(=O)[O-])c5F)c5ccc2[nH]5)C=C4)C=C3)cc1
REMARK SMILES IDX 29 1 28 2 27 3 2 4 1 5 3 6 4 7 5 8 6 9 10 10 7 11 8 12 9 13
REMARK SMILES IDX 11 14 19 15 12 16 21 17 20 18 18 19 26 20 13 21 22 22 17 23
REMARK SMILES IDX 25 24 14 25 23 26 16 27 24 28 15 29 30 30 31 31 32 32 33 33
REMARK SMILES IDX 34 34 95 35 35 36 94 37 36 38 37 39 38 40 88 41 39 42 93 43
REMARK SMILES IDX 87 44 89 45 40 46 92 47 86 48 85 49 41 51 73 52 53 53 72 54
REMARK SMILES IDX 54 55 57 56 71 57 90 58 55 59 56 60 70 62 91 63 58 64 42 65
REMARK SMILES IDX 43 66 51 67 44 68 46 69 52 70 45 71 47 72 48 73 49 74 50 75
REMARK SMILES IDX 74 76 75 77 83 78 76 79 78 80 84 81 77 82 79 83 80 84 81 85
REMARK SMILES IDX 82 86 59 87 60 88 68 89 61 90 63 91 69 92 62 93 64 94 65 95
REMARK SMILES IDX 66 96 67 97
REMARK H PARENT 89 50 57 61
REMARK Flexibility Score: inf
ROOT
ATOM      1  C   UNL     1       3.944   2.549   0.305  1.00  0.00     0.275 C 
ENDROOT
BRANCH   1   2
ATOM      2  C   UNL     1       3.868   1.321  -0.593  1.00  0.00     0.274 C 
BRANCH   2   3
ATOM      3  O   UNL     1       2.584   0.666  -0.542  1.00  0.00    -0.462 OA
BRANCH   3   4
ATOM      4  C   UNL     1       2.343  -0.565  -0.027  1.00  0.00     0.307 C 
ATOM      5  O   UNL     1       1.277  -1.134  -0.252  1.00  0.00    -0.252 OA
BRANCH   4   6
ATOM      6  C   UNL     1       3.375  -1.214   0.870  1.00  0.00     0.144 C 
BRANCH   6   7
ATOM      7  C   UNL     1       4.120  -2.360   0.191  1.00  0.00     0.140 C 
BRANCH   7   8
ATOM      8  N   UNL     1       5.120  -1.887  -0.753  1.00  0.00    -0.281 N 
ATOM      9  C   UNL     1       6.474  -1.687  -0.453  1.00  0.00     0.235 C 
ATOM     10  C   UNL     1       4.803  -1.500  -2.046  1.00  0.00     0.234 C 
ATOM     11  O   UNL     1       7.080  -2.033   0.541  1.00  0.00    -0.274 OA
ATOM     12  C   UNL     1       6.930  -0.727  -1.515  1.00  0.00     0.118 C 
ATOM     13  C   UNL     1       6.116  -1.282  -2.691  1.00  0.00     0.105 C 
ATOM     14  O   UNL     1       3.718  -1.430  -2.587  1.00  0.00    -0.274 OA
ATOM     15  C   UNL     1       8.278  -0.215  -2.062  1.00  0.00     0.088 C 
ATOM     16  C   UNL     1       6.387  -0.443  -3.938  1.00  0.00     0.063 C 
ATOM     17  C   UNL     1       7.798   1.164  -2.644  1.00  0.00    -0.022 A 
ATOM     18  Br  UNL     1       9.586  -0.040  -0.666  1.00  0.00    -0.074 Br
ATOM     19  C   UNL     1       8.731  -1.023  -3.298  1.00  0.00    -0.022 A 
ATOM     20  C   UNL     1       6.713   1.010  -3.576  1.00  0.00    -0.035 A 
ATOM     21  C   UNL     1       7.736  -1.070  -4.339  1.00  0.00    -0.035 A 
ATOM     22  C   UNL     1       8.239   2.443  -2.314  1.00  0.00     0.006 A 
ATOM     23  C   UNL     1       9.945  -1.662  -3.510  1.00  0.00     0.006 A 
ATOM     24  C   UNL     1       6.073   2.117  -4.119  1.00  0.00     0.005 A 
ATOM     25  C   UNL     1       7.954  -1.734  -5.538  1.00  0.00     0.005 A 
ATOM     26  C   UNL     1       7.598   3.550  -2.880  1.00  0.00     0.000 A 
ATOM     27  C   UNL     1      10.159  -2.336  -4.719  1.00  0.00     0.000 A 
ATOM     28  C   UNL     1       6.520   3.390  -3.761  1.00  0.00     0.000 A 
ATOM     29  C   UNL     1       9.177  -2.369  -5.721  1.00  0.00     0.000 A 
ENDBRANCH   7   8
ENDBRANCH   6   7
ENDBRANCH   4   6
ENDBRANCH   3   4
ENDBRANCH   2   3
ENDBRANCH   1   2
BRANCH   1  30
ATOM     30  O   UNL     1       3.761   2.128   1.663  1.00  0.00    -0.458 OA
BRANCH  30  31
ATOM     31  C   UNL     1       2.471   2.153   2.082  1.00  0.00     0.338 C 
ATOM     32  O   UNL     1       1.539   2.704   1.522  1.00  0.00    -0.246 OA
BRANCH  31  33
ATOM     33  C   UNL     1       2.322   1.222   3.219  1.00  0.00     0.060 A 
ATOM     34  C   UNL     1       3.357   1.005   4.135  1.00  0.00     0.016 A 
ATOM     35  C   UNL     1       1.112   0.529   3.342  1.00  0.00     0.016 A 
ATOM     36  C   UNL     1       3.159   0.126   5.199  1.00  0.00     0.010 A 
ATOM     37  C   UNL     1       0.910  -0.338   4.416  1.00  0.00     0.010 A 
ATOM     38  C   UNL     1       1.923  -0.522   5.366  1.00  0.00    -0.014 A 
BRANCH  38  39
ATOM     39  C   UNL     1       1.635  -1.223   6.638  1.00  0.00     0.031 A 
ATOM     40  C   UNL     1       1.583  -2.715   6.736  1.00  0.00     0.074 A 
ATOM     41  C   UNL     1       1.390  -0.462   7.723  1.00  0.00     0.049 A 
ATOM     42  N   UNL     1       1.471  -3.453   7.809  1.00  0.00    -0.248 NA
ATOM     43  C   UNL     1       1.661  -3.479   5.482  1.00  0.00     0.031 C 
ATOM     44  C   UNL     1       1.339   1.003   7.723  1.00  0.00     0.029 A 
ATOM     45  N   UNL     1       1.143  -0.804   9.027  1.00  0.00    -0.354 N 
ATOM     46  C   UNL     1       1.453  -4.768   7.367  1.00  0.00     0.074 A 
ATOM     47  C   UNL     1       1.555  -4.729   5.923  1.00  0.00     0.031 C 
ATOM     48  C   UNL     1       1.110   1.434   8.971  1.00  0.00     0.029 A 
ATOM     49  C   UNL     1       0.984   0.281   9.856  1.00  0.00     0.049 A 
ATOM     50  H   UNL     1       1.085  -1.736   9.339  1.00  0.00     0.167 HD
ATOM     51  C   UNL     1       1.376  -5.899   8.106  1.00  0.00     0.034 A 
ATOM     52  C   UNL     1       0.779   0.345  11.185  1.00  0.00     0.034 A 
ATOM     53  C   UNL     1       1.292  -5.925   9.542  1.00  0.00     0.049 A 
ATOM     54  C   UNL     1       0.727  -0.925  11.981  1.00  0.00     0.074 A 
ATOM     55  C   UNL     1       1.309  -7.027  10.380  1.00  0.00     0.029 A 
ATOM     56  N   UNL     1       1.154  -4.809  10.351  1.00  0.00    -0.354 N 
ATOM     57  N   UNL     1       0.889  -2.157  11.566  1.00  0.00    -0.248 NA
ATOM     58  C   UNL     1       0.492  -0.800  13.426  1.00  0.00     0.031 C 
ATOM     59  C   UNL     1       1.159  -6.578  11.694  1.00  0.00     0.029 A 
ATOM     60  C   UNL     1       1.065  -5.196  11.676  1.00  0.00     0.049 A 
ATOM     61  H   UNL     1       1.124  -3.879  10.030  1.00  0.00     0.167 HD
ATOM     62  C   UNL     1       0.799  -2.954  12.699  1.00  0.00     0.074 A 
ATOM     63  C   UNL     1       0.576  -2.066  13.821  1.00  0.00     0.031 C 
ATOM     64  C   UNL     1       0.885  -4.302  12.791  1.00  0.00     0.034 A 
BRANCH  51  65
ATOM     65  C   UNL     1       1.440  -7.223   7.396  1.00  0.00     0.023 A 
ATOM     66  C   UNL     1       2.694  -7.714   6.981  1.00  0.00     0.012 A 
ATOM     67  C   UNL     1       0.297  -8.034   7.266  1.00  0.00     0.148 A 
ATOM     68  C   UNL     1       2.809  -8.995   6.442  1.00  0.00     0.002 A 
ATOM     69  C   UNL     1       0.423  -9.319   6.752  1.00  0.00     0.091 A 
ATOM     70  F   UNL     1      -0.885  -7.539   7.661  1.00  0.00    -0.205 F 
ATOM     71  C   UNL     1       1.677  -9.800   6.338  1.00  0.00     0.022 A 
BRANCH  69  72
ATOM     72  S   UNL     1      -0.959 -10.461   6.629  1.00  0.00     0.127 S 
ATOM     73  O   UNL     1      -1.092 -10.604   5.179  1.00  0.00    -0.237 OA
ATOM     74  O   UNL     1      -0.441 -11.645   7.314  1.00  0.00    -0.237 OA
ATOM     75  O   UNL     1      -2.080  -9.811   7.292  1.00  0.00    -0.744 OA
ENDBRANCH  69  72
ENDBRANCH  51  65
BRANCH  52  76
ATOM     76  C   UNL     1       0.719   1.678  11.839  1.00  0.00     0.023 A 
ATOM     77  C   UNL     1       1.848   2.144  12.539  1.00  0.00     0.012 A 
ATOM     78  C   UNL     1      -0.397   2.521  11.682  1.00  0.00     0.148 A 
ATOM     79  C   UNL     1       1.865   3.430  13.078  1.00  0.00     0.002 A 
ATOM     80  C   UNL     1      -0.360   3.813  12.190  1.00  0.00     0.091 A 
ATOM     81  F   UNL     1      -1.453   2.051  11.004  1.00  0.00    -0.205 F 
ATOM     82  C   UNL     1       0.767   4.267  12.895  1.00  0.00     0.022 A 
BRANCH  80  83
ATOM     83  S   UNL     1      -1.679   5.002  11.920  1.00  0.00     0.127 S 
ATOM     84  O   UNL     1      -2.122   5.270  13.286  1.00  0.00    -0.237 OA
ATOM     85  O   UNL     1      -0.959   6.103  11.278  1.00  0.00    -0.237 OA
ATOM     86  O   UNL     1      -2.651   4.332  11.069  1.00  0.00    -0.744 OA
ENDBRANCH  80  83
ENDBRANCH  52  76
BRANCH  64  87
ATOM     87  C   UNL     1       0.747  -4.932  14.149  1.00  0.00     0.023 A 
ATOM     88  C   UNL     1      -0.538  -5.121  14.692  1.00  0.00     0.012 A 
ATOM     89  C   UNL     1       1.870  -5.474  14.805  1.00  0.00     0.148 A 
ATOM     90  C   UNL     1      -0.704  -5.844  15.873  1.00  0.00     0.002 A 
ATOM     91  C   UNL     1       1.693  -6.223  15.962  1.00  0.00     0.091 A 
ATOM     92  F   UNL     1       3.081  -5.274  14.265  1.00  0.00    -0.205 F 
ATOM     93  C   UNL     1       0.407  -6.405  16.499  1.00  0.00     0.022 A 
BRANCH  91  94
ATOM     94  S   UNL     1       3.048  -7.053  16.799  1.00  0.00     0.127 S 
ATOM     95  O   UNL     1       3.051  -6.383  18.099  1.00  0.00    -0.237 OA
ATOM     96  O   UNL     1       2.588  -8.441  16.827  1.00  0.00    -0.237 OA
ATOM     97  O   UNL     1       4.233  -6.818  15.984  1.00  0.00    -0.744 OA
ENDBRANCH  91  94
ENDBRANCH  64  87
ENDBRANCH  38  39
ENDBRANCH  31  33
ENDBRANCH  30  31
ENDBRANCH   1  30
TORSDOF 16
