REMARK SMILES CC(C)[C@@H](CCNC(=O)N1C[C@@H](C)[C@H](C)C1)CCC(=O)OCCOC(=O)c1ccc(-c2c3nc(c(-c4cccc(S(=O)(=O)[O-])c4F)c4ccc([nH]4)c(-c4cccc(S(=O)(=O)[O-])c4F)c4nc(c(-c5cccc(S(=O)(=O)[O-])c5F)c5ccc2[nH]5)C=C4)C=C3)cc1
REMARK SMILES IDX 22 1 21 2 19 3 20 4 18 5 17 6 4 7 2 8 1 9 3 10 5 11 6 12
REMARK SMILES IDX 7 13 8 14 9 16 10 17 11 18 16 19 12 20 14 21 13 22 15 23
REMARK SMILES IDX 23 24 24 25 25 26 26 27 27 28 28 29 89 30 29 31 88 32 30 33
REMARK SMILES IDX 31 34 32 35 82 36 33 37 87 38 81 39 83 40 34 41 86 42 80 43
REMARK SMILES IDX 79 44 35 46 67 47 47 48 66 49 48 50 51 51 65 52 84 53 49 54
REMARK SMILES IDX 50 55 64 57 85 58 52 59 36 60 37 61 45 62 38 63 40 64 46 65
REMARK SMILES IDX 39 66 41 67 42 68 43 69 44 70 68 71 69 72 77 73 70 74 72 75
REMARK SMILES IDX 78 76 71 77 73 78 74 79 75 80 76 81 53 82 54 83 62 84 55 85
REMARK SMILES IDX 57 86 63 87 56 88 58 89 59 90 60 91 61 92
REMARK H PARENT 7 15 83 45 51 56
REMARK Flexibility Score: inf
ROOT
ATOM      1  C   UNL     1      -1.917   3.873  -1.917  1.00  0.00     0.274 C 
ENDROOT
BRANCH   1   2
ATOM      2  O   UNL     1      -1.468   3.329  -0.660  1.00  0.00    -0.462 OA
BRANCH   2   3
ATOM      3  C   UNL     1      -0.857   4.186   0.189  1.00  0.00     0.305 C 
ATOM      4  O   UNL     1      -0.666   5.375  -0.042  1.00  0.00    -0.252 OA
BRANCH   3   5
ATOM      5  C   UNL     1      -0.364   3.543   1.468  1.00  0.00     0.123 C 
BRANCH   5   6
ATOM      6  C   UNL     1      -0.796   2.118   1.832  1.00  0.00     0.015 C 
BRANCH   6   7
ATOM      7  C   UNL     1      -0.446   0.927   0.903  1.00  0.00    -0.006 C 
BRANCH   7   8
ATOM      8  C   UNL     1       1.071   0.567   0.780  1.00  0.00    -0.014 C 
ATOM      9  C   UNL     1       1.285  -0.612  -0.184  1.00  0.00     0.007 C 
ATOM     10  C   UNL     1       1.952   1.722   0.294  1.00  0.00     0.007 C 
ENDBRANCH   7   8
BRANCH   7  11
ATOM     11  C   UNL     1      -1.328  -0.304   1.296  1.00  0.00     0.025 C 
BRANCH  11  12
ATOM     12  C   UNL     1      -0.964  -1.068   2.580  1.00  0.00     0.118 C 
BRANCH  12  13
ATOM     13  N   UNL     1      -1.567  -0.489   3.766  1.00  0.00    -0.338 N 
ATOM     14  C   UNL     1      -2.643  -0.964   4.444  1.00  0.00     0.317 C 
ATOM     15  H   UNL     1      -1.153   0.333   4.115  1.00  0.00     0.165 HD
ATOM     16  O   UNL     1      -3.447  -0.153   4.898  1.00  0.00    -0.249 OA
ATOM     17  N   UNL     1      -2.777  -2.316   4.597  1.00  0.00    -0.324 N 
ATOM     18  C   UNL     1      -4.056  -2.885   4.980  1.00  0.00     0.125 C 
ATOM     19  C   UNL     1      -1.678  -3.214   4.917  1.00  0.00     0.125 C 
ATOM     20  C   UNL     1      -3.721  -4.100   5.841  1.00  0.00     0.010 C 
ATOM     21  C   UNL     1      -2.338  -4.533   5.328  1.00  0.00     0.010 C 
ATOM     22  C   UNL     1      -4.772  -5.196   5.722  1.00  0.00     0.010 C 
ATOM     23  C   UNL     1      -1.527  -5.281   6.378  1.00  0.00     0.010 C 
ENDBRANCH  12  13
ENDBRANCH  11  12
ENDBRANCH   7  11
ENDBRANCH   6   7
ENDBRANCH   5   6
ENDBRANCH   3   5
ENDBRANCH   2   3
ENDBRANCH   1   2
BRANCH   1  24
ATOM     24  C   UNL     1      -3.442   3.834  -2.019  1.00  0.00     0.275 C 
BRANCH  24  25
ATOM     25  O   UNL     1      -4.048   4.648  -1.000  1.00  0.00    -0.458 OA
BRANCH  25  26
ATOM     26  C   UNL     1      -4.399   3.973   0.121  1.00  0.00     0.338 C 
ATOM     27  O   UNL     1      -4.338   2.770   0.305  1.00  0.00    -0.246 OA
BRANCH  26  28
ATOM     28  C   UNL     1      -4.713   4.931   1.192  1.00  0.00     0.060 A 
ATOM     29  C   UNL     1      -3.852   4.959   2.290  1.00  0.00     0.016 A 
ATOM     30  C   UNL     1      -5.862   5.722   1.171  1.00  0.00     0.016 A 
ATOM     31  C   UNL     1      -4.139   5.768   3.383  1.00  0.00     0.010 A 
ATOM     32  C   UNL     1      -6.150   6.539   2.273  1.00  0.00     0.010 A 
ATOM     33  C   UNL     1      -5.300   6.553   3.394  1.00  0.00    -0.014 A 
BRANCH  33  34
ATOM     34  C   UNL     1      -5.630   7.324   4.620  1.00  0.00     0.031 A 
ATOM     35  C   UNL     1      -6.760   6.880   5.507  1.00  0.00     0.074 A 
ATOM     36  C   UNL     1      -4.877   8.385   4.967  1.00  0.00     0.049 A 
ATOM     37  N   UNL     1      -7.191   7.412   6.622  1.00  0.00    -0.248 NA
ATOM     38  C   UNL     1      -7.508   5.685   5.083  1.00  0.00     0.031 C 
ATOM     39  C   UNL     1      -3.753   8.910   4.192  1.00  0.00     0.029 A 
ATOM     40  N   UNL     1      -4.939   9.207   6.064  1.00  0.00    -0.354 N 
ATOM     41  C   UNL     1      -8.287   6.649   7.008  1.00  0.00     0.074 A 
ATOM     42  C   UNL     1      -8.455   5.617   6.008  1.00  0.00     0.031 C 
ATOM     43  C   UNL     1      -3.221   9.956   4.844  1.00  0.00     0.029 A 
ATOM     44  C   UNL     1      -3.984  10.195   6.067  1.00  0.00     0.049 A 
ATOM     45  H   UNL     1      -5.605   9.099   6.782  1.00  0.00     0.167 HD
ATOM     46  C   UNL     1      -9.070   6.784   8.105  1.00  0.00     0.034 A 
ATOM     47  C   UNL     1      -3.749  11.184   6.952  1.00  0.00     0.034 A 
ATOM     48  C   UNL     1      -8.863   7.770   9.132  1.00  0.00     0.049 A 
ATOM     49  C   UNL     1      -4.604  11.279   8.187  1.00  0.00     0.074 A 
ATOM     50  C   UNL     1      -9.585   7.967  10.296  1.00  0.00     0.029 A 
ATOM     51  N   UNL     1      -7.849   8.716   9.128  1.00  0.00    -0.354 N 
ATOM     52  N   UNL     1      -5.586  10.501   8.574  1.00  0.00    -0.248 NA
ATOM     53  C   UNL     1      -4.302  12.373   9.123  1.00  0.00     0.031 C 
ATOM     54  C   UNL     1      -9.009   9.033  10.996  1.00  0.00     0.029 A 
ATOM     55  C   UNL     1      -7.923   9.496  10.270  1.00  0.00     0.049 A 
ATOM     56  H   UNL     1      -7.176   8.819   8.417  1.00  0.00     0.167 HD
ATOM     57  C   UNL     1      -6.006  10.996   9.803  1.00  0.00     0.074 A 
ATOM     58  C   UNL     1      -5.147  12.122  10.113  1.00  0.00     0.031 C 
ATOM     59  C   UNL     1      -7.027  10.578  10.590  1.00  0.00     0.034 A 
BRANCH  46  60
ATOM     60  C   UNL     1     -10.210   5.815   8.269  1.00  0.00     0.023 A 
ATOM     61  C   UNL     1      -9.947   4.493   8.679  1.00  0.00     0.012 A 
ATOM     62  C   UNL     1     -11.543   6.223   8.064  1.00  0.00     0.148 A 
ATOM     63  C   UNL     1     -10.989   3.583   8.855  1.00  0.00     0.002 A 
ATOM     64  C   UNL     1     -12.580   5.321   8.278  1.00  0.00     0.091 A 
ATOM     65  F   UNL     1     -11.773   7.476   7.648  1.00  0.00    -0.205 F 
ATOM     66  C   UNL     1     -12.304   3.999   8.665  1.00  0.00     0.022 A 
BRANCH  64  67
ATOM     67  S   UNL     1     -14.308   5.788   8.124  1.00  0.00     0.127 S 
ATOM     68  O   UNL     1     -14.664   5.190   6.839  1.00  0.00    -0.237 OA
ATOM     69  O   UNL     1     -14.913   5.136   9.287  1.00  0.00    -0.237 OA
ATOM     70  O   UNL     1     -14.332   7.243   8.170  1.00  0.00    -0.744 OA
ENDBRANCH  64  67
ENDBRANCH  46  60
BRANCH  47  71
ATOM     71  C   UNL     1      -2.617  12.127   6.727  1.00  0.00     0.023 A 
ATOM     72  C   UNL     1      -1.490  12.070   7.569  1.00  0.00     0.012 A 
ATOM     73  C   UNL     1      -2.631  13.048   5.662  1.00  0.00     0.148 A 
ATOM     74  C   UNL     1      -0.406  12.927   7.366  1.00  0.00     0.002 A 
ATOM     75  C   UNL     1      -1.525  13.858   5.430  1.00  0.00     0.091 A 
ATOM     76  F   UNL     1      -3.724  13.110   4.887  1.00  0.00    -0.205 F 
ATOM     77  C   UNL     1      -0.418  13.810   6.290  1.00  0.00     0.022 A 
BRANCH  75  78
ATOM     78  S   UNL     1      -1.410  14.914   3.981  1.00  0.00     0.127 S 
ATOM     79  O   UNL     1      -1.730  16.225   4.538  1.00  0.00    -0.237 OA
ATOM     80  O   UNL     1      -0.013  14.739   3.581  1.00  0.00    -0.237 OA
ATOM     81  O   UNL     1      -2.372  14.369   3.032  1.00  0.00    -0.744 OA
ENDBRANCH  75  78
ENDBRANCH  47  71
BRANCH  59  82
ATOM     82  C   UNL     1      -7.268  11.334  11.870  1.00  0.00     0.023 A 
ATOM     83  C   UNL     1      -7.858  12.612  11.818  1.00  0.00     0.012 A 
ATOM     84  C   UNL     1      -6.963  10.764  13.122  1.00  0.00     0.148 A 
ATOM     85  C   UNL     1      -8.110  13.327  12.988  1.00  0.00     0.002 A 
ATOM     86  C   UNL     1      -7.254  11.466  14.287  1.00  0.00     0.091 A 
ATOM     87  F   UNL     1      -6.380   9.557  13.155  1.00  0.00    -0.205 F 
ATOM     88  C   UNL     1      -7.818  12.751  14.222  1.00  0.00     0.022 A 
BRANCH  86  89
ATOM     89  S   UNL     1      -6.982  10.749  15.912  1.00  0.00     0.127 S 
ATOM     90  O   UNL     1      -5.665  11.280  16.259  1.00  0.00    -0.237 OA
ATOM     91  O   UNL     1      -8.087  11.303  16.696  1.00  0.00    -0.237 OA
ATOM     92  O   UNL     1      -7.055   9.307  15.716  1.00  0.00    -0.744 OA
ENDBRANCH  86  89
ENDBRANCH  59  82
ENDBRANCH  33  34
ENDBRANCH  26  28
ENDBRANCH  25  26
ENDBRANCH  24  25
ENDBRANCH   1  24
TORSDOF 20
