REMARK SMILES [NH3+][C@@]1(C(=O)OCCOC(=O)c2ccc(-c3c4nc(c(-c5cccc(S(=O)(=O)[O-])c5F)c5ccc([nH]5)c(-c5cccc(S(=O)(=O)[O-])c5F)c5nc(c(-c6cccc(S(=O)(=O)[O-])c6F)c6ccc3[nH]6)C=C5)C=C4)cc2)CCC[C@@H](Oc2ccccc2[N+](=O)[O-])C1
REMARK SMILES IDX 6 1 5 2 3 3 4 4 2 5 74 6 88 7 75 8 77 9 76 10 1 11 78 15
REMARK SMILES IDX 79 16 80 17 84 18 81 19 83 20 82 21 85 22 86 23 87 24 7 25
REMARK SMILES IDX 8 26 9 27 10 28 11 29 12 30 73 31 13 32 72 33 14 34 15 35
REMARK SMILES IDX 16 36 66 37 17 38 71 39 65 40 67 41 18 42 70 43 64 44 63 45
REMARK SMILES IDX 19 47 51 48 31 49 50 50 32 51 35 52 49 53 68 54 33 55 34 56
REMARK SMILES IDX 48 58 69 59 36 60 20 61 21 62 29 63 22 64 24 65 30 66 23 67
REMARK SMILES IDX 25 68 26 69 27 70 28 71 52 72 53 73 61 74 54 75 56 76 62 77
REMARK SMILES IDX 55 78 57 79 58 80 59 81 60 82 37 83 38 84 46 85 39 86 41 87
REMARK SMILES IDX 47 88 40 89 42 90 43 91 44 92 45 93
REMARK H PARENT 1 12 1 13 1 14 67 46 35 57
REMARK Flexibility Score: inf
ROOT
ATOM      1  C   UNL     1      -4.799  -0.293   0.065  1.00  0.00     0.274 C 
ENDROOT
BRANCH   1   2
ATOM      2  O   UNL     1      -3.456  -0.632  -0.328  1.00  0.00    -0.457 OA
BRANCH   2   3
ATOM      3  C   UNL     1      -2.471   0.218   0.085  1.00  0.00     0.368 C 
ATOM      4  O   UNL     1      -2.668   1.188   0.810  1.00  0.00    -0.245 OA
BRANCH   3   5
ATOM      5  C   UNL     1      -1.072  -0.144  -0.522  1.00  0.00     0.196 C 
ATOM      6  C   UNL     1      -0.259  -1.115   0.349  1.00  0.00     0.081 C 
ATOM      7  C   UNL     1      -0.287   1.190  -0.609  1.00  0.00     0.126 C 
ATOM      8  C   UNL     1       1.157  -1.357  -0.189  1.00  0.00     0.011 C 
ATOM      9  C   UNL     1       1.206   1.123  -0.951  1.00  0.00     0.180 C 
ATOM     10  C   UNL     1       1.959  -0.061  -0.320  1.00  0.00     0.046 C 
BRANCH   5  11
ATOM     11  N   UNL     1      -1.316  -0.814  -1.812  1.00  0.00    -0.343 N 
ATOM     12  H   UNL     1      -0.425  -1.065  -2.238  1.00  0.00     0.345 HD
ATOM     13  H   UNL     1      -1.824  -0.183  -2.432  1.00  0.00     0.345 HD
ATOM     14  H   UNL     1      -1.870  -1.657  -1.657  1.00  0.00     0.345 HD
ENDBRANCH   5  11
BRANCH   9  15
ATOM     15  O   UNL     1       1.552   1.440  -2.318  1.00  0.00    -0.483 OA
BRANCH  15  16
ATOM     16  C   UNL     1       1.069   0.636  -3.299  1.00  0.00     0.197 A 
ATOM     17  C   UNL     1       1.763  -0.536  -3.603  1.00  0.00     0.054 A 
ATOM     18  C   UNL     1      -0.064   0.958  -4.055  1.00  0.00     0.310 A 
ATOM     19  C   UNL     1       1.253  -1.435  -4.545  1.00  0.00     0.004 A 
ATOM     20  C   UNL     1      -0.591   0.056  -4.992  1.00  0.00     0.090 A 
ATOM     21  C   UNL     1       0.065  -1.152  -5.219  1.00  0.00     0.007 A 
BRANCH  18  22
ATOM     22  N   UNL     1      -0.806   2.181  -3.814  1.00  0.00     0.066 N 
ATOM     23  O   UNL     1      -2.022   2.054  -3.597  1.00  0.00    -0.258 OA
ATOM     24  O   UNL     1      -0.196   3.254  -3.875  1.00  0.00    -0.258 OA
ENDBRANCH  18  22
ENDBRANCH  15  16
ENDBRANCH   9  15
ENDBRANCH   3   5
ENDBRANCH   2   3
ENDBRANCH   1   2
BRANCH   1  25
ATOM     25  C   UNL     1      -5.274  -1.225   1.173  1.00  0.00     0.275 C 
BRANCH  25  26
ATOM     26  O   UNL     1      -4.451  -1.031   2.335  1.00  0.00    -0.458 OA
BRANCH  26  27
ATOM     27  C   UNL     1      -3.714  -2.097   2.722  1.00  0.00     0.338 C 
ATOM     28  O   UNL     1      -3.757  -3.232   2.281  1.00  0.00    -0.246 OA
BRANCH  27  29
ATOM     29  C   UNL     1      -2.753  -1.673   3.753  1.00  0.00     0.060 A 
ATOM     30  C   UNL     1      -1.801  -0.714   3.427  1.00  0.00     0.016 A 
ATOM     31  C   UNL     1      -2.694  -2.314   4.985  1.00  0.00     0.016 A 
ATOM     32  C   UNL     1      -0.718  -0.476   4.260  1.00  0.00     0.010 A 
ATOM     33  C   UNL     1      -1.675  -1.976   5.886  1.00  0.00     0.010 A 
ATOM     34  C   UNL     1      -0.651  -1.083   5.517  1.00  0.00    -0.014 A 
BRANCH  34  35
ATOM     35  C   UNL     1       0.504  -0.797   6.410  1.00  0.00     0.031 A 
ATOM     36  C   UNL     1       1.361  -1.923   6.923  1.00  0.00     0.074 A 
ATOM     37  C   UNL     1       0.804   0.476   6.742  1.00  0.00     0.049 A 
ATOM     38  N   UNL     1       2.301  -1.896   7.832  1.00  0.00    -0.248 NA
ATOM     39  C   UNL     1       1.122  -3.259   6.351  1.00  0.00     0.031 C 
ATOM     40  C   UNL     1       0.075   1.665   6.290  1.00  0.00     0.029 A 
ATOM     41  N   UNL     1       1.803   0.988   7.533  1.00  0.00    -0.354 N 
ATOM     42  C   UNL     1       2.698  -3.216   8.008  1.00  0.00     0.074 A 
ATOM     43  C   UNL     1       1.916  -4.019   7.093  1.00  0.00     0.031 C 
ATOM     44  C   UNL     1       0.673   2.763   6.773  1.00  0.00     0.029 A 
ATOM     45  C   UNL     1       1.766   2.359   7.648  1.00  0.00     0.049 A 
ATOM     46  H   UNL     1       2.481   0.428   7.976  1.00  0.00     0.167 HD
ATOM     47  C   UNL     1       3.632  -3.712   8.854  1.00  0.00     0.034 A 
ATOM     48  C   UNL     1       2.497   3.199   8.406  1.00  0.00     0.034 A 
ATOM     49  C   UNL     1       4.465  -2.899   9.698  1.00  0.00     0.049 A 
ATOM     50  C   UNL     1       3.550   2.625   9.309  1.00  0.00     0.074 A 
ATOM     51  C   UNL     1       5.456  -3.302  10.577  1.00  0.00     0.029 A 
ATOM     52  N   UNL     1       4.421  -1.514   9.754  1.00  0.00    -0.354 N 
ATOM     53  N   UNL     1       3.918   1.375   9.455  1.00  0.00    -0.248 NA
ATOM     54  C   UNL     1       4.290   3.575  10.150  1.00  0.00     0.031 C 
ATOM     55  C   UNL     1       6.011  -2.159  11.164  1.00  0.00     0.029 A 
ATOM     56  C   UNL     1       5.371  -1.044  10.646  1.00  0.00     0.049 A 
ATOM     57  H   UNL     1       3.805  -0.947   9.236  1.00  0.00     0.167 HD
ATOM     58  C   UNL     1       4.933   1.387  10.402  1.00  0.00     0.074 A 
ATOM     59  C   UNL     1       5.153   2.774  10.760  1.00  0.00     0.031 C 
ATOM     60  C   UNL     1       5.601   0.344  10.953  1.00  0.00     0.034 A 
BRANCH  47  61
ATOM     61  C   UNL     1       3.810  -5.206   8.896  1.00  0.00     0.023 A 
ATOM     62  C   UNL     1       4.495  -5.862   7.855  1.00  0.00     0.012 A 
ATOM     63  C   UNL     1       3.331  -5.955   9.990  1.00  0.00     0.148 A 
ATOM     64  C   UNL     1       4.677  -7.245   7.887  1.00  0.00     0.002 A 
ATOM     65  C   UNL     1       3.550  -7.328  10.033  1.00  0.00     0.091 A 
ATOM     66  F   UNL     1       2.656  -5.317  10.957  1.00  0.00    -0.205 F 
ATOM     67  C   UNL     1       4.214  -7.975   8.979  1.00  0.00     0.022 A 
BRANCH  65  68
ATOM     68  S   UNL     1       3.048  -8.339  11.431  1.00  0.00     0.127 S 
ATOM     69  O   UNL     1       1.872  -9.022  10.896  1.00  0.00    -0.237 OA
ATOM     70  O   UNL     1       4.216  -9.199  11.628  1.00  0.00    -0.237 OA
ATOM     71  O   UNL     1       2.794  -7.409  12.523  1.00  0.00    -0.744 OA
ENDBRANCH  65  68
ENDBRANCH  47  61
BRANCH  48  72
ATOM     72  C   UNL     1       2.253   4.669   8.333  1.00  0.00     0.023 A 
ATOM     73  C   UNL     1       3.235   5.506   7.769  1.00  0.00     0.012 A 
ATOM     74  C   UNL     1       1.038   5.234   8.765  1.00  0.00     0.148 A 
ATOM     75  C   UNL     1       3.015   6.879   7.649  1.00  0.00     0.002 A 
ATOM     76  C   UNL     1       0.799   6.592   8.583  1.00  0.00     0.091 A 
ATOM     77  F   UNL     1       0.125   4.431   9.330  1.00  0.00    -0.205 F 
ATOM     78  C   UNL     1       1.792   7.419   8.040  1.00  0.00     0.022 A 
BRANCH  76  79
ATOM     79  S   UNL     1      -0.810   7.320   8.912  1.00  0.00     0.127 S 
ATOM     80  O   UNL     1      -0.598   7.943  10.215  1.00  0.00    -0.237 OA
ATOM     81  O   UNL     1      -0.961   8.257   7.798  1.00  0.00    -0.237 OA
ATOM     82  O   UNL     1      -1.748   6.205   8.879  1.00  0.00    -0.744 OA
ENDBRANCH  76  79
ENDBRANCH  48  72
BRANCH  60  83
ATOM     83  C   UNL     1       6.632   0.670  11.998  1.00  0.00     0.023 A 
ATOM     84  C   UNL     1       6.211   1.056  13.287  1.00  0.00     0.012 A 
ATOM     85  C   UNL     1       8.007   0.559  11.723  1.00  0.00     0.148 A 
ATOM     86  C   UNL     1       7.145   1.360  14.275  1.00  0.00     0.002 A 
ATOM     87  C   UNL     1       8.932   0.824  12.726  1.00  0.00     0.091 A 
ATOM     88  F   UNL     1       8.390   0.217  10.484  1.00  0.00    -0.205 F 
ATOM     89  C   UNL     1       8.504   1.234  13.999  1.00  0.00     0.022 A 
BRANCH  87  90
ATOM     90  S   UNL     1      10.695   0.601  12.462  1.00  0.00     0.127 S 
ATOM     91  O   UNL     1      11.122   1.956  12.122  1.00  0.00    -0.237 OA
ATOM     92  O   UNL     1      11.156   0.127  13.768  1.00  0.00    -0.237 OA
ATOM     93  O   UNL     1      10.805  -0.387  11.397  1.00  0.00    -0.744 OA
ENDBRANCH  87  90
ENDBRANCH  60  83
ENDBRANCH  34  35
ENDBRANCH  27  29
ENDBRANCH  26  27
ENDBRANCH  25  26
ENDBRANCH   1  25
TORSDOF 18
