REMARK SMILES CC(=O)N[C@@H](CCc1nc2ccccc2[nH]1)C(=O)OCCOC(=O)c1ccc(-c2c3nc(c(-c4cccc(S(=O)(=O)[O-])c4F)c4ccc([nH]4)c(-c4cccc(S(=O)(=O)[O-])c4F)c4nc(c(-c5cccc(S(=O)(=O)[O-])c5F)c5ccc2[nH]5)C=C4)C=C3)cc1
REMARK SMILES IDX 20 1 19 2 17 3 18 4 5 5 4 6 1 7 2 8 3 9 6 11 7 12 8 13 9 14
REMARK SMILES IDX 16 15 10 16 15 17 11 19 14 20 12 21 13 22 21 23 22 24 23 25
REMARK SMILES IDX 24 26 25 27 26 28 87 29 27 30 86 31 28 32 29 33 30 34 80 35
REMARK SMILES IDX 31 36 85 37 79 38 81 39 32 40 84 41 78 42 77 43 33 45 65 46
REMARK SMILES IDX 45 47 64 48 46 49 49 50 63 51 82 52 47 53 48 54 62 56 83 57
REMARK SMILES IDX 50 58 34 59 35 60 43 61 36 62 38 63 44 64 37 65 39 66 40 67
REMARK SMILES IDX 41 68 42 69 66 70 67 71 75 72 68 73 70 74 76 75 69 76 71 77
REMARK SMILES IDX 72 78 73 79 74 80 51 81 52 82 60 83 53 84 55 85 61 86 54 87
REMARK SMILES IDX 56 88 57 89 58 90 59 91
REMARK H PARENT 4 10 16 18 81 44 49 55
REMARK Flexibility Score: inf
ROOT
ATOM      1  C   UNL     1      -0.884   4.392  -3.604  1.00  0.00     0.274 C 
ENDROOT
BRANCH   1   2
ATOM      2  O   UNL     1      -0.170   3.159  -3.389  1.00  0.00    -0.461 OA
BRANCH   2   3
ATOM      3  C   UNL     1       1.064   3.252  -2.830  1.00  0.00     0.328 C 
ATOM      4  O   UNL     1       1.606   4.293  -2.469  1.00  0.00    -0.250 OA
BRANCH   3   5
ATOM      5  C   UNL     1       1.787   1.896  -2.753  1.00  0.00     0.192 C 
BRANCH   5   6
ATOM      6  N   UNL     1       0.960   0.730  -3.059  1.00  0.00    -0.343 N 
ATOM      7  C   UNL     1       1.036  -0.301  -0.805  1.00  0.00     0.114 C 
ATOM      8  C   UNL     1       0.556  -0.278  -2.232  1.00  0.00     0.217 C 
ATOM      9  O   UNL     1      -0.182  -1.157  -2.675  1.00  0.00    -0.275 OA
ATOM     10  H   UNL     1       0.651   0.663  -3.991  1.00  0.00     0.164 HD
ENDBRANCH   5   6
BRANCH   5  11
ATOM     11  C   UNL     1       3.083   1.900  -3.588  1.00  0.00     0.045 C 
BRANCH  11  12
ATOM     12  C   UNL     1       2.923   1.985  -5.113  1.00  0.00     0.078 C 
BRANCH  12  13
ATOM     13  C   UNL     1       2.347   3.269  -5.611  1.00  0.00     0.107 A 
ATOM     14  N   UNL     1       1.313   3.390  -6.419  1.00  0.00    -0.233 NA
ATOM     15  N   UNL     1       2.815   4.507  -5.232  1.00  0.00    -0.342 N 
ATOM     16  C   UNL     1       1.025   4.733  -6.455  1.00  0.00     0.089 A 
ATOM     17  C   UNL     1       1.932   5.452  -5.689  1.00  0.00     0.065 A 
ATOM     18  H   UNL     1       3.639   4.683  -4.723  1.00  0.00     0.168 HD
ATOM     19  C   UNL     1      -0.042   5.408  -7.066  1.00  0.00     0.030 A 
ATOM     20  C   UNL     1       1.827   6.825  -5.459  1.00  0.00     0.028 A 
ATOM     21  C   UNL     1      -0.184   6.784  -6.837  1.00  0.00     0.002 A 
ATOM     22  C   UNL     1       0.733   7.475  -6.042  1.00  0.00     0.002 A 
ENDBRANCH  12  13
ENDBRANCH  11  12
ENDBRANCH   5  11
ENDBRANCH   3   5
ENDBRANCH   2   3
ENDBRANCH   1   2
BRANCH   1  23
ATOM     23  C   UNL     1      -2.112   4.507  -2.703  1.00  0.00     0.275 C 
BRANCH  23  24
ATOM     24  O   UNL     1      -1.730   4.639  -1.327  1.00  0.00    -0.458 OA
BRANCH  24  25
ATOM     25  C   UNL     1      -1.536   3.459  -0.699  1.00  0.00     0.338 C 
ATOM     26  O   UNL     1      -1.716   2.338  -1.142  1.00  0.00    -0.246 OA
BRANCH  25  27
ATOM     27  C   UNL     1      -0.894   3.693   0.595  1.00  0.00     0.060 A 
ATOM     28  C   UNL     1       0.364   3.121   0.792  1.00  0.00     0.016 A 
ATOM     29  C   UNL     1      -1.563   4.342   1.629  1.00  0.00     0.016 A 
ATOM     30  C   UNL     1       0.934   3.116   2.054  1.00  0.00     0.010 A 
ATOM     31  C   UNL     1      -0.976   4.364   2.893  1.00  0.00     0.010 A 
ATOM     32  C   UNL     1       0.251   3.714   3.116  1.00  0.00    -0.014 A 
BRANCH  32  33
ATOM     33  C   UNL     1       0.777   3.572   4.488  1.00  0.00     0.031 A 
ATOM     34  C   UNL     1       0.063   2.668   5.449  1.00  0.00     0.074 A 
ATOM     35  C   UNL     1       1.877   4.253   4.852  1.00  0.00     0.049 A 
ATOM     36  N   UNL     1       0.264   2.502   6.728  1.00  0.00    -0.248 NA
ATOM     37  C   UNL     1      -1.030   1.847   4.898  1.00  0.00     0.031 C 
ATOM     38  C   UNL     1       2.652   5.131   3.974  1.00  0.00     0.029 A 
ATOM     39  N   UNL     1       2.515   4.332   6.060  1.00  0.00    -0.354 N 
ATOM     40  C   UNL     1      -0.715   1.611   7.149  1.00  0.00     0.074 A 
ATOM     41  C   UNL     1      -1.502   1.258   5.987  1.00  0.00     0.031 C 
ATOM     42  C   UNL     1       3.650   5.682   4.682  1.00  0.00     0.029 A 
ATOM     43  C   UNL     1       3.554   5.232   6.067  1.00  0.00     0.049 A 
ATOM     44  H   UNL     1       2.257   3.798   6.846  1.00  0.00     0.167 HD
ATOM     45  C   UNL     1      -0.929   1.128   8.395  1.00  0.00     0.034 A 
ATOM     46  C   UNL     1       4.314   5.670   7.088  1.00  0.00     0.034 A 
ATOM     47  C   UNL     1      -0.101   1.451   9.524  1.00  0.00     0.049 A 
ATOM     48  C   UNL     1       4.066   5.104   8.459  1.00  0.00     0.074 A 
ATOM     49  C   UNL     1      -0.198   0.992  10.824  1.00  0.00     0.029 A 
ATOM     50  N   UNL     1       0.986   2.313   9.480  1.00  0.00    -0.354 N 
ATOM     51  N   UNL     1       3.180   4.211   8.833  1.00  0.00    -0.248 NA
ATOM     52  C   UNL     1       4.931   5.586   9.543  1.00  0.00     0.031 C 
ATOM     53  C   UNL     1       0.831   1.582  11.569  1.00  0.00     0.029 A 
ATOM     54  C   UNL     1       1.571   2.401  10.729  1.00  0.00     0.049 A 
ATOM     55  H   UNL     1       1.294   2.792   8.677  1.00  0.00     0.167 HD
ATOM     56  C   UNL     1       3.393   4.007  10.190  1.00  0.00     0.074 A 
ATOM     57  C   UNL     1       4.510   4.853  10.566  1.00  0.00     0.031 C 
ATOM     58  C   UNL     1       2.716   3.212  11.056  1.00  0.00     0.034 A 
BRANCH  45  59
ATOM     59  C   UNL     1      -2.087   0.188   8.590  1.00  0.00     0.023 A 
ATOM     60  C   UNL     1      -1.988  -1.144   8.140  1.00  0.00     0.012 A 
ATOM     61  C   UNL     1      -3.258   0.610   9.248  1.00  0.00     0.148 A 
ATOM     62  C   UNL     1      -3.048  -2.034   8.318  1.00  0.00     0.002 A 
ATOM     63  C   UNL     1      -4.296  -0.292   9.454  1.00  0.00     0.091 A 
ATOM     64  F   UNL     1      -3.346   1.889   9.641  1.00  0.00    -0.205 F 
ATOM     65  C   UNL     1      -4.196  -1.611   8.983  1.00  0.00     0.022 A 
BRANCH  63  66
ATOM     66  S   UNL     1      -5.787   0.145  10.357  1.00  0.00     0.127 S 
ATOM     67  O   UNL     1      -6.759   0.284   9.274  1.00  0.00    -0.237 OA
ATOM     68  O   UNL     1      -5.989  -1.027  11.210  1.00  0.00    -0.237 OA
ATOM     69  O   UNL     1      -5.470   1.369  11.079  1.00  0.00    -0.744 OA
ENDBRANCH  63  66
ENDBRANCH  45  59
BRANCH  46  70
ATOM     70  C   UNL     1       5.390   6.666   6.830  1.00  0.00     0.023 A 
ATOM     71  C   UNL     1       6.737   6.265   6.909  1.00  0.00     0.012 A 
ATOM     72  C   UNL     1       5.089   7.986   6.439  1.00  0.00     0.148 A 
ATOM     73  C   UNL     1       7.764   7.164   6.616  1.00  0.00     0.002 A 
ATOM     74  C   UNL     1       6.114   8.859   6.093  1.00  0.00     0.091 A 
ATOM     75  F   UNL     1       3.801   8.359   6.391  1.00  0.00    -0.205 F 
ATOM     76  C   UNL     1       7.454   8.454   6.194  1.00  0.00     0.022 A 
BRANCH  74  77
ATOM     77  S   UNL     1       5.787  10.482   5.395  1.00  0.00     0.127 S 
ATOM     78  O   UNL     1       6.015  11.355   6.543  1.00  0.00    -0.237 OA
ATOM     79  O   UNL     1       6.797  10.574   4.340  1.00  0.00    -0.237 OA
ATOM     80  O   UNL     1       4.417  10.418   4.900  1.00  0.00    -0.744 OA
ENDBRANCH  74  77
ENDBRANCH  46  70
BRANCH  58  81
ATOM     81  C   UNL     1       3.175   3.207  12.487  1.00  0.00     0.023 A 
ATOM     82  C   UNL     1       2.843   4.289  13.324  1.00  0.00     0.012 A 
ATOM     83  C   UNL     1       3.859   2.098  13.020  1.00  0.00     0.148 A 
ATOM     84  C   UNL     1       3.206   4.279  14.669  1.00  0.00     0.002 A 
ATOM     85  C   UNL     1       4.183   2.077  14.371  1.00  0.00     0.091 A 
ATOM     86  F   UNL     1       4.186   1.090  12.199  1.00  0.00    -0.205 F 
ATOM     87  C   UNL     1       3.865   3.169  15.195  1.00  0.00     0.022 A 
BRANCH  85  88
ATOM     88  S   UNL     1       4.952   0.648  15.141  1.00  0.00     0.127 S 
ATOM     89  O   UNL     1       6.349   1.069  15.223  1.00  0.00    -0.237 OA
ATOM     90  O   UNL     1       4.261   0.574  16.429  1.00  0.00    -0.237 OA
ATOM     91  O   UNL     1       4.680  -0.472  14.251  1.00  0.00    -0.744 OA
ENDBRANCH  85  88
ENDBRANCH  58  81
ENDBRANCH  32  33
ENDBRANCH  25  27
ENDBRANCH  24  25
ENDBRANCH  23  24
ENDBRANCH   1  23
TORSDOF 18
