REMARK SMILES Cc1cccc(NC(=O)[C@H]2C=C[C@@H]([NH3+])C2)c1C(=O)OCCOC(=O)c1ccc(-c2c3nc(c(-c4cccc(S(=O)(=O)[O-])c4F)c4ccc([nH]4)c(-c4cccc(S(=O)(=O)[O-])c4F)c4nc(c(-c5cccc(S(=O)(=O)[O-])c5F)c5ccc2[nH]5)C=C4)C=C3)cc1
REMARK SMILES IDX 20 1 19 2 17 3 18 4 16 5 1 6 2 7 3 8 4 9 6 10 5 11 7 12 8 13
REMARK SMILES IDX 9 15 10 16 11 17 15 18 12 19 13 20 14 21 21 25 22 26 23 27
REMARK SMILES IDX 24 28 25 29 26 30 87 31 27 32 86 33 28 34 29 35 30 36 80 37
REMARK SMILES IDX 31 38 85 39 79 40 81 41 32 42 84 43 78 44 77 45 33 47 65 48
REMARK SMILES IDX 45 49 64 50 46 51 49 52 63 53 82 54 47 55 48 56 62 58 83 59
REMARK SMILES IDX 50 60 34 61 35 62 43 63 36 64 38 65 44 66 37 67 39 68 40 69
REMARK SMILES IDX 41 70 42 71 66 72 67 73 75 74 68 75 70 76 76 77 69 78 71 79
REMARK SMILES IDX 72 80 73 81 74 82 51 83 52 84 60 85 53 86 55 87 61 88 54 89
REMARK SMILES IDX 56 90 57 91 58 92 59 93
REMARK H PARENT 7 14 14 22 14 23 14 24 81 46 49 57
REMARK Flexibility Score: inf
ROOT
ATOM      1  C   UNL     1       3.432   2.879  -1.958  1.00  0.00     0.275 C 
ENDROOT
BRANCH   1   2
ATOM      2  O   UNL     1       2.439   2.014  -1.396  1.00  0.00    -0.458 OA
BRANCH   2   3
ATOM      3  C   UNL     1       1.446   1.511  -2.150  1.00  0.00     0.340 C 
ATOM      4  O   UNL     1       1.169   1.871  -3.281  1.00  0.00    -0.246 OA
BRANCH   3   5
ATOM      5  C   UNL     1       0.740   0.408  -1.429  1.00  0.00     0.086 A 
ATOM      6  C   UNL     1       2.962  -0.563  -0.512  1.00  0.00     0.045 C 
ATOM      7  C   UNL     1       1.480  -0.616  -0.770  1.00  0.00    -0.034 A 
ATOM      8  C   UNL     1       0.812  -1.778  -0.355  1.00  0.00     0.004 A 
ATOM      9  C   UNL     1      -0.527  -1.960  -0.654  1.00  0.00     0.002 A 
ATOM     10  C   UNL     1      -0.668   0.293  -1.540  1.00  0.00     0.056 A 
ATOM     11  C   UNL     1      -1.233  -0.937  -1.271  1.00  0.00     0.027 A 
BRANCH  10  12
ATOM     12  N   UNL     1      -1.495   1.369  -1.913  1.00  0.00    -0.325 N 
ATOM     13  C   UNL     1      -2.806   1.695  -1.730  1.00  0.00     0.231 C 
ATOM     14  H   UNL     1      -1.010   2.050  -2.432  1.00  0.00     0.169 HD
ATOM     15  O   UNL     1      -3.110   2.770  -2.297  1.00  0.00    -0.274 OA
BRANCH  13  16
ATOM     16  C   UNL     1      -3.980   0.963  -1.005  1.00  0.00     0.107 C 
ATOM     17  C   UNL     1      -4.974   0.531  -2.056  1.00  0.00    -0.012 C 
ATOM     18  C   UNL     1      -3.992  -0.222  -0.021  1.00  0.00     0.087 C 
ATOM     19  C   UNL     1      -5.468  -0.690  -1.843  1.00  0.00     0.033 C 
ATOM     20  C   UNL     1      -4.917  -1.317  -0.608  1.00  0.00     0.205 C 
BRANCH  20  21
ATOM     21  N   UNL     1      -4.288  -2.590  -0.946  1.00  0.00    -0.352 N 
ATOM     22  H   UNL     1      -3.574  -2.438  -1.659  1.00  0.00     0.345 HD
ATOM     23  H   UNL     1      -4.994  -3.234  -1.304  1.00  0.00     0.345 HD
ATOM     24  H   UNL     1      -3.856  -2.988  -0.113  1.00  0.00     0.345 HD
ENDBRANCH  20  21
ENDBRANCH  13  16
ENDBRANCH  10  12
ENDBRANCH   3   5
ENDBRANCH   2   3
ENDBRANCH   1   2
BRANCH   1  25
ATOM     25  C   UNL     1       3.058   4.072  -2.861  1.00  0.00     0.275 C 
BRANCH  25  26
ATOM     26  O   UNL     1       1.814   4.827  -2.821  1.00  0.00    -0.458 OA
BRANCH  26  27
ATOM     27  C   UNL     1       0.794   4.851  -1.939  1.00  0.00     0.338 C 
ATOM     28  O   UNL     1      -0.326   5.248  -2.233  1.00  0.00    -0.246 OA
BRANCH  27  29
ATOM     29  C   UNL     1       1.113   4.441  -0.580  1.00  0.00     0.060 A 
ATOM     30  C   UNL     1       0.257   3.564   0.105  1.00  0.00     0.016 A 
ATOM     31  C   UNL     1       2.321   4.871  -0.042  1.00  0.00     0.016 A 
ATOM     32  C   UNL     1       0.646   3.043   1.327  1.00  0.00     0.010 A 
ATOM     33  C   UNL     1       2.763   4.273   1.104  1.00  0.00     0.010 A 
ATOM     34  C   UNL     1       1.885   3.436   1.820  1.00  0.00    -0.014 A 
BRANCH  34  35
ATOM     35  C   UNL     1       2.173   3.447   3.240  1.00  0.00     0.031 A 
ATOM     36  C   UNL     1       2.747   2.295   3.926  1.00  0.00     0.074 A 
ATOM     37  C   UNL     1       2.060   4.705   3.724  1.00  0.00     0.049 A 
ATOM     38  N   UNL     1       2.801   2.194   5.203  1.00  0.00    -0.248 NA
ATOM     39  C   UNL     1       3.255   1.117   3.232  1.00  0.00     0.031 C 
ATOM     40  C   UNL     1       2.684   5.358   4.852  1.00  0.00     0.029 A 
ATOM     41  N   UNL     1       1.196   5.686   3.202  1.00  0.00    -0.354 N 
ATOM     42  C   UNL     1       3.626   1.126   5.494  1.00  0.00     0.074 A 
ATOM     43  C   UNL     1       3.743   0.402   4.253  1.00  0.00     0.031 C 
ATOM     44  C   UNL     1       2.017   6.507   5.093  1.00  0.00     0.029 A 
ATOM     45  C   UNL     1       0.812   6.495   4.262  1.00  0.00     0.049 A 
ATOM     46  H   UNL     1       0.916   5.781   2.262  1.00  0.00     0.167 HD
ATOM     47  C   UNL     1       4.252   1.124   6.705  1.00  0.00     0.034 A 
ATOM     48  C   UNL     1      -0.483   6.495   4.705  1.00  0.00     0.034 A 
ATOM     49  C   UNL     1       3.764   2.265   7.503  1.00  0.00     0.049 A 
ATOM     50  C   UNL     1      -0.547   5.968   6.127  1.00  0.00     0.074 A 
ATOM     51  C   UNL     1       4.255   3.551   7.656  1.00  0.00     0.029 A 
ATOM     52  N   UNL     1       2.443   2.293   7.941  1.00  0.00    -0.354 N 
ATOM     53  N   UNL     1       0.397   5.267   6.690  1.00  0.00    -0.248 NA
ATOM     54  C   UNL     1      -1.706   6.148   6.992  1.00  0.00     0.031 C 
ATOM     55  C   UNL     1       3.177   4.381   8.069  1.00  0.00     0.029 A 
ATOM     56  C   UNL     1       2.042   3.597   8.209  1.00  0.00     0.049 A 
ATOM     57  H   UNL     1       1.871   1.499   8.047  1.00  0.00     0.167 HD
ATOM     58  C   UNL     1      -0.035   4.801   7.896  1.00  0.00     0.074 A 
ATOM     59  C   UNL     1      -1.333   5.437   8.070  1.00  0.00     0.031 C 
ATOM     60  C   UNL     1       0.668   3.877   8.618  1.00  0.00     0.034 A 
BRANCH  47  61
ATOM     61  C   UNL     1       5.511   0.351   7.087  1.00  0.00     0.023 A 
ATOM     62  C   UNL     1       6.162   0.770   8.273  1.00  0.00     0.012 A 
ATOM     63  C   UNL     1       6.163  -0.682   6.367  1.00  0.00     0.148 A 
ATOM     64  C   UNL     1       7.400   0.264   8.684  1.00  0.00     0.002 A 
ATOM     65  C   UNL     1       7.404  -1.192   6.776  1.00  0.00     0.091 A 
ATOM     66  F   UNL     1       5.598  -1.201   5.279  1.00  0.00    -0.205 F 
ATOM     67  C   UNL     1       8.030  -0.711   7.929  1.00  0.00     0.022 A 
BRANCH  65  68
ATOM     68  S   UNL     1       8.297  -2.466   5.859  1.00  0.00     0.127 S 
ATOM     69  O   UNL     1       9.535  -1.774   5.498  1.00  0.00    -0.237 OA
ATOM     70  O   UNL     1       8.462  -3.517   6.864  1.00  0.00    -0.237 OA
ATOM     71  O   UNL     1       7.455  -2.829   4.726  1.00  0.00    -0.744 OA
ENDBRANCH  65  68
ENDBRANCH  47  61
BRANCH  48  72
ATOM     72  C   UNL     1      -1.518   6.133   3.661  1.00  0.00     0.023 A 
ATOM     73  C   UNL     1      -1.553   6.855   2.439  1.00  0.00     0.012 A 
ATOM     74  C   UNL     1      -2.186   4.896   3.715  1.00  0.00     0.148 A 
ATOM     75  C   UNL     1      -2.120   6.301   1.284  1.00  0.00     0.002 A 
ATOM     76  C   UNL     1      -2.717   4.336   2.556  1.00  0.00     0.091 A 
ATOM     77  F   UNL     1      -2.248   4.244   4.881  1.00  0.00    -0.205 F 
ATOM     78  C   UNL     1      -2.677   5.028   1.336  1.00  0.00     0.022 A 
BRANCH  76  79
ATOM     79  S   UNL     1      -3.236   2.616   2.519  1.00  0.00     0.127 S 
ATOM     80  O   UNL     1      -4.689   2.735   2.455  1.00  0.00    -0.237 OA
ATOM     81  O   UNL     1      -2.598   2.142   1.291  1.00  0.00    -0.237 OA
ATOM     82  O   UNL     1      -2.697   2.016   3.728  1.00  0.00    -0.744 OA
ENDBRANCH  76  79
ENDBRANCH  48  72
BRANCH  60  83
ATOM     83  C   UNL     1       0.088   3.142   9.799  1.00  0.00     0.023 A 
ATOM     84  C   UNL     1      -1.292   2.886   9.911  1.00  0.00     0.012 A 
ATOM     85  C   UNL     1       0.937   2.541  10.756  1.00  0.00     0.148 A 
ATOM     86  C   UNL     1      -1.819   2.157  10.979  1.00  0.00     0.002 A 
ATOM     87  C   UNL     1       0.419   1.704  11.736  1.00  0.00     0.091 A 
ATOM     88  F   UNL     1       2.256   2.782  10.729  1.00  0.00    -0.205 F 
ATOM     89  C   UNL     1      -0.960   1.546  11.882  1.00  0.00     0.022 A 
BRANCH  87  90
ATOM     90  S   UNL     1       1.519   0.671  12.710  1.00  0.00     0.127 S 
ATOM     91  O   UNL     1       1.842   1.541  13.838  1.00  0.00    -0.237 OA
ATOM     92  O   UNL     1       0.669  -0.473  13.047  1.00  0.00    -0.237 OA
ATOM     93  O   UNL     1       2.616   0.347  11.806  1.00  0.00    -0.744 OA
ENDBRANCH  87  90
ENDBRANCH  60  83
ENDBRANCH  34  35
ENDBRANCH  27  29
ENDBRANCH  26  27
ENDBRANCH  25  26
ENDBRANCH   1  25
TORSDOF 17
