REMARK SMILES CC[C@H]1CCCCN1S(=O)(=O)c1ccc2oc(C(=O)OCCOC(=O)c3ccc(-c4c5nc(c(-c6cccc(S(=O)(=O)[O-])c6F)c6ccc([nH]6)c(-c6cccc(S(=O)(=O)[O-])c6F)c6nc(c(-c7cccc(S(=O)(=O)[O-])c7F)c7ccc4[nH]7)C=C6)C=C5)cc3)c(C)c2c1
REMARK SMILES IDX 21 1 20 2 18 3 19 4 17 5 12 6 13 7 92 8 14 9 91 10 15 11
REMARK SMILES IDX 89 12 16 13 90 14 9 15 10 16 11 17 8 18 3 19 4 20 5 21 7 22
REMARK SMILES IDX 6 23 2 24 1 25 22 26 23 27 24 28 25 29 26 30 27 31 88 32
REMARK SMILES IDX 28 33 87 34 29 35 30 36 31 37 81 38 32 39 86 40 80 41 82 42
REMARK SMILES IDX 33 43 85 44 79 45 78 46 34 48 66 49 46 50 65 51 47 52 50 53
REMARK SMILES IDX 64 54 83 55 48 56 49 57 63 59 84 60 51 61 35 62 36 63 44 64
REMARK SMILES IDX 37 65 39 66 45 67 38 68 40 69 41 70 42 71 43 72 67 73 68 74
REMARK SMILES IDX 76 75 69 76 71 77 77 78 70 79 72 80 73 81 74 82 75 83 52 84
REMARK SMILES IDX 53 85 61 86 54 87 56 88 62 89 55 90 57 91 58 92 59 93 60 94
REMARK H PARENT 82 47 50 58
REMARK Flexibility Score: inf
ROOT
ATOM      1  C   UNL     1      -3.666  12.724   1.736  1.00  0.00     0.275 C 
ENDROOT
BRANCH   1   2
ATOM      2  O   UNL     1      -3.197  11.391   1.467  1.00  0.00    -0.456 OA
BRANCH   2   3
ATOM      3  C   UNL     1      -3.213  10.526   2.525  1.00  0.00     0.374 C 
ATOM      4  O   UNL     1      -3.468  10.857   3.672  1.00  0.00    -0.242 OA
BRANCH   3   5
ATOM      5  C   UNL     1      -2.955   9.170   2.081  1.00  0.00     0.215 A 
ATOM      6  C   UNL     1      -2.207   4.797   0.975  1.00  0.00     0.083 A 
ATOM      7  C   UNL     1      -2.769   4.619   2.242  1.00  0.00     0.025 A 
ATOM      8  C   UNL     1      -2.172   6.058   0.353  1.00  0.00     0.034 A 
ATOM      9  C   UNL     1      -3.221   5.726   2.971  1.00  0.00     0.049 A 
ATOM     10  C   UNL     1      -2.524   7.181   1.114  1.00  0.00     0.025 A 
ATOM     11  C   UNL     1      -3.029   6.979   2.387  1.00  0.00     0.135 A 
ATOM     12  C   UNL     1      -2.447   8.596   0.919  1.00  0.00     0.010 A 
ATOM     13  O   UNL     1      -3.284   8.174   2.972  1.00  0.00    -0.449 OA
ATOM     14  C   UNL     1      -1.869   9.251  -0.283  1.00  0.00     0.049 C 
BRANCH   6  15
ATOM     15  S   UNL     1      -1.459   3.435   0.109  1.00  0.00     0.243 S 
ATOM     16  O   UNL     1      -1.649   3.674  -1.307  1.00  0.00    -0.207 OA
ATOM     17  O   UNL     1      -1.899   2.203   0.727  1.00  0.00    -0.207 OA
BRANCH  15  18
ATOM     18  N   UNL     1       0.229   3.619   0.453  1.00  0.00    -0.195 NA
ATOM     19  C   UNL     1       1.071   2.425   0.056  1.00  0.00     0.073 C 
ATOM     20  C   UNL     1       2.484   2.610   0.639  1.00  0.00     0.020 C 
ATOM     21  C   UNL     1       3.132   3.905   0.168  1.00  0.00     0.003 C 
ATOM     22  C   UNL     1       0.831   4.925   0.053  1.00  0.00     0.103 C 
ATOM     23  C   UNL     1       2.256   5.077   0.570  1.00  0.00     0.017 C 
BRANCH  19  24
ATOM     24  C   UNL     1       1.040   2.175  -1.468  1.00  0.00     0.017 C 
ATOM     25  C   UNL     1       2.035   1.137  -1.965  1.00  0.00     0.005 C 
ENDBRANCH  19  24
ENDBRANCH  15  18
ENDBRANCH   6  15
ENDBRANCH   3   5
ENDBRANCH   2   3
ENDBRANCH   1   2
BRANCH   1  26
ATOM     26  C   UNL     1      -5.129  12.900   1.313  1.00  0.00     0.275 C 
BRANCH  26  27
ATOM     27  O   UNL     1      -6.031  12.169   2.164  1.00  0.00    -0.458 OA
BRANCH  27  28
ATOM     28  C   UNL     1      -6.313  10.909   1.752  1.00  0.00     0.338 C 
ATOM     29  O   UNL     1      -5.901  10.370   0.737  1.00  0.00    -0.246 OA
BRANCH  28  30
ATOM     30  C   UNL     1      -7.094  10.194   2.780  1.00  0.00     0.060 A 
ATOM     31  C   UNL     1      -6.638   8.933   3.173  1.00  0.00     0.016 A 
ATOM     32  C   UNL     1      -8.289  10.701   3.294  1.00  0.00     0.016 A 
ATOM     33  C   UNL     1      -7.374   8.165   4.069  1.00  0.00     0.010 A 
ATOM     34  C   UNL     1      -9.037   9.923   4.189  1.00  0.00     0.010 A 
ATOM     35  C   UNL     1      -8.593   8.642   4.564  1.00  0.00    -0.014 A 
BRANCH  35  36
ATOM     36  C   UNL     1      -9.433   7.744   5.394  1.00  0.00     0.031 A 
ATOM     37  C   UNL     1     -10.632   7.076   4.780  1.00  0.00     0.074 A 
ATOM     38  C   UNL     1      -9.099   7.492   6.673  1.00  0.00     0.049 A 
ATOM     39  N   UNL     1     -11.489   6.253   5.326  1.00  0.00    -0.248 NA
ATOM     40  C   UNL     1     -10.903   7.374   3.364  1.00  0.00     0.031 C 
ATOM     41  C   UNL     1      -7.952   8.070   7.374  1.00  0.00     0.029 A 
ATOM     42  N   UNL     1      -9.696   6.688   7.611  1.00  0.00    -0.354 N 
ATOM     43  C   UNL     1     -12.419   5.961   4.336  1.00  0.00     0.074 A 
ATOM     44  C   UNL     1     -12.026   6.700   3.156  1.00  0.00     0.031 C 
ATOM     45  C   UNL     1      -7.934   7.608   8.636  1.00  0.00     0.029 A 
ATOM     46  C   UNL     1      -9.077   6.721   8.838  1.00  0.00     0.049 A 
ATOM     47  H   UNL     1     -10.492   6.140   7.423  1.00  0.00     0.167 HD
ATOM     48  C   UNL     1     -13.493   5.139   4.398  1.00  0.00     0.034 A 
ATOM     49  C   UNL     1      -9.400   6.109   9.995  1.00  0.00     0.034 A 
ATOM     50  C   UNL     1     -13.857   4.371   5.557  1.00  0.00     0.049 A 
ATOM     51  C   UNL     1     -10.589   5.185  10.030  1.00  0.00     0.074 A 
ATOM     52  C   UNL     1     -14.915   3.491   5.709  1.00  0.00     0.029 A 
ATOM     53  N   UNL     1     -13.172   4.384   6.762  1.00  0.00    -0.354 N 
ATOM     54  N   UNL     1     -11.403   4.850   9.057  1.00  0.00    -0.248 NA
ATOM     55  C   UNL     1     -10.884   4.527  11.311  1.00  0.00     0.031 C 
ATOM     56  C   UNL     1     -14.871   2.975   7.010  1.00  0.00     0.029 A 
ATOM     57  C   UNL     1     -13.779   3.525   7.662  1.00  0.00     0.049 A 
ATOM     58  H   UNL     1     -12.371   4.925   6.950  1.00  0.00     0.167 HD
ATOM     59  C   UNL     1     -12.282   3.918   9.598  1.00  0.00     0.074 A 
ATOM     60  C   UNL     1     -11.888   3.725  10.979  1.00  0.00     0.031 C 
ATOM     61  C   UNL     1     -13.332   3.292   9.011  1.00  0.00     0.034 A 
BRANCH  48  62
ATOM     62  C   UNL     1     -14.336   5.000   3.159  1.00  0.00     0.023 A 
ATOM     63  C   UNL     1     -13.861   4.229   2.079  1.00  0.00     0.012 A 
ATOM     64  C   UNL     1     -15.613   5.588   3.081  1.00  0.00     0.148 A 
ATOM     65  C   UNL     1     -14.633   4.067   0.929  1.00  0.00     0.002 A 
ATOM     66  C   UNL     1     -16.393   5.391   1.946  1.00  0.00     0.091 A 
ATOM     67  F   UNL     1     -16.036   6.340   4.107  1.00  0.00    -0.205 F 
ATOM     68  C   UNL     1     -15.902   4.638   0.867  1.00  0.00     0.022 A 
BRANCH  66  69
ATOM     69  S   UNL     1     -18.065   6.032   1.804  1.00  0.00     0.127 S 
ATOM     70  O   UNL     1     -17.876   7.151   0.883  1.00  0.00    -0.237 OA
ATOM     71  O   UNL     1     -18.788   4.892   1.237  1.00  0.00    -0.237 OA
ATOM     72  O   UNL     1     -18.471   6.391   3.156  1.00  0.00    -0.744 OA
ENDBRANCH  66  69
ENDBRANCH  48  62
BRANCH  49  73
ATOM     73  C   UNL     1      -8.550   6.307  11.204  1.00  0.00     0.023 A 
ATOM     74  C   UNL     1      -7.767   5.240  11.684  1.00  0.00     0.012 A 
ATOM     75  C   UNL     1      -8.494   7.550  11.864  1.00  0.00     0.148 A 
ATOM     76  C   UNL     1      -6.965   5.398  12.815  1.00  0.00     0.002 A 
ATOM     77  C   UNL     1      -7.652   7.717  12.957  1.00  0.00     0.091 A 
ATOM     78  F   UNL     1      -9.265   8.548  11.409  1.00  0.00    -0.205 F 
ATOM     79  C   UNL     1      -6.898   6.639  13.444  1.00  0.00     0.022 A 
BRANCH  77  80
ATOM     80  S   UNL     1      -7.413   9.315  13.742  1.00  0.00     0.127 S 
ATOM     81  O   UNL     1      -8.209   9.174  14.958  1.00  0.00    -0.237 OA
ATOM     82  O   UNL     1      -5.965   9.341  13.954  1.00  0.00    -0.237 OA
ATOM     83  O   UNL     1      -7.890  10.296  12.776  1.00  0.00    -0.744 OA
ENDBRANCH  77  80
ENDBRANCH  49  73
BRANCH  61  84
ATOM     84  C   UNL     1     -14.114   2.309   9.842  1.00  0.00     0.023 A 
ATOM     85  C   UNL     1     -14.996   2.781  10.834  1.00  0.00     0.012 A 
ATOM     86  C   UNL     1     -14.035   0.926   9.588  1.00  0.00     0.148 A 
ATOM     87  C   UNL     1     -15.765   1.889  11.581  1.00  0.00     0.002 A 
ATOM     88  C   UNL     1     -14.836   0.046  10.307  1.00  0.00     0.091 A 
ATOM     89  F   UNL     1     -13.174   0.493   8.655  1.00  0.00    -0.205 F 
ATOM     90  C   UNL     1     -15.695   0.525  11.309  1.00  0.00     0.022 A 
BRANCH  88  91
ATOM     91  S   UNL     1     -14.869  -1.715   9.953  1.00  0.00     0.127 S 
ATOM     92  O   UNL     1     -14.000  -2.248  11.000  1.00  0.00    -0.237 OA
ATOM     93  O   UNL     1     -16.287  -2.044  10.113  1.00  0.00    -0.237 OA
ATOM     94  O   UNL     1     -14.375  -1.851   8.589  1.00  0.00    -0.744 OA
ENDBRANCH  88  91
ENDBRANCH  61  84
ENDBRANCH  35  36
ENDBRANCH  28  30
ENDBRANCH  27  28
ENDBRANCH  26  27
ENDBRANCH   1  26
TORSDOF 17
