REMARK SMILES Cc1cc2c(c(C)c1Cl)C=C(C(=O)OCCOC(=O)c1ccc(-c3c4nc(c(-c5cccc(S(=O)(=O)[O-])c5F)c5ccc([nH]5)c(-c5cccc(S(=O)(=O)[O-])c5F)c5nc(c(-c6cccc(S(=O)(=O)[O-])c6F)c6ccc3[nH]6)C=C5)C=C4)cc1)[C@@H](C(F)(F)F)O2
REMARK SMILES IDX 16 1 15 2 14 3 12 4 13 5 11 6 1 7 2 8 3 9 8 10 4 11 6 12
REMARK SMILES IDX 9 13 5 14 88 15 7 16 10 17 83 18 84 19 85 20 86 21 87 22
REMARK SMILES IDX 17 23 18 24 19 25 20 26 21 27 82 28 22 29 81 30 23 31 24 32
REMARK SMILES IDX 25 33 75 34 26 35 80 36 74 37 76 38 27 39 79 40 73 41 72 42
REMARK SMILES IDX 28 44 60 45 40 46 59 47 41 48 44 49 58 50 77 51 42 52 43 53
REMARK SMILES IDX 57 55 78 56 45 57 29 58 30 59 38 60 31 61 33 62 39 63 32 64
REMARK SMILES IDX 34 65 35 66 36 67 37 68 61 69 62 70 70 71 63 72 65 73 71 74
REMARK SMILES IDX 64 75 66 76 67 77 68 78 69 79 46 80 47 81 55 82 48 83 50 84
REMARK SMILES IDX 56 85 49 86 51 87 52 88 53 89 54 90
REMARK H PARENT 76 43 44 54
REMARK Flexibility Score: inf
ROOT
ATOM      1  C   UNL     1      -0.914   5.359   8.868  1.00  0.00     0.275 C 
ENDROOT
BRANCH   1   2
ATOM      2  C   UNL     1      -2.051   4.508   8.303  1.00  0.00     0.275 C 
BRANCH   2   3
ATOM      3  O   UNL     1      -1.575   3.597   7.287  1.00  0.00    -0.459 OA
BRANCH   3   4
ATOM      4  C   UNL     1      -1.881   3.933   6.012  1.00  0.00     0.338 C 
ATOM      5  O   UNL     1      -2.526   4.906   5.650  1.00  0.00    -0.246 OA
BRANCH   4   6
ATOM      6  C   UNL     1      -1.336   2.941   5.065  1.00  0.00     0.087 C 
ATOM      7  C   UNL     1       0.808  -0.535   0.012  1.00  0.00     0.046 C 
ATOM      8  C   UNL     1       0.464   0.520   1.028  1.00  0.00    -0.028 A 
ATOM      9  C   UNL     1      -0.167   0.139   2.219  1.00  0.00     0.052 A 
ATOM     10  C   UNL     1       0.768   1.878   0.818  1.00  0.00     0.047 A 
ATOM     11  C   UNL     1      -0.516   1.087   3.179  1.00  0.00     0.128 A 
ATOM     12  C   UNL     1       0.422   2.855   1.778  1.00  0.00    -0.021 A 
ATOM     13  Cl  UNL     1       1.579   2.324  -0.653  1.00  0.00    -0.084 Cl
ATOM     14  C   UNL     1      -0.236   2.441   2.968  1.00  0.00     0.022 A 
ATOM     15  O   UNL     1      -1.115   0.586   4.303  1.00  0.00    -0.475 OA
ATOM     16  C   UNL     1       0.754   4.314   1.564  1.00  0.00     0.047 C 
ATOM     17  C   UNL     1      -0.663   3.386   3.997  1.00  0.00     0.027 C 
ATOM     18  C   UNL     1      -1.691   1.502   5.269  1.00  0.00     0.316 C 
BRANCH  18  19
ATOM     19  C   UNL     1      -3.215   1.301   5.303  1.00  0.00     0.430 C 
ATOM     20  F   UNL     1      -3.536  -0.007   5.458  1.00  0.00    -0.167 F 
ATOM     21  F   UNL     1      -3.784   1.957   6.344  1.00  0.00    -0.167 F 
ATOM     22  F   UNL     1      -3.818   1.733   4.173  1.00  0.00    -0.167 F 
ENDBRANCH  18  19
ENDBRANCH   4   6
ENDBRANCH   3   4
ENDBRANCH   2   3
ENDBRANCH   1   2
BRANCH   1  23
ATOM     23  O   UNL     1      -0.402   6.241   7.854  1.00  0.00    -0.458 OA
BRANCH  23  24
ATOM     24  C   UNL     1       0.788   5.874   7.328  1.00  0.00     0.338 C 
ATOM     25  O   UNL     1       1.478   4.924   7.658  1.00  0.00    -0.246 OA
BRANCH  24  26
ATOM     26  C   UNL     1       1.132   6.729   6.181  1.00  0.00     0.060 A 
ATOM     27  C   UNL     1       0.329   6.672   5.052  1.00  0.00     0.016 A 
ATOM     28  C   UNL     1       2.362   7.378   6.127  1.00  0.00     0.016 A 
ATOM     29  C   UNL     1       0.840   7.079   3.823  1.00  0.00     0.010 A 
ATOM     30  C   UNL     1       2.803   7.923   4.913  1.00  0.00     0.010 A 
ATOM     31  C   UNL     1       2.091   7.703   3.719  1.00  0.00    -0.014 A 
BRANCH  31  32
ATOM     32  C   UNL     1       2.681   8.050   2.383  1.00  0.00     0.031 A 
ATOM     33  C   UNL     1       4.114   7.673   2.060  1.00  0.00     0.074 A 
ATOM     34  C   UNL     1       1.956   8.677   1.430  1.00  0.00     0.049 A 
ATOM     35  N   UNL     1       4.889   8.108   1.098  1.00  0.00    -0.248 NA
ATOM     36  C   UNL     1       4.767   6.693   2.945  1.00  0.00     0.031 C 
ATOM     37  C   UNL     1       0.546   9.055   1.538  1.00  0.00     0.029 A 
ATOM     38  N   UNL     1       2.311   9.113   0.173  1.00  0.00    -0.354 N 
ATOM     39  C   UNL     1       6.140   7.539   1.322  1.00  0.00     0.074 A 
ATOM     40  C   UNL     1       6.018   6.712   2.503  1.00  0.00     0.031 C 
ATOM     41  C   UNL     1       0.142   9.610   0.388  1.00  0.00     0.029 A 
ATOM     42  C   UNL     1       1.296   9.771  -0.485  1.00  0.00     0.049 A 
ATOM     43  H   UNL     1       3.203   8.968  -0.217  1.00  0.00     0.167 HD
ATOM     44  C   UNL     1       7.283   7.687   0.609  1.00  0.00     0.034 A 
ATOM     45  C   UNL     1       1.292  10.497  -1.621  1.00  0.00     0.034 A 
ATOM     46  C   UNL     1       7.375   8.425  -0.625  1.00  0.00     0.049 A 
ATOM     47  C   UNL     1       2.575  10.678  -2.378  1.00  0.00     0.074 A 
ATOM     48  C   UNL     1       8.484   8.611  -1.433  1.00  0.00     0.029 A 
ATOM     49  N   UNL     1       6.320   9.077  -1.243  1.00  0.00    -0.354 N 
ATOM     50  N   UNL     1       3.756  10.166  -2.134  1.00  0.00    -0.248 NA
ATOM     51  C   UNL     1       2.527  11.541  -3.567  1.00  0.00     0.031 C 
ATOM     52  C   UNL     1       8.104   9.396  -2.526  1.00  0.00     0.029 A 
ATOM     53  C   UNL     1       6.752   9.671  -2.417  1.00  0.00     0.049 A 
ATOM     54  H   UNL     1       5.398   9.112  -0.898  1.00  0.00     0.167 HD
ATOM     55  C   UNL     1       4.589  10.632  -3.144  1.00  0.00     0.074 A 
ATOM     56  C   UNL     1       3.766  11.435  -4.026  1.00  0.00     0.031 C 
ATOM     57  C   UNL     1       5.920  10.435  -3.312  1.00  0.00     0.034 A 
BRANCH  44  58
ATOM     58  C   UNL     1       8.543   7.030   1.121  1.00  0.00     0.023 A 
ATOM     59  C   UNL     1       8.702   5.633   1.034  1.00  0.00     0.012 A 
ATOM     60  C   UNL     1       9.617   7.816   1.592  1.00  0.00     0.148 A 
ATOM     61  C   UNL     1       9.897   5.027   1.427  1.00  0.00     0.002 A 
ATOM     62  C   UNL     1      10.822   7.211   1.933  1.00  0.00     0.091 A 
ATOM     63  F   UNL     1       9.444   9.143   1.684  1.00  0.00    -0.205 F 
ATOM     64  C   UNL     1      10.960   5.816   1.862  1.00  0.00     0.022 A 
BRANCH  62  65
ATOM     65  S   UNL     1      12.281   8.146   2.411  1.00  0.00     0.127 S 
ATOM     66  O   UNL     1      12.437   7.753   3.811  1.00  0.00    -0.237 OA
ATOM     67  O   UNL     1      13.299   7.607   1.510  1.00  0.00    -0.237 OA
ATOM     68  O   UNL     1      11.953   9.548   2.193  1.00  0.00    -0.744 OA
ENDBRANCH  62  65
ENDBRANCH  44  58
BRANCH  45  69
ATOM     69  C   UNL     1       0.023  11.132  -2.089  1.00  0.00     0.023 A 
ATOM     70  C   UNL     1      -0.574  10.688  -3.284  1.00  0.00     0.012 A 
ATOM     71  C   UNL     1      -0.625  12.126  -1.327  1.00  0.00     0.148 A 
ATOM     72  C   UNL     1      -1.787  11.227  -3.715  1.00  0.00     0.002 A 
ATOM     73  C   UNL     1      -1.869  12.602  -1.722  1.00  0.00     0.091 A 
ATOM     74  F   UNL     1      -0.028  12.559  -0.207  1.00  0.00    -0.205 F 
ATOM     75  C   UNL     1      -2.444  12.168  -2.925  1.00  0.00     0.022 A 
BRANCH  73  76
ATOM     76  S   UNL     1      -2.861  13.681  -0.682  1.00  0.00     0.127 S 
ATOM     77  O   UNL     1      -2.857  14.924  -1.449  1.00  0.00    -0.237 OA
ATOM     78  O   UNL     1      -4.143  12.976  -0.656  1.00  0.00    -0.237 OA
ATOM     79  O   UNL     1      -2.177  13.729   0.603  1.00  0.00    -0.744 OA
ENDBRANCH  73  76
ENDBRANCH  45  69
BRANCH  57  80
ATOM     80  C   UNL     1       6.577  11.083  -4.503  1.00  0.00     0.023 A 
ATOM     81  C   UNL     1       6.745  12.482  -4.532  1.00  0.00     0.012 A 
ATOM     82  C   UNL     1       7.085  10.306  -5.563  1.00  0.00     0.148 A 
ATOM     83  C   UNL     1       7.373  13.100  -5.612  1.00  0.00     0.002 A 
ATOM     84  C   UNL     1       7.759  10.923  -6.610  1.00  0.00     0.091 A 
ATOM     85  F   UNL     1       6.901   8.978  -5.527  1.00  0.00    -0.205 F 
ATOM     86  C   UNL     1       7.890  12.321  -6.644  1.00  0.00     0.022 A 
BRANCH  84  87
ATOM     87  S   UNL     1       8.549   9.996  -7.930  1.00  0.00     0.127 S 
ATOM     88  O   UNL     1       7.679  10.296  -9.066  1.00  0.00    -0.237 OA
ATOM     89  O   UNL     1       9.872  10.618  -7.996  1.00  0.00    -0.237 OA
ATOM     90  O   UNL     1       8.555   8.605  -7.498  1.00  0.00    -0.744 OA
ENDBRANCH  84  87
ENDBRANCH  57  80
ENDBRANCH  31  32
ENDBRANCH  24  26
ENDBRANCH  23  24
ENDBRANCH   1  23
TORSDOF 15
