REMARK SMILES CC(C)[C@H](NC(=O)OCc1ccccc1)C(=O)NCC(=O)OCCOC(=O)c1ccc(-c2c3nc(c(-c4cccc(S(=O)(=O)[O-])c4F)c4ccc([nH]4)c(-c4cccc(S(=O)(=O)[O-])c4F)c4nc(c(-c5cccc(S(=O)(=O)[O-])c5F)c5ccc2[nH]5)C=C4)C=C3)cc1
REMARK SMILES IDX 22 1 20 2 21 3 19 4 18 5 16 6 17 7 4 9 2 10 1 11 3 12 5 13
REMARK SMILES IDX 6 14 7 16 8 17 9 18 10 19 11 20 15 21 12 22 14 23 13 24
REMARK SMILES IDX 23 25 24 26 25 27 26 28 27 29 28 30 29 31 90 32 30 33 89 34
REMARK SMILES IDX 31 35 32 36 33 37 83 38 34 39 88 40 82 41 84 42 35 43 87 44
REMARK SMILES IDX 81 45 80 46 36 48 68 49 48 50 67 51 49 52 52 53 66 54 85 55
REMARK SMILES IDX 50 56 51 57 65 59 86 60 53 61 37 62 38 63 46 64 39 65 41 66
REMARK SMILES IDX 47 67 40 68 42 69 43 70 44 71 45 72 69 73 70 74 78 75 71 76
REMARK SMILES IDX 73 77 79 78 72 79 74 80 75 81 76 82 77 83 54 84 55 85 63 86
REMARK SMILES IDX 56 87 58 88 64 89 57 90 59 91 60 92 61 93 62 94
REMARK H PARENT 18 8 5 15 84 47 52 58
REMARK Flexibility Score: inf
ROOT
ATOM      1  O   UNL     1       1.913   4.591   0.472  1.00  0.00    -0.461 OA
ENDROOT
BRANCH   1   2
ATOM      2  C   UNL     1       1.464   4.028   1.623  1.00  0.00     0.325 C 
ATOM      3  O   UNL     1       2.072   4.022   2.688  1.00  0.00    -0.250 OA
BRANCH   2   4
ATOM      4  C   UNL     1       0.071   3.435   1.485  1.00  0.00     0.238 C 
BRANCH   4   5
ATOM      5  N   UNL     1      -0.622   3.523   0.205  1.00  0.00    -0.343 N 
ATOM      6  C   UNL     1      -1.375   2.547  -0.401  1.00  0.00     0.243 C 
ATOM      7  O   UNL     1      -2.292   2.873  -1.155  1.00  0.00    -0.273 OA
ATOM      8  H   UNL     1      -0.542   4.377  -0.279  1.00  0.00     0.164 HD
BRANCH   6   9
ATOM      9  C   UNL     1      -1.093   1.066  -0.061  1.00  0.00     0.177 C 
BRANCH   9  10
ATOM     10  C   UNL     1      -1.878   0.494   1.162  1.00  0.00     0.015 C 
ATOM     11  C   UNL     1      -2.435   1.498   2.183  1.00  0.00     0.010 C 
ATOM     12  C   UNL     1      -3.049  -0.368   0.673  1.00  0.00     0.010 C 
ENDBRANCH   9  10
BRANCH   9  13
ATOM     13  N   UNL     1       0.362   0.971   0.077  1.00  0.00    -0.309 N 
ATOM     14  C   UNL     1       1.151  -0.112   0.245  1.00  0.00     0.408 C 
ATOM     15  H   UNL     1       0.840   1.831   0.041  1.00  0.00     0.167 HD
ATOM     16  O   UNL     1       2.320   0.020   0.551  1.00  0.00    -0.225 OA
BRANCH  14  17
ATOM     17  O   UNL     1       0.522  -1.269  -0.059  1.00  0.00    -0.445 OA
BRANCH  17  18
ATOM     18  C   UNL     1       1.373  -2.418  -0.005  1.00  0.00     0.270 C 
BRANCH  18  19
ATOM     19  C   UNL     1       2.201  -2.659  -1.255  1.00  0.00    -0.011 A 
ATOM     20  C   UNL     1       2.630  -3.965  -1.532  1.00  0.00     0.007 A 
ATOM     21  C   UNL     1       2.652  -1.625  -2.092  1.00  0.00     0.007 A 
ATOM     22  C   UNL     1       3.481  -4.227  -2.609  1.00  0.00     0.000 A 
ATOM     23  C   UNL     1       3.512  -1.885  -3.162  1.00  0.00     0.000 A 
ATOM     24  C   UNL     1       3.927  -3.186  -3.419  1.00  0.00     0.000 A 
ENDBRANCH  18  19
ENDBRANCH  17  18
ENDBRANCH  14  17
ENDBRANCH   9  13
ENDBRANCH   6   9
ENDBRANCH   4   5
ENDBRANCH   2   4
ENDBRANCH   1   2
BRANCH   1  25
ATOM     25  C   UNL     1       3.066   5.438   0.625  1.00  0.00     0.274 C 
BRANCH  25  26
ATOM     26  C   UNL     1       2.643   6.903   0.791  1.00  0.00     0.275 C 
BRANCH  26  27
ATOM     27  O   UNL     1       1.969   7.156   2.042  1.00  0.00    -0.458 OA
BRANCH  27  28
ATOM     28  C   UNL     1       0.629   6.965   2.026  1.00  0.00     0.338 C 
ATOM     29  O   UNL     1      -0.045   6.579   1.082  1.00  0.00    -0.246 OA
BRANCH  28  30
ATOM     30  C   UNL     1       0.050   7.153   3.366  1.00  0.00     0.060 A 
ATOM     31  C   UNL     1      -0.500   6.044   4.007  1.00  0.00     0.016 A 
ATOM     32  C   UNL     1      -0.103   8.422   3.917  1.00  0.00     0.016 A 
ATOM     33  C   UNL     1      -1.298   6.195   5.130  1.00  0.00     0.010 A 
ATOM     34  C   UNL     1      -0.834   8.566   5.104  1.00  0.00     0.010 A 
ATOM     35  C   UNL     1      -1.465   7.458   5.700  1.00  0.00    -0.014 A 
BRANCH  35  36
ATOM     36  C   UNL     1      -2.313   7.593   6.910  1.00  0.00     0.031 A 
ATOM     37  C   UNL     1      -3.571   8.414   6.864  1.00  0.00     0.074 A 
ATOM     38  C   UNL     1      -1.962   6.947   8.041  1.00  0.00     0.049 A 
ATOM     39  N   UNL     1      -4.388   8.723   7.836  1.00  0.00    -0.248 NA
ATOM     40  C   UNL     1      -3.962   8.963   5.554  1.00  0.00     0.031 C 
ATOM     41  C   UNL     1      -0.781   6.093   8.197  1.00  0.00     0.029 A 
ATOM     42  N   UNL     1      -2.561   6.910   9.274  1.00  0.00    -0.354 N 
ATOM     43  C   UNL     1      -5.357   9.544   7.272  1.00  0.00     0.074 A 
ATOM     44  C   UNL     1      -5.027   9.687   5.870  1.00  0.00     0.031 C 
ATOM     45  C   UNL     1      -0.746   5.612   9.449  1.00  0.00     0.029 A 
ATOM     46  C   UNL     1      -1.861   6.173  10.202  1.00  0.00     0.049 A 
ATOM     47  H   UNL     1      -3.409   7.366   9.477  1.00  0.00     0.167 HD
ATOM     48  C   UNL     1      -6.432  10.114   7.866  1.00  0.00     0.034 A 
ATOM     49  C   UNL     1      -2.072   5.998  11.520  1.00  0.00     0.034 A 
ATOM     50  C   UNL     1      -6.779   9.928   9.250  1.00  0.00     0.049 A 
ATOM     51  C   UNL     1      -3.259   6.666  12.155  1.00  0.00     0.074 A 
ATOM     52  C   UNL     1      -7.855  10.451   9.946  1.00  0.00     0.029 A 
ATOM     53  N   UNL     1      -6.062   9.152  10.148  1.00  0.00    -0.354 N 
ATOM     54  N   UNL     1      -4.192   7.396  11.596  1.00  0.00    -0.248 NA
ATOM     55  C   UNL     1      -3.434   6.468  13.601  1.00  0.00     0.031 C 
ATOM     56  C   UNL     1      -7.781  10.001  11.268  1.00  0.00     0.029 A 
ATOM     57  C   UNL     1      -6.671   9.180  11.391  1.00  0.00     0.049 A 
ATOM     58  H   UNL     1      -5.240   8.654   9.934  1.00  0.00     0.167 HD
ATOM     59  C   UNL     1      -5.083   7.718  12.612  1.00  0.00     0.074 A 
ATOM     60  C   UNL     1      -4.590   7.080  13.816  1.00  0.00     0.031 C 
ATOM     61  C   UNL     1      -6.197   8.488  12.561  1.00  0.00     0.034 A 
BRANCH  48  62
ATOM     62  C   UNL     1      -7.330  10.974   7.017  1.00  0.00     0.023 A 
ATOM     63  C   UNL     1      -8.196  10.370   6.084  1.00  0.00     0.012 A 
ATOM     64  C   UNL     1      -7.362  12.373   7.184  1.00  0.00     0.148 A 
ATOM     65  C   UNL     1      -9.062  11.145   5.312  1.00  0.00     0.002 A 
ATOM     66  C   UNL     1      -8.257  13.135   6.441  1.00  0.00     0.091 A 
ATOM     67  F   UNL     1      -6.516  12.931   8.061  1.00  0.00    -0.205 F 
ATOM     68  C   UNL     1      -9.099  12.524   5.498  1.00  0.00     0.022 A 
BRANCH  66  69
ATOM     69  S   UNL     1      -8.434  14.910   6.659  1.00  0.00     0.127 S 
ATOM     70  O   UNL     1      -7.874  15.418   5.407  1.00  0.00    -0.237 OA
ATOM     71  O   UNL     1      -9.884  15.062   6.784  1.00  0.00    -0.237 OA
ATOM     72  O   UNL     1      -7.681  15.246   7.859  1.00  0.00    -0.744 OA
ENDBRANCH  66  69
ENDBRANCH  48  62
BRANCH  49  73
ATOM     73  C   UNL     1      -1.151   5.144  12.322  1.00  0.00     0.023 A 
ATOM     74  C   UNL     1      -1.624   3.932  12.861  1.00  0.00     0.012 A 
ATOM     75  C   UNL     1       0.190   5.515  12.544  1.00  0.00     0.148 A 
ATOM     76  C   UNL     1      -0.791   3.124  13.635  1.00  0.00     0.002 A 
ATOM     77  C   UNL     1       1.031   4.676  13.266  1.00  0.00     0.091 A 
ATOM     78  F   UNL     1       0.620   6.681  12.043  1.00  0.00    -0.205 F 
ATOM     79  C   UNL     1       0.539   3.489  13.828  1.00  0.00     0.022 A 
BRANCH  77  80
ATOM     80  S   UNL     1       2.788   5.010  13.443  1.00  0.00     0.127 S 
ATOM     81  O   UNL     1       2.863   5.493  14.819  1.00  0.00    -0.237 OA
ATOM     82  O   UNL     1       3.375   3.687  13.221  1.00  0.00    -0.237 OA
ATOM     83  O   UNL     1       3.103   5.983  12.405  1.00  0.00    -0.744 OA
ENDBRANCH  77  80
ENDBRANCH  49  73
BRANCH  61  84
ATOM     84  C   UNL     1      -6.986   8.647  13.834  1.00  0.00     0.023 A 
ATOM     85  C   UNL     1      -6.482   9.456  14.872  1.00  0.00     0.012 A 
ATOM     86  C   UNL     1      -8.250   8.044  13.975  1.00  0.00     0.148 A 
ATOM     87  C   UNL     1      -7.211   9.632  16.047  1.00  0.00     0.002 A 
ATOM     88  C   UNL     1      -8.992   8.264  15.129  1.00  0.00     0.091 A 
ATOM     89  F   UNL     1      -8.701   7.261  12.984  1.00  0.00    -0.205 F 
ATOM     90  C   UNL     1      -8.469   9.047  16.171  1.00  0.00     0.022 A 
BRANCH  88  91
ATOM     91  S   UNL     1     -10.659   7.628  15.334  1.00  0.00     0.127 S 
ATOM     92  O   UNL     1     -10.447   6.536  16.282  1.00  0.00    -0.237 OA
ATOM     93  O   UNL     1     -11.368   8.784  15.883  1.00  0.00    -0.237 OA
ATOM     94  O   UNL     1     -11.100   7.227  14.004  1.00  0.00    -0.744 OA
ENDBRANCH  88  91
ENDBRANCH  61  84
ENDBRANCH  35  36
ENDBRANCH  28  30
ENDBRANCH  27  28
ENDBRANCH  26  27
ENDBRANCH  25  26
ENDBRANCH   1  25
TORSDOF 21
