REMARK SMILES CC(C)C[C@H](NC(=O)CNC(=O)[C@@H](NC(=O)OCc1ccccc1)C(C)C)C(=O)OCCOC(=O)c1ccc(-c2c3nc(c(-c4cccc(S(=O)(=O)[O-])c4F)c4ccc([nH]4)c(-c4cccc(S(=O)(=O)[O-])c4F)c4nc(c(-c5cccc(S(=O)(=O)[O-])c5F)c5ccc2[nH]5)C=C4)C=C3)cc1
REMARK SMILES IDX 28 1 29 2 5 3 4 4 2 5 1 6 3 7 6 8 7 9 8 11 9 12 10 13 11 14
REMARK SMILES IDX 12 16 13 17 14 18 15 19 16 21 17 22 18 23 19 24 20 25 24 26
REMARK SMILES IDX 21 27 23 28 22 29 25 30 26 31 27 32 30 33 31 34 32 35 33 36
REMARK SMILES IDX 34 37 35 38 36 39 37 40 98 41 38 42 97 43 39 44 40 45 41 46
REMARK SMILES IDX 91 47 42 48 96 49 90 50 92 51 43 52 95 53 89 54 88 55 44 57
REMARK SMILES IDX 76 58 56 59 75 60 57 61 60 62 74 63 93 64 58 65 59 66 73 68
REMARK SMILES IDX 94 69 61 70 45 71 46 72 54 73 47 74 49 75 55 76 48 77 50 78
REMARK SMILES IDX 51 79 52 80 53 81 77 82 78 83 86 84 79 85 81 86 87 87 80 88
REMARK SMILES IDX 82 89 83 90 84 91 85 92 62 93 63 94 71 95 64 96 66 97 72 98
REMARK SMILES IDX 65 99 67 100 68 101 69 102 70 103
REMARK H PARENT 6 10 10 15 14 20 92 56 60 67
REMARK Flexibility Score: inf
ROOT
ATOM      1  C   UNL     1      -2.696   1.713  -0.160  1.00  0.00     0.328 C 
ATOM      2  O   UNL     1      -2.720   2.033   1.020  1.00  0.00    -0.250 OA
ENDROOT
BRANCH   1   3
ATOM      3  C   UNL     1      -1.378   1.564  -1.060  1.00  0.00     0.192 C 
BRANCH   3   4
ATOM      4  C   UNL     1      -0.259   2.659  -1.145  1.00  0.00     0.040 C 
BRANCH   4   5
ATOM      5  C   UNL     1       0.219   3.480  -2.419  1.00  0.00    -0.015 C 
ATOM      6  C   UNL     1      -0.323   4.924  -2.609  1.00  0.00     0.007 C 
ATOM      7  C   UNL     1       1.731   3.712  -2.340  1.00  0.00     0.007 C 
ENDBRANCH   4   5
ENDBRANCH   3   4
BRANCH   3   8
ATOM      8  N   UNL     1      -1.776   1.246  -2.386  1.00  0.00    -0.341 N 
ATOM      9  C   UNL     1      -2.420   2.173  -3.142  1.00  0.00     0.240 C 
ATOM     10  H   UNL     1      -1.585   0.354  -2.757  1.00  0.00     0.164 HD
ATOM     11  O   UNL     1      -2.608   1.922  -4.335  1.00  0.00    -0.273 OA
BRANCH   9  12
ATOM     12  C   UNL     1      -2.910   3.552  -2.490  1.00  0.00     0.216 C 
BRANCH  12  13
ATOM     13  N   UNL     1      -3.019   4.214  -1.078  1.00  0.00    -0.345 N 
ATOM     14  C   UNL     1      -2.607   4.833   0.064  1.00  0.00     0.243 C 
ATOM     15  H   UNL     1      -3.985   4.135  -0.909  1.00  0.00     0.164 HD
ATOM     16  O   UNL     1      -3.625   5.364   0.574  1.00  0.00    -0.273 OA
BRANCH  14  17
ATOM     17  C   UNL     1      -1.218   5.081   0.970  1.00  0.00     0.177 C 
BRANCH  17  18
ATOM     18  N   UNL     1      -0.586   3.908   1.652  1.00  0.00    -0.309 N 
ATOM     19  C   UNL     1       0.663   3.335   1.645  1.00  0.00     0.408 C 
ATOM     20  H   UNL     1      -1.214   3.435   2.245  1.00  0.00     0.167 HD
ATOM     21  O   UNL     1       0.823   2.215   2.127  1.00  0.00    -0.225 OA
BRANCH  19  22
ATOM     22  O   UNL     1       1.646   4.029   1.015  1.00  0.00    -0.445 OA
BRANCH  22  23
ATOM     23  C   UNL     1       2.894   3.336   0.761  1.00  0.00     0.270 C 
BRANCH  23  24
ATOM     24  C   UNL     1       3.982   3.431   1.807  1.00  0.00    -0.011 A 
ATOM     25  C   UNL     1       3.699   3.393   3.173  1.00  0.00     0.007 A 
ATOM     26  C   UNL     1       5.333   3.427   1.403  1.00  0.00     0.007 A 
ATOM     27  C   UNL     1       4.730   3.362   4.114  1.00  0.00     0.000 A 
ATOM     28  C   UNL     1       6.365   3.401   2.345  1.00  0.00     0.000 A 
ATOM     29  C   UNL     1       6.061   3.367   3.702  1.00  0.00     0.000 A 
ENDBRANCH  23  24
ENDBRANCH  22  23
ENDBRANCH  19  22
ENDBRANCH  17  18
BRANCH  17  30
ATOM     30  C   UNL     1      -0.254   6.255   0.606  1.00  0.00     0.015 C 
ATOM     31  C   UNL     1      -1.030   7.513   0.194  1.00  0.00     0.010 C 
ATOM     32  C   UNL     1       0.675   6.701   1.765  1.00  0.00     0.010 C 
ENDBRANCH  17  30
ENDBRANCH  14  17
ENDBRANCH  12  13
ENDBRANCH   9  12
ENDBRANCH   3   8
ENDBRANCH   1   3
BRANCH   1  33
ATOM     33  O   UNL     1      -3.818   1.434  -0.910  1.00  0.00    -0.461 OA
BRANCH  33  34
ATOM     34  C   UNL     1      -5.173   1.619  -0.436  1.00  0.00     0.274 C 
BRANCH  34  35
ATOM     35  C   UNL     1      -5.965   0.316  -0.597  1.00  0.00     0.275 C 
BRANCH  35  36
ATOM     36  O   UNL     1      -5.508  -0.640   0.366  1.00  0.00    -0.458 OA
BRANCH  36  37
ATOM     37  C   UNL     1      -4.391  -1.304  -0.017  1.00  0.00     0.338 C 
ATOM     38  O   UNL     1      -3.857  -1.314  -1.106  1.00  0.00    -0.246 OA
BRANCH  37  39
ATOM     39  C   UNL     1      -3.777  -1.893   1.172  1.00  0.00     0.060 A 
ATOM     40  C   UNL     1      -2.557  -1.366   1.599  1.00  0.00     0.016 A 
ATOM     41  C   UNL     1      -4.340  -3.011   1.780  1.00  0.00     0.016 A 
ATOM     42  C   UNL     1      -1.848  -2.005   2.600  1.00  0.00     0.010 A 
ATOM     43  C   UNL     1      -3.640  -3.633   2.811  1.00  0.00     0.010 A 
ATOM     44  C   UNL     1      -2.375  -3.156   3.198  1.00  0.00    -0.014 A 
BRANCH  44  45
ATOM     45  C   UNL     1      -1.557  -3.885   4.189  1.00  0.00     0.031 A 
ATOM     46  C   UNL     1      -1.036  -5.254   3.864  1.00  0.00     0.074 A 
ATOM     47  C   UNL     1      -1.271  -3.294   5.363  1.00  0.00     0.049 A 
ATOM     48  N   UNL     1      -0.351  -6.074   4.616  1.00  0.00    -0.248 NA
ATOM     49  C   UNL     1      -1.331  -5.779   2.519  1.00  0.00     0.031 C 
ATOM     50  C   UNL     1      -1.729  -1.965   5.773  1.00  0.00     0.029 A 
ATOM     51  N   UNL     1      -0.539  -3.741   6.430  1.00  0.00    -0.354 N 
ATOM     52  C   UNL     1      -0.167  -7.222   3.857  1.00  0.00     0.074 A 
ATOM     53  C   UNL     1      -0.828  -7.003   2.589  1.00  0.00     0.031 C 
ATOM     54  C   UNL     1      -1.275  -1.707   7.008  1.00  0.00     0.029 A 
ATOM     55  C   UNL     1      -0.541  -2.870   7.492  1.00  0.00     0.049 A 
ATOM     56  H   UNL     1      -0.059  -4.601   6.436  1.00  0.00     0.167 HD
ATOM     57  C   UNL     1       0.509  -8.349   4.183  1.00  0.00     0.034 A 
ATOM     58  C   UNL     1      -0.039  -3.012   8.732  1.00  0.00     0.034 A 
ATOM     59  C   UNL     1       1.182  -8.541   5.440  1.00  0.00     0.049 A 
ATOM     60  C   UNL     1       0.700  -4.276   9.068  1.00  0.00     0.074 A 
ATOM     61  C   UNL     1       1.916  -9.634   5.866  1.00  0.00     0.029 A 
ATOM     62  N   UNL     1       1.200  -7.620   6.477  1.00  0.00    -0.354 N 
ATOM     63  N   UNL     1       0.932  -5.324   8.313  1.00  0.00    -0.248 NA
ATOM     64  C   UNL     1       1.277  -4.364  10.415  1.00  0.00     0.031 C 
ATOM     65  C   UNL     1       2.354  -9.384   7.171  1.00  0.00     0.029 A 
ATOM     66  C   UNL     1       1.929  -8.119   7.544  1.00  0.00     0.049 A 
ATOM     67  H   UNL     1       0.760  -6.739   6.458  1.00  0.00     0.167 HD
ATOM     68  C   UNL     1       1.704  -6.184   9.083  1.00  0.00     0.074 A 
ATOM     69  C   UNL     1       1.930  -5.515  10.350  1.00  0.00     0.031 C 
ATOM     70  C   UNL     1       2.169  -7.422   8.782  1.00  0.00     0.034 A 
BRANCH  57  71
ATOM     71  C   UNL     1       0.572  -9.451   3.156  1.00  0.00     0.023 A 
ATOM     72  C   UNL     1       1.349  -9.281   1.992  1.00  0.00     0.012 A 
ATOM     73  C   UNL     1      -0.095 -10.674   3.367  1.00  0.00     0.148 A 
ATOM     74  C   UNL     1       1.436 -10.296   1.040  1.00  0.00     0.002 A 
ATOM     75  C   UNL     1       0.035 -11.699   2.437  1.00  0.00     0.091 A 
ATOM     76  F   UNL     1      -0.847 -10.811   4.468  1.00  0.00    -0.205 F 
ATOM     77  C   UNL     1       0.789 -11.507   1.267  1.00  0.00     0.022 A 
BRANCH  75  78
ATOM     78  S   UNL     1      -0.693 -13.324   2.671  1.00  0.00     0.127 S 
ATOM     79  O   UNL     1      -1.693 -13.357   1.604  1.00  0.00    -0.237 OA
ATOM     80  O   UNL     1       0.454 -14.206   2.459  1.00  0.00    -0.237 OA
ATOM     81  O   UNL     1      -1.230 -13.335   4.025  1.00  0.00    -0.744 OA
ENDBRANCH  75  78
ENDBRANCH  57  71
BRANCH  58  82
ATOM     82  C   UNL     1      -0.218  -1.927   9.735  1.00  0.00     0.023 A 
ATOM     83  C   UNL     1       0.898  -1.198  10.188  1.00  0.00     0.012 A 
ATOM     84  C   UNL     1      -1.498  -1.601  10.225  1.00  0.00     0.148 A 
ATOM     85  C   UNL     1       0.747  -0.191  11.142  1.00  0.00     0.002 A 
ATOM     86  C   UNL     1      -1.649  -0.555  11.126  1.00  0.00     0.091 A 
ATOM     87  F   UNL     1      -2.546  -2.314   9.790  1.00  0.00    -0.205 F 
ATOM     88  C   UNL     1      -0.526   0.138  11.602  1.00  0.00     0.022 A 
BRANCH  86  89
ATOM     89  S   UNL     1      -3.262   0.024  11.662  1.00  0.00     0.127 S 
ATOM     90  O   UNL     1      -3.291  -0.418  13.054  1.00  0.00    -0.237 OA
ATOM     91  O   UNL     1      -3.140   1.471  11.478  1.00  0.00    -0.237 OA
ATOM     92  O   UNL     1      -4.225  -0.614  10.774  1.00  0.00    -0.744 OA
ENDBRANCH  86  89
ENDBRANCH  58  82
BRANCH  70  93
ATOM     93  C   UNL     1       2.998  -8.114   9.834  1.00  0.00     0.023 A 
ATOM     94  C   UNL     1       2.393  -8.563  11.025  1.00  0.00     0.012 A 
ATOM     95  C   UNL     1       4.373  -8.339   9.629  1.00  0.00     0.148 A 
ATOM     96  C   UNL     1       3.156  -9.173  12.021  1.00  0.00     0.002 A 
ATOM     97  C   UNL     1       5.115  -8.999  10.601  1.00  0.00     0.091 A 
ATOM     98  F   UNL     1       4.935  -7.890   8.497  1.00  0.00    -0.205 F 
ATOM     99  C   UNL     1       4.513  -9.399  11.805  1.00  0.00     0.022 A 
BRANCH  97 100
ATOM    100  S   UNL     1       6.845  -9.420  10.368  1.00  0.00     0.127 S 
ATOM    101  O   UNL     1       7.507  -8.465  11.254  1.00  0.00    -0.237 OA
ATOM    102  O   UNL     1       6.889 -10.810  10.825  1.00  0.00    -0.237 OA
ATOM    103  O   UNL     1       7.112  -9.245   8.946  1.00  0.00    -0.744 OA
ENDBRANCH  97 100
ENDBRANCH  70  93
ENDBRANCH  44  45
ENDBRANCH  37  39
ENDBRANCH  36  37
ENDBRANCH  35  36
ENDBRANCH  34  35
ENDBRANCH  33  34
ENDBRANCH   1  33
TORSDOF 25
