REMARK SMILES Cc1ccc(C(C)(C)C)c(OCC(=O)c2nc(C)c(C(=O)OCCOC(=O)c3ccc(-c4c5nc(c(-c6cccc(S(=O)(=O)[O-])c6F)c6ccc([nH]6)c(-c6cccc(S(=O)(=O)[O-])c6F)c6nc(c(-c7cccc(S(=O)(=O)[O-])c7F)c7ccc4[nH]7)C=C6)C=C5)cc3)s2)c1
REMARK SMILES IDX 23 1 22 2 20 3 21 4 19 5 15 6 16 7 91 8 17 9 18 10 13 11
REMARK SMILES IDX 14 12 12 13 11 14 10 15 1 16 2 17 3 18 92 19 4 20 5 21 6 22
REMARK SMILES IDX 7 23 8 24 9 25 24 26 25 27 26 28 27 29 28 30 29 31 90 32
REMARK SMILES IDX 30 33 89 34 31 35 32 36 33 37 83 38 34 39 88 40 82 41 84 42
REMARK SMILES IDX 35 43 87 44 81 45 80 46 36 48 68 49 48 50 67 51 49 52 52 53
REMARK SMILES IDX 66 54 85 55 50 56 51 57 65 59 86 60 53 61 37 62 38 63 46 64
REMARK SMILES IDX 39 65 41 66 47 67 40 68 42 69 43 70 44 71 45 72 69 73 70 74
REMARK SMILES IDX 78 75 71 76 73 77 79 78 72 79 74 80 75 81 76 82 77 83 54 84
REMARK SMILES IDX 55 85 63 86 56 87 58 88 64 89 57 90 59 91 60 92 61 93 62 94
REMARK H PARENT 84 47 52 58
REMARK Flexibility Score: inf
ROOT
ATOM      1  C   UNL     1      -4.741   4.967   7.432  1.00  0.00     0.275 C 
ENDROOT
BRANCH   1   2
ATOM      2  O   UNL     1      -3.659   4.897   6.506  1.00  0.00    -0.458 OA
BRANCH   2   3
ATOM      3  C   UNL     1      -3.792   5.562   5.325  1.00  0.00     0.350 C 
ATOM      4  O   UNL     1      -4.762   6.225   5.016  1.00  0.00    -0.245 OA
BRANCH   3   5
ATOM      5  C   UNL     1      -2.614   5.312   4.528  1.00  0.00     0.136 A 
ATOM      6  C   UNL     1      -1.067   4.672   2.765  1.00  0.00     0.164 A 
ATOM      7  N   UNL     1      -0.408   5.008   3.859  1.00  0.00    -0.237 NA
ATOM      8  S   UNL     1      -2.767   4.884   2.872  1.00  0.00    -0.103 S 
ATOM      9  C   UNL     1      -1.277   5.343   4.883  1.00  0.00     0.064 A 
ATOM     10  C   UNL     1      -0.688   5.738   6.193  1.00  0.00     0.068 C 
BRANCH   6  11
ATOM     11  C   UNL     1      -0.365   4.298   1.537  1.00  0.00     0.228 C 
ATOM     12  O   UNL     1       0.859   4.447   1.403  1.00  0.00    -0.288 OA
BRANCH  11  13
ATOM     13  C   UNL     1      -1.163   3.825   0.310  1.00  0.00     0.313 C 
BRANCH  13  14
ATOM     14  O   UNL     1      -1.850   2.591   0.348  1.00  0.00    -0.485 OA
BRANCH  14  15
ATOM     15  C   UNL     1      -1.176   1.436   0.035  1.00  0.00     0.123 A 
ATOM     16  C   UNL     1       2.413   0.077   0.019  1.00  0.00     0.044 C 
ATOM     17  C   UNL     1       0.922   0.157  -0.117  1.00  0.00    -0.047 A 
ATOM     18  C   UNL     1       0.185  -0.995  -0.344  1.00  0.00     0.004 A 
ATOM     19  C   UNL     1       0.234   1.360   0.085  1.00  0.00     0.050 A 
ATOM     20  C   UNL     1      -1.207  -0.929  -0.425  1.00  0.00     0.008 A 
ATOM     21  C   UNL     1      -1.934   0.278  -0.267  1.00  0.00    -0.000 A 
BRANCH  21  22
ATOM     22  C   UNL     1      -3.475   0.193  -0.422  1.00  0.00    -0.010 C 
ATOM     23  C   UNL     1      -3.810  -0.485  -1.777  1.00  0.00     0.016 C 
ATOM     24  C   UNL     1      -4.125  -0.664   0.685  1.00  0.00     0.016 C 
ATOM     25  C   UNL     1      -4.228   1.540  -0.411  1.00  0.00     0.016 C 
ENDBRANCH  21  22
ENDBRANCH  14  15
ENDBRANCH  13  14
ENDBRANCH  11  13
ENDBRANCH   6  11
ENDBRANCH   3   5
ENDBRANCH   2   3
ENDBRANCH   1   2
BRANCH   1  26
ATOM     26  C   UNL     1      -6.093   4.364   7.002  1.00  0.00     0.275 C 
BRANCH  26  27
ATOM     27  O   UNL     1      -6.261   3.776   5.682  1.00  0.00    -0.458 OA
BRANCH  27  28
ATOM     28  C   UNL     1      -5.667   2.703   5.094  1.00  0.00     0.338 C 
ATOM     29  O   UNL     1      -6.067   2.253   4.029  1.00  0.00    -0.246 OA
BRANCH  28  30
ATOM     30  C   UNL     1      -4.466   2.157   5.736  1.00  0.00     0.060 A 
ATOM     31  C   UNL     1      -3.293   1.941   4.994  1.00  0.00     0.016 A 
ATOM     32  C   UNL     1      -4.491   1.931   7.099  1.00  0.00     0.016 A 
ATOM     33  C   UNL     1      -2.114   1.561   5.641  1.00  0.00     0.010 A 
ATOM     34  C   UNL     1      -3.304   1.737   7.753  1.00  0.00     0.010 A 
ATOM     35  C   UNL     1      -2.133   1.451   7.025  1.00  0.00    -0.014 A 
BRANCH  35  36
ATOM     36  C   UNL     1      -1.144   0.736   7.822  1.00  0.00     0.031 A 
ATOM     37  C   UNL     1       0.197   1.218   8.158  1.00  0.00     0.074 A 
ATOM     38  C   UNL     1      -1.674  -0.342   8.446  1.00  0.00     0.049 A 
ATOM     39  N   UNL     1       1.073   0.456   8.718  1.00  0.00    -0.248 NA
ATOM     40  C   UNL     1       0.693   2.559   7.888  1.00  0.00     0.031 C 
ATOM     41  C   UNL     1      -1.296  -0.981   9.688  1.00  0.00     0.029 A 
ATOM     42  N   UNL     1      -2.752  -1.104   7.984  1.00  0.00    -0.354 N 
ATOM     43  C   UNL     1       2.091   1.261   9.169  1.00  0.00     0.074 A 
ATOM     44  C   UNL     1       1.892   2.517   8.487  1.00  0.00     0.031 C 
ATOM     45  C   UNL     1      -1.975  -2.138   9.797  1.00  0.00     0.029 A 
ATOM     46  C   UNL     1      -2.640  -2.382   8.524  1.00  0.00     0.049 A 
ATOM     47  H   UNL     1      -3.466  -0.791   7.382  1.00  0.00     0.167 HD
ATOM     48  C   UNL     1       2.860   0.800  10.194  1.00  0.00     0.034 A 
ATOM     49  C   UNL     1      -2.541  -3.501   7.745  1.00  0.00     0.034 A 
ATOM     50  C   UNL     1       2.551  -0.616  10.482  1.00  0.00     0.049 A 
ATOM     51  C   UNL     1      -1.199  -4.186   7.963  1.00  0.00     0.074 A 
ATOM     52  C   UNL     1       1.842  -1.234  11.498  1.00  0.00     0.029 A 
ATOM     53  N   UNL     1       2.755  -1.587   9.502  1.00  0.00    -0.354 N 
ATOM     54  N   UNL     1      -0.259  -3.737   8.746  1.00  0.00    -0.248 NA
ATOM     55  C   UNL     1      -0.783  -5.381   7.234  1.00  0.00     0.031 C 
ATOM     56  C   UNL     1       1.522  -2.553  11.068  1.00  0.00     0.029 A 
ATOM     57  C   UNL     1       2.086  -2.763   9.820  1.00  0.00     0.049 A 
ATOM     58  H   UNL     1       3.301  -1.458   8.693  1.00  0.00     0.167 HD
ATOM     59  C   UNL     1       0.914  -4.384   8.471  1.00  0.00     0.074 A 
ATOM     60  C   UNL     1       0.506  -5.478   7.603  1.00  0.00     0.031 C 
ATOM     61  C   UNL     1       2.124  -3.908   8.904  1.00  0.00     0.034 A 
BRANCH  48  62
ATOM     62  C   UNL     1       3.734   1.637  11.123  1.00  0.00     0.023 A 
ATOM     63  C   UNL     1       4.437   0.939  12.134  1.00  0.00     0.012 A 
ATOM     64  C   UNL     1       3.843   3.050  11.165  1.00  0.00     0.148 A 
ATOM     65  C   UNL     1       5.170   1.589  13.136  1.00  0.00     0.002 A 
ATOM     66  C   UNL     1       4.626   3.699  12.130  1.00  0.00     0.091 A 
ATOM     67  F   UNL     1       3.127   3.807  10.333  1.00  0.00    -0.205 F 
ATOM     68  C   UNL     1       5.276   2.971  13.128  1.00  0.00     0.022 A 
BRANCH  66  69
ATOM     69  S   UNL     1       4.851   5.490  12.153  1.00  0.00     0.127 S 
ATOM     70  O   UNL     1       4.094   5.880  13.343  1.00  0.00    -0.237 OA
ATOM     71  O   UNL     1       6.302   5.626  12.285  1.00  0.00    -0.237 OA
ATOM     72  O   UNL     1       4.315   5.986  10.891  1.00  0.00    -0.744 OA
ENDBRANCH  66  69
ENDBRANCH  48  62
BRANCH  49  73
ATOM     73  C   UNL     1      -3.164  -3.323   6.383  1.00  0.00     0.023 A 
ATOM     74  C   UNL     1      -4.527  -2.936   6.305  1.00  0.00     0.012 A 
ATOM     75  C   UNL     1      -2.321  -3.015   5.309  1.00  0.00     0.148 A 
ATOM     76  C   UNL     1      -4.970  -2.090   5.281  1.00  0.00     0.002 A 
ATOM     77  C   UNL     1      -2.746  -2.121   4.341  1.00  0.00     0.091 A 
ATOM     78  F   UNL     1      -1.072  -3.495   5.288  1.00  0.00    -0.205 F 
ATOM     79  C   UNL     1      -4.059  -1.633   4.333  1.00  0.00     0.022 A 
BRANCH  77  80
ATOM     80  S   UNL     1      -1.499  -1.431   3.255  1.00  0.00     0.127 S 
ATOM     81  O   UNL     1      -2.103  -0.164   2.857  1.00  0.00    -0.237 OA
ATOM     82  O   UNL     1      -0.334  -1.270   4.112  1.00  0.00    -0.237 OA
ATOM     83  O   UNL     1      -1.427  -2.472   2.234  1.00  0.00    -0.744 OA
ENDBRANCH  77  80
ENDBRANCH  49  73
BRANCH  61  84
ATOM     84  C   UNL     1       3.468  -4.485   8.502  1.00  0.00     0.023 A 
ATOM     85  C   UNL     1       3.663  -5.209   7.311  1.00  0.00     0.012 A 
ATOM     86  C   UNL     1       4.624  -4.217   9.278  1.00  0.00     0.148 A 
ATOM     87  C   UNL     1       4.913  -5.731   6.957  1.00  0.00     0.002 A 
ATOM     88  C   UNL     1       5.885  -4.630   8.857  1.00  0.00     0.091 A 
ATOM     89  F   UNL     1       4.511  -3.580  10.453  1.00  0.00    -0.205 F 
ATOM     90  C   UNL     1       6.029  -5.426   7.721  1.00  0.00     0.022 A 
BRANCH  88  91
ATOM     91  S   UNL     1       7.364  -4.024   9.678  1.00  0.00     0.127 S 
ATOM     92  O   UNL     1       7.586  -5.041  10.703  1.00  0.00    -0.237 OA
ATOM     93  O   UNL     1       8.353  -4.026   8.597  1.00  0.00    -0.237 OA
ATOM     94  O   UNL     1       7.009  -2.693  10.154  1.00  0.00    -0.744 OA
ENDBRANCH  88  91
ENDBRANCH  61  84
ENDBRANCH  35  36
ENDBRANCH  28  30
ENDBRANCH  27  28
ENDBRANCH  26  27
ENDBRANCH   1  26
TORSDOF 19
