REMARK SMILES C[N@H+]1[C@H]2CC[C@@H]1CN(C(=O)NC(C)(C)CC(=O)OCCOC(=O)c1ccc(-c3c4nc(c(-c5cccc(S(=O)(=O)[O-])c5F)c5ccc([nH]5)c(-c5cccc(S(=O)(=O)[O-])c5F)c5nc(c(-c6cccc(S(=O)(=O)[O-])c6F)c6ccc3[nH]6)C=C5)C=C4)cc1)CC2
REMARK SMILES IDX 19 1 18 2 16 3 17 4 15 5 12 6 13 7 14 8 11 9 9 10 10 11 8 13
REMARK SMILES IDX 7 14 6 15 1 16 2 17 3 18 4 20 5 22 87 23 88 24 20 26 21 27
REMARK SMILES IDX 22 28 23 29 24 30 25 31 86 32 26 33 85 34 27 35 28 36 29 37
REMARK SMILES IDX 79 38 30 39 84 40 78 41 80 42 31 43 83 44 77 45 76 46 32 48
REMARK SMILES IDX 64 49 44 50 63 51 45 52 48 53 62 54 81 55 46 56 47 57 61 59
REMARK SMILES IDX 82 60 49 61 33 62 34 63 42 64 35 65 37 66 43 67 36 68 38 69
REMARK SMILES IDX 39 70 40 71 41 72 65 73 66 74 74 75 67 76 69 77 75 78 68 79
REMARK SMILES IDX 70 80 71 81 72 82 73 83 50 84 51 85 59 86 52 87 54 88 60 89
REMARK SMILES IDX 53 90 55 91 56 92 57 93 58 94
REMARK H PARENT 11 12 2 19 80 47 48 58
REMARK Flexibility Score: 90.00
ROOT
ATOM      1  C   UNL     1       0.174   7.046  -2.734  1.00  0.00     0.274 C 
ENDROOT
BRANCH   1   2
ATOM      2  O   UNL     1       0.060   6.331  -3.996  1.00  0.00    -0.462 OA
BRANCH   2   3
ATOM      3  C   UNL     1       1.122   5.583  -4.447  1.00  0.00     0.308 C 
ATOM      4  O   UNL     1       2.264   5.693  -4.011  1.00  0.00    -0.252 OA
BRANCH   3   5
ATOM      5  C   UNL     1       0.774   4.557  -5.568  1.00  0.00     0.150 C 
BRANCH   5   6
ATOM      6  C   UNL     1      -0.693   4.246  -5.738  1.00  0.00     0.047 C 
ATOM      7  C   UNL     1      -1.078   2.867  -6.326  1.00  0.00     0.035 C 
ATOM      8  C   UNL     1      -1.351   5.336  -6.604  1.00  0.00     0.035 C 
BRANCH   6   9
ATOM      9  N   UNL     1      -1.303   4.240  -4.462  1.00  0.00    -0.333 N 
ATOM     10  C   UNL     1      -1.109   3.892  -3.218  1.00  0.00     0.318 C 
ATOM     11  O   UNL     1      -2.309   3.760  -2.918  1.00  0.00    -0.249 OA
ATOM     12  H   UNL     1      -2.197   4.645  -4.539  1.00  0.00     0.165 HD
BRANCH  10  13
ATOM     13  N   UNL     1       0.071   3.614  -2.457  1.00  0.00    -0.319 N 
BRANCH  13  14
ATOM     14  C   UNL     1       0.183   3.568  -0.724  1.00  0.00     0.186 C 
BRANCH  14  15
ATOM     15  C   UNL     1      -0.702   2.195   0.210  1.00  0.00     0.204 C 
ATOM     16  C   UNL     1       1.666   0.532  -0.082  1.00  0.00     0.333 C 
ATOM     17  N   UNL     1       0.621   1.265  -0.769  1.00  0.00    -0.331 N 
ATOM     18  C   UNL     1      -0.097   0.408  -2.103  1.00  0.00     0.186 CG0
ATOM     19  H   UNL     1       1.209   2.027  -1.108  1.00  0.00     0.348 HD
ATOM     20  C   UNL     1      -2.071   0.248  -2.025  1.00  0.00     0.071 C 
ATOM     21  G   UNL     1       0.625   1.190  -3.268  1.00  0.00     0.000 G0
ATOM     22  C   UNL     1      -2.721   1.397  -0.443  1.00  0.00     0.073 C 
ENDBRANCH  14  15
ENDBRANCH  13  14
BRANCH  13  23
ATOM     23  C   UNL     1       1.089   2.664  -2.963  1.00  0.00     0.128 C 
BRANCH  23  24
ATOM     24  C   UNL     1       0.625   1.190  -3.268  1.00  0.00     0.086 CG0
ATOM     25  G   UNL     1      -0.097   0.408  -2.103  1.00  0.00     0.000 G0
ENDBRANCH  23  24
ENDBRANCH  13  23
ENDBRANCH  10  13
ENDBRANCH   6   9
ENDBRANCH   5   6
ENDBRANCH   3   5
ENDBRANCH   2   3
ENDBRANCH   1   2
BRANCH   1  26
ATOM     26  C   UNL     1      -1.117   6.974  -1.843  1.00  0.00     0.275 C 
BRANCH  26  27
ATOM     27  O   UNL     1      -1.276   5.670  -1.229  1.00  0.00    -0.458 OA
BRANCH  27  28
ATOM     28  C   UNL     1      -2.461   5.011  -1.038  1.00  0.00     0.338 C 
ATOM     29  O   UNL     1      -3.559   5.533  -1.138  1.00  0.00    -0.246 OA
BRANCH  28  30
ATOM     30  C   UNL     1      -2.218   3.510  -0.570  1.00  0.00     0.060 A 
ATOM     31  C   UNL     1      -1.431   2.065  -1.383  1.00  0.00     0.016 A 
ATOM     32  C   UNL     1      -2.667   3.354   0.968  1.00  0.00     0.016 A 
ATOM     33  C   UNL     1      -1.217   0.473  -0.157  1.00  0.00     0.010 A 
ATOM     34  C   UNL     1      -2.504   2.027   1.880  1.00  0.00     0.010 A 
ATOM     35  C   UNL     1      -1.841   0.640   1.425  1.00  0.00    -0.014 A 
BRANCH  35  36
ATOM     36  C   UNL     1      -2.186  -0.630   2.067  1.00  0.00     0.031 A 
ATOM     37  C   UNL     1      -3.577  -1.168   1.935  1.00  0.00     0.074 A 
ATOM     38  C   UNL     1      -1.108  -1.375   2.319  1.00  0.00     0.049 A 
ATOM     39  N   UNL     1      -3.951  -2.413   2.001  1.00  0.00    -0.248 NA
ATOM     40  C   UNL     1      -4.685  -0.238   1.625  1.00  0.00     0.031 C 
ATOM     41  C   UNL     1       0.245  -0.831   2.364  1.00  0.00     0.029 A 
ATOM     42  N   UNL     1      -0.937  -2.712   2.458  1.00  0.00    -0.354 N 
ATOM     43  C   UNL     1      -5.319  -2.402   1.777  1.00  0.00     0.074 A 
ATOM     44  C   UNL     1      -5.701  -1.061   1.427  1.00  0.00     0.031 C 
ATOM     45  C   UNL     1       1.124  -1.835   2.340  1.00  0.00     0.029 A 
ATOM     46  C   UNL     1       0.387  -3.065   2.540  1.00  0.00     0.049 A 
ATOM     47  H   UNL     1      -1.680  -3.357   2.495  1.00  0.00     0.167 HD
ATOM     48  C   UNL     1      -6.182  -3.417   1.976  1.00  0.00     0.034 A 
ATOM     49  C   UNL     1       0.930  -4.242   2.879  1.00  0.00     0.034 A 
ATOM     50  C   UNL     1      -5.743  -4.670   2.517  1.00  0.00     0.049 A 
ATOM     51  C   UNL     1      -0.060  -5.298   3.235  1.00  0.00     0.074 A 
ATOM     52  C   UNL     1      -6.498  -5.743   2.935  1.00  0.00     0.029 A 
ATOM     53  N   UNL     1      -4.412  -4.974   2.788  1.00  0.00    -0.354 N 
ATOM     54  N   UNL     1      -1.366  -5.268   3.096  1.00  0.00    -0.248 NA
ATOM     55  C   UNL     1       0.468  -6.515   3.841  1.00  0.00     0.031 C 
ATOM     56  C   UNL     1      -5.629  -6.660   3.533  1.00  0.00     0.029 A 
ATOM     57  C   UNL     1      -4.322  -6.211   3.388  1.00  0.00     0.049 A 
ATOM     58  H   UNL     1      -3.646  -4.391   2.581  1.00  0.00     0.167 HD
ATOM     59  C   UNL     1      -1.829  -6.462   3.605  1.00  0.00     0.074 A 
ATOM     60  C   UNL     1      -0.647  -7.212   4.004  1.00  0.00     0.031 C 
ATOM     61  C   UNL     1      -3.105  -6.896   3.751  1.00  0.00     0.034 A 
BRANCH  48  62
ATOM     62  C   UNL     1      -7.646  -3.107   1.839  1.00  0.00     0.023 A 
ATOM     63  C   UNL     1      -8.230  -2.867   0.580  1.00  0.00     0.012 A 
ATOM     64  C   UNL     1      -8.435  -2.995   3.000  1.00  0.00     0.148 A 
ATOM     65  C   UNL     1      -9.575  -2.501   0.484  1.00  0.00     0.002 A 
ATOM     66  C   UNL     1      -9.782  -2.687   2.894  1.00  0.00     0.091 A 
ATOM     67  F   UNL     1      -7.842  -3.162   4.191  1.00  0.00    -0.205 F 
ATOM     68  C   UNL     1     -10.353  -2.424   1.639  1.00  0.00     0.022 A 
BRANCH  66  69
ATOM     69  S   UNL     1     -10.868  -2.623   4.321  1.00  0.00     0.127 S 
ATOM     70  O   UNL     1     -11.331  -1.236   4.281  1.00  0.00    -0.237 OA
ATOM     71  O   UNL     1     -11.883  -3.616   3.969  1.00  0.00    -0.237 OA
ATOM     72  O   UNL     1     -10.048  -2.963   5.474  1.00  0.00    -0.744 OA
ENDBRANCH  66  69
ENDBRANCH  48  62
BRANCH  49  73
ATOM     73  C   UNL     1       2.396  -4.374   3.090  1.00  0.00     0.023 A 
ATOM     74  C   UNL     1       3.136  -5.337   2.387  1.00  0.00     0.012 A 
ATOM     75  C   UNL     1       3.071  -3.517   3.989  1.00  0.00     0.148 A 
ATOM     76  C   UNL     1       4.514  -5.456   2.590  1.00  0.00     0.002 A 
ATOM     77  C   UNL     1       4.448  -3.581   4.121  1.00  0.00     0.091 A 
ATOM     78  F   UNL     1       2.350  -2.629   4.690  1.00  0.00    -0.205 F 
ATOM     79  C   UNL     1       5.172  -4.568   3.442  1.00  0.00     0.022 A 
BRANCH  77  80
ATOM     80  S   UNL     1       5.370  -2.381   5.087  1.00  0.00     0.127 S 
ATOM     81  O   UNL     1       5.838  -3.197   6.204  1.00  0.00    -0.237 OA
ATOM     82  O   UNL     1       6.409  -1.969   4.142  1.00  0.00    -0.237 OA
ATOM     83  O   UNL     1       4.421  -1.329   5.427  1.00  0.00    -0.744 OA
ENDBRANCH  77  80
ENDBRANCH  49  73
BRANCH  61  84
ATOM     84  C   UNL     1      -3.247  -8.291   4.267  1.00  0.00     0.023 A 
ATOM     85  C   UNL     1      -2.901  -8.614   5.592  1.00  0.00     0.012 A 
ATOM     86  C   UNL     1      -3.729  -9.282   3.396  1.00  0.00     0.148 A 
ATOM     87  C   UNL     1      -2.958  -9.937   6.017  1.00  0.00     0.002 A 
ATOM     88  C   UNL     1      -3.861 -10.578   3.852  1.00  0.00     0.091 A 
ATOM     89  F   UNL     1      -4.037  -8.936   2.137  1.00  0.00    -0.205 F 
ATOM     90  C   UNL     1      -3.448 -10.915   5.152  1.00  0.00     0.022 A 
BRANCH  88  91
ATOM     91  S   UNL     1      -4.585 -11.865   2.841  1.00  0.00     0.127 S 
ATOM     92  O   UNL     1      -3.435 -12.736   2.605  1.00  0.00    -0.237 OA
ATOM     93  O   UNL     1      -5.601 -12.417   3.736  1.00  0.00    -0.237 OA
ATOM     94  O   UNL     1      -5.115 -11.204   1.655  1.00  0.00    -0.744 OA
ENDBRANCH  88  91
ENDBRANCH  61  84
ENDBRANCH  35  36
ENDBRANCH  28  30
ENDBRANCH  27  28
ENDBRANCH  26  27
ENDBRANCH   1  26
TORSDOF 17
