REMARK SMILES O=C(OCCOC(=O)[C@H](F)Sc1cc2ccccc2[nH]1)c1ccc(-c2c3nc(c(-c4cccc(S(=O)(=O)[O-])c4F)c4ccc([nH]4)c(-c4cccc(S(=O)(=O)[O-])c4F)c4nc(c(-c5cccc(S(=O)(=O)[O-])c5F)c5ccc2[nH]5)C=C4)C=C3)cc1
REMARK SMILES IDX 4 1 3 2 2 3 1 4 21 5 22 6 83 7 23 8 82 9 24 10 25 11 26 12
REMARK SMILES IDX 76 13 27 14 81 15 75 16 77 17 28 18 80 19 74 20 73 21 29 23
REMARK SMILES IDX 61 24 41 25 60 26 42 27 45 28 59 29 78 30 43 31 44 32 58 34
REMARK SMILES IDX 79 35 46 36 30 37 31 38 39 39 32 40 34 41 40 42 33 43 35 44
REMARK SMILES IDX 36 45 37 46 38 47 62 48 63 49 71 50 64 51 66 52 72 53 65 54
REMARK SMILES IDX 67 55 68 56 69 57 70 58 47 59 48 60 56 61 49 62 51 63 57 64
REMARK SMILES IDX 50 65 52 66 53 67 54 68 55 69 5 70 6 71 7 72 8 73 9 74 10 75
REMARK SMILES IDX 11 76 12 77 13 78 20 79 14 80 19 81 15 83 18 84 16 85 17 86
REMARK H PARENT 77 22 45 33 20 82
REMARK Flexibility Score: inf
ROOT
ATOM      1  C   UNL     1       3.120   3.269   4.301  1.00  0.00     0.275 C 
ENDROOT
BRANCH   1   2
ATOM      2  O   UNL     1       2.240   2.182   3.959  1.00  0.00    -0.458 OA
BRANCH   2   3
ATOM      3  C   UNL     1       1.248   2.099   3.040  1.00  0.00     0.338 C 
ATOM      4  O   UNL     1       0.605   1.051   2.982  1.00  0.00    -0.246 OA
BRANCH   3   5
ATOM      5  C   UNL     1       0.952   3.147   2.008  1.00  0.00     0.060 A 
ATOM      6  C   UNL     1       1.262   4.505   2.102  1.00  0.00     0.016 A 
ATOM      7  C   UNL     1       0.297   2.705   0.839  1.00  0.00     0.016 A 
ATOM      8  C   UNL     1       0.966   5.390   1.062  1.00  0.00     0.010 A 
ATOM      9  C   UNL     1      -0.001   3.584  -0.208  1.00  0.00     0.010 A 
ATOM     10  C   UNL     1       0.316   4.940  -0.088  1.00  0.00    -0.014 A 
BRANCH  10  11
ATOM     11  C   UNL     1      -0.198   5.938  -1.050  1.00  0.00     0.031 A 
ATOM     12  C   UNL     1      -1.630   6.362  -0.919  1.00  0.00     0.074 A 
ATOM     13  C   UNL     1       0.608   6.503  -1.967  1.00  0.00     0.049 A 
ATOM     14  N   UNL     1      -2.260   7.327  -1.530  1.00  0.00    -0.248 NA
ATOM     15  C   UNL     1      -2.453   5.623   0.055  1.00  0.00     0.031 C 
ATOM     16  C   UNL     1       2.025   6.199  -2.141  1.00  0.00     0.029 A 
ATOM     17  N   UNL     1       0.352   7.443  -2.930  1.00  0.00    -0.354 N 
ATOM     18  C   UNL     1      -3.546   7.321  -1.009  1.00  0.00     0.074 A 
ATOM     19  C   UNL     1      -3.621   6.235  -0.059  1.00  0.00     0.031 C 
ATOM     20  C   UNL     1       2.507   6.896  -3.183  1.00  0.00     0.029 A 
ATOM     21  C   UNL     1       1.434   7.715  -3.736  1.00  0.00     0.049 A 
ATOM     22  H   UNL     1      -0.522   7.882  -3.036  1.00  0.00     0.167 HD
ATOM     23  C   UNL     1      -4.566   8.166  -1.281  1.00  0.00     0.034 A 
ATOM     24  C   UNL     1       1.546   8.545  -4.790  1.00  0.00     0.034 A 
ATOM     25  C   UNL     1      -4.483   9.219  -2.252  1.00  0.00     0.049 A 
ATOM     26  C   UNL     1       0.370   9.420  -5.129  1.00  0.00     0.074 A 
ATOM     27  C   UNL     1      -5.446  10.144  -2.607  1.00  0.00     0.029 A 
ATOM     28  N   UNL     1      -3.374   9.462  -3.051  1.00  0.00    -0.354 N 
ATOM     29  N   UNL     1      -0.796   9.499  -4.531  1.00  0.00    -0.248 NA
ATOM     30  C   UNL     1       0.543  10.367  -6.238  1.00  0.00     0.031 C 
ATOM     31  C   UNL     1      -4.931  10.922  -3.650  1.00  0.00     0.029 A 
ATOM     32  C   UNL     1      -3.634  10.509  -3.915  1.00  0.00     0.049 A 
ATOM     33  H   UNL     1      -2.528   8.961  -3.009  1.00  0.00     0.167 HD
ATOM     34  C   UNL     1      -1.470  10.545  -5.145  1.00  0.00     0.074 A 
ATOM     35  C   UNL     1      -0.582  11.067  -6.166  1.00  0.00     0.031 C 
ATOM     36  C   UNL     1      -2.708  11.037  -4.886  1.00  0.00     0.034 A 
BRANCH  23  37
ATOM     37  C   UNL     1      -5.843   7.956  -0.515  1.00  0.00     0.023 A 
ATOM     38  C   UNL     1      -5.899   8.275   0.858  1.00  0.00     0.012 A 
ATOM     39  C   UNL     1      -6.976   7.413  -1.147  1.00  0.00     0.148 A 
ATOM     40  C   UNL     1      -7.050   8.014   1.601  1.00  0.00     0.002 A 
ATOM     41  C   UNL     1      -8.133   7.194  -0.409  1.00  0.00     0.091 A 
ATOM     42  F   UNL     1      -6.891   7.088  -2.444  1.00  0.00    -0.205 F 
ATOM     43  C   UNL     1      -8.168   7.479   0.966  1.00  0.00     0.022 A 
BRANCH  41  44
ATOM     44  S   UNL     1      -9.642   6.562  -1.148  1.00  0.00     0.127 S 
ATOM     45  O   UNL     1      -9.701   5.213  -0.589  1.00  0.00    -0.237 OA
ATOM     46  O   UNL     1     -10.649   7.485  -0.624  1.00  0.00    -0.237 OA
ATOM     47  O   UNL     1      -9.444   6.635  -2.589  1.00  0.00    -0.744 OA
ENDBRANCH  41  44
ENDBRANCH  23  37
BRANCH  24  48
ATOM     48  C   UNL     1       2.838   8.660  -5.524  1.00  0.00     0.023 A 
ATOM     49  C   UNL     1       3.612   9.829  -5.391  1.00  0.00     0.012 A 
ATOM     50  C   UNL     1       3.316   7.611  -6.336  1.00  0.00     0.148 A 
ATOM     51  C   UNL     1       4.821   9.966  -6.074  1.00  0.00     0.002 A 
ATOM     52  C   UNL     1       4.540   7.738  -6.983  1.00  0.00     0.091 A 
ATOM     53  F   UNL     1       2.563   6.508  -6.454  1.00  0.00    -0.205 F 
ATOM     54  C   UNL     1       5.288   8.919  -6.864  1.00  0.00     0.022 A 
BRANCH  52  55
ATOM     55  S   UNL     1       5.272   6.411  -7.950  1.00  0.00     0.127 S 
ATOM     56  O   UNL     1       5.204   6.957  -9.303  1.00  0.00    -0.237 OA
ATOM     57  O   UNL     1       6.618   6.336  -7.382  1.00  0.00    -0.237 OA
ATOM     58  O   UNL     1       4.443   5.240  -7.701  1.00  0.00    -0.744 OA
ENDBRANCH  52  55
ENDBRANCH  24  48
BRANCH  36  59
ATOM     59  C   UNL     1      -3.155  12.236  -5.676  1.00  0.00     0.023 A 
ATOM     60  C   UNL     1      -3.500  12.103  -7.034  1.00  0.00     0.012 A 
ATOM     61  C   UNL     1      -3.313  13.482  -5.037  1.00  0.00     0.148 A 
ATOM     62  C   UNL     1      -3.964  13.202  -7.755  1.00  0.00     0.002 A 
ATOM     63  C   UNL     1      -3.829  14.558  -5.746  1.00  0.00     0.091 A 
ATOM     64  F   UNL     1      -2.956  13.592  -3.749  1.00  0.00    -0.205 F 
ATOM     65  C   UNL     1      -4.142  14.424  -7.109  1.00  0.00     0.022 A 
BRANCH  63  66
ATOM     66  S   UNL     1      -4.195  16.130  -4.961  1.00  0.00     0.127 S 
ATOM     67  O   UNL     1      -3.099  16.967  -5.444  1.00  0.00    -0.237 OA
ATOM     68  O   UNL     1      -5.507  16.459  -5.520  1.00  0.00    -0.237 OA
ATOM     69  O   UNL     1      -4.202  15.868  -3.528  1.00  0.00    -0.744 OA
ENDBRANCH  63  66
ENDBRANCH  36  59
ENDBRANCH  10  11
ENDBRANCH   3   5
ENDBRANCH   2   3
ENDBRANCH   1   2
BRANCH   1  70
ATOM     70  C   UNL     1       4.310   3.441   3.355  1.00  0.00     0.274 C 
BRANCH  70  71
ATOM     71  O   UNL     1       3.957   3.178   1.991  1.00  0.00    -0.459 OA
BRANCH  71  72
ATOM     72  C   UNL     1       4.327   1.956   1.492  1.00  0.00     0.351 C 
ATOM     73  O   UNL     1       4.993   1.141   2.126  1.00  0.00    -0.248 OA
BRANCH  72  74
ATOM     74  C   UNL     1       3.706   1.673   0.125  1.00  0.00     0.339 C 
ATOM     75  F   UNL     1       4.246   0.568  -0.471  1.00  0.00    -0.222 F 
BRANCH  74  76
ATOM     76  S   UNL     1       3.809   3.084  -1.009  1.00  0.00    -0.059 SA
BRANCH  76  77
ATOM     77  C   UNL     1       5.510   3.291  -1.171  1.00  0.00     0.077 A 
ATOM     78  C   UNL     1       6.536   2.384  -1.220  1.00  0.00     0.043 A 
ATOM     79  N   UNL     1       6.032   4.548  -1.293  1.00  0.00    -0.350 N 
ATOM     80  C   UNL     1       7.745   3.121  -1.280  1.00  0.00     0.001 A 
ATOM     81  C   UNL     1       7.409   4.476  -1.305  1.00  0.00     0.046 A 
ATOM     82  H   UNL     1       5.506   5.377  -1.361  1.00  0.00     0.167 HD
ATOM     83  C   UNL     1       9.099   2.749  -1.318  1.00  0.00     0.010 A 
ATOM     84  C   UNL     1       8.374   5.487  -1.357  1.00  0.00     0.027 A 
ATOM     85  C   UNL     1      10.076   3.746  -1.366  1.00  0.00     0.001 A 
ATOM     86  C   UNL     1       9.717   5.093  -1.383  1.00  0.00     0.002 A 
ENDBRANCH  76  77
ENDBRANCH  74  76
ENDBRANCH  72  74
ENDBRANCH  71  72
ENDBRANCH  70  71
ENDBRANCH   1  70
TORSDOF 16
