REMARK SMILES O=C(/C=C/[C@@]12C=C(O)C(=O)C=C1C(=O)C1=Cc3cc(O)c(O)cc3O[C@@H](c3ccc(O)c(O)c3)[C@@H]12)OCCOC(=O)c1ccc(-c2c3nc(c(-c4cccc(S(=O)(=O)[O-])c4F)c4ccc([nH]4)c(-c4cccc(S(=O)(=O)[O-])c4F)c4nc(c(-c5cccc(S(=O)(=O)[O-])c5F)c5ccc2[nH]5)C=C4)C=C3)cc1
REMARK SMILES IDX 36 1 2 2 1 3 3 4 4 5 5 6 6 7 12 8 35 9 7 10 11 11 13 12
REMARK SMILES IDX 15 13 9 15 14 16 16 17 10 18 8 19 17 21 18 22 24 23 19 24
REMARK SMILES IDX 23 25 21 26 25 27 26 28 27 30 28 31 34 32 29 33 32 34 30 35
REMARK SMILES IDX 33 36 31 38 20 40 22 42 37 44 38 45 39 46 40 47 41 48 42 49
REMARK SMILES IDX 43 50 104 51 44 52 103 53 45 54 46 55 47 56 97 57 48 58
REMARK SMILES IDX 102 59 96 60 98 61 49 62 101 63 95 64 94 65 50 67 82 68
REMARK SMILES IDX 62 69 81 70 63 71 66 72 80 73 99 74 64 75 65 76 79 78 100 79
REMARK SMILES IDX 67 80 51 81 52 82 60 83 53 84 55 85 61 86 54 87 56 88 57 89
REMARK SMILES IDX 58 90 59 91 83 92 84 93 92 94 85 95 87 96 93 97 86 98 88 99
REMARK SMILES IDX 89 100 90 101 91 102 68 103 69 104 77 105 70 106 72 107
REMARK SMILES IDX 78 108 71 109 73 110 74 111 75 112 76 113
REMARK H PARENT 8 20 33 37 31 39 20 41 22 43 98 66 66 77
REMARK Flexibility Score: 90.00
ROOT
ATOM      1  O   UNL     1       2.736   0.908  -0.374  1.00  0.00    -0.459 OA
ENDROOT
BRANCH   1   2
ATOM      2  C   UNL     1       2.532  -0.416  -0.514  1.00  0.00     0.330 C 
ATOM      3  O   UNL     1       1.533  -0.811  -1.113  1.00  0.00    -0.247 OA
BRANCH   2   4
ATOM      4  C   UNL     1       3.423  -1.457   0.059  1.00  0.00     0.090 C 
ATOM      5  C   UNL     1       4.634  -1.423   0.648  1.00  0.00    -0.003 C 
BRANCH   5   6
ATOM      6  C   UNL     1       5.474  -2.629   1.121  1.00  0.00     0.051 C 
ATOM      7  C   UNL     1       4.575  -3.734   1.573  1.00  0.00     0.040 C 
ATOM      8  C   UNL     1       6.320  -3.032  -0.054  1.00  0.00     0.018 C 
ATOM      9  C   UNL     1       6.584  -2.230   2.160  1.00  0.00     0.087 CG0
ATOM     10  C   UNL     1       4.376  -4.861   0.877  1.00  0.00     0.160 C 
ATOM     11  C   UNL     1       6.138  -4.112  -0.815  1.00  0.00     0.065 C 
ATOM     12  C   UNL     1       7.467  -2.084  -0.118  1.00  0.00     0.186 C 
ATOM     13  C   UNL     1       7.595  -1.533   1.266  1.00  0.00     0.009 C 
ATOM     14  G   UNL     1       7.391  -3.369   2.866  1.00  0.00     0.000 G0
ATOM     15  C   UNL     1       5.052  -5.061  -0.452  1.00  0.00     0.220 C 
ATOM     16  O   UNL     1       8.162  -1.841  -1.066  1.00  0.00    -0.289 OA
ATOM     17  C   UNL     1       8.537  -0.689   1.696  1.00  0.00     0.020 C 
ATOM     18  O   UNL     1       4.785  -5.997  -1.193  1.00  0.00    -0.286 OA
BRANCH  10  19
ATOM     19  O   UNL     1       3.602  -5.881   1.374  1.00  0.00    -0.504 OA
ATOM     20  H   UNL     1       3.170  -5.782   2.200  1.00  0.00     0.293 HD
ENDBRANCH  10  19
BRANCH  17  21
ATOM     21  C   UNL     1       8.734  -0.545   3.147  1.00  0.00     0.021 A 
ATOM     22  C   UNL     1       8.975   0.721   3.705  1.00  0.00     0.062 A 
ATOM     23  C   UNL     1       8.771  -1.685   3.983  1.00  0.00     0.131 A 
ATOM     24  C   UNL     1       9.267   0.828   5.066  1.00  0.00     0.158 A 
ATOM     25  C   UNL     1       9.110  -1.565   5.333  1.00  0.00     0.097 A 
ATOM     26  C   UNL     1       9.342  -0.309   5.866  1.00  0.00     0.161 A 
BRANCH  23  27
ATOM     27  O   UNL     1       8.627  -2.969   3.523  1.00  0.00    -0.484 OA
BRANCH  27  28
ATOM     28  C   UNL     1       7.391  -3.369   2.866  1.00  0.00     0.213 CG0
ATOM     29  G   UNL     1       6.584  -2.230   2.160  1.00  0.00     0.000 G0
BRANCH  28  30
ATOM     30  C   UNL     1       6.598  -4.203   3.857  1.00  0.00    -0.003 A 
ATOM     31  C   UNL     1       6.219  -5.526   3.542  1.00  0.00     0.011 A 
ATOM     32  C   UNL     1       6.242  -3.690   5.107  1.00  0.00     0.057 A 
ATOM     33  C   UNL     1       5.422  -6.279   4.411  1.00  0.00     0.050 A 
ATOM     34  C   UNL     1       5.550  -4.486   6.007  1.00  0.00     0.157 A 
ATOM     35  C   UNL     1       5.092  -5.749   5.647  1.00  0.00     0.157 A 
BRANCH  34  36
ATOM     36  O   UNL     1       5.345  -3.997   7.264  1.00  0.00    -0.504 OA
ATOM     37  H   UNL     1       4.882  -4.510   7.897  1.00  0.00     0.293 HD
ENDBRANCH  34  36
BRANCH  35  38
ATOM     38  O   UNL     1       4.329  -6.434   6.543  1.00  0.00    -0.504 OA
ATOM     39  H   UNL     1       4.006  -7.287   6.328  1.00  0.00     0.293 HD
ENDBRANCH  35  38
ENDBRANCH  28  30
ENDBRANCH  27  28
ENDBRANCH  23  27
BRANCH  24  40
ATOM     40  O   UNL     1       9.511   2.034   5.666  1.00  0.00    -0.504 OA
ATOM     41  H   UNL     1       9.471   2.824   5.163  1.00  0.00     0.293 HD
ENDBRANCH  24  40
BRANCH  26  42
ATOM     42  O   UNL     1       9.662  -0.198   7.189  1.00  0.00    -0.504 OA
ATOM     43  H   UNL     1       9.822   0.646   7.563  1.00  0.00     0.293 HD
ENDBRANCH  26  42
ENDBRANCH  17  21
ENDBRANCH   5   6
ENDBRANCH   2   4
ENDBRANCH   1   2
BRANCH   1  44
ATOM     44  C   UNL     1       3.877   1.592   0.163  1.00  0.00     0.275 C 
BRANCH  44  45
ATOM     45  C   UNL     1       3.842   1.764   1.689  1.00  0.00     0.275 C 
BRANCH  45  46
ATOM     46  O   UNL     1       3.480   0.570   2.407  1.00  0.00    -0.458 OA
BRANCH  46  47
ATOM     47  C   UNL     1       2.144   0.394   2.618  1.00  0.00     0.338 C 
ATOM     48  O   UNL     1       1.265   1.183   2.321  1.00  0.00    -0.246 OA
BRANCH  47  49
ATOM     49  C   UNL     1       1.889  -0.981   3.127  1.00  0.00     0.060 A 
ATOM     50  C   UNL     1       2.727  -1.579   4.064  1.00  0.00     0.016 A 
ATOM     51  C   UNL     1       0.778  -1.691   2.652  1.00  0.00     0.016 A 
ATOM     52  C   UNL     1       2.462  -2.888   4.494  1.00  0.00     0.010 A 
ATOM     53  C   UNL     1       0.503  -2.993   3.114  1.00  0.00     0.010 A 
ATOM     54  C   UNL     1       1.348  -3.627   4.033  1.00  0.00    -0.014 A 
BRANCH  54  55
ATOM     55  C   UNL     1       1.087  -4.995   4.601  1.00  0.00     0.031 A 
ATOM     56  C   UNL     1       1.043  -6.257   3.772  1.00  0.00     0.074 A 
ATOM     57  C   UNL     1       0.967  -5.143   5.938  1.00  0.00     0.049 A 
ATOM     58  N   UNL     1       1.277  -7.489   4.166  1.00  0.00    -0.248 NA
ATOM     59  C   UNL     1       0.758  -6.141   2.337  1.00  0.00     0.031 C 
ATOM     60  C   UNL     1       0.926  -4.041   6.897  1.00  0.00     0.029 A 
ATOM     61  N   UNL     1       0.889  -6.272   6.723  1.00  0.00    -0.354 N 
ATOM     62  C   UNL     1       1.206  -8.283   3.025  1.00  0.00     0.074 A 
ATOM     63  C   UNL     1       0.899  -7.396   1.925  1.00  0.00     0.031 C 
ATOM     64  C   UNL     1       0.906  -4.542   8.139  1.00  0.00     0.029 A 
ATOM     65  C   UNL     1       0.875  -6.002   8.072  1.00  0.00     0.049 A 
ATOM     66  H   UNL     1       0.848  -7.184   6.354  1.00  0.00     0.167 HD
ATOM     67  C   UNL     1       1.393  -9.619   2.891  1.00  0.00     0.034 A 
ATOM     68  C   UNL     1       0.843  -6.815   9.148  1.00  0.00     0.034 A 
ATOM     69  C   UNL     1       1.530 -10.552   3.980  1.00  0.00     0.049 A 
ATOM     70  C   UNL     1       0.883  -8.306   8.974  1.00  0.00     0.074 A 
ATOM     71  C   UNL     1       1.743 -11.920   3.913  1.00  0.00     0.029 A 
ATOM     72  N   UNL     1       1.362 -10.246   5.318  1.00  0.00    -0.354 N 
ATOM     73  N   UNL     1       1.095  -9.002   7.885  1.00  0.00    -0.248 NA
ATOM     74  C   UNL     1       0.699  -9.124  10.184  1.00  0.00     0.031 C 
ATOM     75  C   UNL     1       1.633 -12.448   5.204  1.00  0.00     0.029 A 
ATOM     76  C   UNL     1       1.406 -11.403   6.081  1.00  0.00     0.049 A 
ATOM     77  H   UNL     1       1.230  -9.339   5.677  1.00  0.00     0.167 HD
ATOM     78  C   UNL     1       1.071 -10.338   8.277  1.00  0.00     0.074 A 
ATOM     79  C   UNL     1       0.862 -10.353   9.709  1.00  0.00     0.031 C 
ATOM     80  C   UNL     1       1.198 -11.447   7.507  1.00  0.00     0.034 A 
BRANCH  67  81
ATOM     81  C   UNL     1       1.498 -10.181   1.495  1.00  0.00     0.023 A 
ATOM     82  C   UNL     1       2.709 -10.017   0.792  1.00  0.00     0.012 A 
ATOM     83  C   UNL     1       0.476 -10.973   0.937  1.00  0.00     0.148 A 
ATOM     84  C   UNL     1       2.904 -10.635  -0.443  1.00  0.00     0.002 A 
ATOM     85  C   UNL     1       0.687 -11.607  -0.284  1.00  0.00     0.091 A 
ATOM     86  F   UNL     1      -0.673 -11.100   1.615  1.00  0.00    -0.205 F 
ATOM     87  C   UNL     1       1.899 -11.439  -0.974  1.00  0.00     0.022 A 
BRANCH  85  88
ATOM     88  S   UNL     1      -0.524 -12.707  -1.027  1.00  0.00     0.127 S 
ATOM     89  O   UNL     1      -0.985 -11.912  -2.165  1.00  0.00    -0.237 OA
ATOM     90  O   UNL     1       0.289 -13.869  -1.385  1.00  0.00    -0.237 OA
ATOM     91  O   UNL     1      -1.522 -12.957   0.003  1.00  0.00    -0.744 OA
ENDBRANCH  85  88
ENDBRANCH  67  81
BRANCH  68  92
ATOM     92  C   UNL     1       0.815  -6.205  10.508  1.00  0.00     0.023 A 
ATOM     93  C   UNL     1       1.931  -6.330  11.355  1.00  0.00     0.012 A 
ATOM     94  C   UNL     1      -0.282  -5.423  10.923  1.00  0.00     0.148 A 
ATOM     95  C   UNL     1       1.958  -5.681  12.590  1.00  0.00     0.002 A 
ATOM     96  C   UNL     1      -0.217  -4.719  12.117  1.00  0.00     0.091 A 
ATOM     97  F   UNL     1      -1.348  -5.349  10.114  1.00  0.00    -0.205 F 
ATOM     98  C   UNL     1       0.895  -4.859  12.961  1.00  0.00     0.022 A 
BRANCH  96  99
ATOM     99  S   UNL     1      -1.454  -3.501  12.576  1.00  0.00     0.127 S 
ATOM    100  O   UNL     1      -2.098  -4.144  13.717  1.00  0.00    -0.237 OA
ATOM    101  O   UNL     1      -0.625  -2.341  12.905  1.00  0.00    -0.237 OA
ATOM    102  O   UNL     1      -2.289  -3.325  11.395  1.00  0.00    -0.744 OA
ENDBRANCH  96  99
ENDBRANCH  68  92
BRANCH  80 103
ATOM    103  C   UNL     1       1.075 -12.801   8.165  1.00  0.00     0.023 A 
ATOM    104  C   UNL     1      -0.185 -13.234   8.626  1.00  0.00     0.012 A 
ATOM    105  C   UNL     1       2.171 -13.686   8.234  1.00  0.00     0.148 A 
ATOM    106  C   UNL     1      -0.350 -14.514   9.158  1.00  0.00     0.002 A 
ATOM    107  C   UNL     1       1.989 -14.977   8.720  1.00  0.00     0.091 A 
ATOM    108  F   UNL     1       3.367 -13.254   7.808  1.00  0.00    -0.205 F 
ATOM    109  C   UNL     1       0.732 -15.389   9.191  1.00  0.00     0.022 A 
BRANCH 107 110
ATOM    110  S   UNL     1       3.296 -16.212   8.715  1.00  0.00     0.127 S 
ATOM    111  O   UNL     1       3.538 -16.395  10.146  1.00  0.00    -0.237 OA
ATOM    112  O   UNL     1       2.648 -17.345   8.056  1.00  0.00    -0.237 OA
ATOM    113  O   UNL     1       4.401 -15.624   7.970  1.00  0.00    -0.744 OA
ENDBRANCH 107 110
ENDBRANCH  80 103
ENDBRANCH  54  55
ENDBRANCH  47  49
ENDBRANCH  46  47
ENDBRANCH  45  46
ENDBRANCH  44  45
ENDBRANCH   1  44
TORSDOF 21
