REMARK SMILES Cc1cc(F)ccc1OC1(C(=O)OCCOC(=O)c2ccc(-c3c4nc(c(-c5cccc(S(=O)(=O)[O-])c5F)c5ccc([nH]5)c(-c5cccc(S(=O)(=O)[O-])c5F)c5nc(c(-c6cccc(S(=O)(=O)[O-])c6F)c6ccc3[nH]6)C=C5)C=C4)cc2)CCN(C(=O)[C@H]2CCOC2)CC1
REMARK SMILES IDX 15 1 14 2 13 3 11 4 12 5 10 6 82 7 93 8 83 9 92 10 84 11
REMARK SMILES IDX 85 12 86 13 9 14 8 15 1 16 2 17 3 18 4 19 7 20 5 21 6 22
REMARK SMILES IDX 87 23 88 24 91 25 89 26 90 27 16 28 17 29 18 30 19 31 20 32
REMARK SMILES IDX 81 33 21 34 80 35 22 36 23 37 24 38 74 39 25 40 79 41 73 42
REMARK SMILES IDX 75 43 26 44 78 45 72 46 71 47 27 49 59 50 39 51 58 52 40 53
REMARK SMILES IDX 43 54 57 55 76 56 41 57 42 58 56 60 77 61 44 62 28 63 29 64
REMARK SMILES IDX 37 65 30 66 32 67 38 68 31 69 33 70 34 71 35 72 36 73 60 74
REMARK SMILES IDX 61 75 69 76 62 77 64 78 70 79 63 80 65 81 66 82 67 83 68 84
REMARK SMILES IDX 45 85 46 86 54 87 47 88 49 89 55 90 48 91 50 92 51 93 52 94
REMARK SMILES IDX 53 95
REMARK H PARENT 75 48 43 59
REMARK Flexibility Score: inf
ROOT
ATOM      1  C   UNL     1      11.505   9.021   0.860  1.00  0.00     0.275 C 
ENDROOT
BRANCH   1   2
ATOM      2  C   UNL     1      10.741   7.811   1.396  1.00  0.00     0.274 C 
BRANCH   2   3
ATOM      3  O   UNL     1       9.690   7.434   0.480  1.00  0.00    -0.459 OA
BRANCH   3   4
ATOM      4  C   UNL     1       8.432   7.883   0.772  1.00  0.00     0.350 C 
ATOM      5  O   UNL     1       8.144   8.452   1.820  1.00  0.00    -0.247 OA
BRANCH   4   6
ATOM      6  C   UNL     1       7.394   7.487  -0.323  1.00  0.00     0.209 C 
ATOM      7  C   UNL     1       8.067   7.442  -1.695  1.00  0.00     0.082 C 
ATOM      8  C   UNL     1       6.885   6.139   0.198  1.00  0.00     0.082 C 
ATOM      9  C   UNL     1       8.261   6.011  -2.204  1.00  0.00     0.124 C 
ATOM     10  C   UNL     1       6.218   5.340  -0.888  1.00  0.00     0.124 C 
ATOM     11  N   UNL     1       7.118   5.103  -2.015  1.00  0.00    -0.342 N 
ATOM     12  C   UNL     1       7.038   3.982  -2.841  1.00  0.00     0.228 C 
ATOM     13  O   UNL     1       7.906   3.743  -3.682  1.00  0.00    -0.274 OA
BRANCH   6  14
ATOM     14  O   UNL     1       6.338   8.440  -0.161  1.00  0.00    -0.475 OA
BRANCH  14  15
ATOM     15  C   UNL     1       5.404   9.077  -0.900  1.00  0.00     0.124 A 
ATOM     16  C   UNL     1       5.306   7.958  -3.265  1.00  0.00     0.048 C 
ATOM     17  C   UNL     1       4.952   8.973  -2.223  1.00  0.00    -0.006 A 
ATOM     18  C   UNL     1       4.022   9.936  -2.700  1.00  0.00     0.046 A 
ATOM     19  C   UNL     1       3.497  10.924  -1.881  1.00  0.00     0.123 A 
ATOM     20  C   UNL     1       4.791  10.056  -0.081  1.00  0.00     0.050 A 
ATOM     21  F   UNL     1       2.619  11.801  -2.380  1.00  0.00    -0.207 F 
ATOM     22  C   UNL     1       3.858  10.980  -0.556  1.00  0.00     0.043 A 
ENDBRANCH  14  15
ENDBRANCH   6  14
BRANCH  12  23
ATOM     23  C   UNL     1       5.834   3.063  -2.681  1.00  0.00     0.107 C 
ATOM     24  C   UNL     1       4.586   3.609  -3.341  1.00  0.00     0.044 C 
ATOM     25  C   UNL     1       6.005   1.739  -3.402  1.00  0.00     0.173 C 
ATOM     26  C   UNL     1       3.774   2.360  -3.619  1.00  0.00     0.161 C 
ATOM     27  O   UNL     1       4.682   1.253  -3.675  1.00  0.00    -0.381 OA
ENDBRANCH  12  23
ENDBRANCH   4   6
ENDBRANCH   3   4
ENDBRANCH   2   3
ENDBRANCH   1   2
BRANCH   1  28
ATOM     28  O   UNL     1      10.661  10.182   0.923  1.00  0.00    -0.458 OA
BRANCH  28  29
ATOM     29  C   UNL     1      10.408  10.816  -0.243  1.00  0.00     0.338 C 
ATOM     30  O   UNL     1      10.862  10.550  -1.347  1.00  0.00    -0.246 OA
BRANCH  29  31
ATOM     31  C   UNL     1       9.431  11.886   0.005  1.00  0.00     0.060 A 
ATOM     32  C   UNL     1       8.149  11.539   0.419  1.00  0.00     0.016 A 
ATOM     33  C   UNL     1       9.750  13.222  -0.240  1.00  0.00     0.016 A 
ATOM     34  C   UNL     1       7.171  12.518   0.544  1.00  0.00     0.010 A 
ATOM     35  C   UNL     1       8.773  14.211  -0.055  1.00  0.00     0.010 A 
ATOM     36  C   UNL     1       7.461  13.865   0.309  1.00  0.00    -0.014 A 
BRANCH  36  37
ATOM     37  C   UNL     1       6.356  14.863   0.371  1.00  0.00     0.031 A 
ATOM     38  C   UNL     1       5.987  15.651  -0.857  1.00  0.00     0.074 A 
ATOM     39  C   UNL     1       5.624  15.013   1.494  1.00  0.00     0.049 A 
ATOM     40  N   UNL     1       5.139  16.640  -0.979  1.00  0.00    -0.248 NA
ATOM     41  C   UNL     1       6.666  15.287  -2.111  1.00  0.00     0.031 C 
ATOM     42  C   UNL     1       5.823  14.270   2.739  1.00  0.00     0.029 A 
ATOM     43  N   UNL     1       4.549  15.824   1.764  1.00  0.00    -0.354 N 
ATOM     44  C   UNL     1       5.250  17.073  -2.294  1.00  0.00     0.074 A 
ATOM     45  C   UNL     1       6.227  16.224  -2.939  1.00  0.00     0.031 C 
ATOM     46  C   UNL     1       4.869  14.615   3.616  1.00  0.00     0.029 A 
ATOM     47  C   UNL     1       4.043  15.668   3.034  1.00  0.00     0.049 A 
ATOM     48  H   UNL     1       4.175  16.458   1.109  1.00  0.00     0.167 HD
ATOM     49  C   UNL     1       4.594  18.084  -2.911  1.00  0.00     0.034 A 
ATOM     50  C   UNL     1       3.048  16.317   3.672  1.00  0.00     0.034 A 
ATOM     51  C   UNL     1       3.550  18.865  -2.304  1.00  0.00     0.049 A 
ATOM     52  C   UNL     1       2.327  17.430   2.963  1.00  0.00     0.074 A 
ATOM     53  C   UNL     1       2.815  19.898  -2.857  1.00  0.00     0.029 A 
ATOM     54  N   UNL     1       3.075  18.681  -1.015  1.00  0.00    -0.354 N 
ATOM     55  N   UNL     1       2.452  17.835   1.723  1.00  0.00    -0.248 NA
ATOM     56  C   UNL     1       1.335  18.182   3.745  1.00  0.00     0.031 C 
ATOM     57  C   UNL     1       1.895  20.341  -1.901  1.00  0.00     0.029 A 
ATOM     58  C   UNL     1       2.055  19.581  -0.753  1.00  0.00     0.049 A 
ATOM     59  H   UNL     1       3.412  18.010  -0.379  1.00  0.00     0.167 HD
ATOM     60  C   UNL     1       1.556  18.887   1.573  1.00  0.00     0.074 A 
ATOM     61  C   UNL     1       0.866  19.031   2.839  1.00  0.00     0.031 C 
ATOM     62  C   UNL     1       1.346  19.683   0.496  1.00  0.00     0.034 A 
BRANCH  49  63
ATOM     63  C   UNL     1       4.988  18.399  -4.328  1.00  0.00     0.023 A 
ATOM     64  C   UNL     1       4.542  17.580  -5.383  1.00  0.00     0.012 A 
ATOM     65  C   UNL     1       5.783  19.527  -4.614  1.00  0.00     0.148 A 
ATOM     66  C   UNL     1       4.906  17.863  -6.700  1.00  0.00     0.002 A 
ATOM     67  C   UNL     1       6.111  19.822  -5.932  1.00  0.00     0.091 A 
ATOM     68  F   UNL     1       6.228  20.276  -3.595  1.00  0.00    -0.205 F 
ATOM     69  C   UNL     1       5.681  18.988  -6.975  1.00  0.00     0.022 A 
BRANCH  67  70
ATOM     70  S   UNL     1       7.048  21.293  -6.362  1.00  0.00     0.127 S 
ATOM     71  O   UNL     1       8.411  20.769  -6.432  1.00  0.00    -0.237 OA
ATOM     72  O   UNL     1       6.475  21.670  -7.656  1.00  0.00    -0.237 OA
ATOM     73  O   UNL     1       6.785  22.246  -5.293  1.00  0.00    -0.744 OA
ENDBRANCH  67  70
ENDBRANCH  49  63
BRANCH  50  74
ATOM     74  C   UNL     1       2.662  15.910   5.054  1.00  0.00     0.023 A 
ATOM     75  C   UNL     1       1.410  15.302   5.268  1.00  0.00     0.012 A 
ATOM     76  C   UNL     1       3.544  16.063   6.142  1.00  0.00     0.148 A 
ATOM     77  C   UNL     1       1.042  14.858   6.539  1.00  0.00     0.002 A 
ATOM     78  C   UNL     1       3.199  15.559   7.391  1.00  0.00     0.091 A 
ATOM     79  F   UNL     1       4.716  16.678   5.930  1.00  0.00    -0.205 F 
ATOM     80  C   UNL     1       1.943  14.970   7.596  1.00  0.00     0.022 A 
BRANCH  78  81
ATOM     81  S   UNL     1       4.366  15.519   8.757  1.00  0.00     0.127 S 
ATOM     82  O   UNL     1       3.874  16.601   9.604  1.00  0.00    -0.237 OA
ATOM     83  O   UNL     1       4.162  14.173   9.294  1.00  0.00    -0.237 OA
ATOM     84  O   UNL     1       5.675  15.725   8.152  1.00  0.00    -0.744 OA
ENDBRANCH  78  81
ENDBRANCH  50  74
BRANCH  62  85
ATOM     85  C   UNL     1       0.334  20.788   0.635  1.00  0.00     0.023 A 
ATOM     86  C   UNL     1       0.681  21.950   1.352  1.00  0.00     0.012 A 
ATOM     87  C   UNL     1      -0.921  20.712   0.003  1.00  0.00     0.148 A 
ATOM     88  C   UNL     1      -0.215  23.012   1.456  1.00  0.00     0.002 A 
ATOM     89  C   UNL     1      -1.796  21.791   0.080  1.00  0.00     0.091 A 
ATOM     90  F   UNL     1      -1.242  19.588  -0.655  1.00  0.00    -0.205 F 
ATOM     91  C   UNL     1      -1.448  22.938   0.811  1.00  0.00     0.022 A 
BRANCH  89  92
ATOM     92  S   UNL     1      -3.369  21.806  -0.789  1.00  0.00     0.127 S 
ATOM     93  O   UNL     1      -4.307  21.484   0.285  1.00  0.00    -0.237 OA
ATOM     94  O   UNL     1      -3.449  23.185  -1.274  1.00  0.00    -0.237 OA
ATOM     95  O   UNL     1      -3.247  20.807  -1.842  1.00  0.00    -0.744 OA
ENDBRANCH  89  92
ENDBRANCH  62  85
ENDBRANCH  36  37
ENDBRANCH  29  31
ENDBRANCH  28  29
ENDBRANCH   1  28
TORSDOF 17
