REMARK SMILES COc1ccc2[nH]c(C(=O)c3cc(C)ccn3)c(CC(=O)OCCOC(=O)c3ccc(-c4c5nc(c(-c6cccc(S(=O)(=O)[O-])c6F)c6ccc([nH]6)c(-c6cccc(S(=O)(=O)[O-])c6F)c6nc(c(-c7cccc(S(=O)(=O)[O-])c7F)c7ccc4[nH]7)C=C6)C=C5)cc3)c2c1
REMARK SMILES IDX 23 1 22 2 20 3 21 4 19 5 18 6 3 7 4 8 92 9 5 10 91 11 6 12
REMARK SMILES IDX 7 13 8 14 2 16 1 17 9 18 10 19 11 20 12 21 17 22 13 23 16 24
REMARK SMILES IDX 14 25 15 26 24 27 25 28 26 29 27 30 28 31 29 32 90 33 30 34
REMARK SMILES IDX 89 35 31 36 32 37 33 38 83 39 34 40 88 41 82 42 84 43 35 44
REMARK SMILES IDX 87 45 81 46 80 47 36 49 68 50 48 51 67 52 49 53 52 54 66 55
REMARK SMILES IDX 85 56 50 57 51 58 65 60 86 61 53 62 37 63 38 64 46 65 39 66
REMARK SMILES IDX 41 67 47 68 40 69 42 70 43 71 44 72 45 73 69 74 70 75 78 76
REMARK SMILES IDX 71 77 73 78 79 79 72 80 74 81 75 82 76 83 77 84 54 85 55 86
REMARK SMILES IDX 63 87 56 88 58 89 64 90 57 91 59 92 60 93 61 94 62 95
REMARK H PARENT 7 15 84 48 52 59
REMARK Flexibility Score: inf
ROOT
ATOM      1  C   UNL     1      -3.212  -6.940   0.438  1.00  0.00     0.274 C 
ENDROOT
BRANCH   1   2
ATOM      2  O   UNL     1      -2.211  -6.279   1.240  1.00  0.00    -0.462 OA
BRANCH   2   3
ATOM      3  C   UNL     1      -2.688  -5.531   2.272  1.00  0.00     0.310 C 
ATOM      4  O   UNL     1      -3.883  -5.341   2.488  1.00  0.00    -0.252 OA
BRANCH   3   5
ATOM      5  C   UNL     1      -1.626  -4.965   3.193  1.00  0.00     0.161 C 
BRANCH   5   6
ATOM      6  C   UNL     1      -0.211  -5.019   2.700  1.00  0.00     0.000 A 
ATOM      7  C   UNL     1       1.013  -1.768   1.119  1.00  0.00     0.119 A 
ATOM      8  C   UNL     1       2.325  -2.190   0.910  1.00  0.00     0.048 A 
ATOM      9  C   UNL     1       0.068  -2.642   1.663  1.00  0.00     0.057 A 
ATOM     10  C   UNL     1       2.719  -3.502   1.211  1.00  0.00     0.030 A 
ATOM     11  C   UNL     1       0.452  -3.950   2.018  1.00  0.00     0.008 A 
ATOM     12  C   UNL     1       1.761  -4.351   1.776  1.00  0.00     0.046 A 
ATOM     13  N   UNL     1       1.869  -5.646   2.225  1.00  0.00    -0.352 N 
ATOM     14  C   UNL     1       0.760  -5.984   2.972  1.00  0.00     0.093 A 
ATOM     15  H   UNL     1       2.628  -6.246   2.041  1.00  0.00     0.167 HD
BRANCH   7  16
ATOM     16  O   UNL     1       0.566  -0.490   0.916  1.00  0.00    -0.497 OA
ATOM     17  C   UNL     1       1.082   0.137  -0.250  1.00  0.00     0.278 C 
ENDBRANCH   7  16
BRANCH  14  18
ATOM     18  C   UNL     1       0.717  -7.077   3.931  1.00  0.00     0.227 C 
ATOM     19  O   UNL     1      -0.048  -7.090   4.892  1.00  0.00    -0.285 OA
BRANCH  18  20
ATOM     20  C   UNL     1       1.735  -8.150   3.857  1.00  0.00     0.113 A 
ATOM     21  C   UNL     1       2.780  -8.156   4.774  1.00  0.00     0.036 A 
ATOM     22  N   UNL     1       1.561  -9.086   2.895  1.00  0.00    -0.253 NA
ATOM     23  C   UNL     1       3.703  -9.202   4.716  1.00  0.00    -0.047 A 
ATOM     24  C   UNL     1       2.410 -10.133   2.922  1.00  0.00     0.112 A 
ATOM     25  C   UNL     1       4.880  -9.255   5.642  1.00  0.00     0.044 C 
ATOM     26  C   UNL     1       3.486 -10.230   3.793  1.00  0.00     0.023 A 
ENDBRANCH  18  20
ENDBRANCH  14  18
ENDBRANCH   5   6
ENDBRANCH   3   5
ENDBRANCH   2   3
ENDBRANCH   1   2
BRANCH   1  27
ATOM     27  C   UNL     1      -3.278  -8.426   0.777  1.00  0.00     0.275 C 
BRANCH  27  28
ATOM     28  O   UNL     1      -3.396  -8.590   2.200  1.00  0.00    -0.458 OA
BRANCH  28  29
ATOM     29  C   UNL     1      -2.413  -9.316   2.778  1.00  0.00     0.338 C 
ATOM     30  O   UNL     1      -1.522  -9.929   2.196  1.00  0.00    -0.246 OA
BRANCH  29  31
ATOM     31  C   UNL     1      -2.570  -9.330   4.242  1.00  0.00     0.060 A 
ATOM     32  C   UNL     1      -2.861  -8.167   4.956  1.00  0.00     0.016 A 
ATOM     33  C   UNL     1      -2.322 -10.522   4.925  1.00  0.00     0.016 A 
ATOM     34  C   UNL     1      -2.802  -8.174   6.351  1.00  0.00     0.010 A 
ATOM     35  C   UNL     1      -2.369 -10.549   6.320  1.00  0.00     0.010 A 
ATOM     36  C   UNL     1      -2.571  -9.368   7.052  1.00  0.00    -0.014 A 
BRANCH  36  37
ATOM     37  C   UNL     1      -2.552  -9.395   8.541  1.00  0.00     0.031 A 
ATOM     38  C   UNL     1      -1.343  -9.896   9.290  1.00  0.00     0.074 A 
ATOM     39  C   UNL     1      -3.649  -9.018   9.229  1.00  0.00     0.049 A 
ATOM     40  N   UNL     1      -1.209 -10.147  10.568  1.00  0.00    -0.248 NA
ATOM     41  C   UNL     1      -0.131 -10.170   8.499  1.00  0.00     0.031 C 
ATOM     42  C   UNL     1      -4.894  -8.531   8.633  1.00  0.00     0.029 A 
ATOM     43  N   UNL     1      -3.901  -9.002  10.580  1.00  0.00    -0.354 N 
ATOM     44  C   UNL     1       0.068 -10.671  10.725  1.00  0.00     0.074 A 
ATOM     45  C   UNL     1       0.677 -10.696   9.412  1.00  0.00     0.031 C 
ATOM     46  C   UNL     1      -5.769  -8.247   9.609  1.00  0.00     0.029 A 
ATOM     47  C   UNL     1      -5.175  -8.593  10.895  1.00  0.00     0.049 A 
ATOM     48  H   UNL     1      -3.233  -9.259  11.256  1.00  0.00     0.167 HD
ATOM     49  C   UNL     1       0.685 -11.078  11.861  1.00  0.00     0.034 A 
ATOM     50  C   UNL     1      -5.813  -8.529  12.080  1.00  0.00     0.034 A 
ATOM     51  C   UNL     1       0.115 -10.971  13.180  1.00  0.00     0.049 A 
ATOM     52  C   UNL     1      -5.089  -8.942  13.328  1.00  0.00     0.074 A 
ATOM     53  C   UNL     1       0.692 -11.300  14.395  1.00  0.00     0.029 A 
ATOM     54  N   UNL     1      -1.152 -10.484  13.460  1.00  0.00    -0.354 N 
ATOM     55  N   UNL     1      -3.856  -9.367  13.463  1.00  0.00    -0.248 NA
ATOM     56  C   UNL     1      -5.838  -8.854  14.590  1.00  0.00     0.031 C 
ATOM     57  C   UNL     1      -0.226 -11.009  15.410  1.00  0.00     0.029 A 
ATOM     58  C   UNL     1      -1.374 -10.500  14.827  1.00  0.00     0.049 A 
ATOM     59  H   UNL     1      -1.798 -10.173  12.786  1.00  0.00     0.167 HD
ATOM     60  C   UNL     1      -3.677  -9.586  14.822  1.00  0.00     0.074 A 
ATOM     61  C   UNL     1      -4.917  -9.215  15.474  1.00  0.00     0.031 C 
ATOM     62  C   UNL     1      -2.593 -10.080  15.469  1.00  0.00     0.034 A 
BRANCH  49  63
ATOM     63  C   UNL     1       2.082 -11.629  11.746  1.00  0.00     0.023 A 
ATOM     64  C   UNL     1       3.163 -10.742  11.580  1.00  0.00     0.012 A 
ATOM     65  C   UNL     1       2.334 -13.008  11.887  1.00  0.00     0.148 A 
ATOM     66  C   UNL     1       4.473 -11.219  11.536  1.00  0.00     0.002 A 
ATOM     67  C   UNL     1       3.645 -13.473  11.874  1.00  0.00     0.091 A 
ATOM     68  F   UNL     1       1.292 -13.841  12.020  1.00  0.00    -0.205 F 
ATOM     69  C   UNL     1       4.715 -12.582  11.694  1.00  0.00     0.022 A 
BRANCH  67  70
ATOM     70  S   UNL     1       4.051 -15.205  12.139  1.00  0.00     0.127 S 
ATOM     71  O   UNL     1       4.289 -15.664  10.771  1.00  0.00    -0.237 OA
ATOM     72  O   UNL     1       5.253 -15.124  12.970  1.00  0.00    -0.237 OA
ATOM     73  O   UNL     1       2.894 -15.782  12.809  1.00  0.00    -0.744 OA
ENDBRANCH  67  70
ENDBRANCH  49  63
BRANCH  50  74
ATOM     74  C   UNL     1      -7.207  -8.008  12.131  1.00  0.00     0.023 A 
ATOM     75  C   UNL     1      -7.445  -6.738  12.689  1.00  0.00     0.012 A 
ATOM     76  C   UNL     1      -8.282  -8.725  11.569  1.00  0.00     0.148 A 
ATOM     77  C   UNL     1      -8.730  -6.195  12.695  1.00  0.00     0.002 A 
ATOM     78  C   UNL     1      -9.548  -8.153  11.526  1.00  0.00     0.091 A 
ATOM     79  F   UNL     1      -8.043  -9.945  11.067  1.00  0.00    -0.205 F 
ATOM     80  C   UNL     1      -9.778  -6.894  12.099  1.00  0.00     0.022 A 
BRANCH  78  81
ATOM     81  S   UNL     1     -10.903  -8.933  10.640  1.00  0.00     0.127 S 
ATOM     82  O   UNL     1     -11.625  -9.600  11.719  1.00  0.00    -0.237 OA
ATOM     83  O   UNL     1     -11.596  -7.784  10.053  1.00  0.00    -0.237 OA
ATOM     84  O   UNL     1     -10.264  -9.802   9.660  1.00  0.00    -0.744 OA
ENDBRANCH  78  81
ENDBRANCH  50  74
BRANCH  62  85
ATOM     85  C   UNL     1      -2.696 -10.246  16.960  1.00  0.00     0.023 A 
ATOM     86  C   UNL     1      -3.432 -11.329  17.481  1.00  0.00     0.012 A 
ATOM     87  C   UNL     1      -2.027  -9.376  17.842  1.00  0.00     0.148 A 
ATOM     88  C   UNL     1      -3.522 -11.528  18.858  1.00  0.00     0.002 A 
ATOM     89  C   UNL     1      -2.093  -9.601  19.213  1.00  0.00     0.091 A 
ATOM     90  F   UNL     1      -1.352  -8.336  17.330  1.00  0.00    -0.205 F 
ATOM     91  C   UNL     1      -2.845 -10.671  19.723  1.00  0.00     0.022 A 
BRANCH  89  92
ATOM     92  S   UNL     1      -1.184  -8.586  20.384  1.00  0.00     0.127 S 
ATOM     93  O   UNL     1      -2.210  -7.643  20.824  1.00  0.00    -0.237 OA
ATOM     94  O   UNL     1      -0.774  -9.558  21.399  1.00  0.00    -0.237 OA
ATOM     95  O   UNL     1      -0.078  -8.013  19.627  1.00  0.00    -0.744 OA
ENDBRANCH  89  92
ENDBRANCH  62  85
ENDBRANCH  36  37
ENDBRANCH  29  31
ENDBRANCH  28  29
ENDBRANCH  27  28
ENDBRANCH   1  27
TORSDOF 18
