REMARK SMILES COc1cc(C(=O)N[C@H](C(=O)OCCOC(=O)c2ccc(-c3c4nc(c(-c5cccc(S(=O)(=O)[O-])c5F)c5ccc([nH]5)c(-c5cccc(S(=O)(=O)[O-])c5F)c5nc(c(-c6cccc(S(=O)(=O)[O-])c6F)c6ccc3[nH]6)C=C5)C=C4)cc2)C2=C(C)N=N[C@H]2C)ccc1C
REMARK SMILES IDX 13 1 12 2 10 3 11 4 9 5 8 6 6 7 7 8 5 10 3 11 4 12 90 13
REMARK SMILES IDX 89 14 91 15 88 16 2 17 1 18 81 19 82 20 86 21 83 22 84 23
REMARK SMILES IDX 85 24 87 25 14 26 15 27 16 28 17 29 18 30 19 31 80 32 20 33
REMARK SMILES IDX 79 34 21 35 22 36 23 37 73 38 24 39 78 40 72 41 74 42 25 43
REMARK SMILES IDX 77 44 71 45 70 46 26 48 58 49 38 50 57 51 39 52 42 53 56 54
REMARK SMILES IDX 75 55 40 56 41 57 55 59 76 60 43 61 27 62 28 63 36 64 29 65
REMARK SMILES IDX 31 66 37 67 30 68 32 69 33 70 34 71 35 72 59 73 60 74 68 75
REMARK SMILES IDX 61 76 63 77 69 78 62 79 64 80 65 81 66 82 67 83 44 84 45 85
REMARK SMILES IDX 53 86 46 87 48 88 54 89 47 90 49 91 50 92 51 93 52 94
REMARK H PARENT 8 9 74 47 42 58
REMARK Flexibility Score: inf
ROOT
ATOM      1  C   UNL     1       8.034   3.903  -0.329  1.00  0.00     0.274 C 
ENDROOT
BRANCH   1   2
ATOM      2  O   UNL     1       7.378   2.655  -0.221  1.00  0.00    -0.460 OA
BRANCH   2   3
ATOM      3  C   UNL     1       7.225   2.010  -1.406  1.00  0.00     0.333 C 
ATOM      4  O   UNL     1       8.042   2.058  -2.318  1.00  0.00    -0.249 OA
BRANCH   3   5
ATOM      5  C   UNL     1       5.853   1.325  -1.428  1.00  0.00     0.223 C 
BRANCH   5   6
ATOM      6  N   UNL     1       5.457   1.204  -2.849  1.00  0.00    -0.335 N 
ATOM      7  C   UNL     1       5.168   2.153  -3.840  1.00  0.00     0.252 C 
ATOM      8  O   UNL     1       4.847   1.722  -4.953  1.00  0.00    -0.269 OA
ATOM      9  H   UNL     1       5.383   0.273  -3.160  1.00  0.00     0.165 HD
BRANCH   7  10
ATOM     10  C   UNL     1       5.324   3.651  -3.747  1.00  0.00     0.043 A 
ATOM     11  C   UNL     1       4.511   5.913  -3.192  1.00  0.00     0.122 A 
ATOM     12  C   UNL     1       4.278   4.520  -3.381  1.00  0.00     0.060 A 
ATOM     13  C   UNL     1       5.697   6.505  -3.641  1.00  0.00    -0.009 A 
ATOM     14  C   UNL     1       6.659   5.659  -4.222  1.00  0.00     0.008 A 
ATOM     15  C   UNL     1       5.937   7.989  -3.564  1.00  0.00     0.048 C 
ATOM     16  C   UNL     1       6.494   4.252  -4.234  1.00  0.00     0.014 A 
BRANCH  11  17
ATOM     17  O   UNL     1       3.560   6.663  -2.532  1.00  0.00    -0.496 OA
ATOM     18  C   UNL     1       3.963   7.075  -1.210  1.00  0.00     0.278 C 
ENDBRANCH  11  17
ENDBRANCH   7  10
ENDBRANCH   5   6
BRANCH   5  19
ATOM     19  C   UNL     1       5.822   0.048  -0.601  1.00  0.00     0.012 C 
ATOM     20  C   UNL     1       6.570  -0.394   0.437  1.00  0.00     0.064 C 
ATOM     21  C   UNL     1       4.716  -0.970  -0.680  1.00  0.00     0.156 C 
ATOM     22  C   UNL     1       7.753   0.166   1.161  1.00  0.00     0.069 C 
ATOM     23  N   UNL     1       6.109  -1.576   0.965  1.00  0.00    -0.160 NA
ATOM     24  N   UNL     1       5.080  -1.959   0.366  1.00  0.00    -0.181 NA
ATOM     25  C   UNL     1       3.311  -0.487  -0.349  1.00  0.00     0.040 C 
ENDBRANCH   5  19
ENDBRANCH   3   5
ENDBRANCH   2   3
ENDBRANCH   1   2
BRANCH   1  26
ATOM     26  C   UNL     1       7.042   4.939  -0.862  1.00  0.00     0.275 C 
BRANCH  26  27
ATOM     27  O   UNL     1       5.625   4.507  -1.046  1.00  0.00    -0.458 OA
BRANCH  27  28
ATOM     28  C   UNL     1       4.487   4.126  -0.355  1.00  0.00     0.338 C 
ATOM     29  O   UNL     1       3.454   3.861  -0.875  1.00  0.00    -0.246 OA
BRANCH  28  30
ATOM     30  C   UNL     1       4.658   3.834   1.052  1.00  0.00     0.060 A 
ATOM     31  C   UNL     1       3.871   2.913   1.754  1.00  0.00     0.016 A 
ATOM     32  C   UNL     1       5.792   4.354   1.581  1.00  0.00     0.016 A 
ATOM     33  C   UNL     1       4.302   2.554   3.020  1.00  0.00     0.010 A 
ATOM     34  C   UNL     1       6.439   3.575   2.452  1.00  0.00     0.010 A 
ATOM     35  C   UNL     1       5.602   2.930   3.341  1.00  0.00    -0.014 A 
BRANCH  35  36
ATOM     36  C   UNL     1       6.224   3.078   4.639  1.00  0.00     0.031 A 
ATOM     37  C   UNL     1       6.882   1.849   5.072  1.00  0.00     0.074 A 
ATOM     38  C   UNL     1       6.392   4.384   4.980  1.00  0.00     0.049 A 
ATOM     39  N   UNL     1       6.309   0.885   5.721  1.00  0.00    -0.248 NA
ATOM     40  C   UNL     1       8.192   1.508   4.487  1.00  0.00     0.031 C 
ATOM     41  C   UNL     1       7.215   5.025   5.982  1.00  0.00     0.029 A 
ATOM     42  N   UNL     1       5.761   5.502   4.390  1.00  0.00    -0.354 N 
ATOM     43  C   UNL     1       7.342  -0.009   5.947  1.00  0.00     0.074 A 
ATOM     44  C   UNL     1       8.299   0.234   4.869  1.00  0.00     0.031 C 
ATOM     45  C   UNL     1       6.705   6.261   6.202  1.00  0.00     0.029 A 
ATOM     46  C   UNL     1       5.507   6.436   5.373  1.00  0.00     0.049 A 
ATOM     47  H   UNL     1       5.540   5.598   3.436  1.00  0.00     0.167 HD
ATOM     48  C   UNL     1       7.862  -0.145   7.209  1.00  0.00     0.034 A 
ATOM     49  C   UNL     1       4.211   6.564   5.799  1.00  0.00     0.034 A 
ATOM     50  C   UNL     1       7.594   1.068   7.995  1.00  0.00     0.049 A 
ATOM     51  C   UNL     1       4.019   5.785   7.089  1.00  0.00     0.074 A 
ATOM     52  C   UNL     1       8.334   2.229   8.173  1.00  0.00     0.029 A 
ATOM     53  N   UNL     1       6.297   1.379   8.382  1.00  0.00    -0.354 N 
ATOM     54  N   UNL     1       4.831   4.854   7.512  1.00  0.00    -0.248 NA
ATOM     55  C   UNL     1       2.917   6.027   8.011  1.00  0.00     0.031 C 
ATOM     56  C   UNL     1       7.464   3.244   8.653  1.00  0.00     0.029 A 
ATOM     57  C   UNL     1       6.189   2.717   8.751  1.00  0.00     0.049 A 
ATOM     58  H   UNL     1       5.551   0.737   8.393  1.00  0.00     0.167 HD
ATOM     59  C   UNL     1       4.364   4.325   8.680  1.00  0.00     0.074 A 
ATOM     60  C   UNL     1       3.205   5.151   8.990  1.00  0.00     0.031 C 
ATOM     61  C   UNL     1       4.923   3.227   9.274  1.00  0.00     0.034 A 
BRANCH  48  62
ATOM     62  C   UNL     1       9.073  -1.045   7.354  1.00  0.00     0.023 A 
ATOM     63  C   UNL     1      10.134  -0.650   8.186  1.00  0.00     0.012 A 
ATOM     64  C   UNL     1       9.224  -2.259   6.627  1.00  0.00     0.148 A 
ATOM     65  C   UNL     1      11.330  -1.370   8.234  1.00  0.00     0.002 A 
ATOM     66  C   UNL     1      10.427  -2.968   6.665  1.00  0.00     0.091 A 
ATOM     67  F   UNL     1       8.206  -2.691   5.867  1.00  0.00    -0.205 F 
ATOM     68  C   UNL     1      11.485  -2.515   7.463  1.00  0.00     0.022 A 
BRANCH  66  69
ATOM     69  S   UNL     1      10.747  -4.414   5.638  1.00  0.00     0.127 S 
ATOM     70  O   UNL     1      12.119  -4.174   5.180  1.00  0.00    -0.237 OA
ATOM     71  O   UNL     1      10.612  -5.513   6.590  1.00  0.00    -0.237 OA
ATOM     72  O   UNL     1       9.758  -4.368   4.569  1.00  0.00    -0.744 OA
ENDBRANCH  66  69
ENDBRANCH  48  62
BRANCH  49  73
ATOM     73  C   UNL     1       3.170   6.675   4.704  1.00  0.00     0.023 A 
ATOM     74  C   UNL     1       3.276   7.775   3.813  1.00  0.00     0.012 A 
ATOM     75  C   UNL     1       2.236   5.665   4.385  1.00  0.00     0.148 A 
ATOM     76  C   UNL     1       2.546   7.837   2.619  1.00  0.00     0.002 A 
ATOM     77  C   UNL     1       1.506   5.734   3.189  1.00  0.00     0.091 A 
ATOM     78  F   UNL     1       2.102   4.633   5.224  1.00  0.00    -0.205 F 
ATOM     79  C   UNL     1       1.678   6.805   2.297  1.00  0.00     0.022 A 
BRANCH  77  80
ATOM     80  S   UNL     1       0.332   4.472   2.659  1.00  0.00     0.127 S 
ATOM     81  O   UNL     1      -0.913   5.237   2.608  1.00  0.00    -0.237 OA
ATOM     82  O   UNL     1       0.870   4.095   1.355  1.00  0.00    -0.237 OA
ATOM     83  O   UNL     1       0.387   3.435   3.677  1.00  0.00    -0.744 OA
ENDBRANCH  77  80
ENDBRANCH  49  73
BRANCH  61  84
ATOM     84  C   UNL     1       4.297   2.483  10.428  1.00  0.00     0.023 A 
ATOM     85  C   UNL     1       2.908   2.462  10.637  1.00  0.00     0.012 A 
ATOM     86  C   UNL     1       5.083   1.605  11.213  1.00  0.00     0.148 A 
ATOM     87  C   UNL     1       2.329   1.652  11.614  1.00  0.00     0.002 A 
ATOM     88  C   UNL     1       4.484   0.685  12.060  1.00  0.00     0.091 A 
ATOM     89  F   UNL     1       6.423   1.650  11.142  1.00  0.00    -0.205 F 
ATOM     90  C   UNL     1       3.112   0.734  12.299  1.00  0.00     0.022 A 
BRANCH  88  91
ATOM     91  S   UNL     1       5.430  -0.719  12.662  1.00  0.00     0.127 S 
ATOM     92  O   UNL     1       6.006  -0.196  13.897  1.00  0.00    -0.237 OA
ATOM     93  O   UNL     1       4.397  -1.739  12.852  1.00  0.00    -0.237 OA
ATOM     94  O   UNL     1       6.366  -1.014  11.583  1.00  0.00    -0.744 OA
ENDBRANCH  88  91
ENDBRANCH  61  84
ENDBRANCH  35  36
ENDBRANCH  28  30
ENDBRANCH  27  28
ENDBRANCH  26  27
ENDBRANCH   1  26
TORSDOF 18
