REMARK SMILES COCCNS(=O)(=O)c1c[nH]c(C(=O)OCCOC(=O)c2ccc(-c3c4nc(c(-c5cccc(S(=O)(=O)[O-])c5F)c5ccc([nH]5)c(-c5cccc(S(=O)(=O)[O-])c5F)c5nc(c(-c6cccc(S(=O)(=O)[O-])c6F)c6ccc3[nH]6)C=C5)C=C4)cc2)c1
REMARK SMILES IDX 16 1 15 2 13 3 14 4 12 5 9 6 10 7 84 8 11 9 6 11 7 12 8 13
REMARK SMILES IDX 5 14 4 16 3 17 2 18 1 19 17 20 18 21 19 22 20 23 21 24 22 25
REMARK SMILES IDX 83 26 23 27 82 28 24 29 25 30 26 31 76 32 27 33 81 34 75 35
REMARK SMILES IDX 77 36 28 37 80 38 74 39 73 40 29 42 61 43 41 44 60 45 42 46
REMARK SMILES IDX 45 47 59 48 78 49 43 50 44 51 58 53 79 54 46 55 30 56 31 57
REMARK SMILES IDX 39 58 32 59 34 60 40 61 33 62 35 63 36 64 37 65 38 66 62 67
REMARK SMILES IDX 63 68 71 69 64 70 66 71 72 72 65 73 67 74 68 75 69 76 70 77
REMARK SMILES IDX 47 78 48 79 56 80 49 81 51 82 57 83 50 84 52 85 53 86 54 87
REMARK SMILES IDX 55 88
REMARK H PARENT 11 10 5 15 77 41 45 52
REMARK Flexibility Score: inf
ROOT
ATOM      1  C   UNL     1      -0.039  11.024  -0.232  1.00  0.00     0.275 C 
ENDROOT
BRANCH   1   2
ATOM      2  O   UNL     1      -0.106   9.593  -0.123  1.00  0.00    -0.457 OA
BRANCH   2   3
ATOM      3  C   UNL     1       0.312   8.918  -1.233  1.00  0.00     0.354 C 
ATOM      4  O   UNL     1       0.534   9.415  -2.320  1.00  0.00    -0.244 OA
BRANCH   3   5
ATOM      5  C   UNL     1       0.557   7.527  -0.923  1.00  0.00     0.126 A 
ATOM      6  C   UNL     1       0.712   5.427  -0.093  1.00  0.00     0.100 A 
ATOM      7  C   UNL     1       1.557   5.522  -1.179  1.00  0.00     0.104 A 
ATOM      8  C   UNL     1       0.114   6.702   0.097  1.00  0.00     0.057 A 
ATOM      9  N   UNL     1       1.432   6.784  -1.690  1.00  0.00    -0.354 N 
ATOM     10  H   UNL     1       1.899   7.116  -2.490  1.00  0.00     0.166 HD
BRANCH   6  11
ATOM     11  S   UNL     1       0.421   4.026   0.865  1.00  0.00     0.242 S 
ATOM     12  O   UNL     1      -1.019   3.887   0.896  1.00  0.00    -0.207 OA
ATOM     13  O   UNL     1       1.200   4.208   2.066  1.00  0.00    -0.207 OA
BRANCH  11  14
ATOM     14  N   UNL     1       1.050   2.667   0.075  1.00  0.00    -0.209 NA
ATOM     15  H   UNL     1       2.011   2.880  -0.192  1.00  0.00     0.141 HD
BRANCH  14  16
ATOM     16  C   UNL     1       0.329   2.227  -1.142  1.00  0.00     0.127 C 
BRANCH  16  17
ATOM     17  C   UNL     1       1.047   1.041  -1.801  1.00  0.00     0.176 C 
BRANCH  17  18
ATOM     18  O   UNL     1       0.589  -0.232  -1.330  1.00  0.00    -0.383 OA
ATOM     19  C   UNL     1       1.049  -0.571  -0.031  1.00  0.00     0.194 C 
ENDBRANCH  17  18
ENDBRANCH  16  17
ENDBRANCH  14  16
ENDBRANCH  11  14
ENDBRANCH   6  11
ENDBRANCH   3   5
ENDBRANCH   2   3
ENDBRANCH   1   2
BRANCH   1  20
ATOM     20  C   UNL     1       1.297  11.589   0.256  1.00  0.00     0.275 C 
BRANCH  20  21
ATOM     21  O   UNL     1       2.419  11.258  -0.572  1.00  0.00    -0.458 OA
BRANCH  21  22
ATOM     22  C   UNL     1       3.066  10.130  -0.197  1.00  0.00     0.338 C 
ATOM     23  O   UNL     1       2.623   9.232   0.502  1.00  0.00    -0.246 OA
BRANCH  22  24
ATOM     24  C   UNL     1       4.466  10.146  -0.626  1.00  0.00     0.060 A 
ATOM     25  C   UNL     1       5.088   8.918  -0.882  1.00  0.00     0.016 A 
ATOM     26  C   UNL     1       5.198  11.335  -0.553  1.00  0.00     0.016 A 
ATOM     27  C   UNL     1       6.463   8.875  -1.040  1.00  0.00     0.010 A 
ATOM     28  C   UNL     1       6.578  11.285  -0.671  1.00  0.00     0.010 A 
ATOM     29  C   UNL     1       7.205  10.057  -0.915  1.00  0.00    -0.014 A 
BRANCH  29  30
ATOM     30  C   UNL     1       8.657  10.007  -1.169  1.00  0.00     0.031 A 
ATOM     31  C   UNL     1       8.981  10.141  -2.678  1.00  0.00     0.074 A 
ATOM     32  C   UNL     1       9.434   9.803  -0.065  1.00  0.00     0.049 A 
ATOM     33  N   UNL     1       9.953   9.650  -3.400  1.00  0.00    -0.248 NA
ATOM     34  C   UNL     1       7.973  10.824  -3.537  1.00  0.00     0.031 C 
ATOM     35  C   UNL     1       8.951   9.677   1.332  1.00  0.00     0.029 A 
ATOM     36  N   UNL     1      10.785   9.645   0.111  1.00  0.00    -0.354 N 
ATOM     37  C   UNL     1       9.769  10.138  -4.720  1.00  0.00     0.074 A 
ATOM     38  C   UNL     1       8.460  10.709  -4.771  1.00  0.00     0.031 C 
ATOM     39  C   UNL     1       9.966   9.367   2.170  1.00  0.00     0.029 A 
ATOM     40  C   UNL     1      11.201   9.285   1.415  1.00  0.00     0.049 A 
ATOM     41  H   UNL     1      11.427   9.774  -0.624  1.00  0.00     0.167 HD
ATOM     42  C   UNL     1      10.753  10.218  -5.663  1.00  0.00     0.034 A 
ATOM     43  C   UNL     1      12.443   8.874   1.821  1.00  0.00     0.034 A 
ATOM     44  C   UNL     1      12.010   9.786  -5.144  1.00  0.00     0.049 A 
ATOM     45  C   UNL     1      13.261   8.936   0.602  1.00  0.00     0.074 A 
ATOM     46  C   UNL     1      12.828   8.685  -5.207  1.00  0.00     0.029 A 
ATOM     47  N   UNL     1      12.618  10.724  -4.353  1.00  0.00    -0.354 N 
ATOM     48  N   UNL     1      13.701  10.027   0.056  1.00  0.00    -0.248 NA
ATOM     49  C   UNL     1      13.331   7.718  -0.202  1.00  0.00     0.031 C 
ATOM     50  C   UNL     1      13.897   8.944  -4.307  1.00  0.00     0.029 A 
ATOM     51  C   UNL     1      13.544  10.080  -3.587  1.00  0.00     0.049 A 
ATOM     52  H   UNL     1      12.421  11.689  -4.340  1.00  0.00     0.167 HD
ATOM     53  C   UNL     1      13.853   9.687  -1.267  1.00  0.00     0.074 A 
ATOM     54  C   UNL     1      13.725   8.239  -1.356  1.00  0.00     0.031 C 
ATOM     55  C   UNL     1      13.744  10.594  -2.268  1.00  0.00     0.034 A 
BRANCH  42  56
ATOM     56  C   UNL     1      10.842  10.977  -6.986  1.00  0.00     0.023 A 
ATOM     57  C   UNL     1      11.886  10.553  -7.856  1.00  0.00     0.012 A 
ATOM     58  C   UNL     1      10.254  12.227  -7.266  1.00  0.00     0.148 A 
ATOM     59  C   UNL     1      12.422  11.372  -8.850  1.00  0.00     0.002 A 
ATOM     60  C   UNL     1      10.749  13.017  -8.313  1.00  0.00     0.091 A 
ATOM     61  F   UNL     1       9.285  12.697  -6.474  1.00  0.00    -0.205 F 
ATOM     62  C   UNL     1      11.859  12.614  -9.069  1.00  0.00     0.022 A 
BRANCH  60  63
ATOM     63  S   UNL     1      10.027  14.599  -8.778  1.00  0.00     0.127 S 
ATOM     64  O   UNL     1      10.997  15.550  -8.242  1.00  0.00    -0.237 OA
ATOM     65  O   UNL     1      10.016  14.507 -10.241  1.00  0.00    -0.237 OA
ATOM     66  O   UNL     1       8.699  14.613  -8.179  1.00  0.00    -0.744 OA
ENDBRANCH  60  63
ENDBRANCH  42  56
BRANCH  43  67
ATOM     67  C   UNL     1      13.031   8.209   3.040  1.00  0.00     0.023 A 
ATOM     68  C   UNL     1      12.459   8.272   4.318  1.00  0.00     0.012 A 
ATOM     69  C   UNL     1      14.203   7.399   2.916  1.00  0.00     0.148 A 
ATOM     70  C   UNL     1      12.960   7.496   5.383  1.00  0.00     0.002 A 
ATOM     71  C   UNL     1      14.638   6.562   3.938  1.00  0.00     0.091 A 
ATOM     72  F   UNL     1      14.920   7.444   1.788  1.00  0.00    -0.205 F 
ATOM     73  C   UNL     1      14.020   6.612   5.185  1.00  0.00     0.022 A 
BRANCH  71  74
ATOM     74  S   UNL     1      15.898   5.297   3.671  1.00  0.00     0.127 S 
ATOM     75  O   UNL     1      16.858   5.582   4.736  1.00  0.00    -0.237 OA
ATOM     76  O   UNL     1      15.123   4.071   3.856  1.00  0.00    -0.237 OA
ATOM     77  O   UNL     1      16.402   5.497   2.319  1.00  0.00    -0.744 OA
ENDBRANCH  71  74
ENDBRANCH  43  67
BRANCH  55  78
ATOM     78  C   UNL     1      13.432  12.014  -1.833  1.00  0.00     0.023 A 
ATOM     79  C   UNL     1      14.484  12.844  -1.429  1.00  0.00     0.012 A 
ATOM     80  C   UNL     1      12.109  12.523  -1.738  1.00  0.00     0.148 A 
ATOM     81  C   UNL     1      14.234  14.140  -0.966  1.00  0.00     0.002 A 
ATOM     82  C   UNL     1      11.858  13.810  -1.268  1.00  0.00     0.091 A 
ATOM     83  F   UNL     1      11.103  11.745  -2.138  1.00  0.00    -0.205 F 
ATOM     84  C   UNL     1      12.928  14.624  -0.886  1.00  0.00     0.022 A 
BRANCH  82  85
ATOM     85  S   UNL     1      10.200  14.498  -1.078  1.00  0.00     0.127 S 
ATOM     86  O   UNL     1      10.203  14.944   0.317  1.00  0.00    -0.237 OA
ATOM     87  O   UNL     1      10.203  15.583  -2.054  1.00  0.00    -0.237 OA
ATOM     88  O   UNL     1       9.266  13.413  -1.355  1.00  0.00    -0.744 OA
ENDBRANCH  82  85
ENDBRANCH  55  78
ENDBRANCH  29  30
ENDBRANCH  22  24
ENDBRANCH  21  22
ENDBRANCH  20  21
ENDBRANCH   1  20
TORSDOF 19
