REMARK SMILES CS(=O)(=O)c1ccc(/C=C(/C(=O)OCCOC(=O)c2ccc(-c3c4nc(c(-c5cccc(S(=O)(=O)[O-])c5F)c5ccc([nH]5)c(-c5cccc(S(=O)(=O)[O-])c5F)c5nc(c(-c6cccc(S(=O)(=O)[O-])c6F)c6ccc3[nH]6)C=C5)C=C4)cc2)c2cccc(-c3ccc(S(C)(=O)=O)cc3)c2)cc1
REMARK SMILES IDX 14 1 13 2 11 3 12 4 10 5 9 6 8 7 5 8 6 9 99 10 7 11 98 12
REMARK SMILES IDX 2 13 1 14 3 15 4 16 82 17 83 18 97 19 84 20 86 21 85 22
REMARK SMILES IDX 87 23 88 24 96 25 89 26 95 27 90 28 91 29 92 30 93 31 94 32
REMARK SMILES IDX 15 33 16 34 17 35 18 36 19 37 20 38 81 39 21 40 80 41 22 42
REMARK SMILES IDX 23 43 24 44 74 45 25 46 79 47 73 48 75 49 26 50 78 51 72 52
REMARK SMILES IDX 71 53 27 55 59 56 39 57 58 58 40 59 43 60 57 61 76 62 41 63
REMARK SMILES IDX 42 64 56 66 77 67 44 68 28 69 29 70 37 71 30 72 32 73 38 74
REMARK SMILES IDX 31 75 33 76 34 77 35 78 36 79 60 80 61 81 69 82 62 83 64 84
REMARK SMILES IDX 70 85 63 86 65 87 66 88 67 89 68 90 45 91 46 92 54 93 47 94
REMARK SMILES IDX 49 95 55 96 48 97 50 98 51 99 52 100 53 101
REMARK H PARENT 75 54 43 65
REMARK Flexibility Score: inf
ROOT
ATOM      1  C   UNL     1       3.423  10.385   0.979  1.00  0.00     0.275 C 
ENDROOT
BRANCH   1   2
ATOM      2  O   UNL     1       2.888   9.047   0.831  1.00  0.00    -0.458 OA
BRANCH   2   3
ATOM      3  C   UNL     1       3.806   8.045   0.757  1.00  0.00     0.338 C 
ATOM      4  O   UNL     1       5.016   8.199   0.840  1.00  0.00    -0.246 OA
BRANCH   3   5
ATOM      5  C   UNL     1       3.176   6.687   0.623  1.00  0.00     0.067 C 
ATOM      6  C   UNL     1       1.976   6.519   0.017  1.00  0.00     0.024 C 
BRANCH   6   7
ATOM      7  C   UNL     1       1.318   5.215  -0.240  1.00  0.00    -0.025 A 
ATOM      8  C   UNL     1       0.507   2.615  -0.922  1.00  0.00     0.067 A 
ATOM      9  C   UNL     1       0.927   2.884   0.373  1.00  0.00     0.021 A 
ATOM     10  C   UNL     1       0.387   3.655  -1.852  1.00  0.00     0.021 A 
ATOM     11  C   UNL     1       1.270   4.191   0.717  1.00  0.00     0.009 A 
ATOM     12  C   UNL     1       0.796   4.950  -1.510  1.00  0.00     0.009 A 
BRANCH   8  13
ATOM     13  S   UNL     1       0.162   0.958  -1.455  1.00  0.00     0.175 S 
ATOM     14  C   UNL     1       0.904  -0.139  -0.274  1.00  0.00     0.163 C 
ATOM     15  O   UNL     1       0.863   0.777  -2.713  1.00  0.00    -0.224 OA
ATOM     16  O   UNL     1      -1.278   0.799  -1.376  1.00  0.00    -0.224 OA
ENDBRANCH   8  13
ENDBRANCH   6   7
BRANCH   5  17
ATOM     17  C   UNL     1       3.906   5.545   1.230  1.00  0.00    -0.010 A 
ATOM     18  C   UNL     1       3.729   5.366   2.609  1.00  0.00     0.009 A 
ATOM     19  C   UNL     1       4.590   4.559   0.495  1.00  0.00     0.017 A 
ATOM     20  C   UNL     1       4.308   4.295   3.273  1.00  0.00     0.001 A 
ATOM     21  C   UNL     1       5.119   3.430   1.153  1.00  0.00    -0.018 A 
ATOM     22  C   UNL     1       5.058   3.383   2.559  1.00  0.00     0.009 A 
BRANCH  21  23
ATOM     23  C   UNL     1       5.549   2.201   0.464  1.00  0.00    -0.018 A 
ATOM     24  C   UNL     1       5.013   0.977   0.928  1.00  0.00     0.010 A 
ATOM     25  C   UNL     1       6.467   2.159  -0.592  1.00  0.00     0.010 A 
ATOM     26  C   UNL     1       5.413  -0.246   0.413  1.00  0.00     0.021 A 
ATOM     27  C   UNL     1       6.875   0.925  -1.127  1.00  0.00     0.021 A 
ATOM     28  C   UNL     1       6.361  -0.266  -0.601  1.00  0.00     0.067 A 
BRANCH  28  29
ATOM     29  S   UNL     1       6.890  -1.848  -1.203  1.00  0.00     0.175 S 
ATOM     30  C   UNL     1       7.777  -2.540   0.173  1.00  0.00     0.163 C 
ATOM     31  O   UNL     1       5.686  -2.639  -1.413  1.00  0.00    -0.224 OA
ATOM     32  O   UNL     1       7.827  -1.628  -2.283  1.00  0.00    -0.224 OA
ENDBRANCH  28  29
ENDBRANCH  21  23
ENDBRANCH   5  17
ENDBRANCH   3   5
ENDBRANCH   2   3
ENDBRANCH   1   2
BRANCH   1  33
ATOM     33  C   UNL     1       3.153  10.950   2.377  1.00  0.00     0.275 C 
BRANCH  33  34
ATOM     34  O   UNL     1       3.982  10.282   3.346  1.00  0.00    -0.458 OA
BRANCH  34  35
ATOM     35  C   UNL     1       3.346   9.757   4.422  1.00  0.00     0.338 C 
ATOM     36  O   UNL     1       2.162   9.855   4.697  1.00  0.00    -0.246 OA
BRANCH  35  37
ATOM     37  C   UNL     1       4.265   8.878   5.170  1.00  0.00     0.060 A 
ATOM     38  C   UNL     1       4.812   7.823   4.470  1.00  0.00     0.016 A 
ATOM     39  C   UNL     1       4.416   8.927   6.560  1.00  0.00     0.016 A 
ATOM     40  C   UNL     1       5.351   6.749   5.164  1.00  0.00     0.010 A 
ATOM     41  C   UNL     1       5.061   7.869   7.245  1.00  0.00     0.010 A 
ATOM     42  C   UNL     1       5.478   6.717   6.559  1.00  0.00    -0.014 A 
BRANCH  42  43
ATOM     43  C   UNL     1       5.972   5.440   7.192  1.00  0.00     0.031 A 
ATOM     44  C   UNL     1       5.170   4.707   8.251  1.00  0.00     0.074 A 
ATOM     45  C   UNL     1       7.055   4.800   6.688  1.00  0.00     0.049 A 
ATOM     46  N   UNL     1       5.463   3.593   8.883  1.00  0.00    -0.248 NA
ATOM     47  C   UNL     1       3.864   5.268   8.623  1.00  0.00     0.031 C 
ATOM     48  C   UNL     1       7.889   5.284   5.584  1.00  0.00     0.029 A 
ATOM     49  N   UNL     1       7.611   3.576   6.993  1.00  0.00    -0.354 N 
ATOM     50  C   UNL     1       4.418   3.361   9.773  1.00  0.00     0.074 A 
ATOM     51  C   UNL     1       3.462   4.430   9.570  1.00  0.00     0.031 C 
ATOM     52  C   UNL     1       8.770   4.337   5.240  1.00  0.00     0.029 A 
ATOM     53  C   UNL     1       8.695   3.252   6.207  1.00  0.00     0.049 A 
ATOM     54  H   UNL     1       7.267   2.990   7.705  1.00  0.00     0.167 HD
ATOM     55  C   UNL     1       4.265   2.363  10.681  1.00  0.00     0.034 A 
ATOM     56  C   UNL     1       9.588   2.244   6.279  1.00  0.00     0.034 A 
ATOM     57  C   UNL     1       5.181   1.265  10.874  1.00  0.00     0.049 A 
ATOM     58  C   UNL     1       9.461   1.221   7.369  1.00  0.00     0.074 A 
ATOM     59  C   UNL     1       5.114   0.244  11.809  1.00  0.00     0.029 A 
ATOM     60  N   UNL     1       6.326   1.038  10.129  1.00  0.00    -0.354 N 
ATOM     61  N   UNL     1       8.489   1.044   8.227  1.00  0.00    -0.248 NA
ATOM     62  C   UNL     1      10.562   0.254   7.498  1.00  0.00     0.031 C 
ATOM     63  C   UNL     1       6.239  -0.576  11.655  1.00  0.00     0.029 A 
ATOM     64  C   UNL     1       6.982  -0.094  10.592  1.00  0.00     0.049 A 
ATOM     65  H   UNL     1       6.631   1.599   9.380  1.00  0.00     0.167 HD
ATOM     66  C   UNL     1       8.852  -0.063   8.986  1.00  0.00     0.074 A 
ATOM     67  C   UNL     1      10.109  -0.543   8.454  1.00  0.00     0.031 C 
ATOM     68  C   UNL     1       8.209  -0.612  10.044  1.00  0.00     0.034 A 
BRANCH  55  69
ATOM     69  C   UNL     1       3.074   2.441  11.604  1.00  0.00     0.023 A 
ATOM     70  C   UNL     1       1.783   2.114  11.147  1.00  0.00     0.012 A 
ATOM     71  C   UNL     1       3.259   2.797  12.956  1.00  0.00     0.148 A 
ATOM     72  C   UNL     1       0.689   2.178  12.013  1.00  0.00     0.002 A 
ATOM     73  C   UNL     1       2.174   2.815  13.822  1.00  0.00     0.091 A 
ATOM     74  F   UNL     1       4.495   3.117  13.367  1.00  0.00    -0.205 F 
ATOM     75  C   UNL     1       0.886   2.520  13.350  1.00  0.00     0.022 A 
BRANCH  73  76
ATOM     76  S   UNL     1       2.344   3.168  15.575  1.00  0.00     0.127 S 
ATOM     77  O   UNL     1       1.711   4.483  15.672  1.00  0.00    -0.237 OA
ATOM     78  O   UNL     1       1.583   2.077  16.183  1.00  0.00    -0.237 OA
ATOM     79  O   UNL     1       3.773   3.141  15.854  1.00  0.00    -0.744 OA
ENDBRANCH  73  76
ENDBRANCH  55  69
BRANCH  56  80
ATOM     80  C   UNL     1      10.749   2.196   5.340  1.00  0.00     0.023 A 
ATOM     81  C   UNL     1      10.914   1.098   4.475  1.00  0.00     0.012 A 
ATOM     82  C   UNL     1      11.716   3.223   5.337  1.00  0.00     0.148 A 
ATOM     83  C   UNL     1      12.039   1.006   3.654  1.00  0.00     0.002 A 
ATOM     84  C   UNL     1      12.793   3.160   4.466  1.00  0.00     0.091 A 
ATOM     85  F   UNL     1      11.561   4.245   6.191  1.00  0.00    -0.205 F 
ATOM     86  C   UNL     1      12.972   2.041   3.640  1.00  0.00     0.022 A 
BRANCH  84  87
ATOM     87  S   UNL     1      13.966   4.508   4.294  1.00  0.00     0.127 S 
ATOM     88  O   UNL     1      15.178   3.920   4.857  1.00  0.00    -0.237 OA
ATOM     89  O   UNL     1      13.987   4.701   2.844  1.00  0.00    -0.237 OA
ATOM     90  O   UNL     1      13.398   5.623   5.040  1.00  0.00    -0.744 OA
ENDBRANCH  84  87
ENDBRANCH  56  80
BRANCH  68  91
ATOM     91  C   UNL     1       8.828  -1.835  10.678  1.00  0.00     0.023 A 
ATOM     92  C   UNL     1      10.039  -1.727  11.391  1.00  0.00     0.012 A 
ATOM     93  C   UNL     1       8.197  -3.091  10.583  1.00  0.00     0.148 A 
ATOM     94  C   UNL     1      10.637  -2.855  11.955  1.00  0.00     0.002 A 
ATOM     95  C   UNL     1       8.770  -4.201  11.195  1.00  0.00     0.091 A 
ATOM     96  F   UNL     1       7.059  -3.185   9.881  1.00  0.00    -0.205 F 
ATOM     97  C   UNL     1       9.997  -4.089  11.867  1.00  0.00     0.022 A 
BRANCH  95  98
ATOM     98  S   UNL     1       7.969  -5.809  11.210  1.00  0.00     0.127 S 
ATOM     99  O   UNL     1       8.777  -6.553  10.246  1.00  0.00    -0.237 OA
ATOM    100  O   UNL     1       8.138  -6.228  12.602  1.00  0.00    -0.237 OA
ATOM    101  O   UNL     1       6.587  -5.569  10.817  1.00  0.00    -0.744 OA
ENDBRANCH  95  98
ENDBRANCH  68  91
ENDBRANCH  42  43
ENDBRANCH  35  37
ENDBRANCH  34  35
ENDBRANCH  33  34
ENDBRANCH   1  33
TORSDOF 19
