REMARK SMILES O=C(OCCOCCOC(=O)c1nccnc1C(=O)Nc1n[nH]c2ncccc12)c1ccc(-c2c3nc(c(-c4cccc(S(=O)(=O)[O-])c4F)c4ccc([nH]4)c(-c4cccc(S(=O)(=O)[O-])c4F)c4nc(c(-c5cccc(S(=O)(=O)[O-])c5F)c5ccc2[nH]5)C=C4)C=C3)cc1
REMARK SMILES IDX 5 1 4 2 3 3 2 4 1 5 30 6 31 7 92 8 32 9 91 10 33 11 34 12
REMARK SMILES IDX 35 13 85 14 36 15 90 16 84 17 86 18 37 19 89 20 83 21 82 22
REMARK SMILES IDX 38 24 70 25 50 26 69 27 51 28 54 29 68 30 87 31 52 32 53 33
REMARK SMILES IDX 67 35 88 36 55 37 39 38 40 39 48 40 41 41 43 42 49 43 42 44
REMARK SMILES IDX 44 45 45 46 46 47 47 48 71 49 72 50 80 51 73 52 75 53 81 54
REMARK SMILES IDX 74 55 76 56 77 57 78 58 79 59 56 60 57 61 65 62 58 63 60 64
REMARK SMILES IDX 66 65 59 66 61 67 62 68 63 69 64 70 6 71 7 72 8 73 9 74
REMARK SMILES IDX 10 75 11 76 12 77 13 78 17 79 14 80 16 81 15 82 18 83 19 84
REMARK SMILES IDX 20 85 21 87 22 88 29 89 23 90 24 91 28 92 25 94 27 95 26 96
REMARK H PARENT 86 23 54 34 20 86 23 93
REMARK Flexibility Score: inf
ROOT
ATOM      1  C   UNL     1       2.860  -0.171  -0.414  1.00  0.00     0.202 C 
ENDROOT
BRANCH   1   2
ATOM      2  C   UNL     1       2.297  -1.064   0.700  1.00  0.00     0.261 C 
BRANCH   2   3
ATOM      3  O   UNL     1       0.990  -0.688   1.121  1.00  0.00    -0.460 OA
BRANCH   3   4
ATOM      4  C   UNL     1       0.714   0.246   2.069  1.00  0.00     0.338 C 
ATOM      5  O   UNL     1      -0.425   0.532   2.359  1.00  0.00    -0.246 OA
BRANCH   4   6
ATOM      6  C   UNL     1       1.846   0.862   2.802  1.00  0.00     0.060 A 
ATOM      7  C   UNL     1       2.845   1.544   2.121  1.00  0.00     0.016 A 
ATOM      8  C   UNL     1       1.877   0.830   4.190  1.00  0.00     0.016 A 
ATOM      9  C   UNL     1       3.979   2.006   2.761  1.00  0.00     0.010 A 
ATOM     10  C   UNL     1       2.932   1.455   4.862  1.00  0.00     0.010 A 
ATOM     11  C   UNL     1       4.010   2.018   4.149  1.00  0.00    -0.014 A 
BRANCH  11  12
ATOM     12  C   UNL     1       5.184   2.587   4.847  1.00  0.00     0.031 A 
ATOM     13  C   UNL     1       5.925   1.711   5.809  1.00  0.00     0.074 A 
ATOM     14  C   UNL     1       5.585   3.852   4.606  1.00  0.00     0.049 A 
ATOM     15  N   UNL     1       6.766   2.040   6.747  1.00  0.00    -0.248 NA
ATOM     16  C   UNL     1       5.657   0.264   5.717  1.00  0.00     0.031 C 
ATOM     17  C   UNL     1       5.006   4.757   3.607  1.00  0.00     0.029 A 
ATOM     18  N   UNL     1       6.579   4.601   5.181  1.00  0.00    -0.354 N 
ATOM     19  C   UNL     1       7.028   0.865   7.438  1.00  0.00     0.074 A 
ATOM     20  C   UNL     1       6.300  -0.196   6.779  1.00  0.00     0.031 C 
ATOM     21  C   UNL     1       5.679   5.917   3.611  1.00  0.00     0.029 A 
ATOM     22  C   UNL     1       6.642   5.890   4.699  1.00  0.00     0.049 A 
ATOM     23  H   UNL     1       7.188   4.252   5.871  1.00  0.00     0.167 HD
ATOM     24  C   UNL     1       7.788   0.708   8.545  1.00  0.00     0.034 A 
ATOM     25  C   UNL     1       7.348   6.949   5.140  1.00  0.00     0.034 A 
ATOM     26  C   UNL     1       8.545   1.783   9.123  1.00  0.00     0.049 A 
ATOM     27  C   UNL     1       8.195   6.749   6.366  1.00  0.00     0.074 A 
ATOM     28  C   UNL     1       9.338   1.777  10.254  1.00  0.00     0.029 A 
ATOM     29  N   UNL     1       8.610   3.064   8.589  1.00  0.00    -0.354 N 
ATOM     30  N   UNL     1       8.393   5.652   7.061  1.00  0.00    -0.248 NA
ATOM     31  C   UNL     1       8.906   7.926   6.880  1.00  0.00     0.031 C 
ATOM     32  C   UNL     1       9.871   3.062  10.410  1.00  0.00     0.029 A 
ATOM     33  C   UNL     1       9.435   3.859   9.360  1.00  0.00     0.049 A 
ATOM     34  H   UNL     1       8.136   3.362   7.779  1.00  0.00     0.167 HD
ATOM     35  C   UNL     1       9.268   5.998   8.080  1.00  0.00     0.074 A 
ATOM     36  C   UNL     1       9.581   7.403   7.894  1.00  0.00     0.031 C 
ATOM     37  C   UNL     1       9.755   5.239   9.093  1.00  0.00     0.034 A 
BRANCH  24  38
ATOM     38  C   UNL     1       7.772  -0.643   9.207  1.00  0.00     0.023 A 
ATOM     39  C   UNL     1       8.421  -1.744   8.614  1.00  0.00     0.012 A 
ATOM     40  C   UNL     1       7.069  -0.826  10.416  1.00  0.00     0.148 A 
ATOM     41  C   UNL     1       8.332  -3.013   9.187  1.00  0.00     0.002 A 
ATOM     42  C   UNL     1       7.022  -2.084  11.004  1.00  0.00     0.091 A 
ATOM     43  F   UNL     1       6.431   0.225  10.949  1.00  0.00    -0.205 F 
ATOM     44  C   UNL     1       7.640  -3.182  10.384  1.00  0.00     0.022 A 
BRANCH  42  45
ATOM     45  S   UNL     1       6.204  -2.389  12.573  1.00  0.00     0.127 S 
ATOM     46  O   UNL     1       5.051  -3.187  12.155  1.00  0.00    -0.237 OA
ATOM     47  O   UNL     1       7.224  -3.134  13.311  1.00  0.00    -0.237 OA
ATOM     48  O   UNL     1       5.889  -1.079  13.125  1.00  0.00    -0.744 OA
ENDBRANCH  42  45
ENDBRANCH  24  38
BRANCH  25  49
ATOM     49  C   UNL     1       7.264   8.269   4.445  1.00  0.00     0.023 A 
ATOM     50  C   UNL     1       8.407   8.789   3.807  1.00  0.00     0.012 A 
ATOM     51  C   UNL     1       6.058   8.997   4.376  1.00  0.00     0.148 A 
ATOM     52  C   UNL     1       8.357  10.014   3.136  1.00  0.00     0.002 A 
ATOM     53  C   UNL     1       5.998  10.184   3.651  1.00  0.00     0.091 A 
ATOM     54  F   UNL     1       4.982   8.509   5.009  1.00  0.00    -0.205 F 
ATOM     55  C   UNL     1       7.151  10.703   3.045  1.00  0.00     0.022 A 
BRANCH  53  56
ATOM     56  S   UNL     1       4.452  11.055   3.363  1.00  0.00     0.127 S 
ATOM     57  O   UNL     1       4.585  12.204   4.253  1.00  0.00    -0.237 OA
ATOM     58  O   UNL     1       4.538  11.367   1.936  1.00  0.00    -0.237 OA
ATOM     59  O   UNL     1       3.402  10.104   3.702  1.00  0.00    -0.744 OA
ENDBRANCH  53  56
ENDBRANCH  25  49
BRANCH  37  60
ATOM     60  C   UNL     1      10.719   5.902  10.034  1.00  0.00     0.023 A 
ATOM     61  C   UNL     1      10.246   6.812  10.999  1.00  0.00     0.012 A 
ATOM     62  C   UNL     1      12.082   5.555  10.006  1.00  0.00     0.148 A 
ATOM     63  C   UNL     1      11.128   7.391  11.908  1.00  0.00     0.002 A 
ATOM     64  C   UNL     1      12.944   6.095  10.949  1.00  0.00     0.091 A 
ATOM     65  F   UNL     1      12.508   4.706   9.059  1.00  0.00    -0.205 F 
ATOM     66  C   UNL     1      12.472   7.022  11.893  1.00  0.00     0.022 A 
BRANCH  64  67
ATOM     67  S   UNL     1      14.661   5.585  11.064  1.00  0.00     0.127 S 
ATOM     68  O   UNL     1      15.350   6.717  10.448  1.00  0.00    -0.237 OA
ATOM     69  O   UNL     1      14.854   5.465  12.510  1.00  0.00    -0.237 OA
ATOM     70  O   UNL     1      14.749   4.324  10.340  1.00  0.00    -0.744 OA
ENDBRANCH  64  67
ENDBRANCH  37  60
ENDBRANCH  11  12
ENDBRANCH   4   6
ENDBRANCH   3   4
ENDBRANCH   2   3
ENDBRANCH   1   2
BRANCH   1  71
ATOM     71  O   UNL     1       1.990   0.713  -1.168  1.00  0.00    -0.374 OA
BRANCH  71  72
ATOM     72  C   UNL     1       2.432   2.083  -1.368  1.00  0.00     0.202 C 
BRANCH  72  73
ATOM     73  C   UNL     1       2.597   2.768  -2.791  1.00  0.00     0.261 C 
BRANCH  73  74
ATOM     74  O   UNL     1       3.353   2.146  -3.874  1.00  0.00    -0.458 OA
BRANCH  74  75
ATOM     75  C   UNL     1       4.658   2.405  -4.216  1.00  0.00     0.359 C 
ATOM     76  O   UNL     1       5.415   3.115  -3.580  1.00  0.00    -0.244 OA
BRANCH  75  77
ATOM     77  C   UNL     1       5.037   1.510  -5.386  1.00  0.00     0.179 A 
ATOM     78  N   UNL     1       4.013   1.321  -6.285  1.00  0.00    -0.245 NA
ATOM     79  C   UNL     1       6.202   0.731  -5.474  1.00  0.00     0.161 A 
ATOM     80  C   UNL     1       4.163   0.318  -7.179  1.00  0.00     0.132 A 
ATOM     81  N   UNL     1       6.330  -0.287  -6.394  1.00  0.00    -0.247 NA
ATOM     82  C   UNL     1       5.286  -0.482  -7.218  1.00  0.00     0.132 A 
BRANCH  79  83
ATOM     83  C   UNL     1       7.429   0.817  -4.629  1.00  0.00     0.278 C 
ATOM     84  O   UNL     1       8.266   1.683  -4.878  1.00  0.00    -0.267 OA
ATOM     85  N   UNL     1       7.692  -0.187  -3.686  1.00  0.00    -0.303 N 
ATOM     86  H   UNL     1       8.588  -0.584  -3.599  1.00  0.00     0.172 HD
BRANCH  85  87
ATOM     87  C   UNL     1       6.647  -0.595  -2.885  1.00  0.00     0.164 A 
ATOM     88  N   UNL     1       6.414   0.226  -1.859  1.00  0.00    -0.155 NA
ATOM     89  C   UNL     1       5.462  -1.284  -3.266  1.00  0.00     0.063 A 
ATOM     90  N   UNL     1       5.136   0.530  -2.081  1.00  0.00    -0.259 N 
ATOM     91  C   UNL     1       4.502  -0.372  -2.897  1.00  0.00     0.157 A 
ATOM     92  C   UNL     1       5.013  -2.374  -4.027  1.00  0.00     0.017 A 
ATOM     93  H   UNL     1       4.692   1.322  -1.699  1.00  0.00     0.192 HD
ATOM     94  N   UNL     1       3.217  -0.350  -3.284  1.00  0.00    -0.237 NA
ATOM     95  C   UNL     1       3.638  -2.462  -4.316  1.00  0.00     0.021 A 
ATOM     96  C   UNL     1       2.805  -1.419  -3.963  1.00  0.00     0.113 A 
ENDBRANCH  85  87
ENDBRANCH  79  83
ENDBRANCH  75  77
ENDBRANCH  74  75
ENDBRANCH  73  74
ENDBRANCH  72  73
ENDBRANCH  71  72
ENDBRANCH   1  71
TORSDOF 19
