REMARK SMILES Cc1c(CC(=O)OCCOCCOC(=O)c2ccc(-c3c4nc(c(-c5cccc(S(=O)(=O)[O-])c5F)c5ccc([nH]5)c(-c5cccc(S(=O)(=O)[O-])c5F)c5nc(c(-c6cccc(S(=O)(=O)[O-])c6F)c6ccc3[nH]6)C=C5)C=C4)cc2)cc(-c2ccc(S(C)(=O)=O)cc2)n1-c1cccc(F)c1
REMARK SMILES IDX 10 1 9 2 8 3 7 4 5 5 6 6 4 7 3 8 1 9 2 10 91 11 79 12 80 13
REMARK SMILES IDX 92 14 93 15 98 16 94 17 96 18 95 19 97 20 81 21 82 22 90 23
REMARK SMILES IDX 83 24 89 25 84 26 85 27 86 28 87 29 88 30 11 31 12 32 13 33
REMARK SMILES IDX 14 34 15 35 16 36 17 37 78 38 18 39 77 40 19 41 20 42 21 43
REMARK SMILES IDX 71 44 22 45 76 46 70 47 72 48 23 49 75 50 69 51 68 52 24 54
REMARK SMILES IDX 56 55 36 56 55 57 37 58 40 59 54 60 73 61 38 62 39 63 53 65
REMARK SMILES IDX 74 66 41 67 25 68 26 69 34 70 27 71 29 72 35 73 28 74 30 75
REMARK SMILES IDX 31 76 32 77 33 78 57 79 58 80 66 81 59 82 61 83 67 84 60 85
REMARK SMILES IDX 62 86 63 87 64 88 65 89 42 90 43 91 51 92 44 93 46 94 52 95
REMARK SMILES IDX 45 96 47 97 48 98 49 99 50 100
REMARK H PARENT 72 53 40 64
REMARK Flexibility Score: inf
ROOT
ATOM      1  O   UNL     1       4.700  -0.975  -0.265  1.00  0.00    -0.374 OA
ENDROOT
BRANCH   1   2
ATOM      2  C   UNL     1       5.187  -1.739  -1.356  1.00  0.00     0.202 C 
BRANCH   2   3
ATOM      3  C   UNL     1       4.321  -2.950  -1.747  1.00  0.00     0.261 C 
BRANCH   3   4
ATOM      4  O   UNL     1       2.942  -2.608  -2.012  1.00  0.00    -0.463 OA
BRANCH   4   5
ATOM      5  C   UNL     1       2.011  -3.203  -1.218  1.00  0.00     0.310 C 
ATOM      6  O   UNL     1       2.265  -4.107  -0.421  1.00  0.00    -0.252 OA
BRANCH   5   7
ATOM      7  C   UNL     1       0.579  -2.754  -1.444  1.00  0.00     0.160 C 
BRANCH   7   8
ATOM      8  C   UNL     1       0.290  -1.376  -1.991  1.00  0.00    -0.015 A 
ATOM      9  C   UNL     1       0.009   0.095   0.151  1.00  0.00     0.065 C 
ATOM     10  C   UNL     1       0.064  -0.169  -1.318  1.00  0.00     0.024 A 
ATOM     11  N   UNL     1      -0.235   0.823  -2.262  1.00  0.00    -0.313 N 
ATOM     12  C   UNL     1      -0.015  -1.119  -3.353  1.00  0.00     0.033 A 
ATOM     13  C   UNL     1      -0.419   0.196  -3.485  1.00  0.00     0.053 A 
BRANCH  11  14
ATOM     14  C   UNL     1      -0.354   2.227  -2.024  1.00  0.00     0.049 A 
ATOM     15  C   UNL     1      -1.544   2.921  -2.232  1.00  0.00     0.027 A 
ATOM     16  C   UNL     1       0.787   2.958  -1.712  1.00  0.00     0.065 A 
ATOM     17  C   UNL     1      -1.576   4.318  -2.060  1.00  0.00     0.005 A 
ATOM     18  C   UNL     1       0.751   4.330  -1.516  1.00  0.00     0.125 A 
ATOM     19  C   UNL     1      -0.429   5.024  -1.686  1.00  0.00     0.039 A 
ATOM     20  F   UNL     1       1.877   4.977  -1.189  1.00  0.00    -0.207 F 
ENDBRANCH  11  14
BRANCH  13  21
ATOM     21  C   UNL     1      -0.843   0.867  -4.704  1.00  0.00    -0.001 A 
ATOM     22  C   UNL     1       0.036   1.730  -5.361  1.00  0.00     0.011 A 
ATOM     23  C   UNL     1      -2.114   0.629  -5.236  1.00  0.00     0.011 A 
ATOM     24  C   UNL     1      -0.351   2.377  -6.531  1.00  0.00     0.021 A 
ATOM     25  C   UNL     1      -2.510   1.271  -6.409  1.00  0.00     0.021 A 
ATOM     26  C   UNL     1      -1.626   2.147  -7.046  1.00  0.00     0.067 A 
BRANCH  26  27
ATOM     27  S   UNL     1      -2.095   2.916  -8.577  1.00  0.00     0.175 S 
ATOM     28  C   UNL     1      -2.010   4.658  -8.251  1.00  0.00     0.163 C 
ATOM     29  O   UNL     1      -1.063   2.561  -9.543  1.00  0.00    -0.224 OA
ATOM     30  O   UNL     1      -3.480   2.579  -8.821  1.00  0.00    -0.224 OA
ENDBRANCH  26  27
ENDBRANCH  13  21
ENDBRANCH   7   8
ENDBRANCH   5   7
ENDBRANCH   4   5
ENDBRANCH   3   4
ENDBRANCH   2   3
ENDBRANCH   1   2
BRANCH   1  31
ATOM     31  C   UNL     1       3.589  -0.126  -0.558  1.00  0.00     0.202 C 
BRANCH  31  32
ATOM     32  C   UNL     1       3.845   1.205  -1.331  1.00  0.00     0.261 C 
BRANCH  32  33
ATOM     33  O   UNL     1       3.514   1.401  -2.789  1.00  0.00    -0.460 OA
BRANCH  33  34
ATOM     34  C   UNL     1       4.315   2.333  -3.467  1.00  0.00     0.338 C 
ATOM     35  O   UNL     1       5.418   2.615  -2.996  1.00  0.00    -0.246 OA
BRANCH  34  36
ATOM     36  C   UNL     1       3.960   2.947  -4.889  1.00  0.00     0.060 A 
ATOM     37  C   UNL     1       4.977   2.911  -5.824  1.00  0.00     0.016 A 
ATOM     38  C   UNL     1       2.910   3.791  -5.346  1.00  0.00     0.016 A 
ATOM     39  C   UNL     1       4.902   3.588  -7.114  1.00  0.00     0.010 A 
ATOM     40  C   UNL     1       2.871   4.538  -6.703  1.00  0.00     0.010 A 
ATOM     41  C   UNL     1       3.887   4.476  -7.673  1.00  0.00    -0.014 A 
BRANCH  41  42
ATOM     42  C   UNL     1       4.213   5.283  -9.199  1.00  0.00     0.031 A 
ATOM     43  C   UNL     1       5.648   5.002  -9.357  1.00  0.00     0.074 A 
ATOM     44  C   UNL     1       3.912   6.264 -10.207  1.00  0.00     0.049 A 
ATOM     45  N   UNL     1       6.362   5.576  -8.449  1.00  0.00    -0.248 NA
ATOM     46  C   UNL     1       6.318   3.900 -10.038  1.00  0.00     0.031 C 
ATOM     47  C   UNL     1       2.833   7.277 -10.257  1.00  0.00     0.029 A 
ATOM     48  N   UNL     1       4.605   6.676 -11.458  1.00  0.00    -0.354 N 
ATOM     49  C   UNL     1       7.612   5.072  -8.482  1.00  0.00     0.074 A 
ATOM     50  C   UNL     1       7.528   3.978  -9.450  1.00  0.00     0.031 C 
ATOM     51  C   UNL     1       2.812   7.997 -11.430  1.00  0.00     0.029 A 
ATOM     52  C   UNL     1       3.914   7.638 -12.339  1.00  0.00     0.049 A 
ATOM     53  H   UNL     1       5.493   6.320 -11.691  1.00  0.00     0.167 HD
ATOM     54  C   UNL     1       8.539   6.009  -8.160  1.00  0.00     0.034 A 
ATOM     55  C   UNL     1       4.253   8.214 -13.595  1.00  0.00     0.034 A 
ATOM     56  C   UNL     1       9.090   6.546  -9.370  1.00  0.00     0.049 A 
ATOM     57  C   UNL     1       5.698   8.466 -13.485  1.00  0.00     0.074 A 
ATOM     58  C   UNL     1       9.417   5.949 -10.576  1.00  0.00     0.029 A 
ATOM     59  N   UNL     1       8.819   7.867  -9.635  1.00  0.00    -0.354 N 
ATOM     60  N   UNL     1       6.137   9.505 -12.836  1.00  0.00    -0.248 NA
ATOM     61  C   UNL     1       6.697   7.759 -14.277  1.00  0.00     0.031 C 
ATOM     62  C   UNL     1       8.819   6.774 -11.550  1.00  0.00     0.029 A 
ATOM     63  C   UNL     1       8.560   8.014 -10.984  1.00  0.00     0.049 A 
ATOM     64  H   UNL     1       8.810   8.592  -8.970  1.00  0.00     0.167 HD
ATOM     65  C   UNL     1       7.464   9.245 -12.699  1.00  0.00     0.074 A 
ATOM     66  C   UNL     1       7.794   8.350 -13.795  1.00  0.00     0.031 C 
ATOM     67  C   UNL     1       7.918   9.227 -11.425  1.00  0.00     0.034 A 
BRANCH  54  68
ATOM     68  C   UNL     1       8.119   6.805  -6.902  1.00  0.00     0.023 A 
ATOM     69  C   UNL     1       8.838   6.524  -5.728  1.00  0.00     0.012 A 
ATOM     70  C   UNL     1       6.903   7.553  -6.770  1.00  0.00     0.148 A 
ATOM     71  C   UNL     1       8.346   6.909  -4.474  1.00  0.00     0.002 A 
ATOM     72  C   UNL     1       6.354   7.810  -5.512  1.00  0.00     0.091 A 
ATOM     73  F   UNL     1       6.271   7.988  -7.873  1.00  0.00    -0.205 F 
ATOM     74  C   UNL     1       7.089   7.506  -4.362  1.00  0.00     0.022 A 
BRANCH  72  75
ATOM     75  S   UNL     1       4.622   8.297  -5.287  1.00  0.00     0.127 S 
ATOM     76  O   UNL     1       4.218   7.522  -4.107  1.00  0.00    -0.237 OA
ATOM     77  O   UNL     1       4.710   9.734  -5.049  1.00  0.00    -0.237 OA
ATOM     78  O   UNL     1       3.914   7.898  -6.500  1.00  0.00    -0.744 OA
ENDBRANCH  72  75
ENDBRANCH  54  68
BRANCH  55  79
ATOM     79  C   UNL     1       3.821   9.064 -14.930  1.00  0.00     0.023 A 
ATOM     80  C   UNL     1       4.704  10.105 -15.434  1.00  0.00     0.012 A 
ATOM     81  C   UNL     1       2.932   8.580 -15.926  1.00  0.00     0.148 A 
ATOM     82  C   UNL     1       4.803  10.517 -16.786  1.00  0.00     0.002 A 
ATOM     83  C   UNL     1       3.010   9.026 -17.288  1.00  0.00     0.091 A 
ATOM     84  F   UNL     1       2.067   7.620 -15.582  1.00  0.00    -0.205 F 
ATOM     85  C   UNL     1       3.964   9.960 -17.722  1.00  0.00     0.022 A 
BRANCH  83  86
ATOM     86  S   UNL     1       1.970   8.384 -18.629  1.00  0.00     0.127 S 
ATOM     87  O   UNL     1       1.663   9.585 -19.410  1.00  0.00    -0.237 OA
ATOM     88  O   UNL     1       2.879   7.453 -19.298  1.00  0.00    -0.237 OA
ATOM     89  O   UNL     1       0.819   7.788 -17.968  1.00  0.00    -0.744 OA
ENDBRANCH  83  86
ENDBRANCH  55  79
BRANCH  67  90
ATOM     90  C   UNL     1       7.493  10.349 -10.497  1.00  0.00     0.023 A 
ATOM     91  C   UNL     1       6.176  10.838 -10.339  1.00  0.00     0.012 A 
ATOM     92  C   UNL     1       8.500  10.944  -9.722  1.00  0.00     0.148 A 
ATOM     93  C   UNL     1       5.885  11.885  -9.456  1.00  0.00     0.002 A 
ATOM     94  C   UNL     1       8.202  11.933  -8.794  1.00  0.00     0.091 A 
ATOM     95  F   UNL     1       9.763  10.526  -9.906  1.00  0.00    -0.205 F 
ATOM     96  C   UNL     1       6.896  12.419  -8.664  1.00  0.00     0.022 A 
BRANCH  94  97
ATOM     97  S   UNL     1       9.482  12.555  -7.707  1.00  0.00     0.127 S 
ATOM     98  O   UNL     1       9.901  13.772  -8.399  1.00  0.00    -0.237 OA
ATOM     99  O   UNL     1       8.776  12.781  -6.448  1.00  0.00    -0.237 OA
ATOM    100  O   UNL     1      10.482  11.493  -7.647  1.00  0.00    -0.744 OA
ENDBRANCH  94  97
ENDBRANCH  67  90
ENDBRANCH  41  42
ENDBRANCH  34  36
ENDBRANCH  33  34
ENDBRANCH  32  33
ENDBRANCH  31  32
ENDBRANCH   1  31
TORSDOF 21
