REMARK SMILES CC(C)[NH2+][C@@]1(C(=O)OCCOCCOC(=O)c2ccc(-c3c4nc(c(-c5cccc(S(=O)(=O)[O-])c5F)c5ccc([nH]5)c(-c5cccc(S(=O)(=O)[O-])c5F)c5nc(c(-c6cccc(S(=O)(=O)[O-])c6F)c6ccc3[nH]6)C=C5)C=C4)cc2)CCC[C@@H](Sc2nncn2C)C1
REMARK SMILES IDX 12 1 11 2 10 3 9 4 8 5 6 6 7 7 5 8 80 9 91 10 81 11 83 12
REMARK SMILES IDX 82 13 4 14 2 17 1 18 3 19 84 20 85 21 86 22 89 23 87 24
REMARK SMILES IDX 88 25 90 26 13 27 14 28 15 29 16 30 17 31 18 32 79 33 19 34
REMARK SMILES IDX 78 35 20 36 21 37 22 38 72 39 23 40 77 41 71 42 73 43 24 44
REMARK SMILES IDX 76 45 70 46 69 47 25 49 57 50 37 51 56 52 38 53 41 54 55 55
REMARK SMILES IDX 74 56 39 57 40 58 54 60 75 61 42 62 26 63 27 64 35 65 28 66
REMARK SMILES IDX 30 67 36 68 29 69 31 70 32 71 33 72 34 73 58 74 59 75 67 76
REMARK SMILES IDX 60 77 62 78 68 79 61 80 63 81 64 82 65 83 66 84 43 85 44 86
REMARK SMILES IDX 52 87 45 88 47 89 53 90 46 91 48 92 49 93 50 94 51 95
REMARK H PARENT 4 15 4 16 73 48 41 59
REMARK Flexibility Score: inf
ROOT
ATOM      1  C   UNL     1       2.157   1.508  -3.879  1.00  0.00     0.202 C 
ENDROOT
BRANCH   1   2
ATOM      2  O   UNL     1       2.619   0.561  -4.841  1.00  0.00    -0.374 OA
BRANCH   2   3
ATOM      3  C   UNL     1       1.771   0.298  -5.962  1.00  0.00     0.202 C 
BRANCH   3   4
ATOM      4  C   UNL     1       0.474  -0.469  -5.693  1.00  0.00     0.261 C 
BRANCH   4   5
ATOM      5  O   UNL     1      -0.390   0.285  -4.827  1.00  0.00    -0.459 OA
BRANCH   5   6
ATOM      6  C   UNL     1      -1.072  -0.453  -3.917  1.00  0.00     0.368 C 
ATOM      7  O   UNL     1      -1.132  -1.681  -3.932  1.00  0.00    -0.245 OA
BRANCH   6   8
ATOM      8  C   UNL     1      -1.726   0.400  -2.793  1.00  0.00     0.195 C 
ATOM      9  C   UNL     1      -3.238   0.058  -2.866  1.00  0.00     0.081 C 
ATOM     10  C   UNL     1      -1.604   1.948  -2.873  1.00  0.00     0.096 C 
ATOM     11  C   UNL     1      -3.872   0.574  -4.162  1.00  0.00     0.008 C 
ATOM     12  C   UNL     1      -2.327   2.584  -4.077  1.00  0.00     0.061 C 
ATOM     13  C   UNL     1      -3.765   2.090  -4.264  1.00  0.00     0.015 C 
BRANCH   8  14
ATOM     14  N   UNL     1      -1.219  -0.108  -1.468  1.00  0.00    -0.330 N 
ATOM     15  H   UNL     1      -1.731   0.386  -0.736  1.00  0.00     0.347 HD
ATOM     16  H   UNL     1      -1.368  -1.116  -1.505  1.00  0.00     0.347 HD
BRANCH  14  17
ATOM     17  C   UNL     1       0.217   0.045  -1.178  1.00  0.00     0.176 C 
ATOM     18  C   UNL     1       0.403   0.034   0.344  1.00  0.00     0.075 C 
ATOM     19  C   UNL     1       1.097  -1.072  -1.757  1.00  0.00     0.075 C 
ENDBRANCH  14  17
ENDBRANCH   8  14
BRANCH  12  20
ATOM     20  S   UNL     1      -2.246   4.424  -4.055  1.00  0.00    -0.082 SA
BRANCH  20  21
ATOM     21  C   UNL     1      -3.400   4.850  -2.840  1.00  0.00     0.191 A 
ATOM     22  N   UNL     1      -3.320   4.584  -1.557  1.00  0.00    -0.124 NA
ATOM     23  N   UNL     1      -4.556   5.533  -3.092  1.00  0.00    -0.312 N 
ATOM     24  N   UNL     1      -4.450   5.092  -0.951  1.00  0.00    -0.138 NA
ATOM     25  C   UNL     1      -5.181   5.655  -1.886  1.00  0.00     0.226 A 
ATOM     26  C   UNL     1      -5.063   6.009  -4.352  1.00  0.00     0.153 C 
ENDBRANCH  20  21
ENDBRANCH  12  20
ENDBRANCH   6   8
ENDBRANCH   5   6
ENDBRANCH   4   5
ENDBRANCH   3   4
ENDBRANCH   2   3
ENDBRANCH   1   2
BRANCH   1  27
ATOM     27  C   UNL     1       2.263   2.998  -4.215  1.00  0.00     0.261 C 
BRANCH  27  28
ATOM     28  O   UNL     1       1.519   3.354  -5.387  1.00  0.00    -0.460 OA
BRANCH  28  29
ATOM     29  C   UNL     1       2.287   3.575  -6.484  1.00  0.00     0.338 C 
ATOM     30  O   UNL     1       3.501   3.566  -6.551  1.00  0.00    -0.246 OA
BRANCH  29  31
ATOM     31  C   UNL     1       1.422   3.621  -7.676  1.00  0.00     0.060 A 
ATOM     32  C   UNL     1       1.726   2.739  -8.722  1.00  0.00     0.016 A 
ATOM     33  C   UNL     1       0.371   4.532  -7.787  1.00  0.00     0.016 A 
ATOM     34  C   UNL     1       1.004   2.794  -9.907  1.00  0.00     0.010 A 
ATOM     35  C   UNL     1      -0.340   4.600  -8.986  1.00  0.00     0.010 A 
ATOM     36  C   UNL     1      -0.001   3.756 -10.059  1.00  0.00    -0.014 A 
BRANCH  36  37
ATOM     37  C   UNL     1      -0.583   3.985 -11.399  1.00  0.00     0.031 A 
ATOM     38  C   UNL     1      -0.053   5.122 -12.226  1.00  0.00     0.074 A 
ATOM     39  C   UNL     1      -1.559   3.188 -11.865  1.00  0.00     0.049 A 
ATOM     40  N   UNL     1      -0.439   5.537 -13.402  1.00  0.00    -0.248 NA
ATOM     41  C   UNL     1       1.059   5.896 -11.647  1.00  0.00     0.031 C 
ATOM     42  C   UNL     1      -2.129   2.047 -11.150  1.00  0.00     0.029 A 
ATOM     43  N   UNL     1      -2.260   3.237 -13.042  1.00  0.00    -0.354 N 
ATOM     44  C   UNL     1       0.358   6.637 -13.692  1.00  0.00     0.074 A 
ATOM     45  C   UNL     1       1.245   6.831 -12.566  1.00  0.00     0.031 C 
ATOM     46  C   UNL     1      -3.121   1.523 -11.891  1.00  0.00     0.029 A 
ATOM     47  C   UNL     1      -3.271   2.309 -13.114  1.00  0.00     0.049 A 
ATOM     48  H   UNL     1      -2.058   3.874 -13.765  1.00  0.00     0.167 HD
ATOM     49  C   UNL     1       0.357   7.410 -14.803  1.00  0.00     0.034 A 
ATOM     50  C   UNL     1      -4.227   2.139 -14.048  1.00  0.00     0.034 A 
ATOM     51  C   UNL     1      -0.520   7.198 -15.922  1.00  0.00     0.049 A 
ATOM     52  C   UNL     1      -4.230   3.035 -15.259  1.00  0.00     0.074 A 
ATOM     53  C   UNL     1      -0.572   7.892 -17.117  1.00  0.00     0.029 A 
ATOM     54  N   UNL     1      -1.509   6.228 -15.977  1.00  0.00    -0.354 N 
ATOM     55  N   UNL     1      -3.400   4.001 -15.572  1.00  0.00    -0.248 NA
ATOM     56  C   UNL     1      -5.282   2.800 -16.258  1.00  0.00     0.031 C 
ATOM     57  C   UNL     1      -1.618   7.364 -17.880  1.00  0.00     0.029 A 
ATOM     58  C   UNL     1      -2.193   6.317 -17.176  1.00  0.00     0.049 A 
ATOM     59  H   UNL     1      -1.697   5.572 -15.267  1.00  0.00     0.167 HD
ATOM     60  C   UNL     1      -3.808   4.467 -16.818  1.00  0.00     0.074 A 
ATOM     61  C   UNL     1      -4.948   3.663 -17.209  1.00  0.00     0.031 C 
ATOM     62  C   UNL     1      -3.295   5.475 -17.566  1.00  0.00     0.034 A 
BRANCH  49  63
ATOM     63  C   UNL     1       1.339   8.548 -14.866  1.00  0.00     0.023 A 
ATOM     64  C   UNL     1       2.712   8.283 -15.047  1.00  0.00     0.012 A 
ATOM     65  C   UNL     1       0.896   9.883 -14.793  1.00  0.00     0.148 A 
ATOM     66  C   UNL     1       3.632   9.328 -15.126  1.00  0.00     0.002 A 
ATOM     67  C   UNL     1       1.813  10.920 -14.917  1.00  0.00     0.091 A 
ATOM     68  F   UNL     1      -0.409  10.114 -14.594  1.00  0.00    -0.205 F 
ATOM     69  C   UNL     1       3.182  10.645 -15.072  1.00  0.00     0.022 A 
BRANCH  67  70
ATOM     70  S   UNL     1       1.324  12.648 -14.935  1.00  0.00     0.127 S 
ATOM     71  O   UNL     1       1.855  13.118 -13.656  1.00  0.00    -0.237 OA
ATOM     72  O   UNL     1       2.030  13.154 -16.112  1.00  0.00    -0.237 OA
ATOM     73  O   UNL     1      -0.128  12.654 -15.048  1.00  0.00    -0.744 OA
ENDBRANCH  67  70
ENDBRANCH  49  63
BRANCH  50  74
ATOM     74  C   UNL     1      -5.248   1.068 -13.879  1.00  0.00     0.023 A 
ATOM     75  C   UNL     1      -5.244  -0.044 -14.742  1.00  0.00     0.012 A 
ATOM     76  C   UNL     1      -6.209   1.137 -12.851  1.00  0.00     0.148 A 
ATOM     77  C   UNL     1      -6.195  -1.056 -14.602  1.00  0.00     0.002 A 
ATOM     78  C   UNL     1      -7.118   0.099 -12.681  1.00  0.00     0.091 A 
ATOM     79  F   UNL     1      -6.207   2.212 -12.051  1.00  0.00    -0.205 F 
ATOM     80  C   UNL     1      -7.124  -0.990 -13.566  1.00  0.00     0.022 A 
BRANCH  78  81
ATOM     81  S   UNL     1      -8.259   0.040 -11.296  1.00  0.00     0.127 S 
ATOM     82  O   UNL     1      -9.543   0.266 -11.955  1.00  0.00    -0.237 OA
ATOM     83  O   UNL     1      -8.053  -1.319 -10.794  1.00  0.00    -0.237 OA
ATOM     84  O   UNL     1      -7.825   1.088 -10.382  1.00  0.00    -0.744 OA
ENDBRANCH  78  81
ENDBRANCH  50  74
BRANCH  62  85
ATOM     85  C   UNL     1      -3.936   5.752 -18.901  1.00  0.00     0.023 A 
ATOM     86  C   UNL     1      -5.199   6.371 -18.958  1.00  0.00     0.012 A 
ATOM     87  C   UNL     1      -3.242   5.479 -20.097  1.00  0.00     0.148 A 
ATOM     88  C   UNL     1      -5.776   6.689 -20.187  1.00  0.00     0.002 A 
ATOM     89  C   UNL     1      -3.801   5.845 -21.315  1.00  0.00     0.091 A 
ATOM     90  F   UNL     1      -2.047   4.875 -20.019  1.00  0.00    -0.205 F 
ATOM     91  C   UNL     1      -5.072   6.438 -21.363  1.00  0.00     0.022 A 
BRANCH  89  92
ATOM     92  S   UNL     1      -2.928   5.652 -22.873  1.00  0.00     0.127 S 
ATOM     93  O   UNL     1      -3.697   4.588 -23.515  1.00  0.00    -0.237 OA
ATOM     94  O   UNL     1      -3.088   6.973 -23.481  1.00  0.00    -0.237 OA
ATOM     95  O   UNL     1      -1.556   5.307 -22.527  1.00  0.00    -0.744 OA
ENDBRANCH  89  92
ENDBRANCH  62  85
ENDBRANCH  36  37
ENDBRANCH  29  31
ENDBRANCH  28  29
ENDBRANCH  27  28
ENDBRANCH   1  27
TORSDOF 21
