REMARK SMILES CN(CCCC(=O)OCCOCCOC(=O)c1ccc(-c2c3nc(c(-c4cccc(S(=O)(=O)[O-])c4F)c4ccc([nH]4)c(-c4cccc(S(=O)(=O)[O-])c4F)c4nc(c(-c5cccc(S(=O)(=O)[O-])c5F)c5ccc2[nH]5)C=C4)C=C3)cc1)C(=O)c1c[nH]nc1-c1ccccc1
REMARK SMILES IDX 9 1 8 2 6 3 7 4 5 5 4 6 3 7 2 8 1 9 80 10 81 11 82 12 83 13
REMARK SMILES IDX 86 14 84 15 85 16 87 18 88 19 92 20 89 21 91 22 90 23 10 24
REMARK SMILES IDX 11 25 12 26 13 27 14 28 15 29 16 30 17 31 18 32 79 33 19 34
REMARK SMILES IDX 78 35 20 36 21 37 22 38 72 39 23 40 77 41 71 42 73 43 24 44
REMARK SMILES IDX 76 45 70 46 69 47 25 49 57 50 37 51 56 52 38 53 41 54 55 55
REMARK SMILES IDX 74 56 39 57 40 58 54 60 75 61 42 62 26 63 27 64 35 65 28 66
REMARK SMILES IDX 30 67 36 68 29 69 31 70 32 71 33 72 34 73 58 74 59 75 67 76
REMARK SMILES IDX 60 77 62 78 68 79 61 80 63 81 64 82 65 83 66 84 43 85 44 86
REMARK SMILES IDX 52 87 45 88 47 89 53 90 46 91 48 92 49 93 50 94 51 95
REMARK H PARENT 84 17 73 48 41 59
REMARK Flexibility Score: inf
ROOT
ATOM      1  C   UNL     1      -0.146  -6.160  -1.511  1.00  0.00     0.261 C 
ENDROOT
BRANCH   1   2
ATOM      2  O   UNL     1      -0.649  -4.899  -1.030  1.00  0.00    -0.463 OA
BRANCH   2   3
ATOM      3  C   UNL     1      -1.645  -4.311  -1.737  1.00  0.00     0.305 C 
ATOM      4  O   UNL     1      -2.222  -4.805  -2.700  1.00  0.00    -0.252 OA
BRANCH   3   5
ATOM      5  C   UNL     1      -2.077  -2.989  -1.136  1.00  0.00     0.124 C 
BRANCH   5   6
ATOM      6  C   UNL     1      -1.167  -2.351  -0.089  1.00  0.00     0.033 C 
BRANCH   6   7
ATOM      7  C   UNL     1       0.317  -2.190  -0.452  1.00  0.00     0.120 C 
BRANCH   7   8
ATOM      8  N   UNL     1       0.648  -1.005  -1.244  1.00  0.00    -0.342 N 
ATOM      9  C   UNL     1       0.931   0.210  -0.494  1.00  0.00     0.147 C 
BRANCH   8  10
ATOM     10  C   UNL     1       1.038  -1.022  -2.592  1.00  0.00     0.257 C 
ATOM     11  O   UNL     1       1.608  -0.074  -3.124  1.00  0.00    -0.269 OA
BRANCH  10  12
ATOM     12  C   UNL     1       0.626  -2.156  -3.397  1.00  0.00     0.085 A 
ATOM     13  C   UNL     1      -0.605  -2.243  -4.018  1.00  0.00     0.119 A 
ATOM     14  C   UNL     1       1.363  -3.267  -3.912  1.00  0.00     0.105 A 
ATOM     15  N   UNL     1      -0.603  -3.410  -4.710  1.00  0.00    -0.284 N 
ATOM     16  N   UNL     1       0.565  -4.055  -4.660  1.00  0.00    -0.175 NA
ATOM     17  H   UNL     1      -1.387  -3.748  -5.201  1.00  0.00     0.189 HD
BRANCH  14  18
ATOM     18  C   UNL     1       2.780  -3.607  -3.778  1.00  0.00     0.003 A 
ATOM     19  C   UNL     1       3.455  -4.136  -4.892  1.00  0.00     0.010 A 
ATOM     20  C   UNL     1       3.492  -3.413  -2.590  1.00  0.00     0.010 A 
ATOM     21  C   UNL     1       4.814  -4.443  -4.831  1.00  0.00     0.001 A 
ATOM     22  C   UNL     1       4.854  -3.727  -2.528  1.00  0.00     0.001 A 
ATOM     23  C   UNL     1       5.514  -4.234  -3.648  1.00  0.00     0.000 A 
ENDBRANCH  14  18
ENDBRANCH  10  12
ENDBRANCH   8  10
ENDBRANCH   7   8
ENDBRANCH   6   7
ENDBRANCH   5   6
ENDBRANCH   3   5
ENDBRANCH   2   3
ENDBRANCH   1   2
BRANCH   1  24
ATOM     24  C   UNL     1      -0.156  -7.197  -0.386  1.00  0.00     0.202 C 
BRANCH  24  25
ATOM     25  O   UNL     1      -1.431  -7.698   0.024  1.00  0.00    -0.374 OA
BRANCH  25  26
ATOM     26  C   UNL     1      -2.406  -6.770   0.481  1.00  0.00     0.202 C 
BRANCH  26  27
ATOM     27  C   UNL     1      -2.221  -6.150   1.874  1.00  0.00     0.261 C 
BRANCH  27  28
ATOM     28  O   UNL     1      -0.907  -5.636   2.136  1.00  0.00    -0.460 OA
BRANCH  28  29
ATOM     29  C   UNL     1      -0.164  -6.437   2.943  1.00  0.00     0.338 C 
ATOM     30  O   UNL     1      -0.507  -7.497   3.442  1.00  0.00    -0.246 OA
BRANCH  29  31
ATOM     31  C   UNL     1       1.212  -5.928   3.078  1.00  0.00     0.060 A 
ATOM     32  C   UNL     1       2.254  -6.816   2.787  1.00  0.00     0.016 A 
ATOM     33  C   UNL     1       1.480  -4.672   3.629  1.00  0.00     0.016 A 
ATOM     34  C   UNL     1       3.566  -6.482   3.112  1.00  0.00     0.010 A 
ATOM     35  C   UNL     1       2.799  -4.340   3.959  1.00  0.00     0.010 A 
ATOM     36  C   UNL     1       3.838  -5.264   3.749  1.00  0.00    -0.014 A 
BRANCH  36  37
ATOM     37  C   UNL     1       5.181  -5.049   4.342  1.00  0.00     0.031 A 
ATOM     38  C   UNL     1       5.382  -5.308   5.812  1.00  0.00     0.074 A 
ATOM     39  C   UNL     1       6.215  -4.657   3.579  1.00  0.00     0.049 A 
ATOM     40  N   UNL     1       6.474  -5.219   6.526  1.00  0.00    -0.248 NA
ATOM     41  C   UNL     1       4.195  -5.722   6.578  1.00  0.00     0.031 C 
ATOM     42  C   UNL     1       6.147  -4.374   2.147  1.00  0.00     0.029 A 
ATOM     43  N   UNL     1       7.524  -4.416   3.911  1.00  0.00    -0.354 N 
ATOM     44  C   UNL     1       6.104  -5.543   7.825  1.00  0.00     0.074 A 
ATOM     45  C   UNL     1       4.684  -5.816   7.806  1.00  0.00     0.031 C 
ATOM     46  C   UNL     1       7.357  -3.970   1.727  1.00  0.00     0.029 A 
ATOM     47  C   UNL     1       8.281  -3.956   2.861  1.00  0.00     0.049 A 
ATOM     48  H   UNL     1       7.886  -4.558   4.815  1.00  0.00     0.167 HD
ATOM     49  C   UNL     1       6.879  -5.630   8.933  1.00  0.00     0.034 A 
ATOM     50  C   UNL     1       9.568  -3.559   2.822  1.00  0.00     0.034 A 
ATOM     51  C   UNL     1       8.296  -5.387   8.948  1.00  0.00     0.049 A 
ATOM     52  C   UNL     1      10.409  -3.652   4.068  1.00  0.00     0.074 A 
ATOM     53  C   UNL     1       9.179  -5.509  10.006  1.00  0.00     0.029 A 
ATOM     54  N   UNL     1       9.036  -4.961   7.856  1.00  0.00    -0.354 N 
ATOM     55  N   UNL     1      10.076  -4.094   5.257  1.00  0.00    -0.248 NA
ATOM     56  C   UNL     1      11.812  -3.225   3.958  1.00  0.00     0.031 C 
ATOM     57  C   UNL     1      10.452  -5.137   9.558  1.00  0.00     0.029 A 
ATOM     58  C   UNL     1      10.363  -4.799   8.217  1.00  0.00     0.049 A 
ATOM     59  H   UNL     1       8.672  -4.797   6.957  1.00  0.00     0.167 HD
ATOM     60  C   UNL     1      11.232  -4.026   6.028  1.00  0.00     0.074 A 
ATOM     61  C   UNL     1      12.280  -3.519   5.165  1.00  0.00     0.031 C 
ATOM     62  C   UNL     1      11.406  -4.340   7.336  1.00  0.00     0.034 A 
BRANCH  49  63
ATOM     63  C   UNL     1       6.210  -6.040  10.217  1.00  0.00     0.023 A 
ATOM     64  C   UNL     1       5.834  -7.385  10.405  1.00  0.00     0.012 A 
ATOM     65  C   UNL     1       5.986  -5.108  11.248  1.00  0.00     0.148 A 
ATOM     66  C   UNL     1       5.217  -7.791  11.588  1.00  0.00     0.002 A 
ATOM     67  C   UNL     1       5.403  -5.528  12.439  1.00  0.00     0.091 A 
ATOM     68  F   UNL     1       6.322  -3.827  11.040  1.00  0.00    -0.205 F 
ATOM     69  C   UNL     1       5.010  -6.865  12.608  1.00  0.00     0.022 A 
BRANCH  67  70
ATOM     70  S   UNL     1       5.160  -4.415  13.829  1.00  0.00     0.127 S 
ATOM     71  O   UNL     1       3.736  -4.106  13.715  1.00  0.00    -0.237 OA
ATOM     72  O   UNL     1       5.510  -5.260  14.972  1.00  0.00    -0.237 OA
ATOM     73  O   UNL     1       6.070  -3.300  13.605  1.00  0.00    -0.744 OA
ENDBRANCH  67  70
ENDBRANCH  49  63
BRANCH  50  74
ATOM     74  C   UNL     1      10.147  -3.075   1.539  1.00  0.00     0.023 A 
ATOM     75  C   UNL     1      11.083  -3.870   0.852  1.00  0.00     0.012 A 
ATOM     76  C   UNL     1       9.734  -1.853   0.974  1.00  0.00     0.148 A 
ATOM     77  C   UNL     1      11.611  -3.448  -0.369  1.00  0.00     0.002 A 
ATOM     78  C   UNL     1      10.223  -1.465  -0.267  1.00  0.00     0.091 A 
ATOM     79  F   UNL     1       8.856  -1.103   1.656  1.00  0.00    -0.205 F 
ATOM     80  C   UNL     1      11.172  -2.254  -0.934  1.00  0.00     0.022 A 
BRANCH  78  81
ATOM     81  S   UNL     1       9.611  -0.012  -1.128  1.00  0.00     0.127 S 
ATOM     82  O   UNL     1      10.750   0.895  -1.029  1.00  0.00    -0.237 OA
ATOM     83  O   UNL     1       9.357  -0.544  -2.467  1.00  0.00    -0.237 OA
ATOM     84  O   UNL     1       8.412   0.392  -0.405  1.00  0.00    -0.744 OA
ENDBRANCH  78  81
ENDBRANCH  50  74
BRANCH  62  85
ATOM     85  C   UNL     1      12.783  -4.162   7.922  1.00  0.00     0.023 A 
ATOM     86  C   UNL     1      13.255  -2.866   8.206  1.00  0.00     0.012 A 
ATOM     87  C   UNL     1      13.572  -5.277   8.268  1.00  0.00     0.148 A 
ATOM     88  C   UNL     1      14.501  -2.679   8.802  1.00  0.00     0.002 A 
ATOM     89  C   UNL     1      14.795  -5.085   8.902  1.00  0.00     0.091 A 
ATOM     90  F   UNL     1      13.116  -6.502   7.971  1.00  0.00    -0.205 F 
ATOM     91  C   UNL     1      15.265  -3.788   9.161  1.00  0.00     0.022 A 
BRANCH  89  92
ATOM     92  S   UNL     1      15.799  -6.459   9.479  1.00  0.00     0.127 S 
ATOM     93  O   UNL     1      16.844  -6.515   8.459  1.00  0.00    -0.237 OA
ATOM     94  O   UNL     1      16.251  -5.989  10.790  1.00  0.00    -0.237 OA
ATOM     95  O   UNL     1      14.906  -7.609   9.530  1.00  0.00    -0.744 OA
ENDBRANCH  89  92
ENDBRANCH  62  85
ENDBRANCH  36  37
ENDBRANCH  29  31
ENDBRANCH  28  29
ENDBRANCH  27  28
ENDBRANCH  26  27
ENDBRANCH  25  26
ENDBRANCH  24  25
ENDBRANCH   1  24
TORSDOF 23
