REMARK SMILES Cc1ccc(C#N)cc1S(=O)(=O)Nc1cccc(C(=O)OCCOCCOC(=O)c2ccc(-c3c4nc(c(-c5cccc(S(=O)(=O)[O-])c5F)c5ccc([nH]5)c(-c5cccc(S(=O)(=O)[O-])c5F)c5nc(c(-c6cccc(S(=O)(=O)[O-])c6F)c6ccc3[nH]6)C=C5)C=C4)cc2)c1
REMARK SMILES IDX 23 1 22 2 21 3 19 4 20 5 18 6 14 7 15 8 93 9 16 10 17 11
REMARK SMILES IDX 13 12 10 14 11 15 12 16 9 17 1 18 2 19 3 20 4 21 8 22 5 23
REMARK SMILES IDX 6 24 7 25 24 26 25 27 26 28 27 29 28 30 29 31 30 32 31 33
REMARK SMILES IDX 92 34 32 35 91 36 33 37 34 38 35 39 85 40 36 41 90 42 84 43
REMARK SMILES IDX 86 44 37 45 89 46 83 47 82 48 38 50 70 51 50 52 69 53 51 54
REMARK SMILES IDX 54 55 68 56 87 57 52 58 53 59 67 61 88 62 55 63 39 64 40 65
REMARK SMILES IDX 48 66 41 67 43 68 49 69 42 70 44 71 45 72 46 73 47 74 71 75
REMARK SMILES IDX 72 76 80 77 73 78 75 79 81 80 74 81 76 82 77 83 78 84 79 85
REMARK SMILES IDX 56 86 57 87 65 88 58 89 60 90 66 91 59 92 61 93 62 94 63 95
REMARK SMILES IDX 64 96
REMARK H PARENT 13 13 86 49 54 60
REMARK Flexibility Score: inf
ROOT
ATOM      1  C   UNL     1      -1.224   3.650   4.758  1.00  0.00     0.202 C 
ENDROOT
BRANCH   1   2
ATOM      2  C   UNL     1      -0.435   4.540   3.791  1.00  0.00     0.261 C 
BRANCH   2   3
ATOM      3  O   UNL     1      -0.030   3.870   2.585  1.00  0.00    -0.460 OA
BRANCH   3   4
ATOM      4  C   UNL     1       1.286   3.536   2.544  1.00  0.00     0.338 C 
ATOM      5  O   UNL     1       2.114   3.761   3.412  1.00  0.00    -0.246 OA
BRANCH   4   6
ATOM      6  C   UNL     1       1.614   2.731   1.336  1.00  0.00     0.062 A 
ATOM      7  C   UNL     1       1.046   1.663  -0.770  1.00  0.00     0.050 A 
ATOM      8  C   UNL     1       2.295   1.041  -0.801  1.00  0.00     0.027 A 
ATOM      9  C   UNL     1       0.739   2.573   0.257  1.00  0.00     0.042 A 
ATOM     10  C   UNL     1       3.176   1.208   0.269  1.00  0.00     0.003 A 
ATOM     11  C   UNL     1       2.821   2.021   1.347  1.00  0.00     0.016 A 
BRANCH   7  12
ATOM     12  N   UNL     1      -0.041   1.283  -1.598  1.00  0.00    -0.280 N 
ATOM     13  H   UNL     1      -0.801   1.908  -1.627  1.00  0.00     0.180 HD
BRANCH  12  14
ATOM     14  S   UNL     1      -0.190  -0.087  -2.525  1.00  0.00     0.262 S 
ATOM     15  O   UNL     1       0.914  -0.124  -3.462  1.00  0.00    -0.201 OA
ATOM     16  O   UNL     1      -1.558  -0.058  -3.003  1.00  0.00    -0.201 OA
BRANCH  14  17
ATOM     17  C   UNL     1      -0.065  -1.605  -1.569  1.00  0.00     0.092 A 
ATOM     18  C   UNL     1       0.044  -0.719   0.871  1.00  0.00     0.046 C 
ATOM     19  C   UNL     1       0.164  -1.762  -0.193  1.00  0.00    -0.030 A 
ATOM     20  C   UNL     1       0.509  -3.045   0.287  1.00  0.00     0.006 A 
ATOM     21  C   UNL     1       0.474  -4.170  -0.533  1.00  0.00     0.020 A 
ATOM     22  C   UNL     1      -0.152  -2.763  -2.381  1.00  0.00     0.042 A 
ATOM     23  C   UNL     1       0.086  -4.038  -1.861  1.00  0.00     0.053 A 
BRANCH  23  24
ATOM     24  C   UNL     1      -0.065  -5.207  -2.674  1.00  0.00     0.099 C 
ATOM     25  N   UNL     1      -0.194  -6.177  -3.304  1.00  0.00    -0.192 NA
ENDBRANCH  23  24
ENDBRANCH  14  17
ENDBRANCH  12  14
ENDBRANCH   7  12
ENDBRANCH   4   6
ENDBRANCH   3   4
ENDBRANCH   2   3
ENDBRANCH   1   2
BRANCH   1  26
ATOM     26  O   UNL     1      -0.682   2.380   5.106  1.00  0.00    -0.374 OA
BRANCH  26  27
ATOM     27  C   UNL     1      -0.777   1.326   4.149  1.00  0.00     0.202 C 
BRANCH  27  28
ATOM     28  C   UNL     1      -2.164   0.739   3.847  1.00  0.00     0.261 C 
BRANCH  28  29
ATOM     29  O   UNL     1      -3.030   1.668   3.175  1.00  0.00    -0.460 OA
BRANCH  29  30
ATOM     30  C   UNL     1      -4.077   2.117   3.918  1.00  0.00     0.338 C 
ATOM     31  O   UNL     1      -4.373   1.780   5.051  1.00  0.00    -0.246 OA
BRANCH  30  32
ATOM     32  C   UNL     1      -4.685   3.266   3.219  1.00  0.00     0.060 A 
ATOM     33  C   UNL     1      -5.196   3.127   1.930  1.00  0.00     0.016 A 
ATOM     34  C   UNL     1      -4.747   4.498   3.885  1.00  0.00     0.016 A 
ATOM     35  C   UNL     1      -5.792   4.229   1.312  1.00  0.00     0.010 A 
ATOM     36  C   UNL     1      -5.338   5.598   3.264  1.00  0.00     0.010 A 
ATOM     37  C   UNL     1      -5.886   5.465   1.981  1.00  0.00    -0.014 A 
BRANCH  37  38
ATOM     38  C   UNL     1      -6.706   6.559   1.407  1.00  0.00     0.031 A 
ATOM     39  C   UNL     1      -6.090   7.809   0.853  1.00  0.00     0.074 A 
ATOM     40  C   UNL     1      -8.046   6.417   1.425  1.00  0.00     0.049 A 
ATOM     41  N   UNL     1      -6.684   8.828   0.288  1.00  0.00    -0.248 NA
ATOM     42  C   UNL     1      -4.627   7.940   0.940  1.00  0.00     0.031 C 
ATOM     43  C   UNL     1      -8.758   5.267   1.985  1.00  0.00     0.029 A 
ATOM     44  N   UNL     1      -9.044   7.238   0.969  1.00  0.00    -0.354 N 
ATOM     45  C   UNL     1      -5.678   9.724  -0.045  1.00  0.00     0.074 A 
ATOM     46  C   UNL     1      -4.430   9.136   0.396  1.00  0.00     0.031 C 
ATOM     47  C   UNL     1     -10.077   5.444   1.821  1.00  0.00     0.029 A 
ATOM     48  C   UNL     1     -10.306   6.734   1.178  1.00  0.00     0.049 A 
ATOM     49  H   UNL     1      -8.875   8.105   0.534  1.00  0.00     0.167 HD
ATOM     50  C   UNL     1      -5.788  10.917  -0.675  1.00  0.00     0.034 A 
ATOM     51  C   UNL     1     -11.517   7.250   0.894  1.00  0.00     0.034 A 
ATOM     52  C   UNL     1      -7.032  11.496  -1.110  1.00  0.00     0.049 A 
ATOM     53  C   UNL     1     -11.610   8.581   0.210  1.00  0.00     0.074 A 
ATOM     54  C   UNL     1      -7.228  12.682  -1.799  1.00  0.00     0.029 A 
ATOM     55  N   UNL     1      -8.287  10.952  -0.889  1.00  0.00    -0.354 N 
ATOM     56  N   UNL     1     -10.639   9.367  -0.183  1.00  0.00    -0.248 NA
ATOM     57  C   UNL     1     -12.956   9.085  -0.095  1.00  0.00     0.031 C 
ATOM     58  C   UNL     1      -8.602  12.870  -1.965  1.00  0.00     0.029 A 
ATOM     59  C   UNL     1      -9.260  11.781  -1.419  1.00  0.00     0.049 A 
ATOM     60  H   UNL     1      -8.460  10.102  -0.423  1.00  0.00     0.167 HD
ATOM     61  C   UNL     1     -11.253  10.443  -0.811  1.00  0.00     0.074 A 
ATOM     62  C   UNL     1     -12.681  10.207  -0.747  1.00  0.00     0.031 C 
ATOM     63  C   UNL     1     -10.677  11.524  -1.388  1.00  0.00     0.034 A 
BRANCH  50  64
ATOM     64  C   UNL     1      -4.530  11.681  -0.988  1.00  0.00     0.023 A 
ATOM     65  C   UNL     1      -3.734  11.277  -2.077  1.00  0.00     0.012 A 
ATOM     66  C   UNL     1      -4.220  12.873  -0.304  1.00  0.00     0.148 A 
ATOM     67  C   UNL     1      -2.644  12.047  -2.481  1.00  0.00     0.002 A 
ATOM     68  C   UNL     1      -3.147  13.648  -0.728  1.00  0.00     0.091 A 
ATOM     69  F   UNL     1      -4.994  13.235   0.729  1.00  0.00    -0.205 F 
ATOM     70  C   UNL     1      -2.359  13.236  -1.816  1.00  0.00     0.022 A 
BRANCH  68  71
ATOM     71  S   UNL     1      -2.714  15.214   0.037  1.00  0.00     0.127 S 
ATOM     72  O   UNL     1      -1.389  14.917   0.581  1.00  0.00    -0.237 OA
ATOM     73  O   UNL     1      -2.714  16.125  -1.107  1.00  0.00    -0.237 OA
ATOM     74  O   UNL     1      -3.743  15.477   1.032  1.00  0.00    -0.744 OA
ENDBRANCH  68  71
ENDBRANCH  50  64
BRANCH  51  75
ATOM     75  C   UNL     1     -12.731   6.456   1.216  1.00  0.00     0.023 A 
ATOM     76  C   UNL     1     -13.420   5.796   0.181  1.00  0.00     0.012 A 
ATOM     77  C   UNL     1     -13.148   6.282   2.549  1.00  0.00     0.148 A 
ATOM     78  C   UNL     1     -14.509   4.974   0.471  1.00  0.00     0.002 A 
ATOM     79  C   UNL     1     -14.212   5.436   2.833  1.00  0.00     0.091 A 
ATOM     80  F   UNL     1     -12.466   6.917   3.512  1.00  0.00    -0.205 F 
ATOM     81  C   UNL     1     -14.898   4.786   1.795  1.00  0.00     0.022 A 
BRANCH  79  82
ATOM     82  S   UNL     1     -14.737   5.071   4.511  1.00  0.00     0.127 S 
ATOM     83  O   UNL     1     -16.106   5.581   4.510  1.00  0.00    -0.237 OA
ATOM     84  O   UNL     1     -14.622   3.613   4.547  1.00  0.00    -0.237 OA
ATOM     85  O   UNL     1     -13.809   5.778   5.382  1.00  0.00    -0.744 OA
ENDBRANCH  79  82
ENDBRANCH  51  75
BRANCH  63  86
ATOM     86  C   UNL     1     -11.569  12.538  -2.049  1.00  0.00     0.023 A 
ATOM     87  C   UNL     1     -12.289  13.460  -1.265  1.00  0.00     0.012 A 
ATOM     88  C   UNL     1     -11.588  12.653  -3.453  1.00  0.00     0.148 A 
ATOM     89  C   UNL     1     -13.019  14.482  -1.873  1.00  0.00     0.002 A 
ATOM     90  C   UNL     1     -12.290  13.691  -4.050  1.00  0.00     0.091 A 
ATOM     91  F   UNL     1     -10.898  11.757  -4.174  1.00  0.00    -0.205 F 
ATOM     92  C   UNL     1     -13.008  14.605  -3.261  1.00  0.00     0.022 A 
BRANCH  90  93
ATOM     93  S   UNL     1     -12.292  13.965  -5.825  1.00  0.00     0.127 S 
ATOM     94  O   UNL     1     -13.697  13.732  -6.159  1.00  0.00    -0.237 OA
ATOM     95  O   UNL     1     -11.865  15.360  -5.921  1.00  0.00    -0.237 OA
ATOM     96  O   UNL     1     -11.357  12.999  -6.386  1.00  0.00    -0.744 OA
ENDBRANCH  90  93
ENDBRANCH  63  86
ENDBRANCH  37  38
ENDBRANCH  30  32
ENDBRANCH  29  30
ENDBRANCH  28  29
ENDBRANCH  27  28
ENDBRANCH  26  27
ENDBRANCH   1  26
TORSDOF 21
