REMARK SMILES COc1ccc(NCc2cc(C(=O)OCCOCCOC(=O)c3ccc(-c4c5nc(c(-c6cccc(S(=O)(=O)[O-])c6F)c6ccc([nH]6)c(-c6cccc(S(=O)(=O)[O-])c6F)c6nc(c(-c7cccc(S(=O)(=O)[O-])c7F)c7ccc4[nH]7)C=C6)C=C5)cc3)cs2)cc1Br
REMARK SMILES IDX 16 1 15 2 14 3 12 4 13 5 11 6 9 7 10 8 87 9 86 10 8 11 7 12
REMARK SMILES IDX 6 14 3 15 4 16 89 17 5 18 88 19 90 20 2 21 1 22 17 23 18 24
REMARK SMILES IDX 19 25 20 26 21 27 22 28 23 29 24 30 85 31 25 32 84 33 26 34
REMARK SMILES IDX 27 35 28 36 78 37 29 38 83 39 77 40 79 41 30 42 82 43 76 44
REMARK SMILES IDX 75 45 31 47 63 48 43 49 62 50 44 51 47 52 61 53 80 54 45 55
REMARK SMILES IDX 46 56 60 58 81 59 48 60 32 61 33 62 41 63 34 64 36 65 42 66
REMARK SMILES IDX 35 67 37 68 38 69 39 70 40 71 64 72 65 73 73 74 66 75 68 76
REMARK SMILES IDX 74 77 67 78 69 79 70 80 71 81 72 82 49 83 50 84 58 85 51 86
REMARK SMILES IDX 53 87 59 88 52 89 54 90 55 91 56 92 57 93
REMARK H PARENT 7 13 79 46 47 57
REMARK Flexibility Score: inf
ROOT
ATOM      1  C   UNL     1       0.645  -5.794 -13.131  1.00  0.00     0.202 C 
ENDROOT
BRANCH   1   2
ATOM      2  C   UNL     1       2.099  -5.754 -12.650  1.00  0.00     0.261 C 
BRANCH   2   3
ATOM      3  O   UNL     1       2.147  -5.444 -11.246  1.00  0.00    -0.460 OA
BRANCH   3   4
ATOM      4  C   UNL     1       2.496  -4.164 -10.940  1.00  0.00     0.339 C 
ATOM      5  O   UNL     1       2.971  -3.357 -11.731  1.00  0.00    -0.246 OA
BRANCH   4   6
ATOM      6  C   UNL     1       2.108  -3.794  -9.580  1.00  0.00     0.071 A 
ATOM      7  C   UNL     1       1.486  -3.955  -7.318  1.00  0.00     0.025 A 
ATOM      8  C   UNL     1       1.863  -4.654  -8.452  1.00  0.00     0.033 A 
ATOM      9  S   UNL     1       1.340  -2.276  -7.641  1.00  0.00    -0.146 S 
ATOM     10  C   UNL     1       1.878  -2.473  -9.242  1.00  0.00     0.080 A 
BRANCH   7  11
ATOM     11  C   UNL     1       1.211  -4.461  -5.924  1.00  0.00     0.159 C 
BRANCH  11  12
ATOM     12  N   UNL     1       2.096  -3.863  -4.937  1.00  0.00    -0.380 N 
ATOM     13  H   UNL     1       3.060  -3.911  -5.133  1.00  0.00     0.160 HD
BRANCH  12  14
ATOM     14  C   UNL     1       1.749  -3.237  -3.760  1.00  0.00     0.036 A 
ATOM     15  C   UNL     1       1.197  -1.935  -1.302  1.00  0.00     0.133 A 
ATOM     16  C   UNL     1       0.186  -2.591  -2.002  1.00  0.00     0.050 A 
ATOM     17  C   UNL     1       2.493  -1.940  -1.815  1.00  0.00     0.062 A 
ATOM     18  C   UNL     1       0.461  -3.228  -3.221  1.00  0.00     0.029 A 
ATOM     19  C   UNL     1       2.755  -2.576  -3.036  1.00  0.00     0.045 A 
ATOM     20  Br  UNL     1       3.962  -1.167  -0.895  1.00  0.00    -0.047 Br
BRANCH  15  21
ATOM     21  O   UNL     1       0.861  -1.416  -0.081  1.00  0.00    -0.496 OA
ATOM     22  C   UNL     1       0.819   0.010  -0.090  1.00  0.00     0.278 C 
ENDBRANCH  15  21
ENDBRANCH  12  14
ENDBRANCH  11  12
ENDBRANCH   7  11
ENDBRANCH   4   6
ENDBRANCH   3   4
ENDBRANCH   2   3
ENDBRANCH   1   2
BRANCH   1  23
ATOM     23  O   UNL     1       0.016  -4.509 -13.159  1.00  0.00    -0.374 OA
BRANCH  23  24
ATOM     24  C   UNL     1      -0.686  -4.138 -11.969  1.00  0.00     0.202 C 
BRANCH  24  25
ATOM     25  C   UNL     1      -2.140  -4.614 -11.921  1.00  0.00     0.261 C 
BRANCH  25  26
ATOM     26  O   UNL     1      -2.195  -6.031 -11.679  1.00  0.00    -0.460 OA
BRANCH  26  27
ATOM     27  C   UNL     1      -2.553  -6.784 -12.745  1.00  0.00     0.338 C 
ATOM     28  O   UNL     1      -2.947  -6.383 -13.828  1.00  0.00    -0.246 OA
BRANCH  27  29
ATOM     29  C   UNL     1      -2.232  -8.203 -12.483  1.00  0.00     0.060 A 
ATOM     30  C   UNL     1      -1.651  -8.932 -13.529  1.00  0.00     0.016 A 
ATOM     31  C   UNL     1      -2.513  -8.822 -11.261  1.00  0.00     0.016 A 
ATOM     32  C   UNL     1      -1.400 -10.294 -13.376  1.00  0.00     0.010 A 
ATOM     33  C   UNL     1      -2.263 -10.190 -11.111  1.00  0.00     0.010 A 
ATOM     34  C   UNL     1      -1.740 -10.939 -12.180  1.00  0.00    -0.014 A 
BRANCH  34  35
ATOM     35  C   UNL     1      -1.674 -12.418 -12.104  1.00  0.00     0.031 A 
ATOM     36  C   UNL     1      -2.934 -13.215 -12.300  1.00  0.00     0.074 A 
ATOM     37  C   UNL     1      -0.507 -13.044 -11.871  1.00  0.00     0.049 A 
ATOM     38  N   UNL     1      -3.102 -14.511 -12.291  1.00  0.00    -0.248 NA
ATOM     39  C   UNL     1      -4.170 -12.450 -12.537  1.00  0.00     0.031 C 
ATOM     40  C   UNL     1       0.778 -12.381 -11.656  1.00  0.00     0.029 A 
ATOM     41  N   UNL     1      -0.221 -14.381 -11.758  1.00  0.00    -0.354 N 
ATOM     42  C   UNL     1      -4.459 -14.719 -12.501  1.00  0.00     0.074 A 
ATOM     43  C   UNL     1      -5.075 -13.415 -12.617  1.00  0.00     0.031 C 
ATOM     44  C   UNL     1       1.714 -13.316 -11.411  1.00  0.00     0.029 A 
ATOM     45  C   UNL     1       1.092 -14.639 -11.441  1.00  0.00     0.049 A 
ATOM     46  H   UNL     1      -0.891 -15.089 -11.893  1.00  0.00     0.167 HD
ATOM     47  C   UNL     1      -5.131 -15.889 -12.609  1.00  0.00     0.034 A 
ATOM     48  C   UNL     1       1.716 -15.807 -11.192  1.00  0.00     0.034 A 
ATOM     49  C   UNL     1      -4.517 -17.185 -12.520  1.00  0.00     0.049 A 
ATOM     50  C   UNL     1       0.943 -17.096 -11.310  1.00  0.00     0.074 A 
ATOM     51  C   UNL     1      -5.106 -18.428 -12.669  1.00  0.00     0.029 A 
ATOM     52  N   UNL     1      -3.176 -17.407 -12.249  1.00  0.00    -0.354 N 
ATOM     53  N   UNL     1      -0.311 -17.278 -11.647  1.00  0.00    -0.248 NA
ATOM     54  C   UNL     1       1.680 -18.342 -11.049  1.00  0.00     0.031 C 
ATOM     55  C   UNL     1      -4.122 -19.403 -12.474  1.00  0.00     0.029 A 
ATOM     56  C   UNL     1      -2.919 -18.766 -12.217  1.00  0.00     0.049 A 
ATOM     57  H   UNL     1      -2.506 -16.701 -12.101  1.00  0.00     0.167 HD
ATOM     58  C   UNL     1      -0.503 -18.656 -11.674  1.00  0.00     0.074 A 
ATOM     59  C   UNL     1       0.768 -19.262 -11.335  1.00  0.00     0.031 C 
ATOM     60  C   UNL     1      -1.634 -19.355 -11.940  1.00  0.00     0.034 A 
BRANCH  47  61
ATOM     61  C   UNL     1      -6.609 -15.820 -12.883  1.00  0.00     0.023 A 
ATOM     62  C   UNL     1      -7.056 -15.484 -14.177  1.00  0.00     0.012 A 
ATOM     63  C   UNL     1      -7.549 -16.136 -11.885  1.00  0.00     0.148 A 
ATOM     64  C   UNL     1      -8.419 -15.441 -14.468  1.00  0.00     0.002 A 
ATOM     65  C   UNL     1      -8.905 -16.127 -12.192  1.00  0.00     0.091 A 
ATOM     66  F   UNL     1      -7.104 -16.424 -10.654  1.00  0.00    -0.205 F 
ATOM     67  C   UNL     1      -9.342 -15.772 -13.479  1.00  0.00     0.022 A 
BRANCH  65  68
ATOM     68  S   UNL     1     -10.164 -16.603 -11.002  1.00  0.00     0.127 S 
ATOM     69  O   UNL     1     -10.727 -15.305 -10.633  1.00  0.00    -0.237 OA
ATOM     70  O   UNL     1     -11.050 -17.445 -11.806  1.00  0.00    -0.237 OA
ATOM     71  O   UNL     1      -9.460 -17.308  -9.940  1.00  0.00    -0.744 OA
ENDBRANCH  65  68
ENDBRANCH  47  61
BRANCH  48  72
ATOM     72  C   UNL     1       3.168 -15.816 -10.858  1.00  0.00     0.023 A 
ATOM     73  C   UNL     1       4.091 -16.327 -11.790  1.00  0.00     0.012 A 
ATOM     74  C   UNL     1       3.640 -15.297  -9.637  1.00  0.00     0.148 A 
ATOM     75  C   UNL     1       5.457 -16.344 -11.502  1.00  0.00     0.002 A 
ATOM     76  C   UNL     1       5.005 -15.268  -9.379  1.00  0.00     0.091 A 
ATOM     77  F   UNL     1       2.744 -14.836  -8.753  1.00  0.00    -0.205 F 
ATOM     78  C   UNL     1       5.915 -15.805 -10.303  1.00  0.00     0.022 A 
BRANCH  76  79
ATOM     79  S   UNL     1       5.684 -14.471  -7.919  1.00  0.00     0.127 S 
ATOM     80  O   UNL     1       6.048 -15.618  -7.092  1.00  0.00    -0.237 OA
ATOM     81  O   UNL     1       6.816 -13.727  -8.475  1.00  0.00    -0.237 OA
ATOM     82  O   UNL     1       4.613 -13.627  -7.405  1.00  0.00    -0.744 OA
ENDBRANCH  76  79
ENDBRANCH  48  72
BRANCH  60  83
ATOM     83  C   UNL     1      -1.555 -20.859 -11.909  1.00  0.00     0.023 A 
ATOM     84  C   UNL     1      -1.488 -21.527 -10.671  1.00  0.00     0.012 A 
ATOM     85  C   UNL     1      -1.640 -21.611 -13.098  1.00  0.00     0.148 A 
ATOM     86  C   UNL     1      -1.484 -22.920 -10.617  1.00  0.00     0.002 A 
ATOM     87  C   UNL     1      -1.678 -22.999 -13.034  1.00  0.00     0.091 A 
ATOM     88  F   UNL     1      -1.683 -20.957 -14.268  1.00  0.00    -0.205 F 
ATOM     89  C   UNL     1      -1.591 -23.655 -11.796  1.00  0.00     0.022 A 
BRANCH  87  90
ATOM     90  S   UNL     1      -1.909 -24.019 -14.495  1.00  0.00     0.127 S 
ATOM     91  O   UNL     1      -0.556 -24.526 -14.722  1.00  0.00    -0.237 OA
ATOM     92  O   UNL     1      -2.866 -25.024 -14.029  1.00  0.00    -0.237 OA
ATOM     93  O   UNL     1      -2.428 -23.128 -15.524  1.00  0.00    -0.744 OA
ENDBRANCH  87  90
ENDBRANCH  60  83
ENDBRANCH  34  35
ENDBRANCH  27  29
ENDBRANCH  26  27
ENDBRANCH  25  26
ENDBRANCH  24  25
ENDBRANCH  23  24
ENDBRANCH   1  23
TORSDOF 21
