REMARK SMILES CC1=C(C)C[C@@H](C(=O)OCCOCCOC(=O)c2ccc(-c3c4nc(c(-c5cccc(S(=O)(=O)[O-])c5F)c5ccc([nH]5)c(-c5cccc(S(=O)(=O)[O-])c5F)c5nc(c(-c6cccc(S(=O)(=O)[O-])c6F)c6ccc3[nH]6)C=C5)C=C4)cc2)[C@@H](C(=O)N2CCN(c3cccc(C(F)(F)F)c3)CC2)C1
REMARK SMILES IDX 12 1 11 2 10 3 9 4 7 5 8 6 6 7 1 8 2 9 3 10 100 11 4 12 5 13
REMARK SMILES IDX 81 14 82 15 83 16 84 17 85 18 99 19 86 20 98 21 87 22 88 23
REMARK SMILES IDX 89 24 97 25 90 26 92 27 91 28 93 29 94 30 95 31 96 32 13 33
REMARK SMILES IDX 14 34 15 35 16 36 17 37 18 38 19 39 80 40 20 41 79 42 21 43
REMARK SMILES IDX 22 44 23 45 73 46 24 47 78 48 72 49 74 50 25 51 77 52 71 53
REMARK SMILES IDX 70 54 26 56 58 57 38 58 57 59 39 60 42 61 56 62 75 63 40 64
REMARK SMILES IDX 41 65 55 67 76 68 43 69 27 70 28 71 36 72 29 73 31 74 37 75
REMARK SMILES IDX 30 76 32 77 33 78 34 79 35 80 59 81 60 82 68 83 61 84 63 85
REMARK SMILES IDX 69 86 62 87 64 88 65 89 66 90 67 91 44 92 45 93 53 94 46 95
REMARK SMILES IDX 48 96 54 97 47 98 49 99 50 100 51 101 52 102
REMARK H PARENT 74 55 42 66
REMARK Flexibility Score: inf
ROOT
ATOM      1  O   UNL     1      -4.173   5.038  -3.307  1.00  0.00    -0.374 OA
ENDROOT
BRANCH   1   2
ATOM      2  C   UNL     1      -4.274   3.997  -2.328  1.00  0.00     0.202 C 
BRANCH   2   3
ATOM      3  C   UNL     1      -3.701   2.650  -2.778  1.00  0.00     0.261 C 
BRANCH   3   4
ATOM      4  O   UNL     1      -2.271   2.544  -2.589  1.00  0.00    -0.463 OA
BRANCH   4   5
ATOM      5  C   UNL     1      -1.514   2.731  -3.693  1.00  0.00     0.310 C 
ATOM      6  O   UNL     1      -1.932   3.132  -4.776  1.00  0.00    -0.252 OA
BRANCH   5   7
ATOM      7  C   UNL     1      -0.077   2.288  -3.535  1.00  0.00     0.116 C 
ATOM      8  C   UNL     1       0.977  -0.099   0.073  1.00  0.00     0.039 C 
ATOM      9  C   UNL     1       0.692   0.589  -1.243  1.00  0.00    -0.074 C 
ATOM     10  C   UNL     1       0.189  -0.002  -2.343  1.00  0.00    -0.073 C 
ATOM     11  C   UNL     1       1.012   2.061  -1.190  1.00  0.00     0.045 C 
ATOM     12  C   UNL     1      -0.210  -1.453  -2.441  1.00  0.00     0.039 C 
ATOM     13  C   UNL     1      -0.019   0.758  -3.627  1.00  0.00     0.046 C 
ATOM     14  C   UNL     1       0.801   2.924  -2.455  1.00  0.00     0.097 C 
BRANCH  14  15
ATOM     15  C   UNL     1       0.408   4.330  -1.979  1.00  0.00     0.227 C 
ATOM     16  O   UNL     1      -0.287   4.502  -0.977  1.00  0.00    -0.275 OA
ATOM     17  N   UNL     1       0.977   5.423  -2.636  1.00  0.00    -0.339 N 
ATOM     18  C   UNL     1       1.075   6.644  -1.814  1.00  0.00     0.141 C 
ATOM     19  C   UNL     1       0.753   5.610  -4.078  1.00  0.00     0.141 C 
ATOM     20  C   UNL     1       1.835   7.800  -2.475  1.00  0.00     0.138 C 
ATOM     21  C   UNL     1       1.380   6.871  -4.710  1.00  0.00     0.138 C 
ATOM     22  N   UNL     1       1.270   8.016  -3.805  1.00  0.00    -0.368 N 
BRANCH  22  23
ATOM     23  C   UNL     1       1.099   9.290  -4.298  1.00  0.00     0.037 A 
ATOM     24  C   UNL     1       2.100  10.264  -4.216  1.00  0.00     0.026 A 
ATOM     25  C   UNL     1      -0.134   9.659  -4.853  1.00  0.00     0.039 A 
ATOM     26  C   UNL     1       1.882  11.566  -4.676  1.00  0.00     0.003 A 
ATOM     27  C   UNL     1      -0.384  10.972  -5.290  1.00  0.00     0.058 A 
ATOM     28  C   UNL     1       0.644  11.920  -5.206  1.00  0.00     0.013 A 
BRANCH  27  29
ATOM     29  C   UNL     1      -1.737  11.371  -5.821  1.00  0.00     0.416 C 
ATOM     30  F   UNL     1      -2.281  12.415  -5.135  1.00  0.00    -0.166 F 
ATOM     31  F   UNL     1      -1.682  11.775  -7.122  1.00  0.00    -0.166 F 
ATOM     32  F   UNL     1      -2.662  10.373  -5.782  1.00  0.00    -0.166 F 
ENDBRANCH  27  29
ENDBRANCH  22  23
ENDBRANCH  14  15
ENDBRANCH   5   7
ENDBRANCH   4   5
ENDBRANCH   3   4
ENDBRANCH   2   3
ENDBRANCH   1   2
BRANCH   1  33
ATOM     33  C   UNL     1      -2.922   5.725  -3.336  1.00  0.00     0.202 C 
BRANCH  33  34
ATOM     34  C   UNL     1      -2.851   6.906  -2.375  1.00  0.00     0.261 C 
BRANCH  34  35
ATOM     35  O   UNL     1      -2.810   6.389  -1.040  1.00  0.00    -0.460 OA
BRANCH  35  36
ATOM     36  C   UNL     1      -3.634   7.017  -0.180  1.00  0.00     0.338 C 
ATOM     37  O   UNL     1      -4.115   8.129  -0.302  1.00  0.00    -0.246 OA
BRANCH  36  38
ATOM     38  C   UNL     1      -4.087   6.043   0.826  1.00  0.00     0.060 A 
ATOM     39  C   UNL     1      -5.465   5.811   0.881  1.00  0.00     0.016 A 
ATOM     40  C   UNL     1      -3.215   5.416   1.720  1.00  0.00     0.016 A 
ATOM     41  C   UNL     1      -5.990   5.041   1.909  1.00  0.00     0.010 A 
ATOM     42  C   UNL     1      -3.748   4.640   2.756  1.00  0.00     0.010 A 
ATOM     43  C   UNL     1      -5.141   4.510   2.889  1.00  0.00    -0.014 A 
BRANCH  43  44
ATOM     44  C   UNL     1      -5.770   4.016   4.136  1.00  0.00     0.031 A 
ATOM     45  C   UNL     1      -5.849   4.943   5.319  1.00  0.00     0.074 A 
ATOM     46  C   UNL     1      -6.367   2.813   4.172  1.00  0.00     0.049 A 
ATOM     47  N   UNL     1      -6.526   4.811   6.429  1.00  0.00    -0.248 NA
ATOM     48  C   UNL     1      -5.067   6.188   5.236  1.00  0.00     0.031 C 
ATOM     49  C   UNL     1      -6.336   1.827   3.095  1.00  0.00     0.029 A 
ATOM     50  N   UNL     1      -7.121   2.222   5.153  1.00  0.00    -0.354 N 
ATOM     51  C   UNL     1      -6.249   5.949   7.178  1.00  0.00     0.074 A 
ATOM     52  C   UNL     1      -5.318   6.746   6.411  1.00  0.00     0.031 C 
ATOM     53  C   UNL     1      -7.033   0.744   3.478  1.00  0.00     0.029 A 
ATOM     54  C   UNL     1      -7.561   0.964   4.824  1.00  0.00     0.049 A 
ATOM     55  H   UNL     1      -7.327   2.659   6.011  1.00  0.00     0.167 HD
ATOM     56  C   UNL     1      -6.746   6.313   8.383  1.00  0.00     0.034 A 
ATOM     57  C   UNL     1      -8.311   0.092   5.528  1.00  0.00     0.034 A 
ATOM     58  C   UNL     1      -7.681   5.520   9.134  1.00  0.00     0.049 A 
ATOM     59  C   UNL     1      -8.872   0.522   6.857  1.00  0.00     0.074 A 
ATOM     60  C   UNL     1      -8.286   5.813  10.342  1.00  0.00     0.029 A 
ATOM     61  N   UNL     1      -8.135   4.267   8.750  1.00  0.00    -0.354 N 
ATOM     62  N   UNL     1      -8.725   1.665   7.484  1.00  0.00    -0.248 NA
ATOM     63  C   UNL     1      -9.742  -0.435   7.555  1.00  0.00     0.031 C 
ATOM     64  C   UNL     1      -9.088   4.723  10.702  1.00  0.00     0.029 A 
ATOM     65  C   UNL     1      -9.001   3.763   9.705  1.00  0.00     0.049 A 
ATOM     66  H   UNL     1      -7.880   3.803   7.920  1.00  0.00     0.167 HD
ATOM     67  C   UNL     1      -9.496   1.575   8.637  1.00  0.00     0.074 A 
ATOM     68  C   UNL     1     -10.133   0.273   8.607  1.00  0.00     0.031 C 
ATOM     69  C   UNL     1      -9.652   2.478   9.638  1.00  0.00     0.034 A 
BRANCH  56  70
ATOM     70  C   UNL     1      -6.300   7.638   8.943  1.00  0.00     0.023 A 
ATOM     71  C   UNL     1      -6.774   8.835   8.364  1.00  0.00     0.012 A 
ATOM     72  C   UNL     1      -5.425   7.705  10.043  1.00  0.00     0.148 A 
ATOM     73  C   UNL     1      -6.353  10.074   8.846  1.00  0.00     0.002 A 
ATOM     74  C   UNL     1      -5.041   8.945  10.544  1.00  0.00     0.091 A 
ATOM     75  F   UNL     1      -4.960   6.560  10.564  1.00  0.00    -0.205 F 
ATOM     76  C   UNL     1      -5.494  10.129   9.940  1.00  0.00     0.022 A 
BRANCH  74  77
ATOM     77  S   UNL     1      -3.990   9.113  11.991  1.00  0.00     0.127 S 
ATOM     78  O   UNL     1      -2.706   9.463  11.387  1.00  0.00    -0.237 OA
ATOM     79  O   UNL     1      -4.637  10.204  12.722  1.00  0.00    -0.237 OA
ATOM     80  O   UNL     1      -4.038   7.824  12.668  1.00  0.00    -0.744 OA
ENDBRANCH  74  77
ENDBRANCH  56  70
BRANCH  57  81
ATOM     81  C   UNL     1      -8.607  -1.246   4.945  1.00  0.00     0.023 A 
ATOM     82  C   UNL     1      -9.906  -1.550   4.495  1.00  0.00     0.012 A 
ATOM     83  C   UNL     1      -7.579  -2.194   4.768  1.00  0.00     0.148 A 
ATOM     84  C   UNL     1     -10.177  -2.779   3.889  1.00  0.00     0.002 A 
ATOM     85  C   UNL     1      -7.843  -3.390   4.112  1.00  0.00     0.091 A 
ATOM     86  F   UNL     1      -6.355  -1.894   5.224  1.00  0.00    -0.205 F 
ATOM     87  C   UNL     1      -9.144  -3.691   3.684  1.00  0.00     0.022 A 
BRANCH  85  88
ATOM     88  S   UNL     1      -6.543  -4.552   3.676  1.00  0.00     0.127 S 
ATOM     89  O   UNL     1      -6.812  -5.659   4.590  1.00  0.00    -0.237 OA
ATOM     90  O   UNL     1      -6.842  -4.827   2.270  1.00  0.00    -0.237 OA
ATOM     91  O   UNL     1      -5.291  -3.841   3.893  1.00  0.00    -0.744 OA
ENDBRANCH  85  88
ENDBRANCH  57  81
BRANCH  69  92
ATOM     92  C   UNL     1     -10.546   2.094  10.788  1.00  0.00     0.023 A 
ATOM     93  C   UNL     1     -10.100   1.144  11.727  1.00  0.00     0.012 A 
ATOM     94  C   UNL     1     -11.787   2.731  10.983  1.00  0.00     0.148 A 
ATOM     95  C   UNL     1     -10.889   0.809  12.827  1.00  0.00     0.002 A 
ATOM     96  C   UNL     1     -12.548   2.426  12.106  1.00  0.00     0.091 A 
ATOM     97  F   UNL     1     -12.203   3.619  10.068  1.00  0.00    -0.205 F 
ATOM     98  C   UNL     1     -12.106   1.458  13.022  1.00  0.00     0.022 A 
BRANCH  96  99
ATOM     99  S   UNL     1     -14.082   3.281  12.484  1.00  0.00     0.127 S 
ATOM    100  O   UNL     1     -15.081   2.285  12.102  1.00  0.00    -0.237 OA
ATOM    101  O   UNL     1     -13.968   3.509  13.925  1.00  0.00    -0.237 OA
ATOM    102  O   UNL     1     -14.067   4.497  11.682  1.00  0.00    -0.744 OA
ENDBRANCH  96  99
ENDBRANCH  69  92
ENDBRANCH  43  44
ENDBRANCH  36  38
ENDBRANCH  35  36
ENDBRANCH  34  35
ENDBRANCH  33  34
ENDBRANCH   1  33
TORSDOF 20
