REMARK SMILES CCn1ccc([C@@H](C)NC(=O)c2cnn([C@H](C)C(=O)OCCOCCOC(=O)c3ccc(-c4c5nc(c(-c6cccc(S(=O)(=O)[O-])c6F)c6ccc([nH]6)c(-c6cccc(S(=O)(=O)[O-])c6F)c6nc(c(-c7cccc(S(=O)(=O)[O-])c7F)c7ccc4[nH]7)C=C6)C=C5)cc3)c2)n1
REMARK SMILES IDX 22 1 21 2 20 3 18 4 19 5 16 6 17 7 15 8 12 9 13 10 92 11
REMARK SMILES IDX 14 12 10 13 9 14 11 16 7 17 8 18 6 19 3 20 4 21 93 22 5 23
REMARK SMILES IDX 2 24 1 25 23 26 24 27 25 28 26 29 27 30 28 31 29 32 30 33
REMARK SMILES IDX 91 34 31 35 90 36 32 37 33 38 34 39 84 40 35 41 89 42 83 43
REMARK SMILES IDX 85 44 36 45 88 46 82 47 81 48 37 50 69 51 49 52 68 53 50 54
REMARK SMILES IDX 53 55 67 56 86 57 51 58 52 59 66 61 87 62 54 63 38 64 39 65
REMARK SMILES IDX 47 66 40 67 42 68 48 69 41 70 43 71 44 72 45 73 46 74 70 75
REMARK SMILES IDX 71 76 79 77 72 78 74 79 80 80 73 81 75 82 76 83 77 84 78 85
REMARK SMILES IDX 55 86 56 87 64 88 57 89 59 90 65 91 58 92 60 93 61 94 62 95
REMARK SMILES IDX 63 96
REMARK H PARENT 9 15 85 49 53 60
REMARK Flexibility Score: inf
ROOT
ATOM      1  C   UNL     1      10.311   1.168  -6.155  1.00  0.00     0.202 C 
ENDROOT
BRANCH   1   2
ATOM      2  C   UNL     1       9.381   0.001  -5.830  1.00  0.00     0.261 C 
BRANCH   2   3
ATOM      3  O   UNL     1       8.293   0.410  -4.991  1.00  0.00    -0.462 OA
BRANCH   3   4
ATOM      4  C   UNL     1       8.331  -0.041  -3.710  1.00  0.00     0.330 C 
ATOM      5  O   UNL     1       9.212  -0.767  -3.256  1.00  0.00    -0.250 OA
BRANCH   4   6
ATOM      6  C   UNL     1       7.202   0.497  -2.853  1.00  0.00     0.213 C 
ATOM      7  C   UNL     1       6.542   1.806  -3.279  1.00  0.00     0.046 C 
BRANCH   6   8
ATOM      8  N   UNL     1       6.238  -0.564  -2.640  1.00  0.00    -0.258 N 
ATOM      9  C   UNL     1       5.126  -2.195  -1.697  1.00  0.00     0.077 A 
ATOM     10  C   UNL     1       5.041  -2.231  -3.106  1.00  0.00     0.149 A 
ATOM     11  C   UNL     1       5.832  -1.042  -1.429  1.00  0.00     0.123 A 
ATOM     12  N   UNL     1       5.714  -1.234  -3.684  1.00  0.00    -0.180 NA
BRANCH   9  13
ATOM     13  C   UNL     1       4.637  -3.122  -0.710  1.00  0.00     0.254 C 
ATOM     14  N   UNL     1       5.034  -4.428  -0.801  1.00  0.00    -0.344 N 
ATOM     15  H   UNL     1       4.583  -5.057  -0.193  1.00  0.00     0.164 HD
ATOM     16  O   UNL     1       3.925  -2.774   0.229  1.00  0.00    -0.269 OA
BRANCH  14  17
ATOM     17  C   UNL     1       6.040  -5.010  -1.686  1.00  0.00     0.130 C 
ATOM     18  C   UNL     1       5.391  -6.047  -2.595  1.00  0.00     0.038 C 
BRANCH  17  19
ATOM     19  C   UNL     1       7.152  -5.592  -0.851  1.00  0.00     0.084 A 
ATOM     20  N   UNL     1       9.139  -5.910  -0.169  1.00  0.00    -0.273 N 
ATOM     21  C   UNL     1       8.372  -6.740   0.600  1.00  0.00     0.109 A 
ATOM     22  N   UNL     1       8.420  -5.209  -1.060  1.00  0.00    -0.176 NA
ATOM     23  C   UNL     1       7.075  -6.558   0.183  1.00  0.00     0.047 A 
BRANCH  20  24
ATOM     24  C   UNL     1      10.581  -5.771  -0.083  1.00  0.00     0.141 C 
ATOM     25  C   UNL     1      11.230  -4.896  -1.147  1.00  0.00     0.029 C 
ENDBRANCH  20  24
ENDBRANCH  17  19
ENDBRANCH  14  17
ENDBRANCH   9  13
ENDBRANCH   6   8
ENDBRANCH   4   6
ENDBRANCH   3   4
ENDBRANCH   2   3
ENDBRANCH   1   2
BRANCH   1  26
ATOM     26  O   UNL     1      11.050   1.757  -5.084  1.00  0.00    -0.374 OA
BRANCH  26  27
ATOM     27  C   UNL     1      10.382   2.503  -4.070  1.00  0.00     0.202 C 
BRANCH  27  28
ATOM     28  C   UNL     1       9.768   3.845  -4.438  1.00  0.00     0.261 C 
BRANCH  28  29
ATOM     29  O   UNL     1       8.732   3.700  -5.394  1.00  0.00    -0.460 OA
BRANCH  29  30
ATOM     30  C   UNL     1       9.093   4.057  -6.648  1.00  0.00     0.338 C 
ATOM     31  O   UNL     1      10.221   4.243  -7.062  1.00  0.00    -0.246 OA
BRANCH  30  32
ATOM     32  C   UNL     1       7.880   4.347  -7.416  1.00  0.00     0.060 A 
ATOM     33  C   UNL     1       8.097   4.904  -8.676  1.00  0.00     0.016 A 
ATOM     34  C   UNL     1       6.645   4.429  -6.756  1.00  0.00     0.016 A 
ATOM     35  C   UNL     1       7.169   5.799  -9.141  1.00  0.00     0.010 A 
ATOM     36  C   UNL     1       5.727   5.336  -7.214  1.00  0.00     0.010 A 
ATOM     37  C   UNL     1       6.057   6.080  -8.341  1.00  0.00    -0.014 A 
BRANCH  37  38
ATOM     38  C   UNL     1       5.161   7.114  -8.792  1.00  0.00     0.031 A 
ATOM     39  C   UNL     1       4.339   6.638  -9.921  1.00  0.00     0.074 A 
ATOM     40  C   UNL     1       5.082   8.312  -8.185  1.00  0.00     0.049 A 
ATOM     41  N   UNL     1       4.482   6.931 -11.171  1.00  0.00    -0.248 NA
ATOM     42  C   UNL     1       3.440   5.500  -9.667  1.00  0.00     0.031 C 
ATOM     43  C   UNL     1       5.661   8.715  -6.899  1.00  0.00     0.029 A 
ATOM     44  N   UNL     1       4.338   9.393  -8.534  1.00  0.00    -0.354 N 
ATOM     45  C   UNL     1       3.480   6.212 -11.812  1.00  0.00     0.074 A 
ATOM     46  C   UNL     1       3.094   5.165 -10.909  1.00  0.00     0.031 C 
ATOM     47  C   UNL     1       5.032   9.832  -6.465  1.00  0.00     0.029 A 
ATOM     48  C   UNL     1       4.110  10.285  -7.492  1.00  0.00     0.049 A 
ATOM     49  H   UNL     1       3.991   9.532  -9.445  1.00  0.00     0.167 HD
ATOM     50  C   UNL     1       2.806   6.760 -12.858  1.00  0.00     0.034 A 
ATOM     51  C   UNL     1       3.153  11.247  -7.462  1.00  0.00     0.034 A 
ATOM     52  C   UNL     1       3.539   7.870 -13.417  1.00  0.00     0.049 A 
ATOM     53  C   UNL     1       2.716  11.474  -8.862  1.00  0.00     0.074 A 
ATOM     54  C   UNL     1       4.789   8.038 -13.978  1.00  0.00     0.029 A 
ATOM     55  N   UNL     1       3.106   9.124 -13.058  1.00  0.00    -0.354 N 
ATOM     56  N   UNL     1       3.484  11.987  -9.781  1.00  0.00    -0.248 NA
ATOM     57  C   UNL     1       1.581  10.707  -9.349  1.00  0.00     0.031 C 
ATOM     58  C   UNL     1       5.225   9.321 -13.535  1.00  0.00     0.029 A 
ATOM     59  C   UNL     1       4.198   9.900 -12.787  1.00  0.00     0.049 A 
ATOM     60  H   UNL     1       2.167   9.414 -13.006  1.00  0.00     0.167 HD
ATOM     61  C   UNL     1       3.213  11.230 -10.914  1.00  0.00     0.074 A 
ATOM     62  C   UNL     1       1.960  10.538 -10.618  1.00  0.00     0.031 C 
ATOM     63  C   UNL     1       4.182  11.002 -11.849  1.00  0.00     0.034 A 
BRANCH  50  64
ATOM     64  C   UNL     1       1.313   6.607 -13.076  1.00  0.00     0.023 A 
ATOM     65  C   UNL     1       0.784   7.193 -14.246  1.00  0.00     0.012 A 
ATOM     66  C   UNL     1       0.378   6.195 -12.095  1.00  0.00     0.148 A 
ATOM     67  C   UNL     1      -0.586   7.425 -14.397  1.00  0.00     0.002 A 
ATOM     68  C   UNL     1      -0.989   6.356 -12.282  1.00  0.00     0.091 A 
ATOM     69  F   UNL     1       0.786   5.759 -10.903  1.00  0.00    -0.205 F 
ATOM     70  C   UNL     1      -1.475   7.004 -13.416  1.00  0.00     0.022 A 
BRANCH  68  71
ATOM     71  S   UNL     1      -2.180   5.793 -11.057  1.00  0.00     0.127 S 
ATOM     72  O   UNL     1      -2.669   7.061 -10.524  1.00  0.00    -0.237 OA
ATOM     73  O   UNL     1      -3.133   5.058 -11.890  1.00  0.00    -0.237 OA
ATOM     74  O   UNL     1      -1.432   4.956 -10.128  1.00  0.00    -0.744 OA
ENDBRANCH  68  71
ENDBRANCH  50  64
BRANCH  51  75
ATOM     75  C   UNL     1       2.349  11.748  -6.320  1.00  0.00     0.023 A 
ATOM     76  C   UNL     1       1.656  12.972  -6.439  1.00  0.00     0.012 A 
ATOM     77  C   UNL     1       2.017  10.900  -5.240  1.00  0.00     0.148 A 
ATOM     78  C   UNL     1       0.644  13.321  -5.535  1.00  0.00     0.002 A 
ATOM     79  C   UNL     1       1.015  11.255  -4.341  1.00  0.00     0.091 A 
ATOM     80  F   UNL     1       2.614   9.706  -5.151  1.00  0.00    -0.205 F 
ATOM     81  C   UNL     1       0.317  12.459  -4.492  1.00  0.00     0.022 A 
BRANCH  79  82
ATOM     82  S   UNL     1       0.516  10.178  -2.989  1.00  0.00     0.127 S 
ATOM     83  O   UNL     1       0.567  11.089  -1.845  1.00  0.00    -0.237 OA
ATOM     84  O   UNL     1      -0.829   9.783  -3.398  1.00  0.00    -0.237 OA
ATOM     85  O   UNL     1       1.503   9.107  -2.947  1.00  0.00    -0.744 OA
ENDBRANCH  79  82
ENDBRANCH  51  75
BRANCH  63  86
ATOM     86  C   UNL     1       5.442  11.827 -11.772  1.00  0.00     0.023 A 
ATOM     87  C   UNL     1       6.356  11.739 -10.700  1.00  0.00     0.012 A 
ATOM     88  C   UNL     1       5.787  12.588 -12.899  1.00  0.00     0.148 A 
ATOM     89  C   UNL     1       7.580  12.414 -10.749  1.00  0.00     0.002 A 
ATOM     90  C   UNL     1       7.022  13.216 -12.966  1.00  0.00     0.091 A 
ATOM     91  F   UNL     1       4.904  12.660 -13.907  1.00  0.00    -0.205 F 
ATOM     92  C   UNL     1       7.919  13.140 -11.889  1.00  0.00     0.022 A 
BRANCH  90  93
ATOM     93  S   UNL     1       7.560  14.055 -14.456  1.00  0.00     0.127 S 
ATOM     94  O   UNL     1       7.443  15.461 -14.074  1.00  0.00    -0.237 OA
ATOM     95  O   UNL     1       8.934  13.573 -14.609  1.00  0.00    -0.237 OA
ATOM     96  O   UNL     1       6.657  13.616 -15.513  1.00  0.00    -0.744 OA
ENDBRANCH  90  93
ENDBRANCH  63  86
ENDBRANCH  37  38
ENDBRANCH  30  32
ENDBRANCH  29  30
ENDBRANCH  28  29
ENDBRANCH  27  28
ENDBRANCH  26  27
ENDBRANCH   1  26
TORSDOF 22
