REMARK SMILES O=C(Cc1ccccc1Nc1c(Cl)cccc1C(F)(F)F)OCCOCCOC(=O)c1ccc(-c2c3nc(c(-c4cccc(S(=O)(=O)[O-])c4F)c4ccc([nH]4)c(-c4cccc(S(=O)(=O)[O-])c4F)c4nc(c(-c5cccc(S(=O)(=O)[O-])c5F)c5ccc2[nH]5)C=C4)C=C3)cc1
REMARK SMILES IDX 24 1 23 2 22 3 2 4 1 5 3 6 4 7 5 8 9 9 6 10 8 11 7 12 10 13
REMARK SMILES IDX 11 15 12 16 17 17 13 18 14 19 16 20 15 21 18 22 19 23 20 24
REMARK SMILES IDX 21 25 25 26 26 27 27 28 28 29 29 30 30 31 31 32 32 33 93 34
REMARK SMILES IDX 33 35 92 36 34 37 35 38 36 39 86 40 37 41 91 42 85 43 87 44
REMARK SMILES IDX 38 45 90 46 84 47 83 48 39 50 71 51 51 52 70 53 52 54 55 55
REMARK SMILES IDX 69 56 88 57 53 58 54 59 68 61 89 62 56 63 40 64 41 65 49 66
REMARK SMILES IDX 42 67 44 68 50 69 43 70 45 71 46 72 47 73 48 74 72 75 73 76
REMARK SMILES IDX 81 77 74 78 76 79 82 80 75 81 77 82 78 83 79 84 80 85 57 86
REMARK SMILES IDX 58 87 66 88 59 89 61 90 67 91 60 92 62 93 63 94 64 95 65 96
REMARK H PARENT 10 14 87 49 55 60
REMARK Flexibility Score: inf
ROOT
ATOM      1  C   UNL     1       4.936  -1.176   1.243  1.00  0.00     0.202 C 
ENDROOT
BRANCH   1   2
ATOM      2  C   UNL     1       4.454   0.146   0.641  1.00  0.00     0.261 C 
BRANCH   2   3
ATOM      3  O   UNL     1       3.036   0.334   0.489  1.00  0.00    -0.463 OA
BRANCH   3   4
ATOM      4  C   UNL     1       2.229  -0.236  -0.435  1.00  0.00     0.310 C 
ATOM      5  O   UNL     1       1.014  -0.048  -0.368  1.00  0.00    -0.252 OA
BRANCH   4   6
ATOM      6  C   UNL     1       2.808  -1.139  -1.481  1.00  0.00     0.160 C 
BRANCH   6   7
ATOM      7  C   UNL     1       3.935  -0.651  -2.365  1.00  0.00    -0.013 A 
ATOM      8  C   UNL     1       4.763  -1.665  -2.897  1.00  0.00     0.006 A 
ATOM      9  C   UNL     1       4.161   0.695  -2.735  1.00  0.00     0.042 A 
ATOM     10  C   UNL     1       5.808  -1.365  -3.763  1.00  0.00     0.000 A 
ATOM     11  C   UNL     1       5.220   0.970  -3.616  1.00  0.00     0.026 A 
ATOM     12  C   UNL     1       6.036  -0.045  -4.123  1.00  0.00     0.002 A 
BRANCH   9  13
ATOM     13  N   UNL     1       3.371   1.744  -2.213  1.00  0.00    -0.354 N 
ATOM     14  H   UNL     1       2.814   1.493  -1.442  1.00  0.00     0.167 HD
BRANCH  13  15
ATOM     15  C   UNL     1       3.247   3.096  -2.617  1.00  0.00     0.070 A 
ATOM     16  C   UNL     1       3.576   4.116  -1.686  1.00  0.00     0.065 A 
ATOM     17  C   UNL     1       2.847   3.471  -3.912  1.00  0.00     0.080 A 
ATOM     18  Cl  UNL     1       4.063   3.715  -0.070  1.00  0.00    -0.082 Cl
ATOM     19  C   UNL     1       3.531   5.465  -2.031  1.00  0.00     0.023 A 
ATOM     20  C   UNL     1       2.829   4.843  -4.249  1.00  0.00     0.015 A 
ATOM     21  C   UNL     1       3.165   5.828  -3.320  1.00  0.00     0.002 A 
BRANCH  17  22
ATOM     22  C   UNL     1       2.399   2.476  -4.954  1.00  0.00     0.418 C 
ATOM     23  F   UNL     1       1.501   3.018  -5.835  1.00  0.00    -0.166 F 
ATOM     24  F   UNL     1       3.425   2.034  -5.736  1.00  0.00    -0.166 F 
ATOM     25  F   UNL     1       1.775   1.365  -4.473  1.00  0.00    -0.166 F 
ENDBRANCH  17  22
ENDBRANCH  13  15
ENDBRANCH   9  13
ENDBRANCH   6   7
ENDBRANCH   4   6
ENDBRANCH   3   4
ENDBRANCH   2   3
ENDBRANCH   1   2
BRANCH   1  26
ATOM     26  O   UNL     1       4.010  -2.234   1.413  1.00  0.00    -0.374 OA
BRANCH  26  27
ATOM     27  C   UNL     1       2.876  -2.046   2.258  1.00  0.00     0.202 C 
BRANCH  27  28
ATOM     28  C   UNL     1       3.066  -1.456   3.657  1.00  0.00     0.261 C 
BRANCH  28  29
ATOM     29  O   UNL     1       3.444  -0.068   3.638  1.00  0.00    -0.460 OA
BRANCH  29  30
ATOM     30  C   UNL     1       4.621   0.207   4.242  1.00  0.00     0.338 C 
ATOM     31  O   UNL     1       5.408  -0.604   4.716  1.00  0.00    -0.246 OA
BRANCH  30  32
ATOM     32  C   UNL     1       4.940   1.641   4.171  1.00  0.00     0.060 A 
ATOM     33  C   UNL     1       6.212   2.000   3.706  1.00  0.00     0.016 A 
ATOM     34  C   UNL     1       4.082   2.598   4.719  1.00  0.00     0.016 A 
ATOM     35  C   UNL     1       6.670   3.303   3.876  1.00  0.00     0.010 A 
ATOM     36  C   UNL     1       4.547   3.904   4.894  1.00  0.00     0.010 A 
ATOM     37  C   UNL     1       5.863   4.241   4.533  1.00  0.00    -0.014 A 
BRANCH  37  38
ATOM     38  C   UNL     1       6.479   5.490   5.041  1.00  0.00     0.031 A 
ATOM     39  C   UNL     1       6.923   5.540   6.480  1.00  0.00     0.074 A 
ATOM     40  C   UNL     1       6.657   6.551   4.237  1.00  0.00     0.049 A 
ATOM     41  N   UNL     1       7.500   6.511   7.137  1.00  0.00    -0.248 NA
ATOM     42  C   UNL     1       6.680   4.332   7.287  1.00  0.00     0.031 C 
ATOM     43  C   UNL     1       6.273   6.617   2.829  1.00  0.00     0.029 A 
ATOM     44  N   UNL     1       7.196   7.785   4.501  1.00  0.00    -0.354 N 
ATOM     45  C   UNL     1       7.659   6.047   8.438  1.00  0.00     0.074 A 
ATOM     46  C   UNL     1       7.107   4.711   8.482  1.00  0.00     0.031 C 
ATOM     47  C   UNL     1       6.572   7.839   2.355  1.00  0.00     0.029 A 
ATOM     48  C   UNL     1       7.154   8.643   3.429  1.00  0.00     0.049 A 
ATOM     49  H   UNL     1       7.577   8.031   5.375  1.00  0.00     0.167 HD
ATOM     50  C   UNL     1       8.228   6.668   9.499  1.00  0.00     0.034 A 
ATOM     51  C   UNL     1       7.538   9.931   3.332  1.00  0.00     0.034 A 
ATOM     52  C   UNL     1       8.801   7.984   9.444  1.00  0.00     0.049 A 
ATOM     53  C   UNL     1       8.170  10.601   4.526  1.00  0.00     0.074 A 
ATOM     54  C   UNL     1       9.450   8.684  10.445  1.00  0.00     0.029 A 
ATOM     55  N   UNL     1       8.785   8.805   8.327  1.00  0.00    -0.354 N 
ATOM     56  N   UNL     1       8.430  10.104   5.712  1.00  0.00    -0.248 NA
ATOM     57  C   UNL     1       8.598  11.997   4.356  1.00  0.00     0.031 C 
ATOM     58  C   UNL     1       9.810   9.938   9.937  1.00  0.00     0.029 A 
ATOM     59  C   UNL     1       9.405  10.008   8.613  1.00  0.00     0.049 A 
ATOM     60  H   UNL     1       8.390   8.567   7.457  1.00  0.00     0.167 HD
ATOM     61  C   UNL     1       9.094  11.107   6.411  1.00  0.00     0.074 A 
ATOM     62  C   UNL     1       9.204  12.237   5.511  1.00  0.00     0.031 C 
ATOM     63  C   UNL     1       9.563  11.098   7.684  1.00  0.00     0.034 A 
BRANCH  50  64
ATOM     64  C   UNL     1       8.277   5.913  10.802  1.00  0.00     0.023 A 
ATOM     65  C   UNL     1       9.166   4.829  10.949  1.00  0.00     0.012 A 
ATOM     66  C   UNL     1       7.466   6.293  11.889  1.00  0.00     0.148 A 
ATOM     67  C   UNL     1       9.220   4.111  12.143  1.00  0.00     0.002 A 
ATOM     68  C   UNL     1       7.556   5.599  13.091  1.00  0.00     0.091 A 
ATOM     69  F   UNL     1       6.606   7.308  11.723  1.00  0.00    -0.205 F 
ATOM     70  C   UNL     1       8.423   4.501  13.216  1.00  0.00     0.022 A 
BRANCH  68  71
ATOM     71  S   UNL     1       6.622   6.079  14.548  1.00  0.00     0.127 S 
ATOM     72  O   UNL     1       5.566   5.068  14.569  1.00  0.00    -0.237 OA
ATOM     73  O   UNL     1       7.617   5.942  15.614  1.00  0.00    -0.237 OA
ATOM     74  O   UNL     1       6.184   7.446  14.306  1.00  0.00    -0.744 OA
ENDBRANCH  68  71
ENDBRANCH  50  64
BRANCH  51  75
ATOM     75  C   UNL     1       7.404  10.647   2.033  1.00  0.00     0.023 A 
ATOM     76  C   UNL     1       8.562  10.974   1.302  1.00  0.00     0.012 A 
ATOM     77  C   UNL     1       6.141  10.973   1.501  1.00  0.00     0.148 A 
ATOM     78  C   UNL     1       8.467  11.635   0.077  1.00  0.00     0.002 A 
ATOM     79  C   UNL     1       6.051  11.581   0.254  1.00  0.00     0.091 A 
ATOM     80  F   UNL     1       5.051  10.665   2.219  1.00  0.00    -0.205 F 
ATOM     81  C   UNL     1       7.213  11.929  -0.452  1.00  0.00     0.022 A 
BRANCH  79  82
ATOM     82  S   UNL     1       4.481  11.873  -0.568  1.00  0.00     0.127 S 
ATOM     83  O   UNL     1       4.410  13.332  -0.571  1.00  0.00    -0.237 OA
ATOM     84  O   UNL     1       4.711  11.263  -1.879  1.00  0.00    -0.237 OA
ATOM     85  O   UNL     1       3.478  11.193   0.240  1.00  0.00    -0.744 OA
ENDBRANCH  79  82
ENDBRANCH  51  75
BRANCH  63  86
ATOM     86  C   UNL     1      10.286  12.326   8.173  1.00  0.00     0.023 A 
ATOM     87  C   UNL     1       9.563  13.498   8.469  1.00  0.00     0.012 A 
ATOM     88  C   UNL     1      11.675  12.291   8.414  1.00  0.00     0.148 A 
ATOM     89  C   UNL     1      10.216  14.627   8.965  1.00  0.00     0.002 A 
ATOM     90  C   UNL     1      12.310  13.404   8.953  1.00  0.00     0.091 A 
ATOM     91  F   UNL     1      12.351  11.174   8.107  1.00  0.00    -0.205 F 
ATOM     92  C   UNL     1      11.585  14.576   9.218  1.00  0.00     0.022 A 
BRANCH  90  93
ATOM     93  S   UNL     1      14.050  13.383   9.400  1.00  0.00     0.127 S 
ATOM     94  O   UNL     1      14.655  14.100   8.280  1.00  0.00    -0.237 OA
ATOM     95  O   UNL     1      14.058  14.116  10.668  1.00  0.00    -0.237 OA
ATOM     96  O   UNL     1      14.411  11.977   9.519  1.00  0.00    -0.744 OA
ENDBRANCH  90  93
ENDBRANCH  63  86
ENDBRANCH  37  38
ENDBRANCH  30  32
ENDBRANCH  29  30
ENDBRANCH  28  29
ENDBRANCH  27  28
ENDBRANCH  26  27
ENDBRANCH   1  26
TORSDOF 21
