REMARK SMILES COc1cc(OC(F)(F)F)cc2c1O[C@@H](C(F)(F)F)C(C(=O)OCCOCCOC(=O)c1ccc(-c3c4nc(c(-c5cccc(S(=O)(=O)[O-])c5F)c5ccc([nH]5)c(-c5cccc(S(=O)(=O)[O-])c5F)c5nc(c(-c6cccc(S(=O)(=O)[O-])c6F)c6ccc3[nH]6)C=C5)C=C4)cc1)=C2
REMARK SMILES IDX 27 1 26 2 25 3 24 4 23 5 21 6 22 7 20 8 3 9 4 10 13 11 5 12
REMARK SMILES IDX 12 13 14 14 11 15 95 16 15 17 2 18 1 19 6 20 7 21 8 22 9 23
REMARK SMILES IDX 10 24 16 25 17 26 18 27 19 28 28 29 29 30 30 31 31 32 32 33
REMARK SMILES IDX 33 34 94 35 34 36 93 37 35 38 36 39 37 40 87 41 38 42 92 43
REMARK SMILES IDX 86 44 88 45 39 46 91 47 85 48 84 49 40 51 72 52 52 53 71 54
REMARK SMILES IDX 53 55 56 56 70 57 89 58 54 59 55 60 69 62 90 63 57 64 41 65
REMARK SMILES IDX 42 66 50 67 43 68 45 69 51 70 44 71 46 72 47 73 48 74 49 75
REMARK SMILES IDX 73 76 74 77 82 78 75 79 77 80 83 81 76 82 78 83 79 84 80 85
REMARK SMILES IDX 81 86 58 87 59 88 67 89 60 90 62 91 68 92 61 93 63 94 64 95
REMARK SMILES IDX 65 96 66 97
REMARK H PARENT 88 50 56 61
REMARK Flexibility Score: inf
ROOT
ATOM      1  C   UNL     1       7.018   0.714   4.028  1.00  0.00     0.202 C 
ENDROOT
BRANCH   1   2
ATOM      2  O   UNL     1       8.373   0.972   3.671  1.00  0.00    -0.374 OA
BRANCH   2   3
ATOM      3  C   UNL     1       8.850   2.314   3.710  1.00  0.00     0.202 C 
BRANCH   3   4
ATOM      4  C   UNL     1       8.359   3.295   2.639  1.00  0.00     0.261 C 
BRANCH   4   5
ATOM      5  O   UNL     1       6.927   3.345   2.560  1.00  0.00    -0.460 OA
BRANCH   5   6
ATOM      6  C   UNL     1       6.410   2.841   1.417  1.00  0.00     0.338 C 
ATOM      7  O   UNL     1       7.036   2.470   0.435  1.00  0.00    -0.246 OA
BRANCH   6   8
ATOM      8  C   UNL     1       4.958   2.642   1.538  1.00  0.00     0.087 C 
ATOM      9  C   UNL     1       0.880   2.260   0.733  1.00  0.00     0.165 A 
ATOM     10  C   UNL     1      -0.016   3.188   1.274  1.00  0.00     0.097 A 
ATOM     11  C   UNL     1       2.242   2.369   1.029  1.00  0.00     0.170 A 
ATOM     12  C   UNL     1       0.429   4.199   2.130  1.00  0.00     0.134 A 
ATOM     13  C   UNL     1       2.709   3.400   1.867  1.00  0.00     0.025 A 
ATOM     14  O   UNL     1       3.123   1.528   0.398  1.00  0.00    -0.471 OA
ATOM     15  C   UNL     1       1.793   4.291   2.434  1.00  0.00     0.059 A 
ATOM     16  C   UNL     1       4.155   3.619   1.993  1.00  0.00     0.027 C 
ATOM     17  C   UNL     1       4.362   1.321   1.117  1.00  0.00     0.316 C 
BRANCH   9  18
ATOM     18  O   UNL     1       0.312   1.365  -0.136  1.00  0.00    -0.493 OA
ATOM     19  C   UNL     1       0.803   0.031  -0.061  1.00  0.00     0.278 C 
ENDBRANCH   9  18
BRANCH  12  20
ATOM     20  O   UNL     1      -0.352   5.161   2.706  1.00  0.00    -0.406 OA
BRANCH  20  21
ATOM     21  C   UNL     1      -1.693   5.276   2.256  1.00  0.00     0.573 C 
ATOM     22  F   UNL     1      -1.749   5.459   0.919  1.00  0.00    -0.132 F 
ATOM     23  F   UNL     1      -2.409   4.180   2.589  1.00  0.00    -0.132 F 
ATOM     24  F   UNL     1      -2.266   6.346   2.849  1.00  0.00    -0.132 F 
ENDBRANCH  20  21
ENDBRANCH  12  20
BRANCH  17  25
ATOM     25  C   UNL     1       5.216   0.312   0.331  1.00  0.00     0.430 C 
ATOM     26  F   UNL     1       6.317  -0.056   1.026  1.00  0.00    -0.167 F 
ATOM     27  F   UNL     1       4.502  -0.834   0.142  1.00  0.00    -0.167 F 
ATOM     28  F   UNL     1       5.583   0.745  -0.890  1.00  0.00    -0.167 F 
ENDBRANCH  17  25
ENDBRANCH   6   8
ENDBRANCH   5   6
ENDBRANCH   4   5
ENDBRANCH   3   4
ENDBRANCH   2   3
ENDBRANCH   1   2
BRANCH   1  29
ATOM     29  C   UNL     1       6.577   0.898   5.485  1.00  0.00     0.261 C 
BRANCH  29  30
ATOM     30  O   UNL     1       6.764   2.233   5.974  1.00  0.00    -0.460 OA
BRANCH  30  31
ATOM     31  C   UNL     1       7.756   2.347   6.892  1.00  0.00     0.338 C 
ATOM     32  O   UNL     1       8.438   1.443   7.353  1.00  0.00    -0.246 OA
BRANCH  31  33
ATOM     33  C   UNL     1       8.061   3.764   7.144  1.00  0.00     0.060 A 
ATOM     34  C   UNL     1       9.388   4.174   6.960  1.00  0.00     0.016 A 
ATOM     35  C   UNL     1       7.106   4.641   7.660  1.00  0.00     0.016 A 
ATOM     36  C   UNL     1       9.786   5.440   7.367  1.00  0.00     0.010 A 
ATOM     37  C   UNL     1       7.510   5.915   8.073  1.00  0.00     0.010 A 
ATOM     38  C   UNL     1       8.862   6.294   7.982  1.00  0.00    -0.014 A 
BRANCH  38  39
ATOM     39  C   UNL     1       9.369   7.489   8.696  1.00  0.00     0.031 A 
ATOM     40  C   UNL     1       9.491   7.444  10.195  1.00  0.00     0.074 A 
ATOM     41  C   UNL     1       9.773   8.576   8.016  1.00  0.00     0.049 A 
ATOM     42  N   UNL     1       9.949   8.351  11.017  1.00  0.00    -0.248 NA
ATOM     43  C   UNL     1       9.030   6.212  10.857  1.00  0.00     0.031 C 
ATOM     44  C   UNL     1       9.705   8.735   6.565  1.00  0.00     0.029 A 
ATOM     45  N   UNL     1      10.306   9.756   8.464  1.00  0.00    -0.354 N 
ATOM     46  C   UNL     1       9.810   7.812  12.291  1.00  0.00     0.074 A 
ATOM     47  C   UNL     1       9.197   6.511  12.135  1.00  0.00     0.031 C 
ATOM     48  C   UNL     1      10.160   9.957   6.242  1.00  0.00     0.029 A 
ATOM     49  C   UNL     1      10.531  10.669   7.463  1.00  0.00     0.049 A 
ATOM     50  H   UNL     1      10.509   9.932   9.411  1.00  0.00     0.167 HD
ATOM     51  C   UNL     1      10.178   8.340  13.483  1.00  0.00     0.034 A 
ATOM     52  C   UNL     1      10.972  11.940   7.529  1.00  0.00     0.034 A 
ATOM     53  C   UNL     1      10.796   9.630  13.633  1.00  0.00     0.049 A 
ATOM     54  C   UNL     1      11.370  12.513   8.862  1.00  0.00     0.074 A 
ATOM     55  C   UNL     1      11.236  10.246  14.791  1.00  0.00     0.029 A 
ATOM     56  N   UNL     1      11.050  10.510  12.591  1.00  0.00    -0.354 N 
ATOM     57  N   UNL     1      11.326  11.954  10.048  1.00  0.00    -0.248 NA
ATOM     58  C   UNL     1      11.923  13.874   8.861  1.00  0.00     0.031 C 
ATOM     59  C   UNL     1      11.727  11.513  14.452  1.00  0.00     0.029 A 
ATOM     60  C   UNL     1      11.636  11.666  13.078  1.00  0.00     0.049 A 
ATOM     61  H   UNL     1      10.844  10.338  11.644  1.00  0.00     0.167 HD
ATOM     62  C   UNL     1      11.883  12.877  10.927  1.00  0.00     0.074 A 
ATOM     63  C   UNL     1      12.271  14.024  10.132  1.00  0.00     0.031 C 
ATOM     64  C   UNL     1      12.056  12.784  12.270  1.00  0.00     0.034 A 
BRANCH  51  65
ATOM     65  C   UNL     1       9.927   7.507  14.715  1.00  0.00     0.023 A 
ATOM     66  C   UNL     1      10.673   6.329  14.931  1.00  0.00     0.012 A 
ATOM     67  C   UNL     1       8.963   7.895  15.666  1.00  0.00     0.148 A 
ATOM     68  C   UNL     1      10.429   5.526  16.045  1.00  0.00     0.002 A 
ATOM     69  C   UNL     1       8.761   7.116  16.799  1.00  0.00     0.091 A 
ATOM     70  F   UNL     1       8.246   9.004  15.434  1.00  0.00    -0.205 F 
ATOM     71  C   UNL     1       9.481   5.924  16.983  1.00  0.00     0.022 A 
BRANCH  69  72
ATOM     72  S   UNL     1       7.621   7.588  18.104  1.00  0.00     0.127 S 
ATOM     73  O   UNL     1       6.535   6.629  17.908  1.00  0.00    -0.237 OA
ATOM     74  O   UNL     1       8.421   7.365  19.309  1.00  0.00    -0.237 OA
ATOM     75  O   UNL     1       7.280   8.982  17.853  1.00  0.00    -0.744 OA
ENDBRANCH  69  72
ENDBRANCH  51  65
BRANCH  52  76
ATOM     76  C   UNL     1      11.092  12.739   6.278  1.00  0.00     0.023 A 
ATOM     77  C   UNL     1      12.364  13.065   5.770  1.00  0.00     0.012 A 
ATOM     78  C   UNL     1       9.943  13.137   5.568  1.00  0.00     0.148 A 
ATOM     79  C   UNL     1      12.488  13.797   4.588  1.00  0.00     0.002 A 
ATOM     80  C   UNL     1      10.075  13.815   4.363  1.00  0.00     0.091 A 
ATOM     81  F   UNL     1       8.743  12.823   6.077  1.00  0.00    -0.205 F 
ATOM     82  C   UNL     1      11.346  14.161   3.880  1.00  0.00     0.022 A 
BRANCH  80  83
ATOM     83  S   UNL     1       8.668  14.204   3.317  1.00  0.00     0.127 S 
ATOM     84  O   UNL     1       8.659  15.664   3.359  1.00  0.00    -0.237 OA
ATOM     85  O   UNL     1       9.079  13.624   2.038  1.00  0.00    -0.237 OA
ATOM     86  O   UNL     1       7.522  13.549   3.934  1.00  0.00    -0.744 OA
ENDBRANCH  80  83
ENDBRANCH  52  76
BRANCH  64  87
ATOM     87  C   UNL     1      12.745  13.932  12.965  1.00  0.00     0.023 A 
ATOM     88  C   UNL     1      12.095  15.175  13.103  1.00  0.00     0.012 A 
ATOM     89  C   UNL     1      14.025  13.757  13.527  1.00  0.00     0.148 A 
ATOM     90  C   UNL     1      12.729  16.238  13.746  1.00  0.00     0.002 A 
ATOM     91  C   UNL     1      14.627  14.804  14.215  1.00  0.00     0.091 A 
ATOM     92  F   UNL     1      14.638  12.574  13.371  1.00  0.00    -0.205 F 
ATOM     93  C   UNL     1      13.988  16.050  14.311  1.00  0.00     0.022 A 
BRANCH  91  94
ATOM     94  S   UNL     1      16.202  14.616  15.059  1.00  0.00     0.127 S 
ATOM     95  O   UNL     1      17.108  15.331  14.162  1.00  0.00    -0.237 OA
ATOM     96  O   UNL     1      15.952  15.286  16.336  1.00  0.00    -0.237 OA
ATOM     97  O   UNL     1      16.428  13.181  15.167  1.00  0.00    -0.744 OA
ENDBRANCH  91  94
ENDBRANCH  64  87
ENDBRANCH  38  39
ENDBRANCH  31  33
ENDBRANCH  30  31
ENDBRANCH  29  30
ENDBRANCH   1  29
TORSDOF 21
