REMARK SMILES Cc1ccnc(C(=O)c2[nH]c3ccc(C(C)(C)C)cc3c2CC(=O)OCCOCCOC(=O)c2ccc(-c3c4nc(c(-c5cccc(S(=O)(=O)[O-])c5F)c5ccc([nH]5)c(-c5cccc(S(=O)(=O)[O-])c5F)c5nc(c(-c6cccc(S(=O)(=O)[O-])c6F)c6ccc3[nH]6)C=C5)C=C4)cc2)c1
REMARK SMILES IDX 28 1 27 2 26 3 25 4 23 5 24 6 22 7 21 8 9 9 10 10 11 11
REMARK SMILES IDX 20 13 12 14 19 15 13 16 14 17 7 18 8 19 6 20 1 21 2 22 3 23
REMARK SMILES IDX 97 24 4 25 5 26 15 27 16 28 17 29 18 30 29 31 30 32 31 33
REMARK SMILES IDX 32 34 33 35 34 36 35 37 96 38 36 39 95 40 37 41 38 42 39 43
REMARK SMILES IDX 89 44 40 45 94 46 88 47 90 48 41 49 93 50 87 51 86 52 42 54
REMARK SMILES IDX 74 55 54 56 73 57 55 58 58 59 72 60 91 61 56 62 57 63 71 65
REMARK SMILES IDX 92 66 59 67 43 68 44 69 52 70 45 71 47 72 53 73 46 74 48 75
REMARK SMILES IDX 49 76 50 77 51 78 75 79 76 80 84 81 77 82 79 83 85 84 78 85
REMARK SMILES IDX 80 86 81 87 82 88 83 89 60 90 61 91 69 92 62 93 64 94 70 95
REMARK SMILES IDX 63 96 65 97 66 98 67 99 68 100
REMARK H PARENT 10 12 90 53 58 64
REMARK Flexibility Score: inf
ROOT
ATOM      1  O   UNL     1       5.932  -3.307   0.346  1.00  0.00    -0.374 OA
ENDROOT
BRANCH   1   2
ATOM      2  C   UNL     1       6.029  -4.731   0.299  1.00  0.00     0.202 C 
BRANCH   2   3
ATOM      3  C   UNL     1       5.365  -5.544   1.418  1.00  0.00     0.261 C 
BRANCH   3   4
ATOM      4  O   UNL     1       3.930  -5.393   1.462  1.00  0.00    -0.463 OA
BRANCH   4   5
ATOM      5  C   UNL     1       3.425  -4.977   2.655  1.00  0.00     0.310 C 
ATOM      6  O   UNL     1       4.107  -4.788   3.662  1.00  0.00    -0.252 OA
BRANCH   5   7
ATOM      7  C   UNL     1       1.922  -4.826   2.707  1.00  0.00     0.161 C 
BRANCH   7   8
ATOM      8  C   UNL     1       1.146  -4.740   1.418  1.00  0.00     0.000 A 
ATOM      9  C   UNL     1       0.859  -3.600   0.660  1.00  0.00     0.093 A 
ATOM     10  N   UNL     1       0.142  -4.034  -0.439  1.00  0.00    -0.352 N 
ATOM     11  C   UNL     1      -0.314  -5.316  -0.238  1.00  0.00     0.046 A 
ATOM     12  H   UNL     1      -0.020  -3.500  -1.251  1.00  0.00     0.167 HD
ATOM     13  C   UNL     1       0.323  -5.789   0.900  1.00  0.00     0.004 A 
ATOM     14  C   UNL     1      -1.238  -6.088  -0.951  1.00  0.00     0.027 A 
ATOM     15  C   UNL     1       0.002  -7.079   1.364  1.00  0.00     0.015 A 
ATOM     16  C   UNL     1      -1.587  -7.344  -0.422  1.00  0.00     0.006 A 
ATOM     17  C   UNL     1      -1.007  -7.849   0.752  1.00  0.00    -0.042 A 
BRANCH   9  18
ATOM     18  C   UNL     1       1.245  -2.227   0.964  1.00  0.00     0.227 C 
ATOM     19  O   UNL     1       2.129  -1.969   1.781  1.00  0.00    -0.285 OA
BRANCH  18  20
ATOM     20  C   UNL     1       0.531  -1.059   0.363  1.00  0.00     0.113 A 
ATOM     21  C   UNL     1      -2.970   0.298  -0.116  1.00  0.00     0.044 C 
ATOM     22  C   UNL     1      -1.477   0.174  -0.084  1.00  0.00    -0.047 A 
ATOM     23  C   UNL     1      -0.679   1.298  -0.318  1.00  0.00     0.023 A 
ATOM     24  C   UNL     1      -0.858  -1.029   0.272  1.00  0.00     0.036 A 
ATOM     25  C   UNL     1       0.696   1.169  -0.227  1.00  0.00     0.112 A 
ATOM     26  N   UNL     1       1.316   0.018   0.094  1.00  0.00    -0.253 NA
ENDBRANCH  18  20
ENDBRANCH   9  18
BRANCH  17  27
ATOM     27  C   UNL     1      -1.457  -9.154   1.435  1.00  0.00    -0.013 C 
ATOM     28  C   UNL     1      -0.271 -10.134   1.544  1.00  0.00     0.016 C 
ATOM     29  C   UNL     1      -1.972  -8.821   2.858  1.00  0.00     0.016 C 
ATOM     30  C   UNL     1      -2.603  -9.885   0.705  1.00  0.00     0.016 C 
ENDBRANCH  17  27
ENDBRANCH   7   8
ENDBRANCH   5   7
ENDBRANCH   4   5
ENDBRANCH   3   4
ENDBRANCH   2   3
ENDBRANCH   1   2
BRANCH   1  31
ATOM     31  C   UNL     1       4.632  -2.747   0.176  1.00  0.00     0.202 C 
BRANCH  31  32
ATOM     32  C   UNL     1       4.066  -2.694  -1.250  1.00  0.00     0.261 C 
BRANCH  32  33
ATOM     33  O   UNL     1       4.111  -3.955  -1.933  1.00  0.00    -0.460 OA
BRANCH  33  34
ATOM     34  C   UNL     1       5.024  -4.020  -2.931  1.00  0.00     0.338 C 
ATOM     35  O   UNL     1       5.701  -3.107  -3.384  1.00  0.00    -0.246 OA
BRANCH  34  36
ATOM     36  C   UNL     1       5.231  -5.424  -3.314  1.00  0.00     0.060 A 
ATOM     37  C   UNL     1       6.517  -5.956  -3.153  1.00  0.00     0.016 A 
ATOM     38  C   UNL     1       4.198  -6.196  -3.849  1.00  0.00     0.016 A 
ATOM     39  C   UNL     1       6.781  -7.264  -3.547  1.00  0.00     0.010 A 
ATOM     40  C   UNL     1       4.470  -7.503  -4.257  1.00  0.00     0.010 A 
ATOM     41  C   UNL     1       5.765  -8.034  -4.126  1.00  0.00    -0.014 A 
BRANCH  41  42
ATOM     42  C   UNL     1       6.082  -9.371  -4.675  1.00  0.00     0.031 A 
ATOM     43  C   UNL     1       6.278  -9.526  -6.156  1.00  0.00     0.074 A 
ATOM     44  C   UNL     1       6.179 -10.430  -3.852  1.00  0.00     0.049 A 
ATOM     45  N   UNL     1       6.526 -10.606  -6.847  1.00  0.00    -0.248 NA
ATOM     46  C   UNL     1       6.180  -8.300  -6.968  1.00  0.00     0.031 C 
ATOM     47  C   UNL     1       6.011 -10.385  -2.399  1.00  0.00     0.029 A 
ATOM     48  N   UNL     1       6.416 -11.753  -4.123  1.00  0.00    -0.354 N 
ATOM     49  C   UNL     1       6.580 -10.201  -8.175  1.00  0.00     0.074 A 
ATOM     50  C   UNL     1       6.339  -8.775  -8.195  1.00  0.00     0.031 C 
ATOM     51  C   UNL     1       6.122 -11.631  -1.908  1.00  0.00     0.029 A 
ATOM     52  C   UNL     1       6.337 -12.562  -3.013  1.00  0.00     0.049 A 
ATOM     53  H   UNL     1       6.622 -12.092  -5.024  1.00  0.00     0.167 HD
ATOM     54  C   UNL     1       6.815 -10.954  -9.276  1.00  0.00     0.034 A 
ATOM     55  C   UNL     1       6.401 -13.904  -2.910  1.00  0.00     0.034 A 
ATOM     56  C   UNL     1       7.067 -12.369  -9.239  1.00  0.00     0.049 A 
ATOM     57  C   UNL     1       6.629 -14.717  -4.158  1.00  0.00     0.074 A 
ATOM     58  C   UNL     1       7.381 -13.213 -10.288  1.00  0.00     0.029 A 
ATOM     59  N   UNL     1       7.008 -13.152  -8.096  1.00  0.00    -0.354 N 
ATOM     60  N   UNL     1       6.814 -14.306  -5.390  1.00  0.00    -0.248 NA
ATOM     61  C   UNL     1       6.682 -16.177  -3.999  1.00  0.00     0.031 C 
ATOM     62  C   UNL     1       7.469 -14.516  -9.786  1.00  0.00     0.029 A 
ATOM     63  C   UNL     1       7.249 -14.477  -8.418  1.00  0.00     0.049 A 
ATOM     64  H   UNL     1       6.823 -12.816  -7.190  1.00  0.00     0.167 HD
ATOM     65  C   UNL     1       7.033 -15.451  -6.146  1.00  0.00     0.074 A 
ATOM     66  C   UNL     1       6.986 -16.571  -5.228  1.00  0.00     0.031 C 
ATOM     67  C   UNL     1       7.237 -15.572  -7.482  1.00  0.00     0.034 A 
BRANCH  54  68
ATOM     68  C   UNL     1       6.817 -10.266 -10.615  1.00  0.00     0.023 A 
ATOM     69  C   UNL     1       7.891  -9.428 -10.975  1.00  0.00     0.012 A 
ATOM     70  C   UNL     1       5.788 -10.511 -11.546  1.00  0.00     0.148 A 
ATOM     71  C   UNL     1       7.929  -8.825 -12.232  1.00  0.00     0.002 A 
ATOM     72  C   UNL     1       5.855  -9.942 -12.812  1.00  0.00     0.091 A 
ATOM     73  F   UNL     1       4.765 -11.294 -11.176  1.00  0.00    -0.205 F 
ATOM     74  C   UNL     1       6.919  -9.091 -13.153  1.00  0.00     0.022 A 
BRANCH  72  75
ATOM     75  S   UNL     1       4.645 -10.282 -14.095  1.00  0.00     0.127 S 
ATOM     76  O   UNL     1       4.004  -8.976 -14.249  1.00  0.00    -0.237 OA
ATOM     77  O   UNL     1       5.493 -10.680 -15.218  1.00  0.00    -0.237 OA
ATOM     78  O   UNL     1       3.787 -11.336 -13.573  1.00  0.00    -0.744 OA
ENDBRANCH  72  75
ENDBRANCH  54  68
BRANCH  55  79
ATOM     79  C   UNL     1       6.261 -14.564  -1.581  1.00  0.00     0.023 A 
ATOM     80  C   UNL     1       7.364 -15.235  -1.018  1.00  0.00     0.012 A 
ATOM     81  C   UNL     1       5.045 -14.530  -0.871  1.00  0.00     0.148 A 
ATOM     82  C   UNL     1       7.249 -15.888   0.210  1.00  0.00     0.002 A 
ATOM     83  C   UNL     1       4.953 -15.133   0.378  1.00  0.00     0.091 A 
ATOM     84  F   UNL     1       4.000 -13.902  -1.429  1.00  0.00    -0.205 F 
ATOM     85  C   UNL     1       6.048 -15.829   0.912  1.00  0.00     0.022 A 
BRANCH  83  86
ATOM     86  S   UNL     1       3.485 -15.003   1.406  1.00  0.00     0.127 S 
ATOM     87  O   UNL     1       2.962 -16.365   1.355  1.00  0.00    -0.237 OA
ATOM     88  O   UNL     1       4.053 -14.608   2.695  1.00  0.00    -0.237 OA
ATOM     89  O   UNL     1       2.655 -13.983   0.779  1.00  0.00    -0.744 OA
ENDBRANCH  83  86
ENDBRANCH  55  79
BRANCH  67  90
ATOM     90  C   UNL     1       7.447 -16.958  -8.032  1.00  0.00     0.023 A 
ATOM     91  C   UNL     1       6.361 -17.853  -8.106  1.00  0.00     0.012 A 
ATOM     92  C   UNL     1       8.700 -17.347  -8.546  1.00  0.00     0.148 A 
ATOM     93  C   UNL     1       6.527 -19.125  -8.650  1.00  0.00     0.002 A 
ATOM     94  C   UNL     1       8.845 -18.596  -9.136  1.00  0.00     0.091 A 
ATOM     95  F   UNL     1       9.723 -16.485  -8.454  1.00  0.00    -0.205 F 
ATOM     96  C   UNL     1       7.764 -19.492  -9.176  1.00  0.00     0.022 A 
BRANCH  94  97
ATOM     97  S   UNL     1      10.370 -19.120  -9.927  1.00  0.00     0.127 S 
ATOM     98  O   UNL     1      10.828 -20.173  -9.022  1.00  0.00    -0.237 OA
ATOM     99  O   UNL     1       9.894 -19.597 -11.226  1.00  0.00    -0.237 OA
ATOM    100  O   UNL     1      11.220 -17.939  -9.989  1.00  0.00    -0.744 OA
ENDBRANCH  94  97
ENDBRANCH  67  90
ENDBRANCH  41  42
ENDBRANCH  34  36
ENDBRANCH  33  34
ENDBRANCH  32  33
ENDBRANCH  31  32
ENDBRANCH   1  31
TORSDOF 21
