REMARK SMILES Cc1cc(Cl)cc2c1O[C@H](C(F)(F)F)C(C(=O)OCCOCCOC(=O)c1ccc(-c3c4nc(c(-c5cccc(S(=O)(=O)[O-])c5F)c5ccc([nH]5)c(-c5cccc(S(=O)(=O)[O-])c5F)c5nc(c(-c6cccc(S(=O)(=O)[O-])c6F)c6ccc3[nH]6)C=C5)C=C4)cc1)=C2
REMARK SMILES IDX 22 1 21 2 20 3 19 4 18 5 16 6 17 7 15 8 1 9 2 10 3 11 8 12
REMARK SMILES IDX 4 13 7 14 9 15 5 16 6 17 90 18 10 19 11 20 12 21 13 22 14 23
REMARK SMILES IDX 23 24 24 25 25 26 26 27 27 28 28 29 89 30 29 31 88 32 30 33
REMARK SMILES IDX 31 34 32 35 82 36 33 37 87 38 81 39 83 40 34 41 86 42 80 43
REMARK SMILES IDX 79 44 35 46 67 47 47 48 66 49 48 50 51 51 65 52 84 53 49 54
REMARK SMILES IDX 50 55 64 57 85 58 52 59 36 60 37 61 45 62 38 63 40 64 46 65
REMARK SMILES IDX 39 66 41 67 42 68 43 69 44 70 68 71 69 72 77 73 70 74 72 75
REMARK SMILES IDX 78 76 71 77 73 78 74 79 75 80 76 81 53 82 54 83 62 84 55 85
REMARK SMILES IDX 57 86 63 87 56 88 58 89 59 90 60 91 61 92
REMARK H PARENT 83 45 51 56
REMARK Flexibility Score: inf
ROOT
ATOM      1  C   UNL     1       2.373  -7.277   2.926  1.00  0.00     0.202 C 
ENDROOT
BRANCH   1   2
ATOM      2  O   UNL     1       3.342  -8.289   2.646  1.00  0.00    -0.374 OA
BRANCH   2   3
ATOM      3  C   UNL     1       4.720  -7.945   2.786  1.00  0.00     0.202 C 
BRANCH   3   4
ATOM      4  C   UNL     1       5.353  -7.143   1.645  1.00  0.00     0.261 C 
BRANCH   4   5
ATOM      5  O   UNL     1       4.647  -5.916   1.402  1.00  0.00    -0.460 OA
BRANCH   5   6
ATOM      6  C   UNL     1       3.978  -5.875   0.228  1.00  0.00     0.338 C 
ATOM      7  O   UNL     1       4.001  -6.714  -0.661  1.00  0.00    -0.246 OA
BRANCH   6   8
ATOM      8  C   UNL     1       3.072  -4.710   0.206  1.00  0.00     0.087 C 
ATOM      9  C   UNL     1       1.005  -0.022   0.058  1.00  0.00     0.048 C 
ATOM     10  C   UNL     1       0.584  -1.405  -0.352  1.00  0.00    -0.007 A 
ATOM     11  C   UNL     1      -0.640  -1.584  -1.017  1.00  0.00     0.027 A 
ATOM     12  C   UNL     1       1.379  -2.528  -0.069  1.00  0.00     0.131 A 
ATOM     13  C   UNL     1      -1.049  -2.857  -1.408  1.00  0.00     0.042 A 
ATOM     14  C   UNL     1       0.980  -3.797  -0.502  1.00  0.00     0.019 A 
ATOM     15  O   UNL     1       2.524  -2.320   0.649  1.00  0.00    -0.475 OA
ATOM     16  Cl  UNL     1      -2.548  -3.062  -2.228  1.00  0.00    -0.084 Cl
ATOM     17  C   UNL     1      -0.244  -3.963  -1.159  1.00  0.00     0.032 A 
ATOM     18  C   UNL     1       1.866  -4.932  -0.331  1.00  0.00     0.027 C 
ATOM     19  C   UNL     1       3.522  -3.376   0.734  1.00  0.00     0.316 C 
BRANCH  19  20
ATOM     20  C   UNL     1       4.809  -2.877   0.060  1.00  0.00     0.430 C 
ATOM     21  F   UNL     1       5.153  -1.650   0.516  1.00  0.00    -0.167 F 
ATOM     22  F   UNL     1       5.853  -3.700   0.304  1.00  0.00    -0.167 F 
ATOM     23  F   UNL     1       4.665  -2.788  -1.282  1.00  0.00    -0.167 F 
ENDBRANCH  19  20
ENDBRANCH   6   8
ENDBRANCH   5   6
ENDBRANCH   4   5
ENDBRANCH   3   4
ENDBRANCH   2   3
ENDBRANCH   1   2
BRANCH   1  24
ATOM     24  C   UNL     1       2.165  -6.883   4.393  1.00  0.00     0.261 C 
BRANCH  24  25
ATOM     25  O   UNL     1       3.307  -6.203   4.945  1.00  0.00    -0.460 OA
BRANCH  25  26
ATOM     26  C   UNL     1       3.937  -6.869   5.943  1.00  0.00     0.338 C 
ATOM     27  O   UNL     1       3.599  -7.931   6.448  1.00  0.00    -0.246 OA
BRANCH  26  28
ATOM     28  C   UNL     1       5.233  -6.233   6.234  1.00  0.00     0.060 A 
ATOM     29  C   UNL     1       6.386  -7.015   6.095  1.00  0.00     0.016 A 
ATOM     30  C   UNL     1       5.312  -4.926   6.720  1.00  0.00     0.016 A 
ATOM     31  C   UNL     1       7.623  -6.507   6.483  1.00  0.00     0.010 A 
ATOM     32  C   UNL     1       6.555  -4.423   7.121  1.00  0.00     0.010 A 
ATOM     33  C   UNL     1       7.708  -5.224   7.038  1.00  0.00    -0.014 A 
BRANCH  33  34
ATOM     34  C   UNL     1       8.978  -4.788   7.667  1.00  0.00     0.031 A 
ATOM     35  C   UNL     1       9.131  -4.909   9.159  1.00  0.00     0.074 A 
ATOM     36  C   UNL     1       9.993  -4.325   6.915  1.00  0.00     0.049 A 
ATOM     37  N   UNL     1      10.154  -4.601   9.911  1.00  0.00    -0.248 NA
ATOM     38  C   UNL     1       7.982  -5.456   9.901  1.00  0.00     0.031 C 
ATOM     39  C   UNL     1       9.969  -4.185   5.460  1.00  0.00     0.029 A 
ATOM     40  N   UNL     1      11.240  -3.879   7.276  1.00  0.00    -0.354 N 
ATOM     41  C   UNL     1       9.773  -4.905  11.213  1.00  0.00     0.074 A 
ATOM     42  C   UNL     1       8.416  -5.401  11.153  1.00  0.00     0.031 C 
ATOM     43  C   UNL     1      11.144  -3.675   5.052  1.00  0.00     0.029 A 
ATOM     44  C   UNL     1      11.994  -3.433   6.216  1.00  0.00     0.049 A 
ATOM     45  H   UNL     1      11.563  -3.878   8.206  1.00  0.00     0.167 HD
ATOM     46  C   UNL     1      10.498  -4.805  12.351  1.00  0.00     0.034 A 
ATOM     47  C   UNL     1      13.226  -2.884   6.192  1.00  0.00     0.034 A 
ATOM     48  C   UNL     1      11.853  -4.331  12.405  1.00  0.00     0.049 A 
ATOM     49  C   UNL     1      13.988  -2.732   7.485  1.00  0.00     0.074 A 
ATOM     50  C   UNL     1      12.676  -4.215  13.511  1.00  0.00     0.029 A 
ATOM     51  N   UNL     1      12.584  -3.892  11.313  1.00  0.00    -0.354 N 
ATOM     52  N   UNL     1      13.652  -3.118   8.692  1.00  0.00    -0.248 NA
ATOM     53  C   UNL     1      15.311  -2.093   7.409  1.00  0.00     0.031 C 
ATOM     54  C   UNL     1      13.899  -3.684  13.090  1.00  0.00     0.029 A 
ATOM     55  C   UNL     1      13.845  -3.493  11.719  1.00  0.00     0.049 A 
ATOM     56  H   UNL     1      12.254  -3.867  10.385  1.00  0.00     0.167 HD
ATOM     57  C   UNL     1      14.730  -2.798   9.511  1.00  0.00     0.074 A 
ATOM     58  C   UNL     1      15.741  -2.208   8.659  1.00  0.00     0.031 C 
ATOM     59  C   UNL     1      14.864  -2.960  10.851  1.00  0.00     0.034 A 
BRANCH  46  60
ATOM     60  C   UNL     1       9.864  -5.267  13.636  1.00  0.00     0.023 A 
ATOM     61  C   UNL     1       9.731  -6.649  13.879  1.00  0.00     0.012 A 
ATOM     62  C   UNL     1       9.500  -4.348  14.640  1.00  0.00     0.148 A 
ATOM     63  C   UNL     1       9.233  -7.110  15.097  1.00  0.00     0.002 A 
ATOM     64  C   UNL     1       9.043  -4.816  15.866  1.00  0.00     0.091 A 
ATOM     65  F   UNL     1       9.618  -3.039  14.379  1.00  0.00    -0.205 F 
ATOM     66  C   UNL     1       8.902  -6.196  16.093  1.00  0.00     0.022 A 
BRANCH  64  67
ATOM     67  S   UNL     1       8.664  -3.728  17.244  1.00  0.00     0.127 S 
ATOM     68  O   UNL     1       7.221  -3.922  17.385  1.00  0.00    -0.237 OA
ATOM     69  O   UNL     1       9.466  -4.309  18.322  1.00  0.00    -0.237 OA
ATOM     70  O   UNL     1       9.072  -2.393  16.829  1.00  0.00    -0.744 OA
ENDBRANCH  64  67
ENDBRANCH  46  60
BRANCH  47  71
ATOM     71  C   UNL     1      13.841  -2.484   4.893  1.00  0.00     0.023 A 
ATOM     72  C   UNL     1      14.958  -3.193   4.411  1.00  0.00     0.012 A 
ATOM     73  C   UNL     1      13.317  -1.425   4.126  1.00  0.00     0.148 A 
ATOM     74  C   UNL     1      15.558  -2.840   3.201  1.00  0.00     0.002 A 
ATOM     75  C   UNL     1      13.885  -1.114   2.895  1.00  0.00     0.091 A 
ATOM     76  F   UNL     1      12.268  -0.746   4.611  1.00  0.00    -0.205 F 
ATOM     77  C   UNL     1      15.015  -1.809   2.438  1.00  0.00     0.022 A 
BRANCH  75  78
ATOM     78  S   UNL     1      13.174   0.109   1.788  1.00  0.00     0.127 S 
ATOM     79  O   UNL     1      14.155   1.188   1.863  1.00  0.00    -0.237 OA
ATOM     80  O   UNL     1      13.149  -0.615   0.516  1.00  0.00    -0.237 OA
ATOM     81  O   UNL     1      11.857   0.410   2.332  1.00  0.00    -0.744 OA
ENDBRANCH  75  78
ENDBRANCH  47  71
BRANCH  59  82
ATOM     82  C   UNL     1      16.149  -2.511  11.498  1.00  0.00     0.023 A 
ATOM     83  C   UNL     1      16.397  -1.134  11.662  1.00  0.00     0.012 A 
ATOM     84  C   UNL     1      17.043  -3.447  12.056  1.00  0.00     0.148 A 
ATOM     85  C   UNL     1      17.525  -0.695  12.354  1.00  0.00     0.002 A 
ATOM     86  C   UNL     1      18.139  -3.002  12.787  1.00  0.00     0.091 A 
ATOM     87  F   UNL     1      16.795  -4.753  11.877  1.00  0.00    -0.205 F 
ATOM     88  C   UNL     1      18.386  -1.627  12.928  1.00  0.00     0.022 A 
BRANCH  86  89
ATOM     89  S   UNL     1      19.244  -4.123  13.654  1.00  0.00     0.127 S 
ATOM     90  O   UNL     1      20.471  -3.997  12.869  1.00  0.00    -0.237 OA
ATOM     91  O   UNL     1      19.308  -3.525  14.987  1.00  0.00    -0.237 OA
ATOM     92  O   UNL     1      18.608  -5.433  13.607  1.00  0.00    -0.744 OA
ENDBRANCH  86  89
ENDBRANCH  59  82
ENDBRANCH  33  34
ENDBRANCH  26  28
ENDBRANCH  25  26
ENDBRANCH  24  25
ENDBRANCH   1  24
TORSDOF 18
