REMARK SMILES COc1cccc(C(=O)N2[C@@H](C(=O)OCCOCCOC(=O)c3ccc(-c4c5nc(c(-c6cccc(S(=O)(=O)[O-])c6F)c6ccc([nH]6)c(-c6cccc(S(=O)(=O)[O-])c6F)c6nc(c(-c7cccc(S(=O)(=O)[O-])c7F)c7ccc4[nH]7)C=C6)C=C5)cc3)CS[C@@H]2c2ccccc2Cl)c1
REMARK SMILES IDX 17 1 16 2 15 3 14 4 12 5 13 6 11 7 10 8 88 9 86 10 87 11
REMARK SMILES IDX 8 12 9 13 7 14 3 15 4 16 96 17 5 18 6 19 2 20 1 21 89 22
REMARK SMILES IDX 90 23 94 24 91 25 93 26 95 27 92 28 18 29 19 30 20 31 21 32
REMARK SMILES IDX 22 33 23 34 24 35 85 36 25 37 84 38 26 39 27 40 28 41 78 42
REMARK SMILES IDX 29 43 83 44 77 45 79 46 30 47 82 48 76 49 75 50 31 52 63 53
REMARK SMILES IDX 43 54 62 55 44 56 47 57 61 58 80 59 45 60 46 61 60 63 81 64
REMARK SMILES IDX 48 65 32 66 33 67 41 68 34 69 36 70 42 71 35 72 37 73 38 74
REMARK SMILES IDX 39 75 40 76 64 77 65 78 73 79 66 80 68 81 74 82 67 83 69 84
REMARK SMILES IDX 70 85 71 86 72 87 49 88 50 89 58 90 51 91 53 92 59 93 52 94
REMARK SMILES IDX 54 95 55 96 56 97 57 98
REMARK H PARENT 79 51 47 62
REMARK Flexibility Score: inf
ROOT
ATOM      1  O   UNL     1       2.704  -3.998   5.027  1.00  0.00    -0.374 OA
ENDROOT
BRANCH   1   2
ATOM      2  C   UNL     1       3.322  -5.022   4.244  1.00  0.00     0.202 C 
BRANCH   2   3
ATOM      3  C   UNL     1       3.670  -4.681   2.791  1.00  0.00     0.261 C 
BRANCH   3   4
ATOM      4  O   UNL     1       4.745  -3.731   2.755  1.00  0.00    -0.462 OA
BRANCH   4   5
ATOM      5  C   UNL     1       4.447  -2.502   2.248  1.00  0.00     0.329 C 
ATOM      6  O   UNL     1       3.450  -2.229   1.594  1.00  0.00    -0.250 OA
BRANCH   5   7
ATOM      7  C   UNL     1       5.554  -1.514   2.641  1.00  0.00     0.206 C 
ATOM      8  N   UNL     1       5.018  -0.166   2.946  1.00  0.00    -0.308 N 
ATOM      9  C   UNL     1       5.583   0.906   2.157  1.00  0.00     0.176 C 
ATOM     10  C   UNL     1       6.518  -1.435   1.461  1.00  0.00     0.109 C 
ATOM     11  S   UNL     1       5.975   0.047   0.574  1.00  0.00    -0.129 SA
BRANCH   8  12
ATOM     12  C   UNL     1       4.175   0.060   4.020  1.00  0.00     0.255 C 
ATOM     13  O   UNL     1       4.497  -0.188   5.178  1.00  0.00    -0.269 OA
BRANCH  12  14
ATOM     14  C   UNL     1       2.747   0.433   3.748  1.00  0.00     0.043 A 
ATOM     15  C   UNL     1       0.839   0.666   2.260  1.00  0.00     0.119 A 
ATOM     16  C   UNL     1       0.008   0.890   3.359  1.00  0.00     0.046 A 
ATOM     17  C   UNL     1       2.205   0.446   2.456  1.00  0.00     0.060 A 
ATOM     18  C   UNL     1       0.529   0.869   4.651  1.00  0.00     0.005 A 
ATOM     19  C   UNL     1       1.893   0.643   4.844  1.00  0.00     0.014 A 
BRANCH  15  20
ATOM     20  O   UNL     1       0.215   0.703   1.042  1.00  0.00    -0.497 OA
ATOM     21  C   UNL     1       0.850  -0.031  -0.003  1.00  0.00     0.278 C 
ENDBRANCH  15  20
ENDBRANCH  12  14
ENDBRANCH   8  12
BRANCH   9  22
ATOM     22  C   UNL     1       6.853   1.622   2.639  1.00  0.00     0.003 A 
ATOM     23  C   UNL     1       7.281   2.689   1.801  1.00  0.00     0.008 A 
ATOM     24  C   UNL     1       7.690   1.318   3.729  1.00  0.00     0.047 A 
ATOM     25  C   UNL     1       8.486   3.367   1.999  1.00  0.00     0.001 A 
ATOM     26  C   UNL     1       8.884   2.032   3.943  1.00  0.00     0.021 A 
ATOM     27  Cl  UNL     1       7.443   0.059   4.875  1.00  0.00    -0.084 Cl
ATOM     28  C   UNL     1       9.291   3.038   3.075  1.00  0.00     0.002 A 
ENDBRANCH   9  22
ENDBRANCH   5   7
ENDBRANCH   4   5
ENDBRANCH   3   4
ENDBRANCH   2   3
ENDBRANCH   1   2
BRANCH   1  29
ATOM     29  C   UNL     1       3.538  -2.938   5.491  1.00  0.00     0.202 C 
BRANCH  29  30
ATOM     30  C   UNL     1       4.396  -3.150   6.744  1.00  0.00     0.261 C 
BRANCH  30  31
ATOM     31  O   UNL     1       5.130  -4.374   6.710  1.00  0.00    -0.460 OA
BRANCH  31  32
ATOM     32  C   UNL     1       4.490  -5.398   7.319  1.00  0.00     0.338 C 
ATOM     33  O   UNL     1       3.444  -5.354   7.954  1.00  0.00    -0.246 OA
BRANCH  32  34
ATOM     34  C   UNL     1       5.145  -6.655   6.941  1.00  0.00     0.060 A 
ATOM     35  C   UNL     1       4.336  -7.662   6.401  1.00  0.00     0.016 A 
ATOM     36  C   UNL     1       6.514  -6.851   7.135  1.00  0.00     0.016 A 
ATOM     37  C   UNL     1       4.885  -8.902   6.106  1.00  0.00     0.010 A 
ATOM     38  C   UNL     1       7.062  -8.099   6.846  1.00  0.00     0.010 A 
ATOM     39  C   UNL     1       6.239  -9.138   6.375  1.00  0.00    -0.014 A 
BRANCH  39  40
ATOM     40  C   UNL     1       6.747 -10.523   6.338  1.00  0.00     0.031 A 
ATOM     41  C   UNL     1       6.899 -11.264   7.635  1.00  0.00     0.074 A 
ATOM     42  C   UNL     1       7.049 -11.107   5.167  1.00  0.00     0.049 A 
ATOM     43  N   UNL     1       7.336 -12.476   7.850  1.00  0.00    -0.248 NA
ATOM     44  C   UNL     1       6.512 -10.537   8.856  1.00  0.00     0.031 C 
ATOM     45  C   UNL     1       6.920 -10.480   3.853  1.00  0.00     0.029 A 
ATOM     46  N   UNL     1       7.545 -12.356   4.902  1.00  0.00    -0.354 N 
ATOM     47  C   UNL     1       7.308 -12.646   9.228  1.00  0.00     0.074 A 
ATOM     48  C   UNL     1       6.830 -11.407   9.801  1.00  0.00     0.031 C 
ATOM     49  C   UNL     1       7.344 -11.345   2.917  1.00  0.00     0.029 A 
ATOM     50  C   UNL     1       7.800 -12.570   3.570  1.00  0.00     0.049 A 
ATOM     51  H   UNL     1       7.702 -13.034   5.598  1.00  0.00     0.167 HD
ATOM     52  C   UNL     1       7.638 -13.742   9.951  1.00  0.00     0.034 A 
ATOM     53  C   UNL     1       8.356 -13.631   2.955  1.00  0.00     0.034 A 
ATOM     54  C   UNL     1       8.106 -14.969   9.366  1.00  0.00     0.049 A 
ATOM     55  C   UNL     1       8.753 -14.825   3.783  1.00  0.00     0.074 A 
ATOM     56  C   UNL     1       8.428 -16.156   9.997  1.00  0.00     0.029 A 
ATOM     57  N   UNL     1       8.337 -15.159   8.011  1.00  0.00    -0.354 N 
ATOM     58  N   UNL     1       8.625 -15.015   5.074  1.00  0.00    -0.248 NA
ATOM     59  C   UNL     1       9.343 -15.962   3.064  1.00  0.00     0.031 C 
ATOM     60  C   UNL     1       8.894 -17.050   9.027  1.00  0.00     0.029 A 
ATOM     61  C   UNL     1       8.819 -16.436   7.786  1.00  0.00     0.049 A 
ATOM     62  H   UNL     1       8.182 -14.483   7.312  1.00  0.00     0.167 HD
ATOM     63  C   UNL     1       9.080 -16.306   5.319  1.00  0.00     0.074 A 
ATOM     64  C   UNL     1       9.475 -16.854   4.036  1.00  0.00     0.031 C 
ATOM     65  C   UNL     1       9.169 -16.976   6.495  1.00  0.00     0.034 A 
BRANCH  52  66
ATOM     66  C   UNL     1       7.501 -13.649  11.449  1.00  0.00     0.023 A 
ATOM     67  C   UNL     1       6.222 -13.566  12.037  1.00  0.00     0.012 A 
ATOM     68  C   UNL     1       8.640 -13.650  12.277  1.00  0.00     0.148 A 
ATOM     69  C   UNL     1       6.080 -13.433  13.418  1.00  0.00     0.002 A 
ATOM     70  C   UNL     1       8.490 -13.569  13.656  1.00  0.00     0.091 A 
ATOM     71  F   UNL     1       9.850 -13.704  11.702  1.00  0.00    -0.205 F 
ATOM     72  C   UNL     1       7.213 -13.443  14.227  1.00  0.00     0.022 A 
BRANCH  70  73
ATOM     73  S   UNL     1       9.883 -13.656  14.785  1.00  0.00     0.127 S 
ATOM     74  O   UNL     1       9.978 -12.272  15.246  1.00  0.00    -0.237 OA
ATOM     75  O   UNL     1       9.404 -14.603  15.793  1.00  0.00    -0.237 OA
ATOM     76  O   UNL     1      11.010 -14.133  13.995  1.00  0.00    -0.744 OA
ENDBRANCH  70  73
ENDBRANCH  52  66
BRANCH  53  77
ATOM     77  C   UNL     1       8.521 -13.624   1.476  1.00  0.00     0.023 A 
ATOM     78  C   UNL     1       7.720 -14.472   0.687  1.00  0.00     0.012 A 
ATOM     79  C   UNL     1       9.429 -12.752   0.845  1.00  0.00     0.148 A 
ATOM     80  C   UNL     1       7.837 -14.468  -0.703  1.00  0.00     0.002 A 
ATOM     81  C   UNL     1       9.502 -12.714  -0.542  1.00  0.00     0.091 A 
ATOM     82  F   UNL     1      10.186 -11.959   1.617  1.00  0.00    -0.205 F 
ATOM     83  C   UNL     1       8.719 -13.582  -1.318  1.00  0.00     0.022 A 
BRANCH  81  84
ATOM     84  S   UNL     1      10.514 -11.521  -1.426  1.00  0.00     0.127 S 
ATOM     85  O   UNL     1      11.479 -12.388  -2.098  1.00  0.00    -0.237 OA
ATOM     86  O   UNL     1       9.530 -10.893  -2.307  1.00  0.00    -0.237 OA
ATOM     87  O   UNL     1      11.066 -10.637  -0.409  1.00  0.00    -0.744 OA
ENDBRANCH  81  84
ENDBRANCH  53  77
BRANCH  65  88
ATOM     88  C   UNL     1       9.676 -18.395   6.453  1.00  0.00     0.023 A 
ATOM     89  C   UNL     1      11.036 -18.652   6.193  1.00  0.00     0.012 A 
ATOM     90  C   UNL     1       8.812 -19.470   6.746  1.00  0.00     0.148 A 
ATOM     91  C   UNL     1      11.521 -19.960   6.190  1.00  0.00     0.002 A 
ATOM     92  C   UNL     1       9.314 -20.764   6.796  1.00  0.00     0.091 A 
ATOM     93  F   UNL     1       7.517 -19.205   6.975  1.00  0.00    -0.205 F 
ATOM     94  C   UNL     1      10.665 -21.013   6.504  1.00  0.00     0.022 A 
BRANCH  92  95
ATOM     95  S   UNL     1       8.310 -22.169   7.290  1.00  0.00     0.127 S 
ATOM     96  O   UNL     1       8.169 -22.892   6.027  1.00  0.00    -0.237 OA
ATOM     97  O   UNL     1       9.164 -22.827   8.278  1.00  0.00    -0.237 OA
ATOM     98  O   UNL     1       7.077 -21.613   7.830  1.00  0.00    -0.744 OA
ENDBRANCH  92  95
ENDBRANCH  65  88
ENDBRANCH  39  40
ENDBRANCH  32  34
ENDBRANCH  31  32
ENDBRANCH  30  31
ENDBRANCH  29  30
ENDBRANCH   1  29
TORSDOF 21
