REMARK SMILES O=C(OCCOCCOC(=O)c1cccnc1Nc1cccc(C(F)(F)F)c1)c1ccc(-c2c3nc(c(-c4cccc(S(=O)(=O)[O-])c4F)c4ccc([nH]4)c(-c4cccc(S(=O)(=O)[O-])c4F)c4nc(c(-c5cccc(S(=O)(=O)[O-])c5F)c5ccc2[nH]5)C=C4)C=C3)cc1
REMARK SMILES IDX 6 1 5 2 4 3 3 4 2 5 1 6 29 7 30 8 91 9 31 10 90 11 32 12
REMARK SMILES IDX 33 13 34 14 84 15 35 16 89 17 83 18 85 19 36 20 88 21 82 22
REMARK SMILES IDX 81 23 37 25 69 26 49 27 68 28 50 29 53 30 67 31 86 32 51 33
REMARK SMILES IDX 52 34 66 36 87 37 54 38 38 39 39 40 47 41 40 42 42 43 48 44
REMARK SMILES IDX 41 45 43 46 44 47 45 48 46 49 70 50 71 51 79 52 72 53 74 54
REMARK SMILES IDX 80 55 73 56 75 57 76 58 77 59 78 60 55 61 56 62 64 63 57 64
REMARK SMILES IDX 59 65 65 66 58 67 60 68 61 69 62 70 63 71 7 72 8 73 9 74
REMARK SMILES IDX 10 75 11 76 12 77 13 78 17 79 14 80 16 81 15 82 18 83 19 85
REMARK SMILES IDX 20 86 28 87 21 88 23 89 22 90 24 91 25 92 26 93 27 94
REMARK H PARENT 85 24 53 35 18 84
REMARK Flexibility Score: inf
ROOT
ATOM      1  O   UNL     1       3.936  -0.818   1.322  1.00  0.00    -0.374 OA
ENDROOT
BRANCH   1   2
ATOM      2  C   UNL     1       4.249   0.565   1.306  1.00  0.00     0.202 C 
BRANCH   2   3
ATOM      3  C   UNL     1       3.814   1.332   0.061  1.00  0.00     0.261 C 
BRANCH   3   4
ATOM      4  O   UNL     1       2.418   1.133  -0.197  1.00  0.00    -0.460 OA
BRANCH   4   5
ATOM      5  C   UNL     1       1.902   0.428  -1.236  1.00  0.00     0.338 C 
ATOM      6  O   UNL     1       0.695   0.472  -1.456  1.00  0.00    -0.246 OA
BRANCH   5   7
ATOM      7  C   UNL     1       2.767  -0.394  -2.126  1.00  0.00     0.060 A 
ATOM      8  C   UNL     1       3.837  -1.148  -1.648  1.00  0.00     0.016 A 
ATOM      9  C   UNL     1       2.433  -0.506  -3.478  1.00  0.00     0.016 A 
ATOM     10  C   UNL     1       4.612  -1.937  -2.464  1.00  0.00     0.010 A 
ATOM     11  C   UNL     1       3.151  -1.380  -4.303  1.00  0.00     0.010 A 
ATOM     12  C   UNL     1       4.230  -2.108  -3.782  1.00  0.00    -0.014 A 
BRANCH  12  13
ATOM     13  C   UNL     1       4.992  -3.087  -4.565  1.00  0.00     0.031 A 
ATOM     14  C   UNL     1       5.887  -2.590  -5.644  1.00  0.00     0.074 A 
ATOM     15  C   UNL     1       4.920  -4.388  -4.222  1.00  0.00     0.049 A 
ATOM     16  N   UNL     1       6.543  -3.272  -6.536  1.00  0.00    -0.248 NA
ATOM     17  C   UNL     1       6.075  -1.130  -5.730  1.00  0.00     0.031 C 
ATOM     18  C   UNL     1       4.154  -4.923  -3.087  1.00  0.00     0.029 A 
ATOM     19  N   UNL     1       5.490  -5.497  -4.783  1.00  0.00    -0.354 N 
ATOM     20  C   UNL     1       7.148  -2.326  -7.348  1.00  0.00     0.074 A 
ATOM     21  C   UNL     1       6.831  -1.022  -6.813  1.00  0.00     0.031 C 
ATOM     22  C   UNL     1       4.291  -6.257  -3.049  1.00  0.00     0.029 A 
ATOM     23  C   UNL     1       5.064  -6.673  -4.208  1.00  0.00     0.049 A 
ATOM     24  H   UNL     1       6.138  -5.458  -5.523  1.00  0.00     0.167 HD
ATOM     25  C   UNL     1       7.873  -2.551  -8.464  1.00  0.00     0.034 A 
ATOM     26  C   UNL     1       5.217  -7.942  -4.630  1.00  0.00     0.034 A 
ATOM     27  C   UNL     1       8.174  -3.869  -8.944  1.00  0.00     0.049 A 
ATOM     28  C   UNL     1       5.984  -8.150  -5.906  1.00  0.00     0.074 A 
ATOM     29  C   UNL     1       8.905  -4.233 -10.056  1.00  0.00     0.029 A 
ATOM     30  N   UNL     1       7.734  -5.041  -8.342  1.00  0.00    -0.354 N 
ATOM     31  N   UNL     1       6.593  -7.259  -6.654  1.00  0.00    -0.248 NA
ATOM     32  C   UNL     1       6.086  -9.527  -6.403  1.00  0.00     0.031 C 
ATOM     33  C   UNL     1       8.866  -5.627 -10.154  1.00  0.00     0.029 A 
ATOM     34  C   UNL     1       8.148  -6.132  -9.079  1.00  0.00     0.049 A 
ATOM     35  H   UNL     1       7.205  -5.087  -7.513  1.00  0.00     0.167 HD
ATOM     36  C   UNL     1       7.162  -7.966  -7.702  1.00  0.00     0.074 A 
ATOM     37  C   UNL     1       6.855  -9.365  -7.471  1.00  0.00     0.031 C 
ATOM     38  C   UNL     1       7.853  -7.510  -8.775  1.00  0.00     0.034 A 
BRANCH  25  39
ATOM     39  C   UNL     1       8.305  -1.360  -9.265  1.00  0.00     0.023 A 
ATOM     40  C   UNL     1       9.355  -0.534  -8.822  1.00  0.00     0.012 A 
ATOM     41  C   UNL     1       7.663  -1.077 -10.486  1.00  0.00     0.148 A 
ATOM     42  C   UNL     1       9.746   0.572  -9.577  1.00  0.00     0.002 A 
ATOM     43  C   UNL     1       8.088  -0.003 -11.254  1.00  0.00     0.091 A 
ATOM     44  F   UNL     1       6.642  -1.859 -10.866  1.00  0.00    -0.205 F 
ATOM     45  C   UNL     1       9.121   0.830 -10.796  1.00  0.00     0.022 A 
BRANCH  43  46
ATOM     46  S   UNL     1       7.390   0.372 -12.864  1.00  0.00     0.127 S 
ATOM     47  O   UNL     1       6.816   1.698 -12.636  1.00  0.00    -0.237 OA
ATOM     48  O   UNL     1       8.577   0.359 -13.717  1.00  0.00    -0.237 OA
ATOM     49  O   UNL     1       6.420  -0.678 -13.142  1.00  0.00    -0.744 OA
ENDBRANCH  43  46
ENDBRANCH  25  39
BRANCH  26  50
ATOM     50  C   UNL     1       4.579  -9.077  -3.901  1.00  0.00     0.023 A 
ATOM     51  C   UNL     1       5.381 -10.083  -3.330  1.00  0.00     0.012 A 
ATOM     52  C   UNL     1       3.176  -9.176  -3.783  1.00  0.00     0.148 A 
ATOM     53  C   UNL     1       4.800 -11.184  -2.696  1.00  0.00     0.002 A 
ATOM     54  C   UNL     1       2.606 -10.242  -3.097  1.00  0.00     0.091 A 
ATOM     55  F   UNL     1       2.420  -8.225  -4.349  1.00  0.00    -0.205 F 
ATOM     56  C   UNL     1       3.415 -11.260  -2.572  1.00  0.00     0.022 A 
BRANCH  54  57
ATOM     57  S   UNL     1       0.840 -10.346  -2.783  1.00  0.00     0.127 S 
ATOM     58  O   UNL     1       0.429 -11.384  -3.724  1.00  0.00    -0.237 OA
ATOM     59  O   UNL     1       0.804 -10.742  -1.374  1.00  0.00    -0.237 OA
ATOM     60  O   UNL     1       0.319  -9.010  -3.038  1.00  0.00    -0.744 OA
ENDBRANCH  54  57
ENDBRANCH  26  50
BRANCH  38  61
ATOM     61  C   UNL     1       8.341  -8.533  -9.758  1.00  0.00     0.023 A 
ATOM     62  C   UNL     1       7.430  -9.144 -10.640  1.00  0.00     0.012 A 
ATOM     63  C   UNL     1       9.718  -8.796  -9.878  1.00  0.00     0.148 A 
ATOM     64  C   UNL     1       7.884 -10.023 -11.619  1.00  0.00     0.002 A 
ATOM     65  C   UNL     1      10.168  -9.626 -10.893  1.00  0.00     0.091 A 
ATOM     66  F   UNL     1      10.558  -8.210  -9.013  1.00  0.00    -0.205 F 
ATOM     67  C   UNL     1       9.252 -10.251 -11.757  1.00  0.00     0.022 A 
BRANCH  65  68
ATOM     68  S   UNL     1      11.914  -9.885 -11.218  1.00  0.00     0.127 S 
ATOM     69  O   UNL     1      12.073 -11.298 -10.875  1.00  0.00    -0.237 OA
ATOM     70  O   UNL     1      12.006  -9.589 -12.647  1.00  0.00    -0.237 OA
ATOM     71  O   UNL     1      12.629  -8.954 -10.356  1.00  0.00    -0.744 OA
ENDBRANCH  65  68
ENDBRANCH  38  61
ENDBRANCH  12  13
ENDBRANCH   5   7
ENDBRANCH   4   5
ENDBRANCH   3   4
ENDBRANCH   2   3
ENDBRANCH   1   2
BRANCH   1  72
ATOM     72  C   UNL     1       2.635  -1.201   1.755  1.00  0.00     0.202 C 
BRANCH  72  73
ATOM     73  C   UNL     1       2.819  -2.326   2.773  1.00  0.00     0.261 C 
BRANCH  73  74
ATOM     74  O   UNL     1       3.489  -1.778   3.925  1.00  0.00    -0.460 OA
BRANCH  74  75
ATOM     75  C   UNL     1       4.841  -1.648   3.832  1.00  0.00     0.341 C 
ATOM     76  O   UNL     1       5.600  -2.184   3.048  1.00  0.00    -0.246 OA
BRANCH  75  77
ATOM     77  C   UNL     1       5.266  -0.613   4.791  1.00  0.00     0.102 A 
ATOM     78  C   UNL     1       4.628  -0.543   6.037  1.00  0.00     0.021 A 
ATOM     79  C   UNL     1       6.285   0.301   4.479  1.00  0.00     0.144 A 
ATOM     80  C   UNL     1       5.013   0.429   6.947  1.00  0.00     0.021 A 
ATOM     81  N   UNL     1       6.652   1.248   5.381  1.00  0.00    -0.238 NA
ATOM     82  C   UNL     1       6.026   1.289   6.577  1.00  0.00     0.113 A 
BRANCH  79  83
ATOM     83  N   UNL     1       6.858   0.373   3.191  1.00  0.00    -0.340 N 
ATOM     84  H   UNL     1       6.482  -0.220   2.501  1.00  0.00     0.168 HD
BRANCH  83  85
ATOM     85  C   UNL     1       7.917   1.216   2.802  1.00  0.00     0.040 A 
ATOM     86  C   UNL     1       7.739   2.200   1.822  1.00  0.00     0.026 A 
ATOM     87  C   UNL     1       9.203   0.998   3.302  1.00  0.00     0.039 A 
ATOM     88  C   UNL     1       8.810   2.989   1.394  1.00  0.00     0.003 A 
ATOM     89  C   UNL     1      10.293   1.773   2.876  1.00  0.00     0.058 A 
ATOM     90  C   UNL     1      10.083   2.779   1.922  1.00  0.00     0.013 A 
BRANCH  89  91
ATOM     91  C   UNL     1      11.668   1.532   3.439  1.00  0.00     0.416 C 
ATOM     92  F   UNL     1      12.600   1.311   2.472  1.00  0.00    -0.166 F 
ATOM     93  F   UNL     1      12.127   2.594   4.161  1.00  0.00    -0.166 F 
ATOM     94  F   UNL     1      11.739   0.459   4.276  1.00  0.00    -0.166 F 
ENDBRANCH  89  91
ENDBRANCH  83  85
ENDBRANCH  79  83
ENDBRANCH  75  77
ENDBRANCH  74  75
ENDBRANCH  73  74
ENDBRANCH  72  73
ENDBRANCH   1  72
TORSDOF 20
