REMARK SMILES C[C@]12C(=O)N(c3ccc(C(=O)OCCOCCOC(=O)c4ccc(-c5c6nc(c(-c7cccc(S(=O)(=O)[O-])c7F)c7ccc([nH]7)c(-c7cccc(S(=O)(=O)[O-])c7F)c7nc(c(-c8cccc(S(=O)(=O)[O-])c8F)c8ccc5[nH]8)C=C7)C=C6)cc4)cc3)C(=O)[C@H]1[C@H]1c3ccccc3[C@@H]2c2ccccc21
REMARK SMILES IDX 16 1 15 2 14 3 13 4 12 5 10 6 11 7 9 8 6 9 7 10 85 11 8 12
REMARK SMILES IDX 84 13 5 14 1 15 2 16 3 17 88 18 96 19 4 20 86 21 89 22 95 23
REMARK SMILES IDX 97 24 87 25 90 26 102 27 94 28 98 29 91 30 101 31 93 32
REMARK SMILES IDX 99 33 92 34 100 35 17 36 18 37 19 38 20 39 21 40 22 41 83 42
REMARK SMILES IDX 23 43 82 44 24 45 25 46 26 47 76 48 27 49 81 50 75 51 77 52
REMARK SMILES IDX 28 53 80 54 74 55 73 56 29 58 61 59 41 60 60 61 42 62 45 63
REMARK SMILES IDX 59 64 78 65 43 66 44 67 58 69 79 70 46 71 30 72 31 73 39 74
REMARK SMILES IDX 32 75 34 76 40 77 33 78 35 79 36 80 37 81 38 82 62 83 63 84
REMARK SMILES IDX 71 85 64 86 66 87 72 88 65 89 67 90 68 91 69 92 70 93 47 94
REMARK SMILES IDX 48 95 56 96 49 97 51 98 57 99 50 100 52 101 53 102 54 103
REMARK SMILES IDX 55 104
REMARK H PARENT 77 57 45 68
REMARK Flexibility Score: inf
ROOT
ATOM      1  C   UNL     1       2.607   7.335  -6.811  1.00  0.00     0.202 C 
ENDROOT
BRANCH   1   2
ATOM      2  O   UNL     1       2.497   7.753  -8.168  1.00  0.00    -0.374 OA
BRANCH   2   3
ATOM      3  C   UNL     1       1.208   8.109  -8.666  1.00  0.00     0.202 C 
BRANCH   3   4
ATOM      4  C   UNL     1       0.169   6.997  -8.847  1.00  0.00     0.261 C 
BRANCH   4   5
ATOM      5  O   UNL     1      -0.180   6.368  -7.604  1.00  0.00    -0.460 OA
BRANCH   5   6
ATOM      6  C   UNL     1       0.113   5.048  -7.549  1.00  0.00     0.338 C 
ATOM      7  O   UNL     1       0.535   4.338  -8.447  1.00  0.00    -0.246 OA
BRANCH   6   8
ATOM      8  C   UNL     1       0.080   4.582  -6.154  1.00  0.00     0.060 A 
ATOM      9  C   UNL     1       0.059   3.257  -3.691  1.00  0.00     0.052 A 
ATOM     10  C   UNL     1       1.245   3.358  -4.435  1.00  0.00     0.028 A 
ATOM     11  C   UNL     1      -1.072   3.962  -4.135  1.00  0.00     0.028 A 
ATOM     12  C   UNL     1       1.242   3.973  -5.680  1.00  0.00     0.018 A 
ATOM     13  C   UNL     1      -1.062   4.641  -5.360  1.00  0.00     0.018 A 
BRANCH   9  14
ATOM     14  N   UNL     1      -0.034   2.255  -2.693  1.00  0.00    -0.250 N 
ATOM     15  C   UNL     1       0.982   0.068  -0.192  1.00  0.00     0.024 C 
ATOM     16  C   UNL     1       0.575   0.276  -1.649  1.00  0.00     0.071 C 
ATOM     17  C   UNL     1       1.030   1.635  -2.106  1.00  0.00     0.241 C 
ATOM     18  C   UNL     1      -0.981   0.241  -1.834  1.00  0.00     0.107 C 
ATOM     19  C   UNL     1       1.289  -0.672  -2.698  1.00  0.00     0.066 C 
ATOM     20  O   UNL     1       2.184   2.026  -1.980  1.00  0.00    -0.273 OA
ATOM     21  C   UNL     1      -1.198   1.717  -2.211  1.00  0.00     0.238 C 
ATOM     22  C   UNL     1      -1.317  -1.004  -2.735  1.00  0.00     0.063 C 
ATOM     23  C   UNL     1       0.643  -0.447  -4.086  1.00  0.00    -0.036 A 
ATOM     24  C   UNL     1       0.902  -2.067  -2.272  1.00  0.00    -0.036 A 
ATOM     25  O   UNL     1      -2.172   2.363  -1.834  1.00  0.00    -0.274 OA
ATOM     26  C   UNL     1      -0.762  -0.643  -4.092  1.00  0.00    -0.036 A 
ATOM     27  C   UNL     1      -0.505  -2.249  -2.240  1.00  0.00    -0.036 A 
ATOM     28  C   UNL     1       1.272  -0.001  -5.236  1.00  0.00     0.005 A 
ATOM     29  C   UNL     1       1.802  -3.089  -1.977  1.00  0.00     0.005 A 
ATOM     30  C   UNL     1      -1.540  -0.395  -5.210  1.00  0.00     0.004 A 
ATOM     31  C   UNL     1      -0.997  -3.501  -1.895  1.00  0.00     0.004 A 
ATOM     32  C   UNL     1       0.484   0.274  -6.363  1.00  0.00     0.000 A 
ATOM     33  C   UNL     1       1.293  -4.337  -1.640  1.00  0.00     0.000 A 
ATOM     34  C   UNL     1      -0.906   0.080  -6.350  1.00  0.00     0.000 A 
ATOM     35  C   UNL     1      -0.094  -4.540  -1.597  1.00  0.00     0.000 A 
ENDBRANCH   9  14
ENDBRANCH   6   8
ENDBRANCH   5   6
ENDBRANCH   4   5
ENDBRANCH   3   4
ENDBRANCH   2   3
ENDBRANCH   1   2
BRANCH   1  36
ATOM     36  C   UNL     1       2.426   8.375  -5.696  1.00  0.00     0.261 C 
BRANCH  36  37
ATOM     37  O   UNL     1       1.152   9.032  -5.720  1.00  0.00    -0.460 OA
BRANCH  37  38
ATOM     38  C   UNL     1       1.191  10.328  -6.145  1.00  0.00     0.338 C 
ATOM     39  O   UNL     1       2.165  10.963  -6.467  1.00  0.00    -0.246 OA
BRANCH  38  40
ATOM     40  C   UNL     1      -0.199  10.800  -6.342  1.00  0.00     0.060 A 
ATOM     41  C   UNL     1      -1.139  10.728  -5.315  1.00  0.00     0.016 A 
ATOM     42  C   UNL     1      -0.541  11.344  -7.586  1.00  0.00     0.016 A 
ATOM     43  C   UNL     1      -2.429  11.217  -5.535  1.00  0.00     0.010 A 
ATOM     44  C   UNL     1      -1.832  11.830  -7.804  1.00  0.00     0.010 A 
ATOM     45  C   UNL     1      -2.782  11.782  -6.775  1.00  0.00    -0.014 A 
BRANCH  45  46
ATOM     46  C   UNL     1      -4.108  12.426  -6.945  1.00  0.00     0.031 A 
ATOM     47  C   UNL     1      -5.187  11.804  -7.782  1.00  0.00     0.074 A 
ATOM     48  C   UNL     1      -4.327  13.610  -6.340  1.00  0.00     0.049 A 
ATOM     49  N   UNL     1      -6.419  12.208  -7.957  1.00  0.00    -0.248 NA
ATOM     50  C   UNL     1      -4.847  10.578  -8.520  1.00  0.00     0.031 C 
ATOM     51  C   UNL     1      -3.335  14.345  -5.552  1.00  0.00     0.029 A 
ATOM     52  N   UNL     1      -5.446  14.402  -6.291  1.00  0.00    -0.354 N 
ATOM     53  C   UNL     1      -7.002  11.296  -8.825  1.00  0.00     0.074 A 
ATOM     54  C   UNL     1      -5.983  10.324  -9.160  1.00  0.00     0.031 C 
ATOM     55  C   UNL     1      -3.896  15.468  -5.080  1.00  0.00     0.029 A 
ATOM     56  C   UNL     1      -5.277  15.545  -5.547  1.00  0.00     0.049 A 
ATOM     57  H   UNL     1      -6.289  14.173  -6.745  1.00  0.00     0.167 HD
ATOM     58  C   UNL     1      -8.277  11.261  -9.279  1.00  0.00     0.034 A 
ATOM     59  C   UNL     1      -6.136  16.544  -5.264  1.00  0.00     0.034 A 
ATOM     60  C   UNL     1      -9.293  12.220  -8.934  1.00  0.00     0.049 A 
ATOM     61  C   UNL     1      -7.545  16.477  -5.776  1.00  0.00     0.074 A 
ATOM     62  C   UNL     1     -10.628  12.220  -9.299  1.00  0.00     0.029 A 
ATOM     63  N   UNL     1      -9.089  13.352  -8.162  1.00  0.00    -0.354 N 
ATOM     64  N   UNL     1      -8.115  15.533  -6.484  1.00  0.00    -0.248 NA
ATOM     65  C   UNL     1      -8.437  17.594  -5.431  1.00  0.00     0.031 C 
ATOM     66  C   UNL     1     -11.227  13.365  -8.768  1.00  0.00     0.029 A 
ATOM     67  C   UNL     1     -10.271  14.065  -8.050  1.00  0.00     0.049 A 
ATOM     68  H   UNL     1      -8.232  13.612  -7.754  1.00  0.00     0.167 HD
ATOM     69  C   UNL     1      -9.435  15.930  -6.653  1.00  0.00     0.074 A 
ATOM     70  C   UNL     1      -9.586  17.194  -5.963  1.00  0.00     0.031 C 
ATOM     71  C   UNL     1     -10.426  15.302  -7.330  1.00  0.00     0.034 A 
BRANCH  58  72
ATOM     72  C   UNL     1      -8.688  10.113 -10.160  1.00  0.00     0.023 A 
ATOM     73  C   UNL     1      -8.961   8.863  -9.571  1.00  0.00     0.012 A 
ATOM     74  C   UNL     1      -8.933  10.303 -11.534  1.00  0.00     0.148 A 
ATOM     75  C   UNL     1      -9.469   7.815 -10.336  1.00  0.00     0.002 A 
ATOM     76  C   UNL     1      -9.465   9.261 -12.286  1.00  0.00     0.091 A 
ATOM     77  F   UNL     1      -8.661  11.501 -12.071  1.00  0.00    -0.205 F 
ATOM     78  C   UNL     1      -9.731   8.017 -11.689  1.00  0.00     0.022 A 
BRANCH  76  79
ATOM     79  S   UNL     1      -9.886   9.429 -14.024  1.00  0.00     0.127 S 
ATOM     80  O   UNL     1      -8.958   8.482 -14.642  1.00  0.00    -0.237 OA
ATOM     81  O   UNL     1     -11.287   9.009 -14.041  1.00  0.00    -0.237 OA
ATOM     82  O   UNL     1      -9.659  10.826 -14.363  1.00  0.00    -0.744 OA
ENDBRANCH  76  79
ENDBRANCH  58  72
BRANCH  59  83
ATOM     83  C   UNL     1      -5.684  17.659  -4.390  1.00  0.00     0.023 A 
ATOM     84  C   UNL     1      -6.108  17.699  -3.049  1.00  0.00     0.012 A 
ATOM     85  C   UNL     1      -4.774  18.625  -4.859  1.00  0.00     0.148 A 
ATOM     86  C   UNL     1      -5.637  18.690  -2.188  1.00  0.00     0.002 A 
ATOM     87  C   UNL     1      -4.280  19.587  -3.987  1.00  0.00     0.091 A 
ATOM     88  F   UNL     1      -4.386  18.558  -6.140  1.00  0.00    -0.205 F 
ATOM     89  C   UNL     1      -4.716  19.626  -2.653  1.00  0.00     0.022 A 
BRANCH  87  90
ATOM     90  S   UNL     1      -3.025  20.778  -4.466  1.00  0.00     0.127 S 
ATOM     91  O   UNL     1      -3.732  22.044  -4.287  1.00  0.00    -0.237 OA
ATOM     92  O   UNL     1      -1.974  20.513  -3.483  1.00  0.00    -0.237 OA
ATOM     93  O   UNL     1      -2.670  20.451  -5.840  1.00  0.00    -0.744 OA
ENDBRANCH  87  90
ENDBRANCH  59  83
BRANCH  71  94
ATOM     94  C   UNL     1     -11.785  15.947  -7.366  1.00  0.00     0.023 A 
ATOM     95  C   UNL     1     -12.017  17.025  -8.241  1.00  0.00     0.012 A 
ATOM     96  C   UNL     1     -12.859  15.397  -6.638  1.00  0.00     0.148 A 
ATOM     97  C   UNL     1     -13.300  17.550  -8.389  1.00  0.00     0.002 A 
ATOM     98  C   UNL     1     -14.140  15.903  -6.817  1.00  0.00     0.091 A 
ATOM     99  F   UNL     1     -12.608  14.374  -5.809  1.00  0.00    -0.205 F 
ATOM    100  C   UNL     1     -14.362  16.982  -7.689  1.00  0.00     0.022 A 
BRANCH  98 101
ATOM    101  S   UNL     1     -15.584  15.197  -6.013  1.00  0.00     0.127 S 
ATOM    102  O   UNL     1     -16.015  16.299  -5.154  1.00  0.00    -0.237 OA
ATOM    103  O   UNL     1     -16.466  14.926  -7.148  1.00  0.00    -0.237 OA
ATOM    104  O   UNL     1     -15.116  14.011  -5.308  1.00  0.00    -0.744 OA
ENDBRANCH  98 101
ENDBRANCH  71  94
ENDBRANCH  45  46
ENDBRANCH  38  40
ENDBRANCH  37  38
ENDBRANCH  36  37
ENDBRANCH   1  36
TORSDOF 18
