REMARK SMILES O=C(OCCOCCOC(=O)c1cc2ccc(F)cc2o1)c1ccc(-c2c3nc(c(-c4cccc(S(=O)(=O)[O-])c4F)c4ccc([nH]4)c(-c4cccc(S(=O)(=O)[O-])c4F)c4nc(c(-c5cccc(S(=O)(=O)[O-])c5F)c5ccc2[nH]5)C=C4)C=C3)cc1
REMARK SMILES IDX 4 1 3 2 2 3 1 4 22 5 23 6 84 7 24 8 83 9 25 10 26 11 27 12
REMARK SMILES IDX 77 13 28 14 82 15 76 16 78 17 29 18 81 19 75 20 74 21 30 23
REMARK SMILES IDX 62 24 42 25 61 26 43 27 46 28 60 29 79 30 44 31 45 32 59 34
REMARK SMILES IDX 80 35 47 36 31 37 32 38 40 39 33 40 35 41 41 42 34 43 36 44
REMARK SMILES IDX 37 45 38 46 39 47 63 48 64 49 72 50 65 51 67 52 73 53 66 54
REMARK SMILES IDX 68 55 69 56 70 57 71 58 48 59 49 60 57 61 50 62 52 63 58 64
REMARK SMILES IDX 51 65 53 66 54 67 55 68 56 69 5 70 6 71 7 72 8 73 9 74 10 75
REMARK SMILES IDX 11 76 12 77 13 78 21 79 14 80 20 81 15 82 19 83 16 84 17 85
REMARK SMILES IDX 18 86
REMARK H PARENT 78 22 46 33
REMARK Flexibility Score: inf
ROOT
ATOM      1  C   UNL     1       3.518  -1.835  -0.392  1.00  0.00     0.261 C 
ENDROOT
BRANCH   1   2
ATOM      2  O   UNL     1       2.669  -1.383   0.698  1.00  0.00    -0.460 OA
BRANCH   2   3
ATOM      3  C   UNL     1       2.723  -0.328   1.549  1.00  0.00     0.338 C 
ATOM      4  O   UNL     1       1.872  -0.206   2.426  1.00  0.00    -0.246 OA
BRANCH   3   5
ATOM      5  C   UNL     1       3.684   0.779   1.334  1.00  0.00     0.060 A 
ATOM      6  C   UNL     1       3.190   2.101   1.370  1.00  0.00     0.016 A 
ATOM      7  C   UNL     1       5.005   0.552   0.978  1.00  0.00     0.016 A 
ATOM      8  C   UNL     1       3.941   3.155   0.833  1.00  0.00     0.010 A 
ATOM      9  C   UNL     1       5.738   1.596   0.422  1.00  0.00     0.010 A 
ATOM     10  C   UNL     1       5.189   2.884   0.269  1.00  0.00    -0.014 A 
BRANCH  10  11
ATOM     11  C   UNL     1       6.089   3.943  -0.214  1.00  0.00     0.031 A 
ATOM     12  C   UNL     1       6.916   4.464   0.889  1.00  0.00     0.074 A 
ATOM     13  C   UNL     1       6.364   4.361  -1.472  1.00  0.00     0.049 A 
ATOM     14  N   UNL     1       6.642   5.533   1.563  1.00  0.00    -0.248 NA
ATOM     15  C   UNL     1       8.006   3.650   1.437  1.00  0.00     0.031 C 
ATOM     16  C   UNL     1       5.729   4.038  -2.739  1.00  0.00     0.029 A 
ATOM     17  N   UNL     1       7.419   5.118  -1.897  1.00  0.00    -0.354 N 
ATOM     18  C   UNL     1       7.691   5.647   2.452  1.00  0.00     0.074 A 
ATOM     19  C   UNL     1       8.298   4.341   2.541  1.00  0.00     0.031 C 
ATOM     20  C   UNL     1       6.572   4.254  -3.775  1.00  0.00     0.029 A 
ATOM     21  C   UNL     1       7.710   4.983  -3.256  1.00  0.00     0.049 A 
ATOM     22  H   UNL     1       7.930   5.708  -1.296  1.00  0.00     0.167 HD
ATOM     23  C   UNL     1       8.222   6.856   2.774  1.00  0.00     0.034 A 
ATOM     24  C   UNL     1       8.706   5.577  -3.958  1.00  0.00     0.034 A 
ATOM     25  C   UNL     1       7.460   7.959   2.255  1.00  0.00     0.049 A 
ATOM     26  C   UNL     1       8.980   6.840  -3.235  1.00  0.00     0.074 A 
ATOM     27  C   UNL     1       6.145   8.370   2.349  1.00  0.00     0.029 A 
ATOM     28  N   UNL     1       7.974   8.591   1.145  1.00  0.00    -0.354 N 
ATOM     29  N   UNL     1       8.117   7.816  -3.161  1.00  0.00    -0.248 NA
ATOM     30  C   UNL     1      10.019   6.834  -2.220  1.00  0.00     0.031 C 
ATOM     31  C   UNL     1       5.811   8.851   1.048  1.00  0.00     0.029 A 
ATOM     32  C   UNL     1       6.951   8.763   0.249  1.00  0.00     0.049 A 
ATOM     33  H   UNL     1       8.909   8.869   1.018  1.00  0.00     0.167 HD
ATOM     34  C   UNL     1       8.204   8.236  -1.841  1.00  0.00     0.074 A 
ATOM     35  C   UNL     1       9.461   7.677  -1.346  1.00  0.00     0.031 C 
ATOM     36  C   UNL     1       7.120   8.749  -1.189  1.00  0.00     0.034 A 
BRANCH  23  37
ATOM     37  C   UNL     1       9.636   6.998   3.232  1.00  0.00     0.023 A 
ATOM     38  C   UNL     1       9.963   8.063   4.084  1.00  0.00     0.012 A 
ATOM     39  C   UNL     1      10.691   6.204   2.731  1.00  0.00     0.148 A 
ATOM     40  C   UNL     1      11.288   8.290   4.466  1.00  0.00     0.002 A 
ATOM     41  C   UNL     1      11.983   6.359   3.201  1.00  0.00     0.091 A 
ATOM     42  F   UNL     1      10.462   5.368   1.708  1.00  0.00    -0.205 F 
ATOM     43  C   UNL     1      12.293   7.415   4.057  1.00  0.00     0.022 A 
BRANCH  41  44
ATOM     44  S   UNL     1      13.261   5.175   2.777  1.00  0.00     0.127 S 
ATOM     45  O   UNL     1      13.976   5.880   1.718  1.00  0.00    -0.237 OA
ATOM     46  O   UNL     1      13.987   5.044   4.040  1.00  0.00    -0.237 OA
ATOM     47  O   UNL     1      12.537   3.972   2.382  1.00  0.00    -0.744 OA
ENDBRANCH  41  44
ENDBRANCH  23  37
BRANCH  24  48
ATOM     48  C   UNL     1       9.642   5.007  -4.965  1.00  0.00     0.023 A 
ATOM     49  C   UNL     1      10.559   5.875  -5.601  1.00  0.00     0.012 A 
ATOM     50  C   UNL     1       9.857   3.616  -5.095  1.00  0.00     0.148 A 
ATOM     51  C   UNL     1      11.688   5.386  -6.269  1.00  0.00     0.002 A 
ATOM     52  C   UNL     1      10.986   3.132  -5.761  1.00  0.00     0.091 A 
ATOM     53  F   UNL     1       9.005   2.771  -4.497  1.00  0.00    -0.205 F 
ATOM     54  C   UNL     1      11.912   4.016  -6.333  1.00  0.00     0.022 A 
BRANCH  52  55
ATOM     55  S   UNL     1      11.369   1.376  -5.873  1.00  0.00     0.127 S 
ATOM     56  O   UNL     1      11.718   1.224  -7.286  1.00  0.00    -0.237 OA
ATOM     57  O   UNL     1      12.492   1.247  -4.950  1.00  0.00    -0.237 OA
ATOM     58  O   UNL     1      10.153   0.675  -5.479  1.00  0.00    -0.744 OA
ENDBRANCH  52  55
ENDBRANCH  24  48
BRANCH  36  59
ATOM     59  C   UNL     1       5.900   9.105  -2.002  1.00  0.00     0.023 A 
ATOM     60  C   UNL     1       5.073   8.125  -2.592  1.00  0.00     0.012 A 
ATOM     61  C   UNL     1       5.471  10.442  -1.992  1.00  0.00     0.148 A 
ATOM     62  C   UNL     1       3.842   8.474  -3.158  1.00  0.00     0.002 A 
ATOM     63  C   UNL     1       4.232  10.780  -2.523  1.00  0.00     0.091 A 
ATOM     64  F   UNL     1       6.269  11.355  -1.419  1.00  0.00    -0.205 F 
ATOM     65  C   UNL     1       3.414   9.799  -3.109  1.00  0.00     0.022 A 
BRANCH  63  66
ATOM     66  S   UNL     1       3.572  12.444  -2.403  1.00  0.00     0.127 S 
ATOM     67  O   UNL     1       3.544  12.864  -3.803  1.00  0.00    -0.237 OA
ATOM     68  O   UNL     1       2.255  12.212  -1.807  1.00  0.00    -0.237 OA
ATOM     69  O   UNL     1       4.494  13.187  -1.552  1.00  0.00    -0.744 OA
ENDBRANCH  63  66
ENDBRANCH  36  59
ENDBRANCH  10  11
ENDBRANCH   3   5
ENDBRANCH   2   3
ENDBRANCH   1   2
BRANCH   1  70
ATOM     70  C   UNL     1       3.582  -0.978  -1.652  1.00  0.00     0.202 C 
BRANCH  70  71
ATOM     71  O   UNL     1       2.340  -0.444  -2.130  1.00  0.00    -0.374 OA
BRANCH  71  72
ATOM     72  C   UNL     1       2.058   0.875  -1.654  1.00  0.00     0.202 C 
BRANCH  72  73
ATOM     73  C   UNL     1       2.174   2.017  -2.680  1.00  0.00     0.261 C 
BRANCH  73  74
ATOM     74  O   UNL     1       3.013   1.716  -3.800  1.00  0.00    -0.457 OA
BRANCH  74  75
ATOM     75  C   UNL     1       4.301   1.458  -3.464  1.00  0.00     0.374 C 
ATOM     76  O   UNL     1       4.749   1.595  -2.328  1.00  0.00    -0.242 OA
BRANCH  75  77
ATOM     77  C   UNL     1       5.050   0.902  -4.534  1.00  0.00     0.212 A 
ATOM     78  C   UNL     1       6.293   0.305  -4.494  1.00  0.00     0.067 A 
ATOM     79  O   UNL     1       4.532   0.857  -5.793  1.00  0.00    -0.449 OA
ATOM     80  C   UNL     1       6.511  -0.234  -5.776  1.00  0.00     0.021 A 
ATOM     81  C   UNL     1       5.426   0.167  -6.546  1.00  0.00     0.138 A 
ATOM     82  C   UNL     1       7.513  -1.015  -6.366  1.00  0.00     0.015 A 
ATOM     83  C   UNL     1       5.272  -0.123  -7.893  1.00  0.00     0.087 A 
ATOM     84  C   UNL     1       7.374  -1.353  -7.716  1.00  0.00     0.040 A 
ATOM     85  C   UNL     1       6.279  -0.903  -8.453  1.00  0.00     0.126 A 
ATOM     86  F   UNL     1       6.183  -1.240  -9.747  1.00  0.00    -0.207 F 
ENDBRANCH  75  77
ENDBRANCH  74  75
ENDBRANCH  73  74
ENDBRANCH  72  73
ENDBRANCH  71  72
ENDBRANCH  70  71
ENDBRANCH   1  70
TORSDOF 17
