REMARK SMILES O=C(OCCOCCOC(=O)c1nn2cc(Br)cnc2c1Br)c1ccc(-c2c3nc(c(-c4cccc(S(=O)(=O)[O-])c4F)c4ccc([nH]4)c(-c4cccc(S(=O)(=O)[O-])c4F)c4nc(c(-c5cccc(S(=O)(=O)[O-])c5F)c5ccc2[nH]5)C=C4)C=C3)cc1
REMARK SMILES IDX 4 1 3 2 2 3 1 4 23 5 24 6 85 7 25 8 84 9 26 10 27 11 28 12
REMARK SMILES IDX 78 13 29 14 83 15 77 16 79 17 30 18 82 19 76 20 75 21 31 23
REMARK SMILES IDX 63 24 43 25 62 26 44 27 47 28 61 29 80 30 45 31 46 32 60 34
REMARK SMILES IDX 81 35 48 36 32 37 33 38 41 39 34 40 36 41 42 42 35 43 37 44
REMARK SMILES IDX 38 45 39 46 40 47 64 48 65 49 73 50 66 51 68 52 74 53 67 54
REMARK SMILES IDX 69 55 70 56 71 57 72 58 49 59 50 60 58 61 51 62 53 63 59 64
REMARK SMILES IDX 52 65 54 66 55 67 56 68 57 69 5 70 6 71 7 72 8 73 9 74 10 75
REMARK SMILES IDX 11 76 12 77 13 78 21 79 14 80 20 81 22 82 15 83 19 84 16 85
REMARK SMILES IDX 18 86 17 87
REMARK H PARENT 79 22 47 33
REMARK Flexibility Score: inf
ROOT
ATOM      1  C   UNL     1       4.515   1.266  -0.117  1.00  0.00     0.261 C 
ENDROOT
BRANCH   1   2
ATOM      2  O   UNL     1       3.128   1.628  -0.016  1.00  0.00    -0.460 OA
BRANCH   2   3
ATOM      3  C   UNL     1       2.036   0.937  -0.412  1.00  0.00     0.338 C 
ATOM      4  O   UNL     1       0.987   1.112   0.208  1.00  0.00    -0.246 OA
BRANCH   3   5
ATOM      5  C   UNL     1       2.004   0.066  -1.625  1.00  0.00     0.060 A 
ATOM      6  C   UNL     1       3.100  -0.281  -2.411  1.00  0.00     0.016 A 
ATOM      7  C   UNL     1       0.726  -0.349  -2.049  1.00  0.00     0.016 A 
ATOM      8  C   UNL     1       2.915  -0.796  -3.683  1.00  0.00     0.010 A 
ATOM      9  C   UNL     1       0.538  -0.926  -3.299  1.00  0.00     0.010 A 
ATOM     10  C   UNL     1       1.627  -1.046  -4.152  1.00  0.00    -0.014 A 
BRANCH  10  11
ATOM     11  C   UNL     1       1.501  -1.374  -5.565  1.00  0.00     0.031 A 
ATOM     12  C   UNL     1       2.251  -2.565  -6.041  1.00  0.00     0.074 A 
ATOM     13  C   UNL     1       0.774  -0.626  -6.416  1.00  0.00     0.049 A 
ATOM     14  N   UNL     1       3.252  -2.599  -6.861  1.00  0.00    -0.248 NA
ATOM     15  C   UNL     1       1.905  -3.863  -5.452  1.00  0.00     0.031 C 
ATOM     16  C   UNL     1      -0.210   0.413  -6.096  1.00  0.00     0.029 A 
ATOM     17  N   UNL     1       0.684  -0.735  -7.771  1.00  0.00    -0.354 N 
ATOM     18  C   UNL     1       3.542  -3.950  -7.049  1.00  0.00     0.074 A 
ATOM     19  C   UNL     1       2.778  -4.667  -6.060  1.00  0.00     0.031 C 
ATOM     20  C   UNL     1      -0.976   0.642  -7.185  1.00  0.00     0.029 A 
ATOM     21  C   UNL     1      -0.432  -0.108  -8.302  1.00  0.00     0.049 A 
ATOM     22  H   UNL     1       1.348  -1.212  -8.320  1.00  0.00     0.167 HD
ATOM     23  C   UNL     1       4.245  -4.396  -8.125  1.00  0.00     0.034 A 
ATOM     24  C   UNL     1      -0.920  -0.271  -9.552  1.00  0.00     0.034 A 
ATOM     25  C   UNL     1       4.955  -3.334  -8.786  1.00  0.00     0.049 A 
ATOM     26  C   UNL     1       0.185  -0.758 -10.406  1.00  0.00     0.074 A 
ATOM     27  C   UNL     1       5.969  -2.461  -8.450  1.00  0.00     0.029 A 
ATOM     28  N   UNL     1       4.417  -2.859  -9.955  1.00  0.00    -0.354 N 
ATOM     29  N   UNL     1       1.227  -0.043 -10.728  1.00  0.00    -0.248 NA
ATOM     30  C   UNL     1       0.311  -2.187 -10.641  1.00  0.00     0.031 C 
ATOM     31  C   UNL     1       5.703  -1.275  -9.195  1.00  0.00     0.029 A 
ATOM     32  C   UNL     1       4.547  -1.497  -9.946  1.00  0.00     0.049 A 
ATOM     33  H   UNL     1       4.012  -3.400 -10.671  1.00  0.00     0.167 HD
ATOM     34  C   UNL     1       2.271  -0.955 -10.791  1.00  0.00     0.074 A 
ATOM     35  C   UNL     1       1.623  -2.260 -10.879  1.00  0.00     0.031 C 
ATOM     36  C   UNL     1       3.550  -0.589 -10.476  1.00  0.00     0.034 A 
BRANCH  23  37
ATOM     37  C   UNL     1       4.059  -5.740  -8.796  1.00  0.00     0.023 A 
ATOM     38  C   UNL     1       4.976  -6.091  -9.816  1.00  0.00     0.012 A 
ATOM     39  C   UNL     1       2.900  -6.539  -8.681  1.00  0.00     0.148 A 
ATOM     40  C   UNL     1       4.723  -7.138 -10.709  1.00  0.00     0.002 A 
ATOM     41  C   UNL     1       2.694  -7.631  -9.519  1.00  0.00     0.091 A 
ATOM     42  F   UNL     1       1.915  -6.179  -7.853  1.00  0.00    -0.205 F 
ATOM     43  C   UNL     1       3.584  -7.915 -10.556  1.00  0.00     0.022 A 
BRANCH  41  44
ATOM     44  S   UNL     1       1.267  -8.703  -9.311  1.00  0.00     0.127 S 
ATOM     45  O   UNL     1       0.358  -8.184 -10.327  1.00  0.00    -0.237 OA
ATOM     46  O   UNL     1       1.831 -10.022  -9.599  1.00  0.00    -0.237 OA
ATOM     47  O   UNL     1       0.860  -8.524  -7.922  1.00  0.00    -0.744 OA
ENDBRANCH  41  44
ENDBRANCH  23  37
BRANCH  24  48
ATOM     48  C   UNL     1      -2.331  -0.296  -9.990  1.00  0.00     0.023 A 
ATOM     49  C   UNL     1      -2.639  -0.080 -11.346  1.00  0.00     0.012 A 
ATOM     50  C   UNL     1      -3.344  -0.802  -9.143  1.00  0.00     0.148 A 
ATOM     51  C   UNL     1      -3.904  -0.394 -11.853  1.00  0.00     0.002 A 
ATOM     52  C   UNL     1      -4.603  -1.105  -9.651  1.00  0.00     0.091 A 
ATOM     53  F   UNL     1      -3.045  -1.079  -7.867  1.00  0.00    -0.205 F 
ATOM     54  C   UNL     1      -4.883  -0.913 -11.009  1.00  0.00     0.022 A 
BRANCH  52  55
ATOM     55  S   UNL     1      -5.904  -1.802  -8.624  1.00  0.00     0.127 S 
ATOM     56  O   UNL     1      -7.061  -0.993  -9.008  1.00  0.00    -0.237 OA
ATOM     57  O   UNL     1      -5.944  -3.186  -9.089  1.00  0.00    -0.237 OA
ATOM     58  O   UNL     1      -5.470  -1.607  -7.247  1.00  0.00    -0.744 OA
ENDBRANCH  52  55
ENDBRANCH  24  48
BRANCH  36  59
ATOM     59  C   UNL     1       3.860   0.883 -10.343  1.00  0.00     0.023 A 
ATOM     60  C   UNL     1       3.234   1.683  -9.364  1.00  0.00     0.012 A 
ATOM     61  C   UNL     1       4.934   1.424 -11.073  1.00  0.00     0.148 A 
ATOM     62  C   UNL     1       3.648   2.997  -9.136  1.00  0.00     0.002 A 
ATOM     63  C   UNL     1       5.378   2.716 -10.807  1.00  0.00     0.091 A 
ATOM     64  F   UNL     1       5.530   0.652 -11.995  1.00  0.00    -0.205 F 
ATOM     65  C   UNL     1       4.730   3.509  -9.847  1.00  0.00     0.022 A 
BRANCH  63  66
ATOM     66  S   UNL     1       6.858   3.383 -11.575  1.00  0.00     0.127 S 
ATOM     67  O   UNL     1       6.303   4.300 -12.567  1.00  0.00    -0.237 OA
ATOM     68  O   UNL     1       7.531   4.036 -10.449  1.00  0.00    -0.237 OA
ATOM     69  O   UNL     1       7.581   2.236 -12.111  1.00  0.00    -0.744 OA
ENDBRANCH  63  66
ENDBRANCH  36  59
ENDBRANCH  10  11
ENDBRANCH   3   5
ENDBRANCH   2   3
ENDBRANCH   1   2
BRANCH   1  70
ATOM     70  C   UNL     1       4.920   0.131   0.822  1.00  0.00     0.202 C 
BRANCH  70  71
ATOM     71  O   UNL     1       4.298  -1.135   0.632  1.00  0.00    -0.374 OA
BRANCH  71  72
ATOM     72  C   UNL     1       3.136  -1.429   1.420  1.00  0.00     0.202 C 
BRANCH  72  73
ATOM     73  C   UNL     1       3.328  -1.623   2.932  1.00  0.00     0.261 C 
BRANCH  73  74
ATOM     74  O   UNL     1       3.534  -0.360   3.596  1.00  0.00    -0.458 OA
BRANCH  74  75
ATOM     75  C   UNL     1       4.769  -0.171   4.157  1.00  0.00     0.360 C 
ATOM     76  O   UNL     1       5.606  -1.040   4.310  1.00  0.00    -0.244 OA
BRANCH  75  77
ATOM     77  C   UNL     1       5.031   1.249   4.417  1.00  0.00     0.187 A 
ATOM     78  N   UNL     1       5.969   1.911   3.708  1.00  0.00    -0.158 NA
ATOM     79  C   UNL     1       4.424   2.101   5.357  1.00  0.00     0.097 A 
ATOM     80  N   UNL     1       5.963   3.169   4.200  1.00  0.00    -0.219 N 
ATOM     81  C   UNL     1       5.057   3.317   5.255  1.00  0.00     0.170 A 
ATOM     82  Br  UNL     1       3.080   1.618   6.567  1.00  0.00    -0.044 Br
ATOM     83  C   UNL     1       6.754   4.232   3.784  1.00  0.00     0.132 A 
ATOM     84  N   UNL     1       4.945   4.493   5.952  1.00  0.00    -0.235 NA
ATOM     85  C   UNL     1       6.684   5.411   4.414  1.00  0.00     0.054 A 
ATOM     86  C   UNL     1       5.717   5.462   5.552  1.00  0.00     0.131 A 
ATOM     87  Br  UNL     1       7.688   6.904   3.996  1.00  0.00    -0.047 Br
ENDBRANCH  75  77
ENDBRANCH  74  75
ENDBRANCH  73  74
ENDBRANCH  72  73
ENDBRANCH  71  72
ENDBRANCH  70  71
ENDBRANCH   1  70
TORSDOF 17
