REMARK SMILES Cc1n[nH]c(C)c1CC(=O)N1CC[C@H](C(=O)OCCOCCOC(=O)c2ccc(-c3c4nc(c(-c5cccc(S(=O)(=O)[O-])c5F)c5ccc([nH]5)c(-c5cccc(S(=O)(=O)[O-])c5F)c5nc(c(-c6cccc(S(=O)(=O)[O-])c6F)c6ccc3[nH]6)C=C5)C=C4)cc2)[C@H]1C
REMARK SMILES IDX 20 1 19 2 18 3 17 4 15 5 16 6 14 7 11 8 12 9 89 10 13 11
REMARK SMILES IDX 90 12 9 13 10 14 8 15 7 16 1 17 2 18 3 19 4 20 5 21 6 23
REMARK SMILES IDX 21 24 22 25 23 26 24 27 25 28 26 29 27 30 88 31 28 32 87 33
REMARK SMILES IDX 29 34 30 35 31 36 81 37 32 38 86 39 80 40 82 41 33 42 85 43
REMARK SMILES IDX 79 44 78 45 34 47 66 48 46 49 65 50 47 51 50 52 64 53 83 54
REMARK SMILES IDX 48 55 49 56 63 58 84 59 51 60 35 61 36 62 44 63 37 64 39 65
REMARK SMILES IDX 45 66 38 67 40 68 41 69 42 70 43 71 67 72 68 73 76 74 69 75
REMARK SMILES IDX 71 76 77 77 70 78 72 79 73 80 74 81 75 82 52 83 53 84 61 85
REMARK SMILES IDX 54 86 56 87 62 88 55 89 57 90 58 91 59 92 60 93
REMARK H PARENT 4 22 82 46 50 57
REMARK Flexibility Score: inf
ROOT
ATOM      1  O   UNL     1      -3.736  -2.293   5.732  1.00  0.00    -0.374 OA
ENDROOT
BRANCH   1   2
ATOM      2  C   UNL     1      -3.799  -0.876   5.575  1.00  0.00     0.202 C 
BRANCH   2   3
ATOM      3  C   UNL     1      -2.528  -0.076   5.881  1.00  0.00     0.261 C 
BRANCH   3   4
ATOM      4  O   UNL     1      -1.413  -0.444   5.043  1.00  0.00    -0.463 OA
BRANCH   4   5
ATOM      5  C   UNL     1      -0.432  -1.126   5.678  1.00  0.00     0.311 C 
ATOM      6  O   UNL     1      -0.436  -1.388   6.878  1.00  0.00    -0.252 OA
BRANCH   5   7
ATOM      7  C   UNL     1       0.731  -1.550   4.804  1.00  0.00     0.123 C 
ATOM      8  N   UNL     1       0.407  -2.697   2.715  1.00  0.00    -0.339 N 
ATOM      9  C   UNL     1       0.384  -3.703   3.758  1.00  0.00     0.121 C 
ATOM     10  C   UNL     1       0.723  -1.367   3.268  1.00  0.00     0.096 C 
ATOM     11  C   UNL     1       0.992  -3.051   4.984  1.00  0.00     0.039 C 
ATOM     12  C   UNL     1       2.131  -0.928   2.863  1.00  0.00     0.032 C 
BRANCH   8  13
ATOM     13  C   UNL     1      -0.031  -3.055   1.450  1.00  0.00     0.227 C 
ATOM     14  O   UNL     1      -0.698  -4.095   1.322  1.00  0.00    -0.275 OA
BRANCH  13  15
ATOM     15  C   UNL     1       0.495  -2.391   0.177  1.00  0.00     0.139 C 
BRANCH  15  16
ATOM     16  C   UNL     1       0.385  -0.919  -0.004  1.00  0.00     0.005 A 
ATOM     17  C   UNL     1      -2.196  -0.605  -0.137  1.00  0.00     0.069 C 
ATOM     18  C   UNL     1      -0.796  -0.141  -0.105  1.00  0.00     0.063 A 
ATOM     19  N   UNL     1      -0.530   1.157  -0.261  1.00  0.00    -0.181 NA
ATOM     20  N   UNL     1       0.797   1.211  -0.385  1.00  0.00    -0.282 N 
ATOM     21  C   UNL     1       1.391  -0.020  -0.337  1.00  0.00     0.036 A 
ATOM     22  H   UNL     1       1.298   2.051  -0.499  1.00  0.00     0.190 HD
ATOM     23  C   UNL     1       2.828  -0.197  -0.659  1.00  0.00     0.066 C 
ENDBRANCH  15  16
ENDBRANCH  13  15
ENDBRANCH   8  13
ENDBRANCH   5   7
ENDBRANCH   4   5
ENDBRANCH   3   4
ENDBRANCH   2   3
ENDBRANCH   1   2
BRANCH   1  24
ATOM     24  C   UNL     1      -3.060  -3.019   4.708  1.00  0.00     0.202 C 
BRANCH  24  25
ATOM     25  C   UNL     1      -3.814  -3.281   3.400  1.00  0.00     0.261 C 
BRANCH  25  26
ATOM     26  O   UNL     1      -4.197  -2.069   2.734  1.00  0.00    -0.460 OA
BRANCH  26  27
ATOM     27  C   UNL     1      -5.514  -1.767   2.811  1.00  0.00     0.338 C 
ATOM     28  O   UNL     1      -6.403  -2.444   3.312  1.00  0.00    -0.246 OA
BRANCH  27  29
ATOM     29  C   UNL     1      -5.721  -0.384   2.351  1.00  0.00     0.060 A 
ATOM     30  C   UNL     1      -6.378   0.510   3.202  1.00  0.00     0.016 A 
ATOM     31  C   UNL     1      -5.306   0.024   1.085  1.00  0.00     0.016 A 
ATOM     32  C   UNL     1      -6.660   1.804   2.766  1.00  0.00     0.010 A 
ATOM     33  C   UNL     1      -5.543   1.335   0.667  1.00  0.00     0.010 A 
ATOM     34  C   UNL     1      -6.274   2.216   1.482  1.00  0.00    -0.014 A 
BRANCH  34  35
ATOM     35  C   UNL     1      -6.788   3.494   0.927  1.00  0.00     0.031 A 
ATOM     36  C   UNL     1      -7.816   3.445  -0.176  1.00  0.00     0.074 A 
ATOM     37  C   UNL     1      -6.363   4.679   1.402  1.00  0.00     0.049 A 
ATOM     38  N   UNL     1      -8.387   4.427  -0.823  1.00  0.00    -0.248 NA
ATOM     39  C   UNL     1      -8.248   2.107  -0.622  1.00  0.00     0.031 C 
ATOM     40  C   UNL     1      -5.351   4.861   2.443  1.00  0.00     0.029 A 
ATOM     41  N   UNL     1      -6.717   5.959   1.053  1.00  0.00    -0.354 N 
ATOM     42  C   UNL     1      -9.216   3.829  -1.766  1.00  0.00     0.074 A 
ATOM     43  C   UNL     1      -9.046   2.400  -1.636  1.00  0.00     0.031 C 
ATOM     44  C   UNL     1      -5.153   6.176   2.636  1.00  0.00     0.029 A 
ATOM     45  C   UNL     1      -6.006   6.930   1.720  1.00  0.00     0.049 A 
ATOM     46  H   UNL     1      -7.413   6.163   0.388  1.00  0.00     0.167 HD
ATOM     47  C   UNL     1     -10.072   4.412  -2.638  1.00  0.00     0.034 A 
ATOM     48  C   UNL     1      -6.030   8.272   1.592  1.00  0.00     0.034 A 
ATOM     49  C   UNL     1     -10.273   5.830  -2.737  1.00  0.00     0.049 A 
ATOM     50  C   UNL     1      -7.003   8.897   0.625  1.00  0.00     0.074 A 
ATOM     51  C   UNL     1     -11.150   6.521  -3.554  1.00  0.00     0.029 A 
ATOM     52  N   UNL     1      -9.590   6.777  -1.990  1.00  0.00    -0.354 N 
ATOM     53  N   UNL     1      -7.865   8.315  -0.174  1.00  0.00    -0.248 NA
ATOM     54  C   UNL     1      -7.035  10.367   0.569  1.00  0.00     0.031 C 
ATOM     55  C   UNL     1     -10.984   7.888  -3.313  1.00  0.00     0.029 A 
ATOM     56  C   UNL     1     -10.025   8.047  -2.326  1.00  0.00     0.049 A 
ATOM     57  H   UNL     1      -8.897   6.576  -1.320  1.00  0.00     0.167 HD
ATOM     58  C   UNL     1      -8.563   9.342  -0.799  1.00  0.00     0.074 A 
ATOM     59  C   UNL     1      -8.041  10.584  -0.268  1.00  0.00     0.031 C 
ATOM     60  C   UNL     1      -9.535   9.268  -1.742  1.00  0.00     0.034 A 
BRANCH  47  61
ATOM     61  C   UNL     1     -10.897   3.507  -3.517  1.00  0.00     0.023 A 
ATOM     62  C   UNL     1     -11.938   2.746  -2.945  1.00  0.00     0.012 A 
ATOM     63  C   UNL     1     -10.680   3.446  -4.907  1.00  0.00     0.148 A 
ATOM     64  C   UNL     1     -12.727   1.912  -3.736  1.00  0.00     0.002 A 
ATOM     65  C   UNL     1     -11.501   2.647  -5.696  1.00  0.00     0.091 A 
ATOM     66  F   UNL     1      -9.674   4.160  -5.429  1.00  0.00    -0.205 F 
ATOM     67  C   UNL     1     -12.515   1.871  -5.111  1.00  0.00     0.022 A 
BRANCH  65  68
ATOM     68  S   UNL     1     -11.365   2.584  -7.486  1.00  0.00     0.127 S 
ATOM     69  O   UNL     1     -10.882   1.220  -7.697  1.00  0.00    -0.237 OA
ATOM     70  O   UNL     1     -12.748   2.812  -7.906  1.00  0.00    -0.237 OA
ATOM     71  O   UNL     1     -10.433   3.639  -7.858  1.00  0.00    -0.744 OA
ENDBRANCH  65  68
ENDBRANCH  47  61
BRANCH  48  72
ATOM     72  C   UNL     1      -5.128   9.119   2.425  1.00  0.00     0.023 A 
ATOM     73  C   UNL     1      -5.672   9.949   3.425  1.00  0.00     0.012 A 
ATOM     74  C   UNL     1      -3.733   9.102   2.234  1.00  0.00     0.148 A 
ATOM     75  C   UNL     1      -4.847  10.773   4.192  1.00  0.00     0.002 A 
ATOM     76  C   UNL     1      -2.912   9.882   3.041  1.00  0.00     0.091 A 
ATOM     77  F   UNL     1      -3.233   8.321   1.266  1.00  0.00    -0.205 F 
ATOM     78  C   UNL     1      -3.468  10.733   4.008  1.00  0.00     0.022 A 
BRANCH  76  79
ATOM     79  S   UNL     1      -1.119   9.789   2.959  1.00  0.00     0.127 S 
ATOM     80  O   UNL     1      -0.783  11.053   2.310  1.00  0.00    -0.237 OA
ATOM     81  O   UNL     1      -0.755   9.707   4.374  1.00  0.00    -0.237 OA
ATOM     82  O   UNL     1      -0.823   8.584   2.196  1.00  0.00    -0.744 OA
ENDBRANCH  76  79
ENDBRANCH  48  72
BRANCH  60  83
ATOM     83  C   UNL     1     -10.135  10.560  -2.234  1.00  0.00     0.023 A 
ATOM     84  C   UNL     1      -9.389  11.402  -3.081  1.00  0.00     0.012 A 
ATOM     85  C   UNL     1     -11.468  10.895  -1.922  1.00  0.00     0.148 A 
ATOM     86  C   UNL     1      -9.949  12.576  -3.584  1.00  0.00     0.002 A 
ATOM     87  C   UNL     1     -12.035  12.040  -2.466  1.00  0.00     0.091 A 
ATOM     88  F   UNL     1     -12.156  10.088  -1.101  1.00  0.00    -0.205 F 
ATOM     89  C   UNL     1     -11.274  12.889  -3.287  1.00  0.00     0.022 A 
BRANCH  87  90
ATOM     90  S   UNL     1     -13.761  12.472  -2.219  1.00  0.00     0.127 S 
ATOM     91  O   UNL     1     -13.655  13.621  -1.320  1.00  0.00    -0.237 OA
ATOM     92  O   UNL     1     -14.197  12.799  -3.577  1.00  0.00    -0.237 OA
ATOM     93  O   UNL     1     -14.394  11.290  -1.649  1.00  0.00    -0.744 OA
ENDBRANCH  87  90
ENDBRANCH  60  83
ENDBRANCH  34  35
ENDBRANCH  27  29
ENDBRANCH  26  27
ENDBRANCH  25  26
ENDBRANCH  24  25
ENDBRANCH   1  24
TORSDOF 20
