REMARK SMILES C[C@]1(C(=O)OCCOCCOC(=O)c2ccc(-c3c4nc(c(-c5cccc(S(=O)(=O)[O-])c5F)c5ccc([nH]5)c(-c5cccc(S(=O)(=O)[O-])c5F)c5nc(c(-c6cccc(S(=O)(=O)[O-])c6F)c6ccc3[nH]6)C=C5)C=C4)cc2)[NH2+]C2(C(=O)c3ccccc3C2=O)[C@@H]2C(=O)N(c3ccccc3)C(=O)[C@H]21
REMARK SMILES IDX 9 1 8 2 7 3 6 4 5 5 3 6 4 7 2 8 1 9 77 10 101 11 78 12 89 15
REMARK SMILES IDX 99 16 79 17 87 18 90 19 92 20 100 21 80 22 81 23 86 24 88 25
REMARK SMILES IDX 91 26 82 27 85 28 83 29 84 30 93 31 94 32 98 33 95 34 97 35
REMARK SMILES IDX 96 36 10 37 11 38 12 39 13 40 14 41 15 42 76 43 16 44 75 45
REMARK SMILES IDX 17 46 18 47 19 48 69 49 20 50 74 51 68 52 70 53 21 54 73 55
REMARK SMILES IDX 67 56 66 57 22 59 54 60 34 61 53 62 35 63 38 64 52 65 71 66
REMARK SMILES IDX 36 67 37 68 51 70 72 71 39 72 23 73 24 74 32 75 25 76 27 77
REMARK SMILES IDX 33 78 26 79 28 80 29 81 30 82 31 83 55 84 56 85 64 86 57 87
REMARK SMILES IDX 59 88 65 89 58 90 60 91 61 92 62 93 63 94 40 95 41 96 49 97
REMARK SMILES IDX 42 98 44 99 50 100 43 101 45 102 46 103 47 104 48 105
REMARK H PARENT 77 13 77 14 70 58 38 69
REMARK Flexibility Score: inf
ROOT
ATOM      1  C   UNL     1       3.978  -0.274   2.291  1.00  0.00     0.202 C 
ENDROOT
BRANCH   1   2
ATOM      2  O   UNL     1       4.336   0.946   2.938  1.00  0.00    -0.374 OA
BRANCH   2   3
ATOM      3  C   UNL     1       3.571   1.348   4.073  1.00  0.00     0.202 C 
BRANCH   3   4
ATOM      4  C   UNL     1       2.192   1.956   3.813  1.00  0.00     0.261 C 
BRANCH   4   5
ATOM      5  O   UNL     1       1.315   1.023   3.166  1.00  0.00    -0.459 OA
BRANCH   5   6
ATOM      6  C   UNL     1       1.115   1.215   1.834  1.00  0.00     0.368 C 
ATOM      7  O   UNL     1       1.578   2.153   1.195  1.00  0.00    -0.245 OA
BRANCH   6   8
ATOM      8  C   UNL     1       0.222   0.106   1.208  1.00  0.00     0.205 C 
ATOM      9  C   UNL     1       0.502   0.093  -0.297  1.00  0.00     0.093 C 
ATOM     10  N   UNL     1       0.469  -1.298   1.766  1.00  0.00    -0.313 N 
ATOM     11  C   UNL     1      -1.224   0.329   1.552  1.00  0.00     0.172 C 
ATOM     12  C   UNL     1      -0.739  -1.678   2.619  1.00  0.00     0.237 C 
ATOM     13  H   UNL     1       1.314  -1.301   2.338  1.00  0.00     0.348 HD
ATOM     14  H   UNL     1       0.595  -1.968   1.007  1.00  0.00     0.348 HD
ATOM     15  C   UNL     1      -1.321  -0.341   2.911  1.00  0.00     0.177 C 
ATOM     16  C   UNL     1      -1.839   1.649   1.853  1.00  0.00     0.244 C 
ATOM     17  C   UNL     1      -1.635  -2.684   1.897  1.00  0.00     0.232 C 
ATOM     18  C   UNL     1      -0.302  -2.444   3.863  1.00  0.00     0.232 C 
ATOM     19  C   UNL     1      -2.684   0.081   3.314  1.00  0.00     0.245 C 
ATOM     20  N   UNL     1      -2.763   1.398   2.863  1.00  0.00    -0.250 N 
ATOM     21  O   UNL     1      -1.576   2.677   1.254  1.00  0.00    -0.273 OA
ATOM     22  O   UNL     1      -2.159  -2.553   0.803  1.00  0.00    -0.286 OA
ATOM     23  C   UNL     1      -1.685  -3.915   2.685  1.00  0.00     0.036 A 
ATOM     24  C   UNL     1      -0.893  -3.784   3.818  1.00  0.00     0.036 A 
ATOM     25  O   UNL     1       0.403  -2.047   4.775  1.00  0.00    -0.286 OA
ATOM     26  O   UNL     1      -3.456  -0.591   3.971  1.00  0.00    -0.273 OA
ATOM     27  C   UNL     1      -2.360  -5.089   2.398  1.00  0.00     0.013 A 
ATOM     28  C   UNL     1      -0.738  -4.827   4.714  1.00  0.00     0.013 A 
ATOM     29  C   UNL     1      -2.220  -6.152   3.296  1.00  0.00     0.001 A 
ATOM     30  C   UNL     1      -1.413  -6.022   4.443  1.00  0.00     0.001 A 
BRANCH  20  31
ATOM     31  C   UNL     1      -3.528   2.422   3.457  1.00  0.00     0.052 A 
ATOM     32  C   UNL     1      -4.014   3.486   2.685  1.00  0.00     0.027 A 
ATOM     33  C   UNL     1      -3.675   2.469   4.849  1.00  0.00     0.027 A 
ATOM     34  C   UNL     1      -4.624   4.584   3.291  1.00  0.00     0.002 A 
ATOM     35  C   UNL     1      -4.245   3.591   5.456  1.00  0.00     0.002 A 
ATOM     36  C   UNL     1      -4.721   4.645   4.678  1.00  0.00     0.000 A 
ENDBRANCH  20  31
ENDBRANCH   6   8
ENDBRANCH   5   6
ENDBRANCH   4   5
ENDBRANCH   3   4
ENDBRANCH   2   3
ENDBRANCH   1   2
BRANCH   1  37
ATOM     37  C   UNL     1       4.343  -1.596   2.976  1.00  0.00     0.261 C 
BRANCH  37  38
ATOM     38  O   UNL     1       3.657  -1.796   4.220  1.00  0.00    -0.460 OA
BRANCH  38  39
ATOM     39  C   UNL     1       4.415  -1.609   5.331  1.00  0.00     0.338 C 
ATOM     40  O   UNL     1       5.606  -1.351   5.367  1.00  0.00    -0.246 OA
BRANCH  39  41
ATOM     41  C   UNL     1       3.542  -1.569   6.522  1.00  0.00     0.060 A 
ATOM     42  C   UNL     1       2.631  -2.590   6.790  1.00  0.00     0.016 A 
ATOM     43  C   UNL     1       3.671  -0.486   7.402  1.00  0.00     0.016 A 
ATOM     44  C   UNL     1       1.858  -2.532   7.952  1.00  0.00     0.010 A 
ATOM     45  C   UNL     1       2.905  -0.434   8.567  1.00  0.00     0.010 A 
ATOM     46  C   UNL     1       2.006  -1.468   8.861  1.00  0.00    -0.014 A 
BRANCH  46  47
ATOM     47  C   UNL     1       1.341  -1.529  10.186  1.00  0.00     0.031 A 
ATOM     48  C   UNL     1       0.207  -0.620  10.552  1.00  0.00     0.074 A 
ATOM     49  C   UNL     1       1.813  -2.412  11.088  1.00  0.00     0.049 A 
ATOM     50  N   UNL     1      -0.503  -0.606  11.651  1.00  0.00    -0.248 NA
ATOM     51  C   UNL     1      -0.181   0.407   9.573  1.00  0.00     0.031 C 
ATOM     52  C   UNL     1       2.960  -3.297  10.872  1.00  0.00     0.029 A 
ATOM     53  N   UNL     1       1.399  -2.709  12.361  1.00  0.00    -0.354 N 
ATOM     54  C   UNL     1      -1.412   0.433  11.507  1.00  0.00     0.074 A 
ATOM     55  C   UNL     1      -1.155   1.040  10.218  1.00  0.00     0.031 C 
ATOM     56  C   UNL     1       3.144  -4.052  11.964  1.00  0.00     0.029 A 
ATOM     57  C   UNL     1       2.148  -3.688  12.968  1.00  0.00     0.049 A 
ATOM     58  H   UNL     1       0.638  -2.263  12.799  1.00  0.00     0.167 HD
ATOM     59  C   UNL     1      -2.382   0.828  12.366  1.00  0.00     0.034 A 
ATOM     60  C   UNL     1       2.051  -4.237  14.194  1.00  0.00     0.034 A 
ATOM     61  C   UNL     1      -2.644   0.209  13.639  1.00  0.00     0.049 A 
ATOM     62  C   UNL     1       0.956  -3.793  15.117  1.00  0.00     0.074 A 
ATOM     63  C   UNL     1      -3.659   0.497  14.536  1.00  0.00     0.029 A 
ATOM     64  N   UNL     1      -1.884  -0.800  14.207  1.00  0.00    -0.354 N 
ATOM     65  N   UNL     1       0.015  -2.908  14.903  1.00  0.00    -0.248 NA
ATOM     66  C   UNL     1       0.890  -4.437  16.437  1.00  0.00     0.031 C 
ATOM     67  C   UNL     1      -3.498  -0.321  15.657  1.00  0.00     0.029 A 
ATOM     68  C   UNL     1      -2.398  -1.137  15.447  1.00  0.00     0.049 A 
ATOM     69  H   UNL     1      -1.096  -1.217  13.790  1.00  0.00     0.167 HD
ATOM     70  C   UNL     1      -0.767  -2.899  16.051  1.00  0.00     0.074 A 
ATOM     71  C   UNL     1      -0.198  -3.878  16.954  1.00  0.00     0.031 C 
ATOM     72  C   UNL     1      -1.852  -2.137  16.328  1.00  0.00     0.034 A 
BRANCH  59  73
ATOM     73  C   UNL     1      -3.290   1.953  11.950  1.00  0.00     0.023 A 
ATOM     74  C   UNL     1      -4.331   1.692  11.037  1.00  0.00     0.012 A 
ATOM     75  C   UNL     1      -3.201   3.219  12.561  1.00  0.00     0.148 A 
ATOM     76  C   UNL     1      -5.270   2.676  10.734  1.00  0.00     0.002 A 
ATOM     77  C   UNL     1      -4.157   4.186  12.275  1.00  0.00     0.091 A 
ATOM     78  F   UNL     1      -2.200   3.442  13.423  1.00  0.00    -0.205 F 
ATOM     79  C   UNL     1      -5.190   3.917  11.361  1.00  0.00     0.022 A 
BRANCH  77  80
ATOM     80  S   UNL     1      -4.176   5.801  13.061  1.00  0.00     0.127 S 
ATOM     81  O   UNL     1      -3.945   6.685  11.918  1.00  0.00    -0.237 OA
ATOM     82  O   UNL     1      -5.530   5.858  13.611  1.00  0.00    -0.237 OA
ATOM     83  O   UNL     1      -3.110   5.783  14.052  1.00  0.00    -0.744 OA
ENDBRANCH  77  80
ENDBRANCH  59  73
BRANCH  60  84
ATOM     84  C   UNL     1       2.997  -5.319  14.574  1.00  0.00     0.023 A 
ATOM     85  C   UNL     1       2.554  -6.655  14.570  1.00  0.00     0.012 A 
ATOM     86  C   UNL     1       4.349  -5.036  14.846  1.00  0.00     0.148 A 
ATOM     87  C   UNL     1       3.445  -7.695  14.835  1.00  0.00     0.002 A 
ATOM     88  C   UNL     1       5.238  -6.079  15.072  1.00  0.00     0.091 A 
ATOM     89  F   UNL     1       4.741  -3.755  14.836  1.00  0.00    -0.205 F 
ATOM     90  C   UNL     1       4.787  -7.408  15.075  1.00  0.00     0.022 A 
BRANCH  88  91
ATOM     91  S   UNL     1       7.001  -5.819  15.297  1.00  0.00     0.127 S 
ATOM     92  O   UNL     1       7.208  -6.339  16.647  1.00  0.00    -0.237 OA
ATOM     93  O   UNL     1       7.561  -6.643  14.226  1.00  0.00    -0.237 OA
ATOM     94  O   UNL     1       7.216  -4.387  15.141  1.00  0.00    -0.744 OA
ENDBRANCH  88  91
ENDBRANCH  60  84
BRANCH  72  95
ATOM     95  C   UNL     1      -2.528  -2.318  17.659  1.00  0.00     0.023 A 
ATOM     96  C   UNL     1      -1.961  -1.735  18.808  1.00  0.00     0.012 A 
ATOM     97  C   UNL     1      -3.788  -2.942  17.743  1.00  0.00     0.148 A 
ATOM     98  C   UNL     1      -2.640  -1.773  20.026  1.00  0.00     0.002 A 
ATOM     99  C   UNL     1      -4.474  -2.946  18.951  1.00  0.00     0.091 A 
ATOM    100  F   UNL     1      -4.301  -3.493  16.633  1.00  0.00    -0.205 F 
ATOM    101  C   UNL     1      -3.900  -2.365  20.094  1.00  0.00     0.022 A 
BRANCH  99 102
ATOM    102  S   UNL     1      -6.128  -3.623  19.126  1.00  0.00     0.127 S 
ATOM    103  O   UNL     1      -5.899  -4.734  20.049  1.00  0.00    -0.237 OA
ATOM    104  O   UNL     1      -6.864  -2.495  19.698  1.00  0.00    -0.237 OA
ATOM    105  O   UNL     1      -6.551  -4.013  17.788  1.00  0.00    -0.744 OA
ENDBRANCH  99 102
ENDBRANCH  72  95
ENDBRANCH  46  47
ENDBRANCH  39  41
ENDBRANCH  38  39
ENDBRANCH  37  38
ENDBRANCH   1  37
TORSDOF 18
