REMARK SMILES Cc1c(CC(=O)OCCOCCOC(=O)c2ccc(-c3c4nc(c(-c5cccc(S(=O)(=O)[O-])c5F)c5ccc([nH]5)c(-c5cccc(S(=O)(=O)[O-])c5F)c5nc(c(-c6cccc(S(=O)(=O)[O-])c6F)c6ccc3[nH]6)C=C5)C=C4)cc2)cc(-c2ccc(S(C)(=O)=O)cc2)n1-c1ccccc1
REMARK SMILES IDX 10 1 9 2 8 3 7 4 5 5 6 6 4 7 3 8 1 9 2 10 91 11 79 12 80 13
REMARK SMILES IDX 92 14 93 15 97 16 94 17 96 18 95 19 81 20 82 21 90 22 83 23
REMARK SMILES IDX 89 24 84 25 85 26 86 27 87 28 88 29 11 30 12 31 13 32 14 33
REMARK SMILES IDX 15 34 16 35 17 36 78 37 18 38 77 39 19 40 20 41 21 42 71 43
REMARK SMILES IDX 22 44 76 45 70 46 72 47 23 48 75 49 69 50 68 51 24 53 56 54
REMARK SMILES IDX 36 55 55 56 37 57 40 58 54 59 73 60 38 61 39 62 53 64 74 65
REMARK SMILES IDX 41 66 25 67 26 68 34 69 27 70 29 71 35 72 28 73 30 74 31 75
REMARK SMILES IDX 32 76 33 77 57 78 58 79 66 80 59 81 61 82 67 83 60 84 62 85
REMARK SMILES IDX 63 86 64 87 65 88 42 89 43 90 51 91 44 92 46 93 52 94 45 95
REMARK SMILES IDX 47 96 48 97 49 98 50 99
REMARK H PARENT 72 52 40 63
REMARK Flexibility Score: inf
ROOT
ATOM      1  O   UNL     1      -2.683  -1.270  -1.147  1.00  0.00    -0.374 OA
ENDROOT
BRANCH   1   2
ATOM      2  C   UNL     1      -3.848  -1.234  -0.339  1.00  0.00     0.202 C 
BRANCH   2   3
ATOM      3  C   UNL     1      -3.673  -1.799   1.079  1.00  0.00     0.261 C 
BRANCH   3   4
ATOM      4  O   UNL     1      -2.562  -1.215   1.795  1.00  0.00    -0.463 OA
BRANCH   4   5
ATOM      5  C   UNL     1      -1.555  -2.065   2.138  1.00  0.00     0.310 C 
ATOM      6  O   UNL     1      -1.620  -3.288   2.021  1.00  0.00    -0.252 OA
BRANCH   5   7
ATOM      7  C   UNL     1      -0.342  -1.412   2.778  1.00  0.00     0.160 C 
BRANCH   7   8
ATOM      8  C   UNL     1      -0.019   0.034   2.484  1.00  0.00    -0.015 A 
ATOM      9  C   UNL     1       1.585  -0.101   0.421  1.00  0.00     0.065 C 
ATOM     10  C   UNL     1       0.785   0.583   1.480  1.00  0.00     0.024 A 
ATOM     11  N   UNL     1       0.820   1.971   1.645  1.00  0.00    -0.314 N 
ATOM     12  C   UNL     1      -0.339   1.113   3.351  1.00  0.00     0.033 A 
ATOM     13  C   UNL     1       0.260   2.266   2.876  1.00  0.00     0.053 A 
BRANCH  11  14
ATOM     14  C   UNL     1       1.363   2.918   0.727  1.00  0.00     0.046 A 
ATOM     15  C   UNL     1       2.577   3.554   0.951  1.00  0.00     0.026 A 
ATOM     16  C   UNL     1       0.595   3.308  -0.369  1.00  0.00     0.026 A 
ATOM     17  C   UNL     1       3.038   4.495   0.015  1.00  0.00     0.002 A 
ATOM     18  C   UNL     1       1.064   4.200  -1.328  1.00  0.00     0.002 A 
ATOM     19  C   UNL     1       2.300   4.792  -1.137  1.00  0.00     0.000 A 
ENDBRANCH  11  14
BRANCH  13  20
ATOM     20  C   UNL     1       0.298   3.578   3.506  1.00  0.00    -0.001 A 
ATOM     21  C   UNL     1      -0.399   4.654   2.952  1.00  0.00     0.011 A 
ATOM     22  C   UNL     1       1.038   3.762   4.679  1.00  0.00     0.011 A 
ATOM     23  C   UNL     1      -0.354   5.911   3.549  1.00  0.00     0.021 A 
ATOM     24  C   UNL     1       1.097   5.019   5.280  1.00  0.00     0.021 A 
ATOM     25  C   UNL     1       0.403   6.088   4.706  1.00  0.00     0.067 A 
BRANCH  25  26
ATOM     26  S   UNL     1       0.457   7.683   5.479  1.00  0.00     0.175 S 
ATOM     27  C   UNL     1       1.114   8.761   4.232  1.00  0.00     0.163 C 
ATOM     28  O   UNL     1      -0.927   8.057   5.749  1.00  0.00    -0.224 OA
ATOM     29  O   UNL     1       1.425   7.612   6.549  1.00  0.00    -0.224 OA
ENDBRANCH  25  26
ENDBRANCH  13  20
ENDBRANCH   7   8
ENDBRANCH   5   7
ENDBRANCH   4   5
ENDBRANCH   3   4
ENDBRANCH   2   3
ENDBRANCH   1   2
BRANCH   1  30
ATOM     30  C   UNL     1      -1.708  -0.271  -0.839  1.00  0.00     0.202 C 
BRANCH  30  31
ATOM     31  C   UNL     1      -2.074   1.224  -1.111  1.00  0.00     0.261 C 
BRANCH  31  32
ATOM     32  O   UNL     1      -2.502   2.172  -0.012  1.00  0.00    -0.460 OA
BRANCH  32  33
ATOM     33  C   UNL     1      -3.230   3.310  -0.419  1.00  0.00     0.338 C 
ATOM     34  O   UNL     1      -3.796   3.306  -1.509  1.00  0.00    -0.246 OA
BRANCH  33  35
ATOM     35  C   UNL     1      -3.348   4.610   0.493  1.00  0.00     0.060 A 
ATOM     36  C   UNL     1      -4.453   4.830   1.318  1.00  0.00     0.016 A 
ATOM     37  C   UNL     1      -2.617   5.814   0.289  1.00  0.00     0.016 A 
ATOM     38  C   UNL     1      -4.736   6.134   1.961  1.00  0.00     0.010 A 
ATOM     39  C   UNL     1      -2.935   7.158   0.913  1.00  0.00     0.010 A 
ATOM     40  C   UNL     1      -4.008   7.387   1.801  1.00  0.00    -0.014 A 
BRANCH  40  41
ATOM     41  C   UNL     1      -4.845   8.846   2.148  1.00  0.00     0.031 A 
ATOM     42  C   UNL     1      -6.119   8.540   1.442  1.00  0.00     0.074 A 
ATOM     43  C   UNL     1      -4.808  10.199   2.617  1.00  0.00     0.049 A 
ATOM     44  N   UNL     1      -6.054   8.185   0.187  1.00  0.00    -0.248 NA
ATOM     45  C   UNL     1      -7.379   8.195   2.096  1.00  0.00     0.031 C 
ATOM     46  C   UNL     1      -3.630  11.022   2.980  1.00  0.00     0.029 A 
ATOM     47  N   UNL     1      -5.834  11.225   2.883  1.00  0.00    -0.354 N 
ATOM     48  C   UNL     1      -7.335   7.973  -0.214  1.00  0.00     0.074 A 
ATOM     49  C   UNL     1      -8.034   7.697   1.038  1.00  0.00     0.031 C 
ATOM     50  C   UNL     1      -3.959  12.230   3.544  1.00  0.00     0.029 A 
ATOM     51  C   UNL     1      -5.409  12.441   3.609  1.00  0.00     0.049 A 
ATOM     52  H   UNL     1      -6.766  11.105   2.588  1.00  0.00     0.167 HD
ATOM     53  C   UNL     1      -7.720   8.771  -1.252  1.00  0.00     0.034 A 
ATOM     54  C   UNL     1      -6.111  13.567   4.116  1.00  0.00     0.034 A 
ATOM     55  C   UNL     1      -8.573   9.841  -0.820  1.00  0.00     0.049 A 
ATOM     56  C   UNL     1      -7.243  13.719   3.199  1.00  0.00     0.074 A 
ATOM     57  C   UNL     1      -9.599   9.908   0.107  1.00  0.00     0.029 A 
ATOM     58  N   UNL     1      -8.103  11.123  -0.981  1.00  0.00    -0.354 N 
ATOM     59  N   UNL     1      -7.100  14.296   2.043  1.00  0.00    -0.248 NA
ATOM     60  C   UNL     1      -8.608  13.387   3.585  1.00  0.00     0.031 C 
ATOM     61  C   UNL     1      -9.337  11.078   0.845  1.00  0.00     0.029 A 
ATOM     62  C   UNL     1      -8.541  11.904   0.072  1.00  0.00     0.049 A 
ATOM     63  H   UNL     1      -7.543  11.436  -1.728  1.00  0.00     0.167 HD
ATOM     64  C   UNL     1      -8.211  13.879   1.377  1.00  0.00     0.074 A 
ATOM     65  C   UNL     1      -9.194  13.575   2.403  1.00  0.00     0.031 C 
ATOM     66  C   UNL     1      -7.969  13.212   0.228  1.00  0.00     0.034 A 
BRANCH  53  67
ATOM     67  C   UNL     1      -6.719   8.845  -2.392  1.00  0.00     0.023 A 
ATOM     68  C   UNL     1      -7.081   8.205  -3.587  1.00  0.00     0.012 A 
ATOM     69  C   UNL     1      -5.392   9.344  -2.267  1.00  0.00     0.148 A 
ATOM     70  C   UNL     1      -6.141   8.008  -4.604  1.00  0.00     0.002 A 
ATOM     71  C   UNL     1      -4.436   9.050  -3.235  1.00  0.00     0.091 A 
ATOM     72  F   UNL     1      -5.076  10.107  -1.208  1.00  0.00    -0.205 F 
ATOM     73  C   UNL     1      -4.814   8.392  -4.412  1.00  0.00     0.022 A 
BRANCH  71  74
ATOM     74  S   UNL     1      -2.668   9.299  -2.959  1.00  0.00     0.127 S 
ATOM     75  O   UNL     1      -2.093   8.029  -3.416  1.00  0.00    -0.237 OA
ATOM     76  O   UNL     1      -2.359  10.438  -3.816  1.00  0.00    -0.237 OA
ATOM     77  O   UNL     1      -2.498   9.524  -1.528  1.00  0.00    -0.744 OA
ENDBRANCH  71  74
ENDBRANCH  53  67
BRANCH  54  78
ATOM     78  C   UNL     1      -6.145  14.915   5.027  1.00  0.00     0.023 A 
ATOM     79  C   UNL     1      -6.840  16.090   4.527  1.00  0.00     0.012 A 
ATOM     80  C   UNL     1      -5.986  14.931   6.436  1.00  0.00     0.148 A 
ATOM     81  C   UNL     1      -7.418  17.104   5.332  1.00  0.00     0.002 A 
ATOM     82  C   UNL     1      -6.548  15.974   7.246  1.00  0.00     0.091 A 
ATOM     83  F   UNL     1      -5.370  13.891   7.009  1.00  0.00    -0.205 F 
ATOM     84  C   UNL     1      -7.285  17.036   6.700  1.00  0.00     0.022 A 
BRANCH  82  85
ATOM     85  S   UNL     1      -6.480  16.003   9.060  1.00  0.00     0.127 S 
ATOM     86  O   UNL     1      -6.134  17.397   9.348  1.00  0.00    -0.237 OA
ATOM     87  O   UNL     1      -7.850  15.639   9.420  1.00  0.00    -0.237 OA
ATOM     88  O   UNL     1      -5.452  15.039   9.422  1.00  0.00    -0.744 OA
ENDBRANCH  82  85
ENDBRANCH  54  78
BRANCH  66  89
ATOM     89  C   UNL     1      -6.988  13.803  -0.742  1.00  0.00     0.023 A 
ATOM     90  C   UNL     1      -5.636  14.100  -0.480  1.00  0.00     0.012 A 
ATOM     91  C   UNL     1      -7.485  14.018  -2.035  1.00  0.00     0.148 A 
ATOM     92  C   UNL     1      -4.803  14.580  -1.499  1.00  0.00     0.002 A 
ATOM     93  C   UNL     1      -6.648  14.433  -3.056  1.00  0.00     0.091 A 
ATOM     94  F   UNL     1      -8.791  13.793  -2.246  1.00  0.00    -0.205 F 
ATOM     95  C   UNL     1      -5.303  14.721  -2.795  1.00  0.00     0.022 A 
BRANCH  93  96
ATOM     96  S   UNL     1      -7.262  14.526  -4.736  1.00  0.00     0.127 S 
ATOM     97  O   UNL     1      -7.456  15.965  -4.907  1.00  0.00    -0.237 OA
ATOM     98  O   UNL     1      -6.169  13.954  -5.517  1.00  0.00    -0.237 OA
ATOM     99  O   UNL     1      -8.484  13.728  -4.749  1.00  0.00    -0.744 OA
ENDBRANCH  93  96
ENDBRANCH  66  89
ENDBRANCH  40  41
ENDBRANCH  33  35
ENDBRANCH  32  33
ENDBRANCH  31  32
ENDBRANCH  30  31
ENDBRANCH   1  30
TORSDOF 21
