REMARK SMILES COc1cccc(-c2c(C(=O)OCCOCCOC(=O)c3ccc(-c4c5nc(c(-c6cccc(S(=O)(=O)[O-])c6F)c6ccc([nH]6)c(-c6cccc(S(=O)(=O)[O-])c6F)c6nc(c(-c7cccc(S(=O)(=O)[O-])c7F)c7ccc4[nH]7)C=C6)C=C5)cc3)nnn2Cc2ccc(OC(F)(F)F)cc2)c1
REMARK SMILES IDX 14 1 13 2 12 3 10 4 11 5 9 6 8 7 86 8 84 9 85 10 7 11 3 12
REMARK SMILES IDX 4 13 99 14 5 15 6 16 2 17 1 18 87 19 88 20 89 21 98 22 90 23
REMARK SMILES IDX 97 24 91 25 92 26 93 27 94 28 95 29 96 30 15 31 16 32 17 33
REMARK SMILES IDX 18 34 19 35 20 36 21 37 22 38 83 39 23 40 82 41 24 42 25 43
REMARK SMILES IDX 26 44 76 45 27 46 81 47 75 48 77 49 28 50 80 51 74 52 73 53
REMARK SMILES IDX 29 55 61 56 41 57 60 58 42 59 45 60 59 61 78 62 43 63 44 64
REMARK SMILES IDX 58 66 79 67 46 68 30 69 31 70 39 71 32 72 34 73 40 74 33 75
REMARK SMILES IDX 35 76 36 77 37 78 38 79 62 80 63 81 71 82 64 83 66 84 72 85
REMARK SMILES IDX 65 86 67 87 68 88 69 89 70 90 47 91 48 92 56 93 49 94 51 95
REMARK SMILES IDX 57 96 50 97 52 98 53 99 54 100 55 101
REMARK H PARENT 77 54 45 65
REMARK Flexibility Score: inf
ROOT
ATOM      1  C   UNL     1       2.888  -8.300   1.377  1.00  0.00     0.202 C 
ENDROOT
BRANCH   1   2
ATOM      2  C   UNL     1       2.549  -7.566   2.676  1.00  0.00     0.261 C 
BRANCH   2   3
ATOM      3  O   UNL     1       2.959  -6.190   2.667  1.00  0.00    -0.458 OA
BRANCH   3   4
ATOM      4  C   UNL     1       3.994  -5.901   3.511  1.00  0.00     0.361 C 
ATOM      5  O   UNL     1       4.482  -6.704   4.297  1.00  0.00    -0.244 OA
BRANCH   4   6
ATOM      6  C   UNL     1       4.562  -4.580   3.304  1.00  0.00     0.198 A 
ATOM      7  C   UNL     1       3.962  -3.336   3.110  1.00  0.00     0.104 A 
ATOM      8  N   UNL     1       5.052  -2.482   3.188  1.00  0.00    -0.239 N 
ATOM      9  N   UNL     1       5.929  -4.441   3.275  1.00  0.00    -0.122 NA
ATOM     10  N   UNL     1       6.210  -3.166   3.098  1.00  0.00    -0.066 NA
BRANCH   7  11
ATOM     11  C   UNL     1       2.566  -2.904   3.028  1.00  0.00     0.006 A 
ATOM     12  C   UNL     1       0.859  -1.440   2.086  1.00  0.00     0.119 A 
ATOM     13  C   UNL     1      -0.059  -1.939   3.011  1.00  0.00     0.046 A 
ATOM     14  C   UNL     1       2.162  -1.945   2.076  1.00  0.00     0.056 A 
ATOM     15  C   UNL     1       0.309  -2.933   3.914  1.00  0.00     0.005 A 
ATOM     16  C   UNL     1       1.620  -3.407   3.929  1.00  0.00     0.011 A 
BRANCH  12  17
ATOM     17  O   UNL     1       0.376  -0.427   1.310  1.00  0.00    -0.497 OA
ATOM     18  C   UNL     1       1.073  -0.098   0.113  1.00  0.00     0.278 C 
ENDBRANCH  12  17
ENDBRANCH   7  11
BRANCH   8  19
ATOM     19  C   UNL     1       5.105  -1.040   3.404  1.00  0.00     0.182 C 
BRANCH  19  20
ATOM     20  C   UNL     1       5.727  -0.673   4.739  1.00  0.00    -0.026 A 
ATOM     21  C   UNL     1       4.968  -0.058   5.743  1.00  0.00     0.009 A 
ATOM     22  C   UNL     1       7.086  -0.916   4.995  1.00  0.00     0.009 A 
ATOM     23  C   UNL     1       5.558   0.294   6.963  1.00  0.00     0.047 A 
ATOM     24  C   UNL     1       7.669  -0.583   6.222  1.00  0.00     0.047 A 
ATOM     25  C   UNL     1       6.908   0.028   7.215  1.00  0.00     0.129 A 
BRANCH  25  26
ATOM     26  O   UNL     1       7.350   0.417   8.447  1.00  0.00    -0.406 OA
BRANCH  26  27
ATOM     27  C   UNL     1       8.681   0.084   8.802  1.00  0.00     0.573 C 
ATOM     28  F   UNL     1       8.875  -1.252   8.787  1.00  0.00    -0.132 F 
ATOM     29  F   UNL     1       9.576   0.681   7.986  1.00  0.00    -0.132 F 
ATOM     30  F   UNL     1       8.915   0.521  10.061  1.00  0.00    -0.132 F 
ENDBRANCH  26  27
ENDBRANCH  25  26
ENDBRANCH  19  20
ENDBRANCH   8  19
ENDBRANCH   4   6
ENDBRANCH   3   4
ENDBRANCH   2   3
ENDBRANCH   1   2
BRANCH   1  31
ATOM     31  O   UNL     1       4.255  -8.454   1.001  1.00  0.00    -0.374 OA
BRANCH  31  32
ATOM     32  C   UNL     1       5.064  -7.323   0.687  1.00  0.00     0.202 C 
BRANCH  32  33
ATOM     33  C   UNL     1       4.758  -6.519  -0.570  1.00  0.00     0.261 C 
BRANCH  33  34
ATOM     34  O   UNL     1       3.427  -6.037  -0.571  1.00  0.00    -0.460 OA
BRANCH  34  35
ATOM     35  C   UNL     1       2.582  -6.780  -1.325  1.00  0.00     0.338 C 
ATOM     36  O   UNL     1       2.803  -7.860  -1.833  1.00  0.00    -0.246 OA
BRANCH  35  37
ATOM     37  C   UNL     1       1.353  -6.005  -1.538  1.00  0.00     0.060 A 
ATOM     38  C   UNL     1       0.482  -6.552  -2.479  1.00  0.00     0.016 A 
ATOM     39  C   UNL     1       1.341  -4.647  -1.191  1.00  0.00     0.016 A 
ATOM     40  C   UNL     1      -0.134  -5.680  -3.338  1.00  0.00     0.010 A 
ATOM     41  C   UNL     1       0.730  -3.781  -2.055  1.00  0.00     0.010 A 
ATOM     42  C   UNL     1       0.121  -4.315  -3.182  1.00  0.00    -0.014 A 
BRANCH  42  43
ATOM     43  C   UNL     1      -0.341  -3.424  -4.213  1.00  0.00     0.031 A 
ATOM     44  C   UNL     1      -1.791  -3.205  -4.110  1.00  0.00     0.074 A 
ATOM     45  C   UNL     1       0.486  -2.843  -5.100  1.00  0.00     0.049 A 
ATOM     46  N   UNL     1      -2.708  -3.784  -4.809  1.00  0.00    -0.248 NA
ATOM     47  C   UNL     1      -2.286  -2.485  -2.929  1.00  0.00     0.031 C 
ATOM     48  C   UNL     1       1.950  -2.787  -5.109  1.00  0.00     0.029 A 
ATOM     49  N   UNL     1       0.147  -2.064  -6.154  1.00  0.00    -0.354 N 
ATOM     50  C   UNL     1      -3.898  -3.276  -4.310  1.00  0.00     0.074 A 
ATOM     51  C   UNL     1      -3.593  -2.733  -3.014  1.00  0.00     0.031 C 
ATOM     52  C   UNL     1       2.348  -1.812  -5.964  1.00  0.00     0.029 A 
ATOM     53  C   UNL     1       1.181  -1.285  -6.652  1.00  0.00     0.049 A 
ATOM     54  H   UNL     1      -0.760  -2.051  -6.537  1.00  0.00     0.167 HD
ATOM     55  C   UNL     1      -4.951  -3.045  -5.138  1.00  0.00     0.034 A 
ATOM     56  C   UNL     1       1.038  -0.232  -7.497  1.00  0.00     0.034 A 
ATOM     57  C   UNL     1      -4.786  -3.730  -6.398  1.00  0.00     0.049 A 
ATOM     58  C   UNL     1      -0.278  -0.390  -8.168  1.00  0.00     0.074 A 
ATOM     59  C   UNL     1      -4.639  -5.048  -6.781  1.00  0.00     0.029 A 
ATOM     60  N   UNL     1      -4.332  -2.975  -7.454  1.00  0.00    -0.354 N 
ATOM     61  N   UNL     1      -0.545  -1.375  -8.981  1.00  0.00    -0.248 NA
ATOM     62  C   UNL     1      -1.435   0.246  -7.556  1.00  0.00     0.031 C 
ATOM     63  C   UNL     1      -3.683  -5.020  -7.840  1.00  0.00     0.029 A 
ATOM     64  C   UNL     1      -3.349  -3.687  -8.089  1.00  0.00     0.049 A 
ATOM     65  H   UNL     1      -4.656  -2.081  -7.709  1.00  0.00     0.167 HD
ATOM     66  C   UNL     1      -1.828  -1.778  -8.630  1.00  0.00     0.074 A 
ATOM     67  C   UNL     1      -2.360  -0.684  -7.816  1.00  0.00     0.031 C 
ATOM     68  C   UNL     1      -2.224  -3.079  -8.768  1.00  0.00     0.034 A 
BRANCH  55  69
ATOM     69  C   UNL     1      -5.903  -1.882  -4.985  1.00  0.00     0.023 A 
ATOM     70  C   UNL     1      -7.021  -1.860  -5.844  1.00  0.00     0.012 A 
ATOM     71  C   UNL     1      -5.625  -0.696  -4.264  1.00  0.00     0.148 A 
ATOM     72  C   UNL     1      -7.782  -0.701  -6.023  1.00  0.00     0.002 A 
ATOM     73  C   UNL     1      -6.430   0.428  -4.385  1.00  0.00     0.091 A 
ATOM     74  F   UNL     1      -4.503  -0.580  -3.554  1.00  0.00    -0.205 F 
ATOM     75  C   UNL     1      -7.490   0.443  -5.290  1.00  0.00     0.022 A 
BRANCH  73  76
ATOM     76  S   UNL     1      -6.110   1.919  -3.432  1.00  0.00     0.127 S 
ATOM     77  O   UNL     1      -5.601   2.818  -4.463  1.00  0.00    -0.237 OA
ATOM     78  O   UNL     1      -7.445   2.241  -2.928  1.00  0.00    -0.237 OA
ATOM     79  O   UNL     1      -5.160   1.531  -2.397  1.00  0.00    -0.744 OA
ENDBRANCH  73  76
ENDBRANCH  55  69
BRANCH  56  80
ATOM     80  C   UNL     1       1.777   1.054  -7.502  1.00  0.00     0.023 A 
ATOM     81  C   UNL     1       1.775   1.873  -8.649  1.00  0.00     0.012 A 
ATOM     82  C   UNL     1       2.253   1.609  -6.292  1.00  0.00     0.148 A 
ATOM     83  C   UNL     1       2.218   3.202  -8.589  1.00  0.00     0.002 A 
ATOM     84  C   UNL     1       2.697   2.927  -6.237  1.00  0.00     0.091 A 
ATOM     85  F   UNL     1       2.186   0.872  -5.176  1.00  0.00    -0.205 F 
ATOM     86  C   UNL     1       2.672   3.731  -7.383  1.00  0.00     0.022 A 
BRANCH  84  87
ATOM     87  S   UNL     1       3.267   3.683  -4.707  1.00  0.00     0.127 S 
ATOM     88  O   UNL     1       4.586   4.184  -5.093  1.00  0.00    -0.237 OA
ATOM     89  O   UNL     1       2.259   4.717  -4.485  1.00  0.00    -0.237 OA
ATOM     90  O   UNL     1       3.295   2.615  -3.715  1.00  0.00    -0.744 OA
ENDBRANCH  84  87
ENDBRANCH  56  80
BRANCH  68  91
ATOM     91  C   UNL     1      -1.290  -4.026  -9.486  1.00  0.00     0.023 A 
ATOM     92  C   UNL     1      -0.037  -4.401  -8.950  1.00  0.00     0.012 A 
ATOM     93  C   UNL     1      -1.765  -4.696 -10.624  1.00  0.00     0.148 A 
ATOM     94  C   UNL     1       0.729  -5.407  -9.547  1.00  0.00     0.002 A 
ATOM     95  C   UNL     1      -1.021  -5.724 -11.190  1.00  0.00     0.091 A 
ATOM     96  F   UNL     1      -2.963  -4.339 -11.110  1.00  0.00    -0.205 F 
ATOM     97  C   UNL     1       0.231  -6.078 -10.661  1.00  0.00     0.022 A 
BRANCH  95  98
ATOM     98  S   UNL     1      -1.657  -6.713 -12.545  1.00  0.00     0.127 S 
ATOM     99  O   UNL     1      -0.791  -6.308 -13.650  1.00  0.00    -0.237 OA
ATOM    100  O   UNL     1      -1.438  -8.077 -12.063  1.00  0.00    -0.237 OA
ATOM    101  O   UNL     1      -3.061  -6.348 -12.688  1.00  0.00    -0.744 OA
ENDBRANCH  95  98
ENDBRANCH  68  91
ENDBRANCH  42  43
ENDBRANCH  35  37
ENDBRANCH  34  35
ENDBRANCH  33  34
ENDBRANCH  32  33
ENDBRANCH  31  32
ENDBRANCH   1  31
TORSDOF 23
