REMARK SMILES O=C(C[C@@H]1C(=O)NCCN1C(=O)OCC1c2ccccc2-c2ccccc21)OCCOCCOC(=O)c1ccc(-c2c3nc(c(-c4cccc(S(=O)(=O)[O-])c4F)c4ccc([nH]4)c(-c4cccc(S(=O)(=O)[O-])c4F)c4nc(c(-c5cccc(S(=O)(=O)[O-])c5F)c5ccc2[nH]5)C=C4)C=C3)cc1
REMARK SMILES IDX 30 1 29 2 28 3 2 4 1 5 3 6 4 7 5 8 10 9 6 10 7 11 9 12 8 13
REMARK SMILES IDX 11 15 12 16 13 17 14 18 15 19 16 20 27 21 17 22 21 23 22 24
REMARK SMILES IDX 26 25 18 26 20 27 23 28 25 29 19 30 24 31 31 32 32 33 33 34
REMARK SMILES IDX 34 35 35 36 36 37 37 38 38 39 99 40 39 41 98 42 40 43 41 44
REMARK SMILES IDX 42 45 92 46 43 47 97 48 91 49 93 50 44 51 96 52 90 53 89 54
REMARK SMILES IDX 45 56 77 57 57 58 76 59 58 60 61 61 75 62 94 63 59 64 60 65
REMARK SMILES IDX 74 67 95 68 62 69 46 70 47 71 55 72 48 73 50 74 56 75 49 76
REMARK SMILES IDX 51 77 52 78 53 79 54 80 78 81 79 82 87 83 80 84 82 85 88 86
REMARK SMILES IDX 81 87 83 88 84 89 85 90 86 91 63 92 64 93 72 94 65 95 67 96
REMARK SMILES IDX 73 97 66 98 68 99 69 100 70 101 71 102
REMARK H PARENT 7 14 93 55 61 66
REMARK Flexibility Score: inf
ROOT
ATOM      1  C   UNL     1       5.108  -1.109   1.060  1.00  0.00     0.202 C 
ENDROOT
BRANCH   1   2
ATOM      2  C   UNL     1       4.218   0.087   0.734  1.00  0.00     0.261 C 
BRANCH   2   3
ATOM      3  O   UNL     1       2.811  -0.152   0.702  1.00  0.00    -0.463 OA
BRANCH   3   4
ATOM      4  C   UNL     1       2.079  -0.644  -0.310  1.00  0.00     0.308 C 
ATOM      5  O   UNL     1       0.883  -0.875  -0.109  1.00  0.00    -0.252 OA
BRANCH   4   6
ATOM      6  C   UNL     1       2.690  -1.045  -1.617  1.00  0.00     0.158 C 
BRANCH   6   7
ATOM      7  C   UNL     1       3.647  -0.191  -2.465  1.00  0.00     0.189 C 
ATOM      8  C   UNL     1       5.002  -0.986  -2.540  1.00  0.00     0.243 C 
ATOM      9  N   UNL     1       3.828   1.268  -2.267  1.00  0.00    -0.294 N 
ATOM     10  O   UNL     1       5.050  -2.201  -2.729  1.00  0.00    -0.273 OA
ATOM     11  N   UNL     1       6.183  -0.303  -2.436  1.00  0.00    -0.353 N 
ATOM     12  C   UNL     1       5.051   1.815  -2.876  1.00  0.00     0.145 C 
ATOM     13  C   UNL     1       6.279   1.131  -2.291  1.00  0.00     0.137 C 
ATOM     14  H   UNL     1       7.020  -0.821  -2.460  1.00  0.00     0.163 HD
BRANCH   9  15
ATOM     15  C   UNL     1       2.999   2.184  -1.633  1.00  0.00     0.410 C 
ATOM     16  O   UNL     1       3.351   3.336  -1.451  1.00  0.00    -0.224 OA
BRANCH  15  17
ATOM     17  O   UNL     1       1.821   1.686  -1.201  1.00  0.00    -0.448 OA
BRANCH  17  18
ATOM     18  C   UNL     1       0.916   2.501  -0.377  1.00  0.00     0.248 C 
BRANCH  18  19
ATOM     19  C   UNL     1       1.502   3.026   0.960  1.00  0.00     0.088 C 
ATOM     20  C   UNL     1       1.518   4.561   1.039  1.00  0.00    -0.029 A 
ATOM     21  C   UNL     1       0.689   2.686   2.230  1.00  0.00    -0.029 A 
ATOM     22  C   UNL     1       2.075   5.484   0.166  1.00  0.00     0.005 A 
ATOM     23  C   UNL     1       0.885   5.006   2.216  1.00  0.00    -0.014 A 
ATOM     24  C   UNL     1       0.375   3.868   2.939  1.00  0.00    -0.014 A 
ATOM     25  C   UNL     1       0.329   1.452   2.755  1.00  0.00     0.005 A 
ATOM     26  C   UNL     1       2.029   6.841   0.484  1.00  0.00     0.000 A 
ATOM     27  C   UNL     1       0.831   6.357   2.534  1.00  0.00     0.009 A 
ATOM     28  C   UNL     1      -0.311   3.833   4.147  1.00  0.00     0.009 A 
ATOM     29  C   UNL     1      -0.360   1.414   3.978  1.00  0.00     0.000 A 
ATOM     30  C   UNL     1       1.418   7.275   1.663  1.00  0.00     0.001 A 
ATOM     31  C   UNL     1      -0.681   2.594   4.667  1.00  0.00     0.001 A 
ENDBRANCH  18  19
ENDBRANCH  17  18
ENDBRANCH  15  17
ENDBRANCH   9  15
ENDBRANCH   6   7
ENDBRANCH   4   6
ENDBRANCH   3   4
ENDBRANCH   2   3
ENDBRANCH   1   2
BRANCH   1  32
ATOM     32  O   UNL     1       4.571  -2.414   1.070  1.00  0.00    -0.374 OA
BRANCH  32  33
ATOM     33  C   UNL     1       3.369  -2.718   1.759  1.00  0.00     0.202 C 
BRANCH  33  34
ATOM     34  C   UNL     1       3.004  -2.147   3.141  1.00  0.00     0.261 C 
BRANCH  34  35
ATOM     35  O   UNL     1       3.393  -0.799   3.424  1.00  0.00    -0.460 OA
BRANCH  35  36
ATOM     36  C   UNL     1       4.523  -0.700   4.160  1.00  0.00     0.338 C 
ATOM     37  O   UNL     1       5.260  -1.613   4.494  1.00  0.00    -0.246 OA
BRANCH  36  38
ATOM     38  C   UNL     1       4.861   0.710   4.410  1.00  0.00     0.060 A 
ATOM     39  C   UNL     1       6.122   1.158   3.999  1.00  0.00     0.016 A 
ATOM     40  C   UNL     1       4.039   1.508   5.208  1.00  0.00     0.016 A 
ATOM     41  C   UNL     1       6.616   2.363   4.479  1.00  0.00     0.010 A 
ATOM     42  C   UNL     1       4.543   2.715   5.698  1.00  0.00     0.010 A 
ATOM     43  C   UNL     1       5.860   3.104   5.396  1.00  0.00    -0.014 A 
BRANCH  43  44
ATOM     44  C   UNL     1       6.551   4.131   6.209  1.00  0.00     0.031 A 
ATOM     45  C   UNL     1       6.983   3.771   7.607  1.00  0.00     0.074 A 
ATOM     46  C   UNL     1       6.843   5.335   5.690  1.00  0.00     0.049 A 
ATOM     47  N   UNL     1       7.627   4.490   8.488  1.00  0.00    -0.248 NA
ATOM     48  C   UNL     1       6.644   2.415   8.076  1.00  0.00     0.031 C 
ATOM     49  C   UNL     1       6.494   5.780   4.342  1.00  0.00     0.029 A 
ATOM     50  N   UNL     1       7.493   6.406   6.245  1.00  0.00    -0.354 N 
ATOM     51  C   UNL     1       7.730   3.696   9.625  1.00  0.00     0.074 A 
ATOM     52  C   UNL     1       7.079   2.441   9.326  1.00  0.00     0.031 C 
ATOM     53  C   UNL     1       6.923   7.043   4.178  1.00  0.00     0.029 A 
ATOM     54  C   UNL     1       7.549   7.500   5.416  1.00  0.00     0.049 A 
ATOM     55  H   UNL     1       7.882   6.393   7.149  1.00  0.00     0.167 HD
ATOM     56  C   UNL     1       8.322   3.982  10.809  1.00  0.00     0.034 A 
ATOM     57  C   UNL     1       8.037   8.735   5.644  1.00  0.00     0.034 A 
ATOM     58  C   UNL     1       8.988   5.225  11.087  1.00  0.00     0.049 A 
ATOM     59  C   UNL     1       8.682   9.031   6.973  1.00  0.00     0.074 A 
ATOM     60  C   UNL     1       9.662   5.603  12.235  1.00  0.00     0.029 A 
ATOM     61  N   UNL     1       9.052   6.300  10.213  1.00  0.00    -0.354 N 
ATOM     62  N   UNL     1       8.860   8.238   8.002  1.00  0.00    -0.248 NA
ATOM     63  C   UNL     1       9.231  10.382   7.155  1.00  0.00     0.031 C 
ATOM     64  C   UNL     1      10.097   6.923  12.069  1.00  0.00     0.029 A 
ATOM     65  C   UNL     1       9.742   7.346  10.798  1.00  0.00     0.049 A 
ATOM     66  H   UNL     1       8.662   6.315   9.309  1.00  0.00     0.167 HD
ATOM     67  C   UNL     1       9.585   8.975   8.932  1.00  0.00     0.074 A 
ATOM     68  C   UNL     1       9.823  10.274   8.337  1.00  0.00     0.031 C 
ATOM     69  C   UNL     1      10.015   8.613  10.168  1.00  0.00     0.034 A 
BRANCH  56  70
ATOM     70  C   UNL     1       8.270   2.936  11.893  1.00  0.00     0.023 A 
ATOM     71  C   UNL     1       9.021   1.749  11.773  1.00  0.00     0.012 A 
ATOM     72  C   UNL     1       7.505   3.152  13.057  1.00  0.00     0.148 A 
ATOM     73  C   UNL     1       8.981   0.778  12.774  1.00  0.00     0.002 A 
ATOM     74  C   UNL     1       7.510   2.203  14.072  1.00  0.00     0.091 A 
ATOM     75  F   UNL     1       6.778   4.275  13.145  1.00  0.00    -0.205 F 
ATOM     76  C   UNL     1       8.235   1.010  13.927  1.00  0.00     0.022 A 
BRANCH  74  77
ATOM     77  S   UNL     1       6.649   2.448  15.630  1.00  0.00     0.127 S 
ATOM     78  O   UNL     1       5.571   1.465  15.529  1.00  0.00    -0.237 OA
ATOM     79  O   UNL     1       7.686   2.118  16.608  1.00  0.00    -0.237 OA
ATOM     80  O   UNL     1       6.224   3.841  15.641  1.00  0.00    -0.744 OA
ENDBRANCH  74  77
ENDBRANCH  56  70
BRANCH  57  81
ATOM     81  C   UNL     1       7.976   9.769   4.573  1.00  0.00     0.023 A 
ATOM     82  C   UNL     1       9.168  10.214   3.967  1.00  0.00     0.012 A 
ATOM     83  C   UNL     1       6.746  10.304   4.145  1.00  0.00     0.148 A 
ATOM     84  C   UNL     1       9.138  11.199   2.980  1.00  0.00     0.002 A 
ATOM     85  C   UNL     1       6.718  11.242   3.120  1.00  0.00     0.091 A 
ATOM     86  F   UNL     1       5.625   9.877   4.743  1.00  0.00    -0.205 F 
ATOM     87  C   UNL     1       7.914  11.706   2.550  1.00  0.00     0.022 A 
BRANCH  85  88
ATOM     88  S   UNL     1       5.186  11.859   2.417  1.00  0.00     0.127 S 
ATOM     89  O   UNL     1       5.205  13.257   2.838  1.00  0.00    -0.237 OA
ATOM     90  O   UNL     1       5.405  11.644   0.986  1.00  0.00    -0.237 OA
ATOM     91  O   UNL     1       4.126  11.041   2.991  1.00  0.00    -0.744 OA
ENDBRANCH  85  88
ENDBRANCH  57  81
BRANCH  69  92
ATOM     92  C   UNL     1      10.851   9.606  10.934  1.00  0.00     0.023 A 
ATOM     93  C   UNL     1      10.272  10.781  11.450  1.00  0.00     0.012 A 
ATOM     94  C   UNL     1      12.212   9.337  11.187  1.00  0.00     0.148 A 
ATOM     95  C   UNL     1      11.045  11.697  12.164  1.00  0.00     0.002 A 
ATOM     96  C   UNL     1      12.961  10.225  11.948  1.00  0.00     0.091 A 
ATOM     97  F   UNL     1      12.751   8.222  10.674  1.00  0.00    -0.205 F 
ATOM     98  C   UNL     1      12.385  11.414  12.422  1.00  0.00     0.022 A 
BRANCH  96  99
ATOM     99  S   UNL     1      14.661   9.886  12.418  1.00  0.00     0.127 S 
ATOM    100  O   UNL     1      15.398  10.799  11.546  1.00  0.00    -0.237 OA
ATOM    101  O   UNL     1      14.671  10.253  13.835  1.00  0.00    -0.237 OA
ATOM    102  O   UNL     1      14.872   8.468  12.162  1.00  0.00    -0.744 OA
ENDBRANCH  96  99
ENDBRANCH  69  92
ENDBRANCH  43  44
ENDBRANCH  36  38
ENDBRANCH  35  36
ENDBRANCH  34  35
ENDBRANCH  33  34
ENDBRANCH  32  33
ENDBRANCH   1  32
TORSDOF 22
