REMARK SMILES O=C(C[C@H]1CN(S(=O)(=O)c2ccc(F)c(F)c2)CCO1)OCCOCCOC(=O)c1ccc(-c2c3nc(c(-c4cccc(S(=O)(=O)[O-])c4F)c4ccc([nH]4)c(-c4cccc(S(=O)(=O)[O-])c4F)c4nc(c(-c5cccc(S(=O)(=O)[O-])c5F)c5ccc2[nH]5)C=C4)C=C3)cc1
REMARK SMILES IDX 24 1 23 2 22 3 21 4 2 5 1 6 3 7 4 8 5 9 20 10 6 11 19 12
REMARK SMILES IDX 18 13 7 14 8 15 9 16 10 17 11 18 17 19 12 20 15 21 13 22
REMARK SMILES IDX 16 23 14 24 25 25 26 26 27 27 28 28 29 29 30 30 31 31 92 32
REMARK SMILES IDX 32 33 91 34 33 35 34 36 35 37 85 38 36 39 90 40 84 41 86 42
REMARK SMILES IDX 37 43 89 44 83 45 82 46 38 48 70 49 50 50 69 51 51 52 54 53
REMARK SMILES IDX 68 54 87 55 52 56 53 57 67 59 88 60 55 61 39 62 40 63 48 64
REMARK SMILES IDX 41 65 43 66 49 67 42 68 44 69 45 70 46 71 47 72 71 73 72 74
REMARK SMILES IDX 80 75 73 76 75 77 81 78 74 79 76 80 77 81 78 82 79 83 56 84
REMARK SMILES IDX 57 85 65 86 58 87 60 88 66 89 59 90 61 91 62 92 63 93 64 94
REMARK H PARENT 86 47 54 58
REMARK Flexibility Score: inf
ROOT
ATOM      1  O   UNL     1       1.270  -1.380  -3.150  1.00  0.00    -0.374 OA
ENDROOT
BRANCH   1   2
ATOM      2  C   UNL     1       0.361  -0.597  -2.365  1.00  0.00     0.202 C 
BRANCH   2   3
ATOM      3  C   UNL     1       1.038   0.259  -1.291  1.00  0.00     0.261 C 
BRANCH   3   4
ATOM      4  O   UNL     1       1.512   1.498  -1.850  1.00  0.00    -0.463 OA
BRANCH   4   5
ATOM      5  C   UNL     1       2.590   1.561  -2.655  1.00  0.00     0.308 C 
ATOM      6  O   UNL     1       2.707   2.469  -3.473  1.00  0.00    -0.252 OA
BRANCH   5   7
ATOM      7  C   UNL     1       3.630   0.488  -2.520  1.00  0.00     0.156 C 
BRANCH   7   8
ATOM      8  C   UNL     1       4.724   0.779  -1.510  1.00  0.00     0.144 C 
ATOM      9  C   UNL     1       6.009  -0.031  -1.785  1.00  0.00     0.135 C 
ATOM     10  O   UNL     1       5.010   2.163  -1.307  1.00  0.00    -0.375 OA
ATOM     11  N   UNL     1       6.888   0.538  -2.847  1.00  0.00    -0.193 NA
ATOM     12  C   UNL     1       5.789   2.744  -2.358  1.00  0.00     0.177 C 
ATOM     13  C   UNL     1       7.119   2.001  -2.529  1.00  0.00     0.131 C 
BRANCH  11  14
ATOM     14  S   UNL     1       6.712   0.270  -4.521  1.00  0.00     0.243 S 
ATOM     15  O   UNL     1       5.508   0.911  -4.994  1.00  0.00    -0.207 OA
ATOM     16  O   UNL     1       7.988   0.649  -5.098  1.00  0.00    -0.207 OA
BRANCH  14  17
ATOM     17  C   UNL     1       6.508  -1.470  -4.865  1.00  0.00     0.085 A 
ATOM     18  C   UNL     1       5.507  -2.247  -4.269  1.00  0.00     0.025 A 
ATOM     19  C   UNL     1       7.262  -2.011  -5.917  1.00  0.00     0.064 A 
ATOM     20  C   UNL     1       5.314  -3.576  -4.664  1.00  0.00     0.044 A 
ATOM     21  C   UNL     1       7.032  -3.319  -6.331  1.00  0.00     0.160 A 
ATOM     22  C   UNL     1       6.077  -4.104  -5.698  1.00  0.00     0.158 A 
ATOM     23  F   UNL     1       7.723  -3.809  -7.370  1.00  0.00    -0.204 F 
ATOM     24  F   UNL     1       5.862  -5.364  -6.099  1.00  0.00    -0.204 F 
ENDBRANCH  14  17
ENDBRANCH  11  14
ENDBRANCH   7   8
ENDBRANCH   5   7
ENDBRANCH   4   5
ENDBRANCH   3   4
ENDBRANCH   2   3
ENDBRANCH   1   2
BRANCH   1  25
ATOM     25  C   UNL     1       1.397  -0.985  -4.526  1.00  0.00     0.202 C 
BRANCH  25  26
ATOM     26  C   UNL     1       0.281  -1.465  -5.462  1.00  0.00     0.261 C 
BRANCH  26  27
ATOM     27  O   UNL     1      -0.930  -0.743  -5.200  1.00  0.00    -0.460 OA
BRANCH  27  28
ATOM     28  C   UNL     1      -1.839  -1.413  -4.456  1.00  0.00     0.338 C 
ATOM     29  O   UNL     1      -1.819  -2.600  -4.170  1.00  0.00    -0.246 OA
BRANCH  28  30
ATOM     30  C   UNL     1      -2.741  -0.440  -3.805  1.00  0.00     0.060 A 
ATOM     31  C   UNL     1      -3.091  -0.701  -2.473  1.00  0.00     0.016 A 
ATOM     32  C   UNL     1      -3.220   0.701  -4.456  1.00  0.00     0.016 A 
ATOM     33  C   UNL     1      -3.987   0.127  -1.813  1.00  0.00     0.010 A 
ATOM     34  C   UNL     1      -4.141   1.523  -3.801  1.00  0.00     0.010 A 
ATOM     35  C   UNL     1      -4.572   1.194  -2.505  1.00  0.00    -0.014 A 
BRANCH  35  36
ATOM     36  C   UNL     1      -5.847   1.722  -1.979  1.00  0.00     0.031 A 
ATOM     37  C   UNL     1      -7.113   1.069  -2.469  1.00  0.00     0.074 A 
ATOM     38  C   UNL     1      -5.878   2.683  -1.042  1.00  0.00     0.049 A 
ATOM     39  N   UNL     1      -8.348   1.268  -2.095  1.00  0.00    -0.248 NA
ATOM     40  C   UNL     1      -6.963   0.044  -3.519  1.00  0.00     0.031 C 
ATOM     41  C   UNL     1      -4.710   3.368  -0.491  1.00  0.00     0.029 A 
ATOM     42  N   UNL     1      -6.942   3.249  -0.391  1.00  0.00    -0.354 N 
ATOM     43  C   UNL     1      -9.118   0.414  -2.876  1.00  0.00     0.074 A 
ATOM     44  C   UNL     1      -8.219  -0.295  -3.755  1.00  0.00     0.031 C 
ATOM     45  C   UNL     1      -5.126   4.278   0.408  1.00  0.00     0.029 A 
ATOM     46  C   UNL     1      -6.585   4.241   0.489  1.00  0.00     0.049 A 
ATOM     47  H   UNL     1      -7.875   2.970  -0.540  1.00  0.00     0.167 HD
ATOM     48  C   UNL     1     -10.456   0.221  -2.851  1.00  0.00     0.034 A 
ATOM     49  C   UNL     1      -7.358   5.023   1.268  1.00  0.00     0.034 A 
ATOM     50  C   UNL     1     -11.339   0.917  -1.960  1.00  0.00     0.049 A 
ATOM     51  C   UNL     1      -8.848   4.791   1.275  1.00  0.00     0.074 A 
ATOM     52  C   UNL     1     -12.708   0.783  -1.825  1.00  0.00     0.029 A 
ATOM     53  N   UNL     1     -10.936   1.889  -1.058  1.00  0.00    -0.354 N 
ATOM     54  N   UNL     1      -9.550   3.897   0.620  1.00  0.00    -0.248 NA
ATOM     55  C   UNL     1      -9.649   5.646   2.163  1.00  0.00     0.031 C 
ATOM     56  C   UNL     1     -13.136   1.689  -0.850  1.00  0.00     0.029 A 
ATOM     57  C   UNL     1     -12.030   2.369  -0.362  1.00  0.00     0.049 A 
ATOM     58  H   UNL     1     -10.008   2.193  -0.931  1.00  0.00     0.167 HD
ATOM     59  C   UNL     1     -10.864   4.052   1.047  1.00  0.00     0.074 A 
ATOM     60  C   UNL     1     -10.857   5.117   2.030  1.00  0.00     0.031 C 
ATOM     61  C   UNL     1     -11.980   3.386   0.657  1.00  0.00     0.034 A 
BRANCH  48  62
ATOM     62  C   UNL     1     -11.028  -0.792  -3.803  1.00  0.00     0.023 A 
ATOM     63  C   UNL     1     -10.830  -2.167  -3.565  1.00  0.00     0.012 A 
ATOM     64  C   UNL     1     -11.778  -0.385  -4.923  1.00  0.00     0.148 A 
ATOM     65  C   UNL     1     -11.342  -3.121  -4.444  1.00  0.00     0.002 A 
ATOM     66  C   UNL     1     -12.322  -1.342  -5.771  1.00  0.00     0.091 A 
ATOM     67  F   UNL     1     -11.925   0.928  -5.151  1.00  0.00    -0.205 F 
ATOM     68  C   UNL     1     -12.096  -2.709  -5.540  1.00  0.00     0.022 A 
BRANCH  66  69
ATOM     69  S   UNL     1     -13.365  -0.912  -7.168  1.00  0.00     0.127 S 
ATOM     70  O   UNL     1     -12.480  -1.196  -8.296  1.00  0.00    -0.237 OA
ATOM     71  O   UNL     1     -14.481  -1.846  -7.018  1.00  0.00    -0.237 OA
ATOM     72  O   UNL     1     -13.720   0.489  -6.986  1.00  0.00    -0.744 OA
ENDBRANCH  66  69
ENDBRANCH  48  62
BRANCH  49  73
ATOM     73  C   UNL     1      -6.734   6.049   2.151  1.00  0.00     0.023 A 
ATOM     74  C   UNL     1      -6.759   5.873   3.548  1.00  0.00     0.012 A 
ATOM     75  C   UNL     1      -6.103   7.188   1.614  1.00  0.00     0.148 A 
ATOM     76  C   UNL     1      -6.192   6.826   4.396  1.00  0.00     0.002 A 
ATOM     77  C   UNL     1      -5.495   8.107   2.462  1.00  0.00     0.091 A 
ATOM     78  F   UNL     1      -6.107   7.348   0.284  1.00  0.00    -0.205 F 
ATOM     79  C   UNL     1      -5.552   7.937   3.853  1.00  0.00     0.022 A 
BRANCH  77  80
ATOM     80  S   UNL     1      -4.545   9.502   1.845  1.00  0.00     0.127 S 
ATOM     81  O   UNL     1      -5.429  10.624   2.148  1.00  0.00    -0.237 OA
ATOM     82  O   UNL     1      -3.335   9.430   2.666  1.00  0.00    -0.237 OA
ATOM     83  O   UNL     1      -4.326   9.230   0.431  1.00  0.00    -0.744 OA
ENDBRANCH  77  80
ENDBRANCH  49  73
BRANCH  61  84
ATOM     84  C   UNL     1     -13.279   3.751   1.324  1.00  0.00     0.023 A 
ATOM     85  C   UNL     1     -13.914   4.967   1.006  1.00  0.00     0.012 A 
ATOM     86  C   UNL     1     -13.907   2.849   2.205  1.00  0.00     0.148 A 
ATOM     87  C   UNL     1     -15.140   5.296   1.584  1.00  0.00     0.002 A 
ATOM     88  C   UNL     1     -15.152   3.162   2.738  1.00  0.00     0.091 A 
ATOM     89  F   UNL     1     -13.278   1.705   2.511  1.00  0.00    -0.205 F 
ATOM     90  C   UNL     1     -15.764   4.390   2.439  1.00  0.00     0.022 A 
BRANCH  88  91
ATOM     91  S   UNL     1     -16.063   2.003   3.764  1.00  0.00     0.127 S 
ATOM     92  O   UNL     1     -15.800   2.520   5.106  1.00  0.00    -0.237 OA
ATOM     93  O   UNL     1     -17.439   2.185   3.300  1.00  0.00    -0.237 OA
ATOM     94  O   UNL     1     -15.502   0.691   3.471  1.00  0.00    -0.744 OA
ENDBRANCH  88  91
ENDBRANCH  61  84
ENDBRANCH  35  36
ENDBRANCH  28  30
ENDBRANCH  27  28
ENDBRANCH  26  27
ENDBRANCH  25  26
ENDBRANCH   1  25
TORSDOF 20
