REMARK SMILES Cc1cccc(S(=O)(=O)Nc2cc(C(=O)OCCOCCOC(=O)c3ccc(-c4c5nc(c(-c6cccc(S(=O)(=O)[O-])c6F)c6ccc([nH]6)c(-c6cccc(S(=O)(=O)[O-])c6F)c6nc(c(-c7cccc(S(=O)(=O)[O-])c7F)c7ccc4[nH]7)C=C6)C=C5)cc3)cnc2N2CCC[C@H](C)C2)c1
REMARK SMILES IDX 19 1 18 2 17 3 16 4 14 5 15 6 13 7 11 8 12 9 90 10 89 11
REMARK SMILES IDX 88 12 10 13 7 15 8 16 9 17 6 18 1 19 2 20 3 21 98 22 4 23
REMARK SMILES IDX 5 24 91 25 92 26 97 27 93 28 95 29 94 30 96 31 20 32 21 33
REMARK SMILES IDX 22 34 23 35 24 36 25 37 26 38 87 39 27 40 86 41 28 42 29 43
REMARK SMILES IDX 30 44 80 45 31 46 85 47 79 48 81 49 32 50 84 51 78 52 77 53
REMARK SMILES IDX 33 55 65 56 45 57 64 58 46 59 49 60 63 61 82 62 47 63 48 64
REMARK SMILES IDX 62 66 83 67 50 68 34 69 35 70 43 71 36 72 38 73 44 74 37 75
REMARK SMILES IDX 39 76 40 77 41 78 42 79 66 80 67 81 75 82 68 83 70 84 76 85
REMARK SMILES IDX 69 86 71 87 72 88 73 89 74 90 51 91 52 92 60 93 53 94 55 95
REMARK SMILES IDX 61 96 54 97 56 98 57 99 58 100 59 101
REMARK H PARENT 10 14 81 54 49 65
REMARK Flexibility Score: inf
ROOT
ATOM      1  O   UNL     1       3.976   2.621  -4.040  1.00  0.00    -0.374 OA
ENDROOT
BRANCH   1   2
ATOM      2  C   UNL     1       2.731   2.349  -4.641  1.00  0.00     0.202 C 
BRANCH   2   3
ATOM      3  C   UNL     1       2.034   1.473  -3.645  1.00  0.00     0.261 C 
BRANCH   3   4
ATOM      4  O   UNL     1       1.904   2.184  -2.418  1.00  0.00    -0.460 OA
BRANCH   4   5
ATOM      5  C   UNL     1       2.918   2.513  -1.601  1.00  0.00     0.339 C 
ATOM      6  O   UNL     1       4.095   2.161  -1.534  1.00  0.00    -0.246 OA
BRANCH   5   7
ATOM      7  C   UNL     1       2.369   3.516  -0.717  1.00  0.00     0.080 A 
ATOM      8  C   UNL     1       0.444   4.521   0.187  1.00  0.00     0.092 A 
ATOM      9  C   UNL     1       1.016   3.795  -0.807  1.00  0.00     0.048 A 
ATOM     10  C   UNL     1       1.257   5.158   1.141  1.00  0.00     0.153 A 
ATOM     11  N   UNL     1       2.601   4.996   1.155  1.00  0.00    -0.236 NA
ATOM     12  C   UNL     1       3.131   4.123   0.266  1.00  0.00     0.129 A 
BRANCH   8  13
ATOM     13  N   UNL     1      -0.960   4.491   0.284  1.00  0.00    -0.276 N 
ATOM     14  H   UNL     1      -1.463   5.331   0.178  1.00  0.00     0.180 HD
BRANCH  13  15
ATOM     15  S   UNL     1      -1.803   3.076   0.572  1.00  0.00     0.262 S 
ATOM     16  O   UNL     1      -2.024   2.453  -0.719  1.00  0.00    -0.201 OA
ATOM     17  O   UNL     1      -2.933   3.506   1.374  1.00  0.00    -0.201 OA
BRANCH  15  18
ATOM     18  C   UNL     1      -0.923   1.880   1.567  1.00  0.00     0.088 A 
ATOM     19  C   UNL     1       2.604   0.880   2.527  1.00  0.00     0.044 C 
ATOM     20  C   UNL     1       1.097   0.861   2.463  1.00  0.00    -0.050 A 
ATOM     21  C   UNL     1       0.408  -0.348   2.603  1.00  0.00     0.003 A 
ATOM     22  C   UNL     1       0.394   1.994   2.027  1.00  0.00     0.025 A 
ATOM     23  C   UNL     1      -0.928  -0.455   2.223  1.00  0.00     0.002 A 
ATOM     24  C   UNL     1      -1.585   0.648   1.688  1.00  0.00     0.022 A 
ENDBRANCH  15  18
ENDBRANCH  13  15
ENDBRANCH   8  13
BRANCH  10  25
ATOM     25  N   UNL     1       0.706   5.973   2.095  1.00  0.00    -0.355 N 
ATOM     26  C   UNL     1      -0.273   5.548   3.074  1.00  0.00     0.118 C 
ATOM     27  C   UNL     1       1.151   7.346   2.092  1.00  0.00     0.121 C 
ATOM     28  C   UNL     1      -1.529   6.413   2.953  1.00  0.00     0.022 C 
ATOM     29  C   UNL     1      -0.069   8.227   1.796  1.00  0.00     0.005 C 
ATOM     30  C   UNL     1      -1.210   7.902   2.785  1.00  0.00     0.007 C 
ATOM     31  C   UNL     1      -0.496   8.130   0.323  1.00  0.00     0.009 C 
ENDBRANCH  10  25
ENDBRANCH   5   7
ENDBRANCH   4   5
ENDBRANCH   3   4
ENDBRANCH   2   3
ENDBRANCH   1   2
BRANCH   1  32
ATOM     32  C   UNL     1       4.503   3.921  -4.092  1.00  0.00     0.202 C 
BRANCH  32  33
ATOM     33  C   UNL     1       4.883   4.209  -5.530  1.00  0.00     0.261 C 
BRANCH  33  34
ATOM     34  O   UNL     1       5.887   3.242  -5.947  1.00  0.00    -0.460 OA
BRANCH  34  35
ATOM     35  C   UNL     1       5.404   2.064  -6.459  1.00  0.00     0.338 C 
ATOM     36  O   UNL     1       4.678   2.011  -7.441  1.00  0.00    -0.246 OA
BRANCH  35  37
ATOM     37  C   UNL     1       5.661   0.899  -5.534  1.00  0.00     0.060 A 
ATOM     38  C   UNL     1       4.929  -0.290  -5.715  1.00  0.00     0.016 A 
ATOM     39  C   UNL     1       6.261   1.137  -4.300  1.00  0.00     0.016 A 
ATOM     40  C   UNL     1       4.574  -1.080  -4.611  1.00  0.00     0.010 A 
ATOM     41  C   UNL     1       5.811   0.413  -3.203  1.00  0.00     0.010 A 
ATOM     42  C   UNL     1       4.890  -0.648  -3.338  1.00  0.00    -0.014 A 
BRANCH  42  43
ATOM     43  C   UNL     1       4.361  -1.212  -2.083  1.00  0.00     0.031 A 
ATOM     44  C   UNL     1       5.370  -1.599  -1.084  1.00  0.00     0.074 A 
ATOM     45  C   UNL     1       3.082  -1.149  -1.668  1.00  0.00     0.049 A 
ATOM     46  N   UNL     1       5.282  -1.597   0.197  1.00  0.00    -0.248 NA
ATOM     47  C   UNL     1       6.652  -2.070  -1.597  1.00  0.00     0.031 C 
ATOM     48  C   UNL     1       2.693  -0.369  -0.492  1.00  0.00     0.029 A 
ATOM     49  N   UNL     1       1.879  -1.331  -2.295  1.00  0.00    -0.354 N 
ATOM     50  C   UNL     1       6.517  -2.000   0.678  1.00  0.00     0.074 A 
ATOM     51  C   UNL     1       7.338  -2.241  -0.474  1.00  0.00     0.031 C 
ATOM     52  C   UNL     1       1.358  -0.292  -0.447  1.00  0.00     0.029 A 
ATOM     53  C   UNL     1       0.808  -1.140  -1.439  1.00  0.00     0.049 A 
ATOM     54  H   UNL     1       1.786  -1.569  -3.245  1.00  0.00     0.167 HD
ATOM     55  C   UNL     1       6.721  -2.130   2.012  1.00  0.00     0.034 A 
ATOM     56  C   UNL     1      -0.160  -2.056  -1.186  1.00  0.00     0.034 A 
ATOM     57  C   UNL     1       5.420  -2.255   2.702  1.00  0.00     0.049 A 
ATOM     58  C   UNL     1       0.196  -2.974  -0.004  1.00  0.00     0.074 A 
ATOM     59  C   UNL     1       4.733  -1.546   3.667  1.00  0.00     0.029 A 
ATOM     60  N   UNL     1       4.519  -3.231   2.245  1.00  0.00    -0.354 N 
ATOM     61  N   UNL     1       1.212  -2.848   0.829  1.00  0.00    -0.248 NA
ATOM     62  C   UNL     1      -0.639  -4.122   0.335  1.00  0.00     0.031 C 
ATOM     63  C   UNL     1       3.418  -2.105   3.780  1.00  0.00     0.029 A 
ATOM     64  C   UNL     1       3.279  -3.134   2.858  1.00  0.00     0.049 A 
ATOM     65  H   UNL     1       4.744  -3.908   1.567  1.00  0.00     0.167 HD
ATOM     66  C   UNL     1       1.264  -3.936   1.696  1.00  0.00     0.074 A 
ATOM     67  C   UNL     1       0.066  -4.689   1.326  1.00  0.00     0.031 C 
ATOM     68  C   UNL     1       2.265  -4.175   2.629  1.00  0.00     0.034 A 
BRANCH  55  69
ATOM     69  C   UNL     1       8.095  -2.089   2.706  1.00  0.00     0.023 A 
ATOM     70  C   UNL     1       8.082  -2.072   4.119  1.00  0.00     0.012 A 
ATOM     71  C   UNL     1       9.390  -1.941   2.119  1.00  0.00     0.148 A 
ATOM     72  C   UNL     1       9.237  -1.881   4.893  1.00  0.00     0.002 A 
ATOM     73  C   UNL     1      10.554  -1.801   2.894  1.00  0.00     0.091 A 
ATOM     74  F   UNL     1       9.536  -1.868   0.797  1.00  0.00    -0.205 F 
ATOM     75  C   UNL     1      10.473  -1.748   4.284  1.00  0.00     0.022 A 
BRANCH  73  76
ATOM     76  S   UNL     1      12.217  -1.653   2.192  1.00  0.00     0.127 S 
ATOM     77  O   UNL     1      12.622  -0.319   2.637  1.00  0.00    -0.237 OA
ATOM     78  O   UNL     1      12.934  -2.748   2.846  1.00  0.00    -0.237 OA
ATOM     79  O   UNL     1      12.077  -1.798   0.748  1.00  0.00    -0.744 OA
ENDBRANCH  73  76
ENDBRANCH  55  69
BRANCH  56  80
ATOM     80  C   UNL     1      -0.852  -2.328  -2.499  1.00  0.00     0.023 A 
ATOM     81  C   UNL     1      -1.488  -1.157  -3.020  1.00  0.00     0.012 A 
ATOM     82  C   UNL     1      -0.176  -3.171  -3.395  1.00  0.00     0.148 A 
ATOM     83  C   UNL     1      -1.127  -0.661  -4.279  1.00  0.00     0.002 A 
ATOM     84  C   UNL     1       0.201  -2.655  -4.639  1.00  0.00     0.091 A 
ATOM     85  F   UNL     1       0.312  -4.329  -2.932  1.00  0.00    -0.205 F 
ATOM     86  C   UNL     1      -0.225  -1.379  -5.058  1.00  0.00     0.022 A 
BRANCH  84  87
ATOM     87  S   UNL     1       1.563  -3.433  -5.527  1.00  0.00     0.127 S 
ATOM     88  O   UNL     1       0.885  -4.489  -6.264  1.00  0.00    -0.237 OA
ATOM     89  O   UNL     1       2.078  -2.334  -6.345  1.00  0.00    -0.237 OA
ATOM     90  O   UNL     1       2.473  -3.846  -4.468  1.00  0.00    -0.744 OA
ENDBRANCH  84  87
ENDBRANCH  56  80
BRANCH  68  91
ATOM     91  C   UNL     1       2.459  -5.494   3.425  1.00  0.00     0.023 A 
ATOM     92  C   UNL     1       1.443  -6.449   3.593  1.00  0.00     0.012 A 
ATOM     93  C   UNL     1       3.708  -5.839   4.030  1.00  0.00     0.148 A 
ATOM     94  C   UNL     1       1.679  -7.728   4.115  1.00  0.00     0.002 A 
ATOM     95  C   UNL     1       3.936  -7.096   4.593  1.00  0.00     0.091 A 
ATOM     96  F   UNL     1       4.690  -4.936   4.110  1.00  0.00    -0.205 F 
ATOM     97  C   UNL     1       2.934  -8.063   4.590  1.00  0.00     0.022 A 
BRANCH  95  98
ATOM     98  S   UNL     1       5.496  -7.561   5.362  1.00  0.00     0.127 S 
ATOM     99  O   UNL     1       5.100  -7.686   6.766  1.00  0.00    -0.237 OA
ATOM    100  O   UNL     1       5.791  -8.832   4.699  1.00  0.00    -0.237 OA
ATOM    101  O   UNL     1       6.434  -6.487   5.075  1.00  0.00    -0.744 OA
ENDBRANCH  95  98
ENDBRANCH  68  91
ENDBRANCH  42  43
ENDBRANCH  35  37
ENDBRANCH  34  35
ENDBRANCH  33  34
ENDBRANCH  32  33
ENDBRANCH   1  32
TORSDOF 21
