REMARK SMILES C[C@H](Cc1ccc(N)cc1)C(=O)OCCOCCOC(=O)c1ccc(-c2c3nc(c(-c4cccc(S(=O)(=O)[O-])c4F)c4ccc([nH]4)c(-c4cccc(S(=O)(=O)[O-])c4F)c4nc(c(-c5cccc(S(=O)(=O)[O-])c5F)c5ccc2[nH]5)C=C4)C=C3)cc1
REMARK SMILES IDX 16 1 15 2 14 3 13 4 11 5 12 6 2 7 1 8 3 9 4 10 5 11 10 12
REMARK SMILES IDX 6 13 9 14 7 15 8 16 17 19 18 20 19 21 20 22 21 23 22 24
REMARK SMILES IDX 23 25 84 26 24 27 83 28 25 29 26 30 27 31 77 32 28 33 82 34
REMARK SMILES IDX 76 35 78 36 29 37 81 38 75 39 74 40 30 42 62 43 42 44 61 45
REMARK SMILES IDX 43 46 46 47 60 48 79 49 44 50 45 51 59 53 80 54 47 55 31 56
REMARK SMILES IDX 32 57 40 58 33 59 35 60 41 61 34 62 36 63 37 64 38 65 39 66
REMARK SMILES IDX 63 67 64 68 72 69 65 70 67 71 73 72 66 73 68 74 69 75 70 76
REMARK SMILES IDX 71 77 48 78 49 79 57 80 50 81 52 82 58 83 51 84 53 85 54 86
REMARK SMILES IDX 55 87 56 88
REMARK H PARENT 8 17 8 18 78 41 46 52
REMARK Flexibility Score: inf
ROOT
ATOM      1  O   UNL     1      -3.361  -1.230  -1.305  1.00  0.00    -0.374 OA
ENDROOT
BRANCH   1   2
ATOM      2  C   UNL     1      -3.832  -0.826  -0.021  1.00  0.00     0.202 C 
BRANCH   2   3
ATOM      3  C   UNL     1      -3.177  -1.474   1.202  1.00  0.00     0.261 C 
BRANCH   3   4
ATOM      4  O   UNL     1      -1.767  -1.213   1.327  1.00  0.00    -0.463 OA
BRANCH   4   5
ATOM      5  C   UNL     1      -0.961  -2.289   1.112  1.00  0.00     0.309 C 
ATOM      6  O   UNL     1      -1.337  -3.370   0.673  1.00  0.00    -0.252 OA
BRANCH   5   7
ATOM      7  C   UNL     1       0.481  -2.035   1.506  1.00  0.00     0.100 C 
ATOM      8  C   UNL     1       0.576  -1.736   3.002  1.00  0.00     0.020 C 
BRANCH   7   9
ATOM      9  C   UNL     1       1.179  -0.962   0.648  1.00  0.00     0.050 C 
BRANCH   9  10
ATOM     10  C   UNL     1       2.599  -1.309   0.224  1.00  0.00    -0.047 A 
ATOM     11  C   UNL     1       3.119  -0.769  -0.962  1.00  0.00     0.006 A 
ATOM     12  C   UNL     1       3.424  -2.162   0.968  1.00  0.00     0.006 A 
ATOM     13  C   UNL     1       4.397  -1.126  -1.414  1.00  0.00     0.026 A 
ATOM     14  C   UNL     1       4.692  -2.525   0.505  1.00  0.00     0.026 A 
ATOM     15  C   UNL     1       5.197  -2.003  -0.683  1.00  0.00     0.031 A 
BRANCH  15  16
ATOM     16  N   UNL     1       6.412  -2.446  -1.181  1.00  0.00    -0.399 N 
ATOM     17  H   UNL     1       6.764  -2.074  -2.022  1.00  0.00     0.156 HD
ATOM     18  H   UNL     1       6.922  -3.134  -0.695  1.00  0.00     0.156 HD
ENDBRANCH  15  16
ENDBRANCH   9  10
ENDBRANCH   7   9
ENDBRANCH   5   7
ENDBRANCH   4   5
ENDBRANCH   3   4
ENDBRANCH   2   3
ENDBRANCH   1   2
BRANCH   1  19
ATOM     19  C   UNL     1      -2.106  -0.703  -1.728  1.00  0.00     0.202 C 
BRANCH  19  20
ATOM     20  C   UNL     1      -2.090   0.766  -2.171  1.00  0.00     0.261 C 
BRANCH  20  21
ATOM     21  O   UNL     1      -2.378   1.668  -1.085  1.00  0.00    -0.460 OA
BRANCH  21  22
ATOM     22  C   UNL     1      -3.495   2.415  -1.256  1.00  0.00     0.338 C 
ATOM     23  O   UNL     1      -4.197   2.467  -2.258  1.00  0.00    -0.246 OA
BRANCH  22  24
ATOM     24  C   UNL     1      -3.896   3.059   0.009  1.00  0.00     0.060 A 
ATOM     25  C   UNL     1      -5.195   2.807   0.468  1.00  0.00     0.016 A 
ATOM     26  C   UNL     1      -3.074   3.971   0.674  1.00  0.00     0.016 A 
ATOM     27  C   UNL     1      -5.699   3.515   1.555  1.00  0.00     0.010 A 
ATOM     28  C   UNL     1      -3.586   4.686   1.766  1.00  0.00     0.010 A 
ATOM     29  C   UNL     1      -4.916   4.494   2.183  1.00  0.00    -0.014 A 
BRANCH  29  30
ATOM     30  C   UNL     1      -5.560   5.386   3.180  1.00  0.00     0.031 A 
ATOM     31  C   UNL     1      -6.027   6.754   2.759  1.00  0.00     0.074 A 
ATOM     32  C   UNL     1      -5.795   4.953   4.432  1.00  0.00     0.049 A 
ATOM     33  N   UNL     1      -6.715   7.637   3.436  1.00  0.00    -0.248 NA
ATOM     34  C   UNL     1      -5.677   7.183   1.395  1.00  0.00     0.031 C 
ATOM     35  C   UNL     1      -5.377   3.660   4.969  1.00  0.00     0.029 A 
ATOM     36  N   UNL     1      -6.440   5.562   5.480  1.00  0.00    -0.354 N 
ATOM     37  C   UNL     1      -6.880   8.725   2.585  1.00  0.00     0.074 A 
ATOM     38  C   UNL     1      -6.193   8.404   1.353  1.00  0.00     0.031 C 
ATOM     39  C   UNL     1      -5.761   3.578   6.255  1.00  0.00     0.029 A 
ATOM     40  C   UNL     1      -6.452   4.810   6.630  1.00  0.00     0.049 A 
ATOM     41  H   UNL     1      -6.854   6.452   5.413  1.00  0.00     0.167 HD
ATOM     42  C   UNL     1      -7.567   9.873   2.797  1.00  0.00     0.034 A 
ATOM     43  C   UNL     1      -6.962   5.084   7.847  1.00  0.00     0.034 A 
ATOM     44  C   UNL     1      -8.262  10.190   4.016  1.00  0.00     0.049 A 
ATOM     45  C   UNL     1      -7.726   6.366   8.056  1.00  0.00     0.074 A 
ATOM     46  C   UNL     1      -9.009  11.317   4.314  1.00  0.00     0.029 A 
ATOM     47  N   UNL     1      -8.293   9.383   5.142  1.00  0.00    -0.354 N 
ATOM     48  N   UNL     1      -7.989   7.320   7.196  1.00  0.00    -0.248 NA
ATOM     49  C   UNL     1      -8.304   6.586   9.390  1.00  0.00     0.031 C 
ATOM     50  C   UNL     1      -9.481  11.196   5.626  1.00  0.00     0.029 A 
ATOM     51  C   UNL     1      -9.041   9.987   6.139  1.00  0.00     0.049 A 
ATOM     52  H   UNL     1      -7.847   8.509   5.222  1.00  0.00     0.167 HD
ATOM     53  C   UNL     1      -8.780   8.241   7.875  1.00  0.00     0.074 A 
ATOM     54  C   UNL     1      -8.984   7.710   9.208  1.00  0.00     0.031 C 
ATOM     55  C   UNL     1      -9.274   9.428   7.446  1.00  0.00     0.034 A 
BRANCH  42  56
ATOM     56  C   UNL     1      -7.649  10.854   1.657  1.00  0.00     0.023 A 
ATOM     57  C   UNL     1      -8.494  10.569   0.565  1.00  0.00     0.012 A 
ATOM     58  C   UNL     1      -6.949  12.075   1.689  1.00  0.00     0.148 A 
ATOM     59  C   UNL     1      -8.622  11.472  -0.490  1.00  0.00     0.002 A 
ATOM     60  C   UNL     1      -7.110  12.987   0.651  1.00  0.00     0.091 A 
ATOM     61  F   UNL     1      -6.133  12.318   2.725  1.00  0.00    -0.205 F 
ATOM     62  C   UNL     1      -7.939  12.684  -0.442  1.00  0.00     0.022 A 
BRANCH  60  63
ATOM     63  S   UNL     1      -6.327  14.604   0.651  1.00  0.00     0.127 S 
ATOM     64  O   UNL     1      -5.317  14.443  -0.394  1.00  0.00    -0.237 OA
ATOM     65  O   UNL     1      -7.439  15.485   0.293  1.00  0.00    -0.237 OA
ATOM     66  O   UNL     1      -5.809  14.799   1.998  1.00  0.00    -0.744 OA
ENDBRANCH  60  63
ENDBRANCH  42  56
BRANCH  43  67
ATOM     67  C   UNL     1      -6.810   4.097   8.953  1.00  0.00     0.023 A 
ATOM     68  C   UNL     1      -7.936   3.400   9.432  1.00  0.00     0.012 A 
ATOM     69  C   UNL     1      -5.548   3.832   9.518  1.00  0.00     0.148 A 
ATOM     70  C   UNL     1      -7.812   2.479  10.473  1.00  0.00     0.002 A 
ATOM     71  C   UNL     1      -5.422   2.872  10.515  1.00  0.00     0.091 A 
ATOM     72  F   UNL     1      -4.490   4.522   9.067  1.00  0.00    -0.205 F 
ATOM     73  C   UNL     1      -6.554   2.206  11.006  1.00  0.00     0.022 A 
BRANCH  71  74
ATOM     74  S   UNL     1      -3.819   2.366  11.148  1.00  0.00     0.127 S 
ATOM     75  O   UNL     1      -3.769   3.062  12.430  1.00  0.00    -0.237 OA
ATOM     76  O   UNL     1      -3.970   0.913  11.241  1.00  0.00    -0.237 OA
ATOM     77  O   UNL     1      -2.854   2.800  10.146  1.00  0.00    -0.744 OA
ENDBRANCH  71  74
ENDBRANCH  43  67
BRANCH  55  78
ATOM     78  C   UNL     1     -10.090  10.236   8.423  1.00  0.00     0.023 A 
ATOM     79  C   UNL     1      -9.445  10.878   9.500  1.00  0.00     0.012 A 
ATOM     80  C   UNL     1     -11.478  10.400   8.254  1.00  0.00     0.148 A 
ATOM     81  C   UNL     1     -10.175  11.636  10.415  1.00  0.00     0.002 A 
ATOM     82  C   UNL     1     -12.192  11.195   9.145  1.00  0.00     0.091 A 
ATOM     83  F   UNL     1     -12.081   9.767   7.237  1.00  0.00    -0.205 F 
ATOM     84  C   UNL     1     -11.545  11.803  10.232  1.00  0.00     0.022 A 
BRANCH  82  85
ATOM     85  S   UNL     1     -13.944  11.530   8.928  1.00  0.00     0.127 S 
ATOM     86  O   UNL     1     -14.548  10.587   9.868  1.00  0.00    -0.237 OA
ATOM     87  O   UNL     1     -14.050  12.935   9.323  1.00  0.00    -0.237 OA
ATOM     88  O   UNL     1     -14.220  11.282   7.519  1.00  0.00    -0.744 OA
ENDBRANCH  82  85
ENDBRANCH  55  78
ENDBRANCH  29  30
ENDBRANCH  22  24
ENDBRANCH  21  22
ENDBRANCH  20  21
ENDBRANCH  19  20
ENDBRANCH   1  19
TORSDOF 20
