REMARK SMILES CC1(C)S[C@@H](c2cccc3c2sc2ccccc23)[NH2+][C@@H]1C(=O)OCCOCCOC(=O)c1ccc(-c2c3nc(c(-c4cccc(S(=O)(=O)[O-])c4F)c4ccc([nH]4)c(-c4cccc(S(=O)(=O)[O-])c4F)c4nc(c(-c5cccc(S(=O)(=O)[O-])c5F)c5ccc2[nH]5)C=C4)C=C3)cc1
REMARK SMILES IDX 27 1 26 2 25 3 24 4 23 5 21 6 22 7 20 8 1 9 2 10 3 11 4 12
REMARK SMILES IDX 5 13 19 14 6 17 7 18 11 19 8 20 10 21 12 22 9 23 18 24 13 25
REMARK SMILES IDX 17 26 14 27 16 28 15 29 28 30 29 31 30 32 31 33 32 34 33 35
REMARK SMILES IDX 94 36 34 37 93 38 35 39 36 40 37 41 87 42 38 43 92 44 86 45
REMARK SMILES IDX 88 46 39 47 91 48 85 49 84 50 40 52 72 53 52 54 71 55 53 56
REMARK SMILES IDX 56 57 70 58 89 59 54 60 55 61 69 63 90 64 57 65 41 66 42 67
REMARK SMILES IDX 50 68 43 69 45 70 51 71 44 72 46 73 47 74 48 75 49 76 73 77
REMARK SMILES IDX 74 78 82 79 75 80 77 81 83 82 76 83 78 84 79 85 80 86 81 87
REMARK SMILES IDX 58 88 59 89 67 90 60 91 62 92 68 93 61 94 63 95 64 96 65 97
REMARK SMILES IDX 66 98
REMARK H PARENT 19 15 19 16 88 51 56 62
REMARK Flexibility Score: inf
ROOT
ATOM      1  C   UNL     1       1.386   2.777  -3.457  1.00  0.00     0.202 C 
ENDROOT
BRANCH   1   2
ATOM      2  O   UNL     1       1.177   1.968  -4.613  1.00  0.00    -0.374 OA
BRANCH   2   3
ATOM      3  C   UNL     1      -0.160   1.740  -5.054  1.00  0.00     0.202 C 
BRANCH   3   4
ATOM      4  C   UNL     1      -1.065   0.845  -4.200  1.00  0.00     0.261 C 
BRANCH   4   5
ATOM      5  O   UNL     1      -0.980   1.147  -2.804  1.00  0.00    -0.459 OA
BRANCH   5   6
ATOM      6  C   UNL     1      -0.367   0.192  -2.041  1.00  0.00     0.366 C 
ATOM      7  O   UNL     1      -0.007  -0.902  -2.454  1.00  0.00    -0.245 OA
BRANCH   6   8
ATOM      8  C   UNL     1      -0.188   0.705  -0.592  1.00  0.00     0.310 C 
ATOM      9  C   UNL     1       1.286   0.797   1.488  1.00  0.00     0.030 C 
ATOM     10  C   UNL     1       0.884  -0.031   0.250  1.00  0.00     0.079 C 
ATOM     11  C   UNL     1       2.167  -0.405  -0.499  1.00  0.00     0.030 C 
ATOM     12  S   UNL     1      -0.009  -1.502   0.860  1.00  0.00    -0.081 SA
ATOM     13  C   UNL     1      -1.659  -0.824   0.441  1.00  0.00     0.276 C 
ATOM     14  N   UNL     1      -1.484   0.600   0.123  1.00  0.00    -0.319 N 
ATOM     15  H   UNL     1      -1.461   1.153   0.980  1.00  0.00     0.348 HD
ATOM     16  H   UNL     1      -2.253   0.953  -0.445  1.00  0.00     0.348 HD
BRANCH  13  17
ATOM     17  C   UNL     1      -2.706  -1.017   1.518  1.00  0.00     0.038 A 
ATOM     18  C   UNL     1      -2.396  -0.819   2.883  1.00  0.00     0.012 A 
ATOM     19  C   UNL     1      -4.059  -1.345   1.212  1.00  0.00     0.046 A 
ATOM     20  C   UNL     1      -3.332  -1.016   3.885  1.00  0.00     0.001 A 
ATOM     21  C   UNL     1      -5.017  -1.574   2.204  1.00  0.00     0.001 A 
ATOM     22  S   UNL     1      -4.769  -1.502  -0.354  1.00  0.00    -0.135 S 
ATOM     23  C   UNL     1      -4.624  -1.414   3.557  1.00  0.00     0.010 A 
ATOM     24  C   UNL     1      -6.305  -1.959   1.653  1.00  0.00     0.000 A 
ATOM     25  C   UNL     1      -6.312  -1.907   0.261  1.00  0.00     0.036 A 
ATOM     26  C   UNL     1      -7.510  -2.334   2.306  1.00  0.00     0.010 A 
ATOM     27  C   UNL     1      -7.479  -2.167  -0.484  1.00  0.00     0.019 A 
ATOM     28  C   UNL     1      -8.664  -2.617   1.570  1.00  0.00     0.001 A 
ATOM     29  C   UNL     1      -8.650  -2.518   0.188  1.00  0.00     0.002 A 
ENDBRANCH  13  17
ENDBRANCH   6   8
ENDBRANCH   5   6
ENDBRANCH   4   5
ENDBRANCH   3   4
ENDBRANCH   2   3
ENDBRANCH   1   2
BRANCH   1  30
ATOM     30  C   UNL     1       0.944   4.246  -3.478  1.00  0.00     0.261 C 
BRANCH  30  31
ATOM     31  O   UNL     1      -0.469   4.418  -3.675  1.00  0.00    -0.460 OA
BRANCH  31  32
ATOM     32  C   UNL     1      -0.800   5.101  -4.795  1.00  0.00     0.338 C 
ATOM     33  O   UNL     1      -0.027   5.607  -5.607  1.00  0.00    -0.246 OA
BRANCH  32  34
ATOM     34  C   UNL     1      -2.246   5.021  -5.047  1.00  0.00     0.060 A 
ATOM     35  C   UNL     1      -2.665   4.427  -6.245  1.00  0.00     0.016 A 
ATOM     36  C   UNL     1      -3.167   5.624  -4.189  1.00  0.00     0.016 A 
ATOM     37  C   UNL     1      -4.006   4.477  -6.614  1.00  0.00     0.010 A 
ATOM     38  C   UNL     1      -4.512   5.683  -4.568  1.00  0.00     0.010 A 
ATOM     39  C   UNL     1      -4.929   5.145  -5.800  1.00  0.00    -0.014 A 
BRANCH  39  40
ATOM     40  C   UNL     1      -6.292   5.408  -6.318  1.00  0.00     0.031 A 
ATOM     41  C   UNL     1      -6.594   6.750  -6.927  1.00  0.00     0.074 A 
ATOM     42  C   UNL     1      -7.239   4.455  -6.265  1.00  0.00     0.049 A 
ATOM     43  N   UNL     1      -7.707   7.186  -7.455  1.00  0.00    -0.248 NA
ATOM     44  C   UNL     1      -5.495   7.730  -6.943  1.00  0.00     0.031 C 
ATOM     45  C   UNL     1      -7.060   3.119  -5.699  1.00  0.00     0.029 A 
ATOM     46  N   UNL     1      -8.547   4.476  -6.678  1.00  0.00    -0.354 N 
ATOM     47  C   UNL     1      -7.453   8.496  -7.845  1.00  0.00     0.074 A 
ATOM     48  C   UNL     1      -6.084   8.789  -7.482  1.00  0.00     0.031 C 
ATOM     49  C   UNL     1      -8.225   2.455  -5.776  1.00  0.00     0.029 A 
ATOM     50  C   UNL     1      -9.234   3.322  -6.382  1.00  0.00     0.049 A 
ATOM     51  H   UNL     1      -8.954   5.242  -7.142  1.00  0.00     0.167 HD
ATOM     52  C   UNL     1      -8.279   9.370  -8.467  1.00  0.00     0.034 A 
ATOM     53  C   UNL     1     -10.532   3.010  -6.568  1.00  0.00     0.034 A 
ATOM     54  C   UNL     1      -9.633   9.068  -8.845  1.00  0.00     0.049 A 
ATOM     55  C   UNL     1     -11.433   4.006  -7.253  1.00  0.00     0.074 A 
ATOM     56  C   UNL     1     -10.538   9.869  -9.519  1.00  0.00     0.029 A 
ATOM     57  N   UNL     1     -10.282   7.874  -8.572  1.00  0.00    -0.354 N 
ATOM     58  N   UNL     1     -11.142   5.191  -7.733  1.00  0.00    -0.248 NA
ATOM     59  C   UNL     1     -12.833   3.605  -7.457  1.00  0.00     0.031 C 
ATOM     60  C   UNL     1     -11.741   9.165  -9.637  1.00  0.00     0.029 A 
ATOM     61  C   UNL     1     -11.579   7.918  -9.055  1.00  0.00     0.049 A 
ATOM     62  H   UNL     1      -9.880   7.107  -8.104  1.00  0.00     0.167 HD
ATOM     63  C   UNL     1     -12.309   5.663  -8.324  1.00  0.00     0.074 A 
ATOM     64  C   UNL     1     -13.306   4.625  -8.161  1.00  0.00     0.031 C 
ATOM     65  C   UNL     1     -12.541   6.853  -8.933  1.00  0.00     0.034 A 
BRANCH  52  66
ATOM     66  C   UNL     1      -7.728  10.729  -8.808  1.00  0.00     0.023 A 
ATOM     67  C   UNL     1      -6.812  10.860  -9.871  1.00  0.00     0.012 A 
ATOM     68  C   UNL     1      -8.150  11.879  -8.112  1.00  0.00     0.148 A 
ATOM     69  C   UNL     1      -6.304  12.111 -10.220  1.00  0.00     0.002 A 
ATOM     70  C   UNL     1      -7.669  13.127  -8.491  1.00  0.00     0.091 A 
ATOM     71  F   UNL     1      -9.001  11.730  -7.087  1.00  0.00    -0.205 F 
ATOM     72  C   UNL     1      -6.739  13.244  -9.538  1.00  0.00     0.022 A 
BRANCH  70  73
ATOM     73  S   UNL     1      -8.223  14.651  -7.719  1.00  0.00     0.127 S 
ATOM     74  O   UNL     1      -7.051  15.025  -6.929  1.00  0.00    -0.237 OA
ATOM     75  O   UNL     1      -8.476  15.510  -8.876  1.00  0.00    -0.237 OA
ATOM     76  O   UNL     1      -9.411  14.303  -6.952  1.00  0.00    -0.744 OA
ENDBRANCH  70  73
ENDBRANCH  52  66
BRANCH  53  77
ATOM     77  C   UNL     1     -11.043   1.677  -6.141  1.00  0.00     0.023 A 
ATOM     78  C   UNL     1     -11.420   0.733  -7.116  1.00  0.00     0.012 A 
ATOM     79  C   UNL     1     -11.133   1.329  -4.779  1.00  0.00     0.148 A 
ATOM     80  C   UNL     1     -11.905  -0.521  -6.742  1.00  0.00     0.002 A 
ATOM     81  C   UNL     1     -11.564   0.058  -4.414  1.00  0.00     0.091 A 
ATOM     82  F   UNL     1     -10.786   2.247  -3.866  1.00  0.00    -0.205 F 
ATOM     83  C   UNL     1     -11.966  -0.863  -5.394  1.00  0.00     0.022 A 
BRANCH  81  84
ATOM     84  S   UNL     1     -11.559  -0.511  -2.710  1.00  0.00     0.127 S 
ATOM     85  O   UNL     1     -12.988  -0.604  -2.420  1.00  0.00    -0.237 OA
ATOM     86  O   UNL     1     -10.869  -1.798  -2.818  1.00  0.00    -0.237 OA
ATOM     87  O   UNL     1     -10.827   0.499  -1.960  1.00  0.00    -0.744 OA
ENDBRANCH  81  84
ENDBRANCH  53  77
BRANCH  65  88
ATOM     88  C   UNL     1     -13.918   7.093  -9.498  1.00  0.00     0.023 A 
ATOM     89  C   UNL     1     -14.996   7.342  -8.627  1.00  0.00     0.012 A 
ATOM     90  C   UNL     1     -14.128   7.147 -10.890  1.00  0.00     0.148 A 
ATOM     91  C   UNL     1     -16.269   7.609  -9.131  1.00  0.00     0.002 A 
ATOM     92  C   UNL     1     -15.388   7.460 -11.386  1.00  0.00     0.091 A 
ATOM     93  F   UNL     1     -13.094   6.888 -11.705  1.00  0.00    -0.205 F 
ATOM     94  C   UNL     1     -16.462   7.679 -10.509  1.00  0.00     0.022 A 
BRANCH  92  95
ATOM     95  S   UNL     1     -15.702   7.665 -13.144  1.00  0.00     0.127 S 
ATOM     96  O   UNL     1     -16.382   6.414 -13.473  1.00  0.00    -0.237 OA
ATOM     97  O   UNL     1     -16.559   8.851 -13.173  1.00  0.00    -0.237 OA
ATOM     98  O   UNL     1     -14.396   7.853 -13.761  1.00  0.00    -0.744 OA
ENDBRANCH  92  95
ENDBRANCH  65  88
ENDBRANCH  39  40
ENDBRANCH  32  34
ENDBRANCH  31  32
ENDBRANCH  30  31
ENDBRANCH   1  30
TORSDOF 18
