REMARK SMILES O=C(/C=C/c1ccccc1Oc1cccc(Cl)c1)OCCOCCOC(=O)c1ccc(-c2c3nc(c(-c4cccc(S(=O)(=O)[O-])c4F)c4ccc([nH]4)c(-c4cccc(S(=O)(=O)[O-])c4F)c4nc(c(-c5cccc(S(=O)(=O)[O-])c5F)c5ccc2[nH]5)C=C4)C=C3)cc1
REMARK SMILES IDX 22 1 21 2 20 3 19 4 2 5 1 6 3 7 4 8 5 9 6 10 10 11 7 12 9 13
REMARK SMILES IDX 8 14 11 15 12 16 13 17 18 18 14 19 16 20 15 21 17 22 23 23
REMARK SMILES IDX 24 24 25 25 26 26 27 27 28 28 29 29 90 30 30 31 89 32 31 33
REMARK SMILES IDX 32 34 33 35 83 36 34 37 88 38 82 39 84 40 35 41 87 42 81 43
REMARK SMILES IDX 80 44 36 46 68 47 48 48 67 49 49 50 52 51 66 52 85 53 50 54
REMARK SMILES IDX 51 55 65 57 86 58 53 59 37 60 38 61 46 62 39 63 41 64 47 65
REMARK SMILES IDX 40 66 42 67 43 68 44 69 45 70 69 71 70 72 78 73 71 74 73 75
REMARK SMILES IDX 79 76 72 77 74 78 75 79 76 80 77 81 54 82 55 83 63 84 56 85
REMARK SMILES IDX 58 86 64 87 57 88 59 89 60 90 61 91 62 92
REMARK H PARENT 84 45 52 56
REMARK Flexibility Score: inf
ROOT
ATOM      1  O   UNL     1       4.641   0.966   1.679  1.00  0.00    -0.374 OA
ENDROOT
BRANCH   1   2
ATOM      2  C   UNL     1       4.838   1.696   0.467  1.00  0.00     0.202 C 
BRANCH   2   3
ATOM      3  C   UNL     1       4.654   0.984  -0.874  1.00  0.00     0.261 C 
BRANCH   3   4
ATOM      4  O   UNL     1       3.296   0.609  -1.170  1.00  0.00    -0.460 OA
BRANCH   4   5
ATOM      5  C   UNL     1       2.549  -0.135  -0.332  1.00  0.00     0.330 C 
ATOM      6  O   UNL     1       1.345   0.060  -0.193  1.00  0.00    -0.247 OA
BRANCH   5   7
ATOM      7  C   UNL     1       3.224  -1.156   0.486  1.00  0.00     0.094 C 
ATOM      8  C   UNL     1       4.298  -1.855   0.105  1.00  0.00     0.019 C 
BRANCH   8   9
ATOM      9  C   UNL     1       4.937  -2.829   0.980  1.00  0.00     0.017 A 
ATOM     10  C   UNL     1       6.032  -2.340   1.723  1.00  0.00     0.012 A 
ATOM     11  C   UNL     1       4.586  -4.187   1.060  1.00  0.00     0.134 A 
ATOM     12  C   UNL     1       6.808  -3.193   2.503  1.00  0.00     0.001 A 
ATOM     13  C   UNL     1       5.384  -5.031   1.849  1.00  0.00     0.048 A 
ATOM     14  C   UNL     1       6.490  -4.544   2.556  1.00  0.00     0.004 A 
BRANCH  11  15
ATOM     15  O   UNL     1       3.567  -4.864   0.405  1.00  0.00    -0.457 OA
BRANCH  15  16
ATOM     16  C   UNL     1       2.551  -4.171  -0.202  1.00  0.00     0.128 A 
ATOM     17  C   UNL     1       1.385  -3.875   0.511  1.00  0.00     0.047 A 
ATOM     18  C   UNL     1       2.682  -3.783  -1.538  1.00  0.00     0.067 A 
ATOM     19  C   UNL     1       0.383  -3.109  -0.092  1.00  0.00     0.005 A 
ATOM     20  C   UNL     1       1.694  -2.989  -2.119  1.00  0.00     0.044 A 
ATOM     21  C   UNL     1       0.545  -2.652  -1.403  1.00  0.00     0.021 A 
ATOM     22  Cl  UNL     1       1.949  -2.331  -3.688  1.00  0.00    -0.084 Cl
ENDBRANCH  15  16
ENDBRANCH  11  15
ENDBRANCH   8   9
ENDBRANCH   5   7
ENDBRANCH   4   5
ENDBRANCH   3   4
ENDBRANCH   2   3
ENDBRANCH   1   2
BRANCH   1  23
ATOM     23  C   UNL     1       3.436   1.263   2.401  1.00  0.00     0.202 C 
BRANCH  23  24
ATOM     24  C   UNL     1       3.385   2.549   3.232  1.00  0.00     0.261 C 
BRANCH  24  25
ATOM     25  O   UNL     1       3.613   3.709   2.431  1.00  0.00    -0.460 OA
BRANCH  25  26
ATOM     26  C   UNL     1       4.912   4.099   2.368  1.00  0.00     0.338 C 
ATOM     27  O   UNL     1       5.833   3.699   3.049  1.00  0.00    -0.246 OA
BRANCH  26  28
ATOM     28  C   UNL     1       5.083   4.895   1.133  1.00  0.00     0.060 A 
ATOM     29  C   UNL     1       6.231   4.655   0.360  1.00  0.00     0.016 A 
ATOM     30  C   UNL     1       4.106   5.794   0.703  1.00  0.00     0.016 A 
ATOM     31  C   UNL     1       6.434   5.347  -0.826  1.00  0.00     0.010 A 
ATOM     32  C   UNL     1       4.325   6.518  -0.463  1.00  0.00     0.010 A 
ATOM     33  C   UNL     1       5.514   6.332  -1.191  1.00  0.00    -0.014 A 
BRANCH  33  34
ATOM     34  C   UNL     1       5.933   7.405  -2.108  1.00  0.00     0.031 A 
ATOM     35  C   UNL     1       6.461   8.657  -1.472  1.00  0.00     0.074 A 
ATOM     36  C   UNL     1       5.767   7.297  -3.433  1.00  0.00     0.049 A 
ATOM     37  N   UNL     1       6.699   9.822  -2.004  1.00  0.00    -0.248 NA
ATOM     38  C   UNL     1       6.724   8.590  -0.022  1.00  0.00     0.031 C 
ATOM     39  C   UNL     1       5.278   6.111  -4.130  1.00  0.00     0.029 A 
ATOM     40  N   UNL     1       5.939   8.232  -4.418  1.00  0.00    -0.354 N 
ATOM     41  C   UNL     1       7.076  10.641  -0.947  1.00  0.00     0.074 A 
ATOM     42  C   UNL     1       7.037   9.843   0.255  1.00  0.00     0.031 C 
ATOM     43  C   UNL     1       5.127   6.409  -5.432  1.00  0.00     0.029 A 
ATOM     44  C   UNL     1       5.469   7.815  -5.639  1.00  0.00     0.049 A 
ATOM     45  H   UNL     1       6.357   9.111  -4.267  1.00  0.00     0.167 HD
ATOM     46  C   UNL     1       7.418  11.948  -0.980  1.00  0.00     0.034 A 
ATOM     47  C   UNL     1       5.285   8.516  -6.774  1.00  0.00     0.034 A 
ATOM     48  C   UNL     1       7.446  12.717  -2.190  1.00  0.00     0.049 A 
ATOM     49  C   UNL     1       5.661   9.974  -6.794  1.00  0.00     0.074 A 
ATOM     50  C   UNL     1       7.833  14.030  -2.368  1.00  0.00     0.029 A 
ATOM     51  N   UNL     1       7.046  12.239  -3.430  1.00  0.00    -0.354 N 
ATOM     52  N   UNL     1       6.115  10.722  -5.816  1.00  0.00    -0.248 NA
ATOM     53  C   UNL     1       5.532  10.677  -8.077  1.00  0.00     0.031 C 
ATOM     54  C   UNL     1       7.623  14.361  -3.710  1.00  0.00     0.029 A 
ATOM     55  C   UNL     1       7.160  13.236  -4.379  1.00  0.00     0.049 A 
ATOM     56  H   UNL     1       6.727  11.325  -3.608  1.00  0.00     0.167 HD
ATOM     57  C   UNL     1       6.366  11.971  -6.371  1.00  0.00     0.074 A 
ATOM     58  C   UNL     1       6.014  11.876  -7.775  1.00  0.00     0.031 C 
ATOM     59  C   UNL     1       6.846  13.094  -5.779  1.00  0.00     0.034 A 
BRANCH  46  60
ATOM     60  C   UNL     1       7.758  12.609   0.329  1.00  0.00     0.023 A 
ATOM     61  C   UNL     1       8.923  12.236   1.033  1.00  0.00     0.012 A 
ATOM     62  C   UNL     1       6.915  13.599   0.869  1.00  0.00     0.148 A 
ATOM     63  C   UNL     1       9.213  12.797   2.276  1.00  0.00     0.002 A 
ATOM     64  C   UNL     1       7.240  14.194   2.081  1.00  0.00     0.091 A 
ATOM     65  F   UNL     1       5.795  13.918   0.205  1.00  0.00    -0.205 F 
ATOM     66  C   UNL     1       8.378  13.783   2.795  1.00  0.00     0.022 A 
BRANCH  64  67
ATOM     67  S   UNL     1       6.273  15.531   2.788  1.00  0.00     0.127 S 
ATOM     68  O   UNL     1       5.623  14.863   3.914  1.00  0.00    -0.237 OA
ATOM     69  O   UNL     1       7.310  16.493   3.166  1.00  0.00    -0.237 OA
ATOM     70  O   UNL     1       5.383  15.986   1.729  1.00  0.00    -0.744 OA
ENDBRANCH  64  67
ENDBRANCH  46  60
BRANCH  47  71
ATOM     71  C   UNL     1       4.732   7.830  -7.973  1.00  0.00     0.023 A 
ATOM     72  C   UNL     1       5.577   7.547  -9.062  1.00  0.00     0.012 A 
ATOM     73  C   UNL     1       3.394   7.389  -8.004  1.00  0.00     0.148 A 
ATOM     74  C   UNL     1       5.097   6.848 -10.169  1.00  0.00     0.002 A 
ATOM     75  C   UNL     1       2.937   6.647  -9.086  1.00  0.00     0.091 A 
ATOM     76  F   UNL     1       2.609   7.674  -6.956  1.00  0.00    -0.205 F 
ATOM     77  C   UNL     1       3.782   6.387 -10.176  1.00  0.00     0.022 A 
BRANCH  75  78
ATOM     78  S   UNL     1       1.303   5.903  -9.130  1.00  0.00     0.127 S 
ATOM     79  O   UNL     1       0.691   6.593 -10.263  1.00  0.00    -0.237 OA
ATOM     80  O   UNL     1       1.625   4.495  -9.366  1.00  0.00    -0.237 OA
ATOM     81  O   UNL     1       0.705   6.179  -7.831  1.00  0.00    -0.744 OA
ENDBRANCH  75  78
ENDBRANCH  47  71
BRANCH  59  82
ATOM     82  C   UNL     1       7.091  14.297  -6.649  1.00  0.00     0.023 A 
ATOM     83  C   UNL     1       6.011  15.064  -7.126  1.00  0.00     0.012 A 
ATOM     84  C   UNL     1       8.411  14.729  -6.890  1.00  0.00     0.148 A 
ATOM     85  C   UNL     1       6.244  16.232  -7.851  1.00  0.00     0.002 A 
ATOM     86  C   UNL     1       8.634  15.921  -7.563  1.00  0.00     0.091 A 
ATOM     87  F   UNL     1       9.422  13.973  -6.438  1.00  0.00    -0.205 F 
ATOM     88  C   UNL     1       7.552  16.668  -8.056  1.00  0.00     0.022 A 
BRANCH  86  89
ATOM     89  S   UNL     1      10.277  16.614  -7.775  1.00  0.00     0.127 S 
ATOM     90  O   UNL     1      10.470  16.484  -9.218  1.00  0.00    -0.237 OA
ATOM     91  O   UNL     1      10.094  17.988  -7.304  1.00  0.00    -0.237 OA
ATOM     92  O   UNL     1      11.167  15.805  -6.954  1.00  0.00    -0.744 OA
ENDBRANCH  86  89
ENDBRANCH  59  82
ENDBRANCH  33  34
ENDBRANCH  26  28
ENDBRANCH  25  26
ENDBRANCH  24  25
ENDBRANCH  23  24
ENDBRANCH   1  23
TORSDOF 20
