REMARK SMILES CC[C@@H](C)c1nc2cc(C(=O)OCCOCCOC(=O)c3ccc(-c4c5nc(c(-c6cccc(S(=O)(=O)[O-])c6F)c6ccc([nH]6)c(-c6cccc(S(=O)(=O)[O-])c6F)c6nc(c(-c7cccc(S(=O)(=O)[O-])c7F)c7ccc4[nH]7)C=C6)C=C5)cc3)ccc2n1[C@@H](C)CC
REMARK SMILES IDX 16 1 15 2 14 3 13 4 12 5 10 6 11 7 9 8 5 9 6 10 87 11 7 12
REMARK SMILES IDX 86 13 8 14 85 15 84 16 3 17 4 18 2 19 1 20 88 21 89 22 90 23
REMARK SMILES IDX 91 24 17 25 18 26 19 27 20 28 21 29 22 30 83 31 23 32 82 33
REMARK SMILES IDX 24 34 25 35 26 36 76 37 27 38 81 39 75 40 77 41 28 42 80 43
REMARK SMILES IDX 74 44 73 45 29 47 61 48 41 49 60 50 42 51 45 52 59 53 78 54
REMARK SMILES IDX 43 55 44 56 58 58 79 59 46 60 30 61 31 62 39 63 32 64 34 65
REMARK SMILES IDX 40 66 33 67 35 68 36 69 37 70 38 71 62 72 63 73 71 74 64 75
REMARK SMILES IDX 66 76 72 77 65 78 67 79 68 80 69 81 70 82 47 83 48 84 56 85
REMARK SMILES IDX 49 86 51 87 57 88 50 89 52 90 53 91 54 92 55 93
REMARK H PARENT 77 46 45 57
REMARK Flexibility Score: inf
ROOT
ATOM      1  C   UNL     1      -2.143  -4.497   7.779  1.00  0.00     0.202 C 
ENDROOT
BRANCH   1   2
ATOM      2  O   UNL     1      -1.406  -5.443   8.557  1.00  0.00    -0.374 OA
BRANCH   2   3
ATOM      3  C   UNL     1      -1.167  -5.145   9.927  1.00  0.00     0.202 C 
BRANCH   3   4
ATOM      4  C   UNL     1      -0.113  -4.097  10.303  1.00  0.00     0.261 C 
BRANCH   4   5
ATOM      5  O   UNL     1      -0.222  -2.907   9.529  1.00  0.00    -0.460 OA
BRANCH   5   6
ATOM      6  C   UNL     1       0.713  -2.833   8.558  1.00  0.00     0.338 C 
ATOM      7  O   UNL     1       1.658  -3.586   8.371  1.00  0.00    -0.246 OA
BRANCH   6   8
ATOM      8  C   UNL     1       0.349  -1.776   7.607  1.00  0.00     0.062 A 
ATOM      9  C   UNL     1       0.579   0.244   3.587  1.00  0.00     0.112 A 
ATOM     10  N   UNL     1       0.764  -0.992   4.024  1.00  0.00    -0.233 NA
ATOM     11  N   UNL     1       0.069   1.022   4.626  1.00  0.00    -0.325 N 
ATOM     12  C   UNL     1       0.468  -1.007   5.346  1.00  0.00     0.090 A 
ATOM     13  C   UNL     1      -0.048   0.209   5.752  1.00  0.00     0.068 A 
ATOM     14  C   UNL     1       0.664  -2.029   6.268  1.00  0.00     0.046 A 
ATOM     15  C   UNL     1      -0.482   0.436   7.072  1.00  0.00     0.029 A 
ATOM     16  C   UNL     1      -0.262  -0.583   8.003  1.00  0.00     0.018 A 
BRANCH   9  17
ATOM     17  C   UNL     1       1.074   0.578   2.183  1.00  0.00     0.052 C 
ATOM     18  C   UNL     1       0.716   1.911   1.552  1.00  0.00     0.016 C 
BRANCH  17  19
ATOM     19  C   UNL     1       0.658  -0.575   1.219  1.00  0.00     0.008 C 
ATOM     20  C   UNL     1       1.124  -0.399  -0.222  1.00  0.00     0.004 C 
ENDBRANCH  17  19
ENDBRANCH   9  17
BRANCH  11  21
ATOM     21  C   UNL     1      -0.184   2.455   4.725  1.00  0.00     0.085 C 
ATOM     22  C   UNL     1       1.115   3.265   4.687  1.00  0.00     0.031 C 
BRANCH  21  23
ATOM     23  C   UNL     1      -1.357   2.972   3.876  1.00  0.00     0.022 C 
ATOM     24  C   UNL     1      -2.643   2.176   4.093  1.00  0.00     0.006 C 
ENDBRANCH  21  23
ENDBRANCH  11  21
ENDBRANCH   6   8
ENDBRANCH   5   6
ENDBRANCH   4   5
ENDBRANCH   3   4
ENDBRANCH   2   3
ENDBRANCH   1   2
BRANCH   1  25
ATOM     25  C   UNL     1      -3.600  -4.167   8.161  1.00  0.00     0.261 C 
BRANCH  25  26
ATOM     26  O   UNL     1      -3.688  -3.514   9.436  1.00  0.00    -0.460 OA
BRANCH  26  27
ATOM     27  C   UNL     1      -4.659  -3.986  10.266  1.00  0.00     0.338 C 
ATOM     28  O   UNL     1      -5.699  -4.541   9.946  1.00  0.00    -0.246 OA
BRANCH  27  29
ATOM     29  C   UNL     1      -4.030  -4.058  11.600  1.00  0.00     0.060 A 
ATOM     30  C   UNL     1      -3.325  -2.961  12.108  1.00  0.00     0.016 A 
ATOM     31  C   UNL     1      -3.834  -5.351  12.113  1.00  0.00     0.016 A 
ATOM     32  C   UNL     1      -2.338  -3.183  13.062  1.00  0.00     0.010 A 
ATOM     33  C   UNL     1      -2.807  -5.572  13.022  1.00  0.00     0.010 A 
ATOM     34  C   UNL     1      -2.031  -4.495  13.462  1.00  0.00    -0.014 A 
BRANCH  34  35
ATOM     35  C   UNL     1      -1.051  -4.689  14.535  1.00  0.00     0.031 A 
ATOM     36  C   UNL     1      -1.619  -4.289  15.854  1.00  0.00     0.074 A 
ATOM     37  C   UNL     1       0.151  -5.298  14.417  1.00  0.00     0.049 A 
ATOM     38  N   UNL     1      -1.232  -3.334  16.636  1.00  0.00    -0.248 NA
ATOM     39  C   UNL     1      -2.890  -4.919  16.256  1.00  0.00     0.031 C 
ATOM     40  C   UNL     1       0.707  -5.986  13.253  1.00  0.00     0.029 A 
ATOM     41  N   UNL     1       1.100  -5.540  15.375  1.00  0.00    -0.354 N 
ATOM     42  C   UNL     1      -2.084  -3.404  17.735  1.00  0.00     0.074 A 
ATOM     43  C   UNL     1      -3.193  -4.237  17.357  1.00  0.00     0.031 C 
ATOM     44  C   UNL     1       1.758  -6.751  13.627  1.00  0.00     0.029 A 
ATOM     45  C   UNL     1       2.010  -6.549  15.039  1.00  0.00     0.049 A 
ATOM     46  H   UNL     1       1.138  -5.047  16.226  1.00  0.00     0.167 HD
ATOM     47  C   UNL     1      -1.699  -3.010  18.977  1.00  0.00     0.034 A 
ATOM     48  C   UNL     1       2.833  -7.231  15.882  1.00  0.00     0.034 A 
ATOM     49  C   UNL     1      -0.541  -2.166  18.949  1.00  0.00     0.049 A 
ATOM     50  C   UNL     1       2.959  -6.409  17.105  1.00  0.00     0.074 A 
ATOM     51  C   UNL     1      -0.238  -0.941  18.391  1.00  0.00     0.029 A 
ATOM     52  N   UNL     1       0.661  -2.755  19.248  1.00  0.00    -0.354 N 
ATOM     53  N   UNL     1       3.549  -5.249  17.139  1.00  0.00    -0.248 NA
ATOM     54  C   UNL     1       2.048  -6.694  18.200  1.00  0.00     0.031 C 
ATOM     55  C   UNL     1       1.111  -1.063  17.949  1.00  0.00     0.029 A 
ATOM     56  C   UNL     1       1.567  -2.330  18.315  1.00  0.00     0.049 A 
ATOM     57  H   UNL     1       0.839  -3.370  19.997  1.00  0.00     0.167 HD
ATOM     58  C   UNL     1       2.751  -4.492  17.982  1.00  0.00     0.074 A 
ATOM     59  C   UNL     1       1.895  -5.455  18.672  1.00  0.00     0.031 C 
ATOM     60  C   UNL     1       2.655  -3.142  17.827  1.00  0.00     0.034 A 
BRANCH  47  61
ATOM     61  C   UNL     1      -2.161  -3.703  20.230  1.00  0.00     0.023 A 
ATOM     62  C   UNL     1      -2.004  -3.038  21.460  1.00  0.00     0.012 A 
ATOM     63  C   UNL     1      -2.510  -5.075  20.272  1.00  0.00     0.148 A 
ATOM     64  C   UNL     1      -2.192  -3.707  22.675  1.00  0.00     0.002 A 
ATOM     65  C   UNL     1      -2.776  -5.712  21.475  1.00  0.00     0.091 A 
ATOM     66  F   UNL     1      -2.454  -5.808  19.154  1.00  0.00    -0.205 F 
ATOM     67  C   UNL     1      -2.598  -5.038  22.683  1.00  0.00     0.022 A 
BRANCH  65  68
ATOM     68  S   UNL     1      -3.333  -7.419  21.531  1.00  0.00     0.127 S 
ATOM     69  O   UNL     1      -2.137  -8.100  22.017  1.00  0.00    -0.237 OA
ATOM     70  O   UNL     1      -4.437  -7.341  22.488  1.00  0.00    -0.237 OA
ATOM     71  O   UNL     1      -3.746  -7.736  20.170  1.00  0.00    -0.744 OA
ENDBRANCH  65  68
ENDBRANCH  47  61
BRANCH  48  72
ATOM     72  C   UNL     1       3.260  -8.663  15.890  1.00  0.00     0.023 A 
ATOM     73  C   UNL     1       4.233  -9.083  16.829  1.00  0.00     0.012 A 
ATOM     74  C   UNL     1       2.512  -9.666  15.237  1.00  0.00     0.148 A 
ATOM     75  C   UNL     1       4.395 -10.435  17.161  1.00  0.00     0.002 A 
ATOM     76  C   UNL     1       2.683 -11.011  15.563  1.00  0.00     0.091 A 
ATOM     77  F   UNL     1       1.559  -9.306  14.370  1.00  0.00    -0.205 F 
ATOM     78  C   UNL     1       3.608 -11.399  16.540  1.00  0.00     0.022 A 
BRANCH  76  79
ATOM     79  S   UNL     1       1.688 -12.306  14.809  1.00  0.00     0.127 S 
ATOM     80  O   UNL     1       2.689 -13.333  14.519  1.00  0.00    -0.237 OA
ATOM     81  O   UNL     1       0.761 -12.641  15.885  1.00  0.00    -0.237 OA
ATOM     82  O   UNL     1       1.093 -11.703  13.623  1.00  0.00    -0.744 OA
ENDBRANCH  76  79
ENDBRANCH  48  72
BRANCH  60  83
ATOM     83  C   UNL     1       3.614  -2.469  16.880  1.00  0.00     0.023 A 
ATOM     84  C   UNL     1       3.540  -2.636  15.480  1.00  0.00     0.012 A 
ATOM     85  C   UNL     1       4.476  -1.498  17.409  1.00  0.00     0.148 A 
ATOM     86  C   UNL     1       4.312  -1.841  14.627  1.00  0.00     0.002 A 
ATOM     87  C   UNL     1       5.213  -0.686  16.558  1.00  0.00     0.091 A 
ATOM     88  F   UNL     1       4.520  -1.355  18.742  1.00  0.00    -0.205 F 
ATOM     89  C   UNL     1       5.137  -0.855  15.166  1.00  0.00     0.022 A 
BRANCH  87  90
ATOM     90  S   UNL     1       6.211   0.668  17.180  1.00  0.00     0.127 S 
ATOM     91  O   UNL     1       7.565   0.228  16.850  1.00  0.00    -0.237 OA
ATOM     92  O   UNL     1       5.724   1.799  16.389  1.00  0.00    -0.237 OA
ATOM     93  O   UNL     1       5.921   0.766  18.606  1.00  0.00    -0.744 OA
ENDBRANCH  87  90
ENDBRANCH  60  83
ENDBRANCH  34  35
ENDBRANCH  27  29
ENDBRANCH  26  27
ENDBRANCH  25  26
ENDBRANCH   1  25
TORSDOF 21
