REMARK SMILES NC(=O)C[C@H](NC(=O)C1(c2ccccc2)CCN(C(=O)[C@@H]2CCC[NH2+]2)CC1)C(=O)OCCOCCOC(=O)c1ccc(-c2c3nc(c(-c4cccc(S(=O)(=O)[O-])c4F)c4ccc([nH]4)c(-c4cccc(S(=O)(=O)[O-])c4F)c4nc(c(-c5cccc(S(=O)(=O)[O-])c5F)c5ccc2[nH]5)C=C4)C=C3)cc1
REMARK SMILES IDX 33 1 32 2 31 3 30 4 28 5 29 6 5 7 4 8 2 9 1 10 3 13 6 14
REMARK SMILES IDX 7 15 8 17 9 18 16 19 27 20 17 21 26 22 18 23 19 24 20 25
REMARK SMILES IDX 10 26 11 27 15 28 12 29 14 30 13 31 21 32 22 33 25 34 23 35
REMARK SMILES IDX 24 36 34 39 35 40 36 41 37 42 38 43 39 44 40 45 101 46 41 47
REMARK SMILES IDX 100 48 42 49 43 50 44 51 94 52 45 53 99 54 93 55 95 56 46 57
REMARK SMILES IDX 98 58 92 59 91 60 47 62 79 63 59 64 78 65 60 66 63 67 77 68
REMARK SMILES IDX 96 69 61 70 62 71 76 73 97 74 64 75 48 76 49 77 57 78 50 79
REMARK SMILES IDX 52 80 58 81 51 82 53 83 54 84 55 85 56 86 80 87 81 88 89 89
REMARK SMILES IDX 82 90 84 91 90 92 83 93 85 94 86 95 87 96 88 97 65 98 66 99
REMARK SMILES IDX 74 100 67 101 69 102 75 103 68 104 70 105 71 106 72 107
REMARK SMILES IDX 73 108
REMARK H PARENT 1 11 1 12 6 16 25 37 25 38 95 61 63 72
REMARK Flexibility Score: inf
ROOT
ATOM      1  O   UNL     1       2.913  -2.319   7.037  1.00  0.00    -0.374 OA
ENDROOT
BRANCH   1   2
ATOM      2  C   UNL     1       4.080  -1.534   6.801  1.00  0.00     0.202 C 
BRANCH   2   3
ATOM      3  C   UNL     1       4.063  -0.503   5.514  1.00  0.00     0.261 C 
BRANCH   3   4
ATOM      4  O   UNL     1       3.619  -0.848   3.573  1.00  0.00    -0.462 OA
BRANCH   4   5
ATOM      5  C   UNL     1       3.503  -1.216   2.247  1.00  0.00     0.329 C 
ATOM      6  O   UNL     1       4.301  -1.936   1.634  1.00  0.00    -0.250 OA
BRANCH   5   7
ATOM      7  C   UNL     1       2.226  -0.688   1.514  1.00  0.00     0.201 C 
BRANCH   7   8
ATOM      8  C   UNL     1       2.701  -0.013   0.219  1.00  0.00     0.136 C 
BRANCH   8   9
ATOM      9  C   UNL     1       1.627   0.093  -0.840  1.00  0.00     0.220 C 
ATOM     10  N   UNL     1       0.895  -1.024  -1.111  1.00  0.00    -0.370 N 
ATOM     11  H   UNL     1       0.186  -0.994  -1.794  1.00  0.00     0.159 HD
ATOM     12  H   UNL     1       1.074  -1.860  -0.623  1.00  0.00     0.159 HD
ATOM     13  O   UNL     1       1.422   1.121  -1.477  1.00  0.00    -0.275 OA
ENDBRANCH   8   9
ENDBRANCH   7   8
BRANCH   7  14
ATOM     14  N   UNL     1       0.980  -0.031   2.013  1.00  0.00    -0.342 N 
ATOM     15  C   UNL     1       0.673   1.111   2.688  1.00  0.00     0.231 C 
ATOM     16  H   UNL     1       0.176  -0.558   1.799  1.00  0.00     0.164 HD
ATOM     17  O   UNL     1      -0.423   1.608   2.407  1.00  0.00    -0.274 OA
BRANCH  15  18
ATOM     18  C   UNL     1       1.527   1.671   3.841  1.00  0.00     0.077 C 
ATOM     19  C   UNL     1       0.624   1.796   5.100  1.00  0.00     0.043 C 
ATOM     20  C   UNL     1       2.111   3.058   3.462  1.00  0.00     0.043 C 
ATOM     21  C   UNL     1      -0.295   3.015   5.117  1.00  0.00     0.121 C 
ATOM     22  C   UNL     1       1.083   4.199   3.517  1.00  0.00     0.121 C 
ATOM     23  N   UNL     1       0.459   4.229   4.833  1.00  0.00    -0.337 N 
ATOM     24  C   UNL     1       0.591   5.176   5.840  1.00  0.00     0.280 C 
ATOM     25  O   UNL     1       0.086   4.956   6.953  1.00  0.00    -0.268 OA
BRANCH  18  26
ATOM     26  C   UNL     1       2.594   0.644   4.163  1.00  0.00    -0.032 A 
ATOM     27  C   UNL     1       4.332   0.938   3.756  1.00  0.00     0.005 A 
ATOM     28  C   UNL     1       2.053  -1.038   4.627  1.00  0.00     0.005 A 
ATOM     29  C   UNL     1       5.516  -0.425   3.769  1.00  0.00     0.000 A 
ATOM     30  C   UNL     1       3.240  -2.409   4.597  1.00  0.00     0.000 A 
ATOM     31  C   UNL     1       4.979  -2.084   4.221  1.00  0.00     0.000 A 
ENDBRANCH  18  26
BRANCH  24  32
ATOM     32  C   UNL     1       1.314   6.526   5.651  1.00  0.00     0.272 C 
ATOM     33  C   UNL     1       0.689   7.513   4.695  1.00  0.00     0.081 C 
ATOM     34  N   UNL     1       2.728   6.436   5.232  1.00  0.00    -0.336 N 
ATOM     35  C   UNL     1       1.796   8.545   4.533  1.00  0.00     0.068 C 
ATOM     36  C   UNL     1       3.096   7.793   4.798  1.00  0.00     0.261 C 
ATOM     37  H   UNL     1       2.830   5.775   4.462  1.00  0.00     0.346 HD
ATOM     38  H   UNL     1       3.327   6.104   5.989  1.00  0.00     0.346 HD
ENDBRANCH  24  32
ENDBRANCH  15  18
ENDBRANCH   7  14
ENDBRANCH   5   7
ENDBRANCH   4   5
ENDBRANCH   3   4
ENDBRANCH   2   3
ENDBRANCH   1   2
BRANCH   1  39
ATOM     39  C   UNL     1       1.937  -1.957   7.994  1.00  0.00     0.202 C 
BRANCH  39  40
ATOM     40  C   UNL     1       1.308  -0.562   7.999  1.00  0.00     0.261 C 
BRANCH  40  41
ATOM     41  O   UNL     1       2.206   0.536   7.863  1.00  0.00    -0.460 OA
BRANCH  41  42
ATOM     42  C   UNL     1       2.918   0.917   8.944  1.00  0.00     0.338 C 
ATOM     43  O   UNL     1       2.966   0.356  10.022  1.00  0.00    -0.246 OA
BRANCH  42  44
ATOM     44  C   UNL     1       3.715   2.096   8.538  1.00  0.00     0.060 A 
ATOM     45  C   UNL     1       5.088   2.144   8.791  1.00  0.00     0.016 A 
ATOM     46  C   UNL     1       3.090   3.170   7.907  1.00  0.00     0.016 A 
ATOM     47  C   UNL     1       5.824   3.292   8.454  1.00  0.00     0.010 A 
ATOM     48  C   UNL     1       3.839   4.288   7.546  1.00  0.00     0.010 A 
ATOM     49  C   UNL     1       5.200   4.397   7.853  1.00  0.00    -0.014 A 
BRANCH  49  50
ATOM     50  C   UNL     1       5.923   5.689   7.636  1.00  0.00     0.031 A 
ATOM     51  C   UNL     1       5.476   6.952   8.345  1.00  0.00     0.074 A 
ATOM     52  C   UNL     1       6.961   5.773   6.778  1.00  0.00     0.049 A 
ATOM     53  N   UNL     1       6.048   8.132   8.373  1.00  0.00    -0.248 NA
ATOM     54  C   UNL     1       4.211   6.894   9.096  1.00  0.00     0.031 C 
ATOM     55  C   UNL     1       7.434   4.698   5.907  1.00  0.00     0.029 A 
ATOM     56  N   UNL     1       7.802   6.825   6.494  1.00  0.00    -0.354 N 
ATOM     57  C   UNL     1       5.200   8.954   9.110  1.00  0.00     0.074 A 
ATOM     58  C   UNL     1       4.046   8.157   9.458  1.00  0.00     0.031 C 
ATOM     59  C   UNL     1       8.493   5.137   5.205  1.00  0.00     0.029 A 
ATOM     60  C   UNL     1       8.785   6.519   5.582  1.00  0.00     0.049 A 
ATOM     61  H   UNL     1       7.709   7.714   6.905  1.00  0.00     0.167 HD
ATOM     62  C   UNL     1       5.378  10.234   9.518  1.00  0.00     0.034 A 
ATOM     63  C   UNL     1       9.825   7.251   5.128  1.00  0.00     0.034 A 
ATOM     64  C   UNL     1       6.558  11.012   9.252  1.00  0.00     0.049 A 
ATOM     65  C   UNL     1      10.075   8.631   5.682  1.00  0.00     0.074 A 
ATOM     66  C   UNL     1       6.894  12.262   9.744  1.00  0.00     0.029 A 
ATOM     67  N   UNL     1       7.594  10.617   8.425  1.00  0.00    -0.354 N 
ATOM     68  N   UNL     1       9.386   9.301   6.572  1.00  0.00    -0.248 NA
ATOM     69  C   UNL     1      11.281   9.332   5.211  1.00  0.00     0.031 C 
ATOM     70  C   UNL     1       8.136  12.624   9.209  1.00  0.00     0.029 A 
ATOM     71  C   UNL     1       8.572  11.596   8.391  1.00  0.00     0.049 A 
ATOM     72  H   UNL     1       7.631   9.764   7.934  1.00  0.00     0.167 HD
ATOM     73  C   UNL     1      10.095  10.477   6.800  1.00  0.00     0.074 A 
ATOM     74  C   UNL     1      11.277  10.423   5.966  1.00  0.00     0.031 C 
ATOM     75  C   UNL     1       9.784  11.514   7.618  1.00  0.00     0.034 A 
BRANCH  62  76
ATOM     76  C   UNL     1       4.311  10.844  10.393  1.00  0.00     0.023 A 
ATOM     77  C   UNL     1       4.152  10.370  11.713  1.00  0.00     0.012 A 
ATOM     78  C   UNL     1       3.510  11.912   9.944  1.00  0.00     0.148 A 
ATOM     79  C   UNL     1       3.184  10.914  12.555  1.00  0.00     0.002 A 
ATOM     80  C   UNL     1       2.580  12.483  10.808  1.00  0.00     0.091 A 
ATOM     81  F   UNL     1       3.658  12.341   8.683  1.00  0.00    -0.205 F 
ATOM     82  C   UNL     1       2.406  11.976  12.106  1.00  0.00     0.022 A 
BRANCH  80  83
ATOM     83  S   UNL     1       1.601  13.919  10.352  1.00  0.00     0.127 S 
ATOM     84  O   UNL     1       0.304  13.313  10.054  1.00  0.00    -0.237 OA
ATOM     85  O   UNL     1       1.632  14.721  11.576  1.00  0.00    -0.237 OA
ATOM     86  O   UNL     1       2.291  14.524   9.221  1.00  0.00    -0.744 OA
ENDBRANCH  80  83
ENDBRANCH  62  76
BRANCH  63  87
ATOM     87  C   UNL     1      10.803   6.635   4.187  1.00  0.00     0.023 A 
ATOM     88  C   UNL     1      12.073   6.260   4.671  1.00  0.00     0.012 A 
ATOM     89  C   UNL     1      10.483   6.397   2.838  1.00  0.00     0.148 A 
ATOM     90  C   UNL     1      13.018   5.686   3.822  1.00  0.00     0.002 A 
ATOM     91  C   UNL     1      11.414   5.781   2.007  1.00  0.00     0.091 A 
ATOM     92  F   UNL     1       9.274   6.771   2.396  1.00  0.00    -0.205 F 
ATOM     93  C   UNL     1      12.686   5.438   2.493  1.00  0.00     0.022 A 
BRANCH  91  94
ATOM     94  S   UNL     1      11.037   5.312   0.315  1.00  0.00     0.127 S 
ATOM     95  O   UNL     1      11.868   6.241  -0.445  1.00  0.00    -0.237 OA
ATOM     96  O   UNL     1      11.481   3.918   0.283  1.00  0.00    -0.237 OA
ATOM     97  O   UNL     1       9.598   5.487   0.171  1.00  0.00    -0.744 OA
ENDBRANCH  91  94
ENDBRANCH  63  87
BRANCH  75  98
ATOM     98  C   UNL     1      10.743  12.674   7.694  1.00  0.00     0.023 A 
ATOM     99  C   UNL     1      10.825  13.583   6.621  1.00  0.00     0.012 A 
ATOM    100  C   UNL     1      11.495  12.916   8.862  1.00  0.00     0.148 A 
ATOM    101  C   UNL     1      11.660  14.698   6.697  1.00  0.00     0.002 A 
ATOM    102  C   UNL     1      12.293  14.053   8.947  1.00  0.00     0.091 A 
ATOM    103  F   UNL     1      11.419  12.032   9.868  1.00  0.00    -0.205 F 
ATOM    104  C   UNL     1      12.384  14.939   7.862  1.00  0.00     0.022 A 
BRANCH 102 105
ATOM    105  S   UNL     1      13.191  14.489  10.442  1.00  0.00     0.127 S 
ATOM    106  O   UNL     1      14.562  14.132  10.082  1.00  0.00    -0.237 OA
ATOM    107  O   UNL     1      12.944  15.927  10.548  1.00  0.00    -0.237 OA
ATOM    108  O   UNL     1      12.595  13.696  11.509  1.00  0.00    -0.744 OA
ENDBRANCH 102 105
ENDBRANCH  75  98
ENDBRANCH  49  50
ENDBRANCH  42  44
ENDBRANCH  41  42
ENDBRANCH  40  41
ENDBRANCH  39  40
ENDBRANCH   1  39
TORSDOF 23
