REMARK SMILES CC1(C)[C@H](C(=O)OCCOCCOC(=O)c2ccc(-c3c4nc(c(-c5cccc(S(=O)(=O)[O-])c5F)c5ccc([nH]5)c(-c5cccc(S(=O)(=O)[O-])c5F)c5nc(c(-c6cccc(S(=O)(=O)[O-])c6F)c6ccc3[nH]6)C=C5)C=C4)cc2)[C@@H]1C(=O)Nc1ccc(NC(=O)C2CCC2)cc1
REMARK SMILES IDX 9 1 8 2 7 3 5 4 6 5 4 6 1 7 2 8 3 9 79 10 80 11 81 12 82 13
REMARK SMILES IDX 83 15 84 16 95 17 85 18 94 19 86 20 87 21 88 22 89 24 90 25
REMARK SMILES IDX 91 26 93 27 92 28 10 29 11 30 12 31 13 32 14 33 15 34 16 35
REMARK SMILES IDX 17 36 78 37 18 38 77 39 19 40 20 41 21 42 71 43 22 44 76 45
REMARK SMILES IDX 70 46 72 47 23 48 75 49 69 50 68 51 24 53 56 54 36 55 55 56
REMARK SMILES IDX 37 57 40 58 54 59 73 60 38 61 39 62 53 64 74 65 41 66 25 67
REMARK SMILES IDX 26 68 34 69 27 70 29 71 35 72 28 73 30 74 31 75 32 76 33 77
REMARK SMILES IDX 57 78 58 79 66 80 59 81 61 82 67 83 60 84 62 85 63 86 64 87
REMARK SMILES IDX 65 88 42 89 43 90 51 91 44 92 46 93 52 94 45 95 47 96 48 97
REMARK SMILES IDX 49 98 50 99
REMARK H PARENT 82 14 87 23 72 52 40 63
REMARK Flexibility Score: inf
ROOT
ATOM      1  C   UNL     1      -1.907   2.530  -3.881  1.00  0.00     0.202 C 
ENDROOT
BRANCH   1   2
ATOM      2  C   UNL     1      -1.681   2.796  -2.379  1.00  0.00     0.261 C 
BRANCH   2   3
ATOM      3  O   UNL     1      -1.112   1.795  -1.537  1.00  0.00    -0.463 OA
BRANCH   3   4
ATOM      4  C   UNL     1      -1.714   0.587  -1.499  1.00  0.00     0.310 C 
ATOM      5  O   UNL     1      -2.605   0.226  -2.239  1.00  0.00    -0.252 OA
BRANCH   4   6
ATOM      6  C   UNL     1      -1.056  -0.390  -0.598  1.00  0.00     0.118 C 
ATOM      7  C   UNL     1       1.214  -1.276   0.203  1.00  0.00     0.013 C 
ATOM      8  C   UNL     1       0.191  -0.167   0.233  1.00  0.00    -0.009 C 
ATOM      9  C   UNL     1       0.832   1.204   0.324  1.00  0.00     0.013 C 
ATOM     10  C   UNL     1      -1.174  -0.451   0.904  1.00  0.00     0.100 C 
BRANCH  10  11
ATOM     11  C   UNL     1      -1.693   0.544   1.874  1.00  0.00     0.228 C 
ATOM     12  O   UNL     1      -0.975   0.871   2.815  1.00  0.00    -0.274 OA
ATOM     13  N   UNL     1      -2.941   1.097   1.771  1.00  0.00    -0.326 N 
ATOM     14  H   UNL     1      -3.205   1.679   2.520  1.00  0.00     0.169 HD
BRANCH  13  15
ATOM     15  C   UNL     1      -3.892   0.957   0.764  1.00  0.00     0.041 A 
ATOM     16  C   UNL     1      -4.338   2.146   0.212  1.00  0.00     0.028 A 
ATOM     17  C   UNL     1      -4.327  -0.252   0.231  1.00  0.00     0.028 A 
ATOM     18  C   UNL     1      -5.036   2.128  -0.990  1.00  0.00     0.028 A 
ATOM     19  C   UNL     1      -5.127  -0.248  -0.929  1.00  0.00     0.028 A 
ATOM     20  C   UNL     1      -5.425   0.953  -1.599  1.00  0.00     0.041 A 
BRANCH  20  21
ATOM     21  N   UNL     1      -6.023   0.871  -2.864  1.00  0.00    -0.326 N 
ATOM     22  C   UNL     1      -6.352   1.734  -3.890  1.00  0.00     0.227 C 
ATOM     23  H   UNL     1      -6.279  -0.055  -3.079  1.00  0.00     0.169 HD
ATOM     24  O   UNL     1      -6.856   1.147  -4.873  1.00  0.00    -0.274 OA
BRANCH  22  25
ATOM     25  C   UNL     1      -6.128   3.259  -3.981  1.00  0.00     0.079 C 
ATOM     26  C   UNL     1      -7.341   4.012  -4.649  1.00  0.00     0.013 C 
ATOM     27  C   UNL     1      -6.279   4.325  -2.866  1.00  0.00     0.013 C 
ATOM     28  C   UNL     1      -6.917   5.268  -3.886  1.00  0.00     0.002 C 
ENDBRANCH  22  25
ENDBRANCH  20  21
ENDBRANCH  13  15
ENDBRANCH  10  11
ENDBRANCH   4   6
ENDBRANCH   3   4
ENDBRANCH   2   3
ENDBRANCH   1   2
BRANCH   1  29
ATOM     29  O   UNL     1      -1.289   1.500  -4.635  1.00  0.00    -0.374 OA
BRANCH  29  30
ATOM     30  C   UNL     1      -0.081   0.884  -4.244  1.00  0.00     0.202 C 
BRANCH  30  31
ATOM     31  C   UNL     1       1.202   1.703  -4.319  1.00  0.00     0.261 C 
BRANCH  31  32
ATOM     32  O   UNL     1       1.117   2.958  -3.636  1.00  0.00    -0.460 OA
BRANCH  32  33
ATOM     33  C   UNL     1       0.969   4.021  -4.461  1.00  0.00     0.338 C 
ATOM     34  O   UNL     1       0.904   4.005  -5.679  1.00  0.00    -0.246 OA
BRANCH  33  35
ATOM     35  C   UNL     1       0.759   5.250  -3.675  1.00  0.00     0.060 A 
ATOM     36  C   UNL     1      -0.267   6.107  -4.090  1.00  0.00     0.016 A 
ATOM     37  C   UNL     1       1.597   5.598  -2.612  1.00  0.00     0.016 A 
ATOM     38  C   UNL     1      -0.410   7.355  -3.494  1.00  0.00     0.010 A 
ATOM     39  C   UNL     1       1.456   6.856  -2.020  1.00  0.00     0.010 A 
ATOM     40  C   UNL     1       0.488   7.757  -2.498  1.00  0.00    -0.014 A 
BRANCH  40  41
ATOM     41  C   UNL     1       0.537   9.188  -2.121  1.00  0.00     0.031 A 
ATOM     42  C   UNL     1       1.576  10.066  -2.764  1.00  0.00     0.074 A 
ATOM     43  C   UNL     1      -0.353   9.707  -1.258  1.00  0.00     0.049 A 
ATOM     44  N   UNL     1       1.782  11.349  -2.618  1.00  0.00    -0.248 NA
ATOM     45  C   UNL     1       2.508   9.411  -3.698  1.00  0.00     0.031 C 
ATOM     46  C   UNL     1      -1.407   8.957  -0.578  1.00  0.00     0.029 A 
ATOM     47  N   UNL     1      -0.499  10.991  -0.797  1.00  0.00    -0.354 N 
ATOM     48  C   UNL     1       2.876  11.650  -3.420  1.00  0.00     0.074 A 
ATOM     49  C   UNL     1       3.304  10.414  -4.037  1.00  0.00     0.031 C 
ATOM     50  C   UNL     1      -2.079   9.792   0.234  1.00  0.00     0.029 A 
ATOM     51  C   UNL     1      -1.493  11.128   0.141  1.00  0.00     0.049 A 
ATOM     52  H   UNL     1       0.056  11.742  -1.109  1.00  0.00     0.167 HD
ATOM     53  C   UNL     1       3.461  12.850  -3.640  1.00  0.00     0.034 A 
ATOM     54  C   UNL     1      -1.874  12.208   0.852  1.00  0.00     0.034 A 
ATOM     55  C   UNL     1       3.022  14.081  -3.042  1.00  0.00     0.049 A 
ATOM     56  C   UNL     1      -1.192  13.529   0.603  1.00  0.00     0.074 A 
ATOM     57  C   UNL     1       3.518  15.357  -3.238  1.00  0.00     0.029 A 
ATOM     58  N   UNL     1       1.991  14.188  -2.122  1.00  0.00    -0.354 N 
ATOM     59  N   UNL     1      -0.243  13.822  -0.253  1.00  0.00    -0.248 NA
ATOM     60  C   UNL     1      -1.659  14.677   1.395  1.00  0.00     0.031 C 
ATOM     61  C   UNL     1       2.803  16.233  -2.414  1.00  0.00     0.029 A 
ATOM     62  C   UNL     1       1.843  15.506  -1.728  1.00  0.00     0.049 A 
ATOM     63  H   UNL     1       1.444  13.436  -1.797  1.00  0.00     0.167 HD
ATOM     64  C   UNL     1      -0.025  15.191  -0.130  1.00  0.00     0.074 A 
ATOM     65  C   UNL     1      -0.958  15.672   0.869  1.00  0.00     0.031 C 
ATOM     66  C   UNL     1       0.874  15.977  -0.772  1.00  0.00     0.034 A 
BRANCH  53  67
ATOM     67  C   UNL     1       4.629  12.892  -4.590  1.00  0.00     0.023 A 
ATOM     68  C   UNL     1       4.408  12.746  -5.974  1.00  0.00     0.012 A 
ATOM     69  C   UNL     1       5.935  13.124  -4.118  1.00  0.00     0.148 A 
ATOM     70  C   UNL     1       5.474  12.798  -6.872  1.00  0.00     0.002 A 
ATOM     71  C   UNL     1       6.986  13.218  -5.022  1.00  0.00     0.091 A 
ATOM     72  F   UNL     1       6.127  13.234  -2.796  1.00  0.00    -0.205 F 
ATOM     73  C   UNL     1       6.759  13.044  -6.398  1.00  0.00     0.022 A 
BRANCH  71  74
ATOM     74  S   UNL     1       8.665  13.606  -4.517  1.00  0.00     0.127 S 
ATOM     75  O   UNL     1       9.341  12.327  -4.732  1.00  0.00    -0.237 OA
ATOM     76  O   UNL     1       9.036  14.658  -5.464  1.00  0.00    -0.237 OA
ATOM     77  O   UNL     1       8.577  14.041  -3.130  1.00  0.00    -0.744 OA
ENDBRANCH  71  74
ENDBRANCH  53  67
BRANCH  54  78
ATOM     78  C   UNL     1      -2.982  12.095   1.841  1.00  0.00     0.023 A 
ATOM     79  C   UNL     1      -4.207  12.743   1.593  1.00  0.00     0.012 A 
ATOM     80  C   UNL     1      -2.830  11.340   3.021  1.00  0.00     0.148 A 
ATOM     81  C   UNL     1      -5.251  12.667   2.517  1.00  0.00     0.002 A 
ATOM     82  C   UNL     1      -3.892  11.222   3.909  1.00  0.00     0.091 A 
ATOM     83  F   UNL     1      -1.650  10.746   3.247  1.00  0.00    -0.205 F 
ATOM     84  C   UNL     1      -5.097  11.899   3.668  1.00  0.00     0.022 A 
BRANCH  82  85
ATOM     85  S   UNL     1      -3.828  10.148   5.346  1.00  0.00     0.127 S 
ATOM     86  O   UNL     1      -3.783  11.114   6.441  1.00  0.00    -0.237 OA
ATOM     87  O   UNL     1      -5.086   9.409   5.226  1.00  0.00    -0.237 OA
ATOM     88  O   UNL     1      -2.636   9.330   5.172  1.00  0.00    -0.744 OA
ENDBRANCH  82  85
ENDBRANCH  54  78
BRANCH  66  89
ATOM     89  C   UNL     1       0.878  17.449  -0.445  1.00  0.00     0.023 A 
ATOM     90  C   UNL     1       1.377  17.890   0.796  1.00  0.00     0.012 A 
ATOM     91  C   UNL     1       0.457  18.398  -1.397  1.00  0.00     0.148 A 
ATOM     92  C   UNL     1       1.424  19.250   1.099  1.00  0.00     0.002 A 
ATOM     93  C   UNL     1       0.553  19.755  -1.108  1.00  0.00     0.091 A 
ATOM     94  F   UNL     1      -0.031  17.960  -2.567  1.00  0.00    -0.205 F 
ATOM     95  C   UNL     1       1.024  20.182   0.144  1.00  0.00     0.022 A 
BRANCH  93  96
ATOM     96  S   UNL     1       0.152  21.025  -2.313  1.00  0.00     0.127 S 
ATOM     97  O   UNL     1      -1.124  21.525  -1.806  1.00  0.00    -0.237 OA
ATOM     98  O   UNL     1       1.273  21.956  -2.169  1.00  0.00    -0.237 OA
ATOM     99  O   UNL     1       0.093  20.349  -3.602  1.00  0.00    -0.744 OA
ENDBRANCH  93  96
ENDBRANCH  66  89
ENDBRANCH  40  41
ENDBRANCH  33  35
ENDBRANCH  32  33
ENDBRANCH  31  32
ENDBRANCH  30  31
ENDBRANCH  29  30
ENDBRANCH   1  29
TORSDOF 21
