REMARK SMILES C[NH+](C)CCNC(=O)NC1(CC(=O)OCCOCCOC(=O)c2ccc(-c3c4nc(c(-c5cccc(S(=O)(=O)[O-])c5F)c5ccc([nH]5)c(-c5cccc(S(=O)(=O)[O-])c5F)c5nc(c(-c6cccc(S(=O)(=O)[O-])c6F)c6ccc3[nH]6)C=C5)C=C4)cc2)CCC1
REMARK SMILES IDX 16 1 15 2 14 3 12 4 13 5 11 6 10 7 86 8 88 9 87 10 9 11 6 12
REMARK SMILES IDX 7 13 8 15 5 17 4 18 2 19 1 20 3 21 17 23 18 24 19 25 20 26
REMARK SMILES IDX 21 27 22 28 23 29 24 30 85 31 25 32 84 33 26 34 27 35 28 36
REMARK SMILES IDX 78 37 29 38 83 39 77 40 79 41 30 42 82 43 76 44 75 45 31 47
REMARK SMILES IDX 63 48 43 49 62 50 44 51 47 52 61 53 80 54 45 55 46 56 60 58
REMARK SMILES IDX 81 59 48 60 32 61 33 62 41 63 34 64 36 65 42 66 35 67 37 68
REMARK SMILES IDX 38 69 39 70 40 71 64 72 65 73 73 74 66 75 68 76 74 77 67 78
REMARK SMILES IDX 69 79 70 80 71 81 72 82 49 83 50 84 58 85 51 86 53 87 59 88
REMARK SMILES IDX 52 89 54 90 55 91 56 92 57 93
REMARK H PARENT 6 14 9 16 2 22 79 46 47 57
REMARK Flexibility Score: inf
ROOT
ATOM      1  C   UNL     1      -0.427  -1.733  -1.781  1.00  0.00     0.202 C 
ENDROOT
BRANCH   1   2
ATOM      2  C   UNL     1      -1.225  -2.828  -1.042  1.00  0.00     0.261 C 
BRANCH   2   3
ATOM      3  O   UNL     1      -0.405  -3.541  -0.076  1.00  0.00    -0.463 OA
BRANCH   3   4
ATOM      4  C   UNL     1      -0.923  -4.651   0.509  1.00  0.00     0.308 C 
ATOM      5  O   UNL     1      -1.921  -5.220   0.071  1.00  0.00    -0.252 OA
BRANCH   4   6
ATOM      6  C   UNL     1      -0.309  -5.038   1.871  1.00  0.00     0.151 C 
BRANCH   6   7
ATOM      7  C   UNL     1       1.220  -5.172   2.120  1.00  0.00     0.052 C 
ATOM      8  C   UNL     1       1.548  -6.597   2.739  1.00  0.00     0.029 C 
ATOM      9  C   UNL     1       2.132  -4.661   3.359  1.00  0.00     0.029 C 
ATOM     10  C   UNL     1       1.784  -5.927   4.109  1.00  0.00     0.005 C 
BRANCH   7  11
ATOM     11  N   UNL     1       1.971  -4.863   0.907  1.00  0.00    -0.332 N 
ATOM     12  N   UNL     1       2.038  -2.494   1.056  1.00  0.00    -0.332 N 
ATOM     13  C   UNL     1       2.466  -3.664   0.533  1.00  0.00     0.315 C 
ATOM     14  H   UNL     1       2.581  -1.731   0.754  1.00  0.00     0.165 HD
ATOM     15  O   UNL     1       3.333  -3.664  -0.341  1.00  0.00    -0.249 OA
ATOM     16  H   UNL     1       2.135  -5.614   0.292  1.00  0.00     0.165 HD
BRANCH  12  17
ATOM     17  C   UNL     1       0.959  -2.082   1.966  1.00  0.00     0.179 C 
BRANCH  17  18
ATOM     18  C   UNL     1       1.205  -0.756   2.701  1.00  0.00     0.283 C 
BRANCH  18  19
ATOM     19  N   UNL     1       0.277   0.339   2.369  1.00  0.00    -0.338 N 
ATOM     20  C   UNL     1       0.144   0.569   0.937  1.00  0.00     0.332 C 
ATOM     21  C   UNL     1      -1.046   0.158   2.964  1.00  0.00     0.332 C 
ATOM     22  H   UNL     1       0.705   1.169   2.779  1.00  0.00     0.347 HD
ENDBRANCH  18  19
ENDBRANCH  17  18
ENDBRANCH  12  17
ENDBRANCH   7  11
ENDBRANCH   6   7
ENDBRANCH   4   6
ENDBRANCH   3   4
ENDBRANCH   2   3
ENDBRANCH   1   2
BRANCH   1  23
ATOM     23  O   UNL     1       0.213  -2.195  -2.972  1.00  0.00    -0.374 OA
BRANCH  23  24
ATOM     24  C   UNL     1       1.455  -2.861  -2.736  1.00  0.00     0.202 C 
BRANCH  24  25
ATOM     25  C   UNL     1       2.660  -1.908  -2.677  1.00  0.00     0.261 C 
BRANCH  25  26
ATOM     26  O   UNL     1       2.681  -1.069  -1.500  1.00  0.00    -0.460 OA
BRANCH  26  27
ATOM     27  C   UNL     1       3.607  -0.077  -1.591  1.00  0.00     0.338 C 
ATOM     28  O   UNL     1       4.322   0.170  -2.544  1.00  0.00    -0.246 OA
BRANCH  27  29
ATOM     29  C   UNL     1       3.585   0.779  -0.390  1.00  0.00     0.060 A 
ATOM     30  C   UNL     1       2.985   2.035  -0.505  1.00  0.00     0.016 A 
ATOM     31  C   UNL     1       4.266   0.420   0.780  1.00  0.00     0.016 A 
ATOM     32  C   UNL     1       3.116   2.963   0.526  1.00  0.00     0.010 A 
ATOM     33  C   UNL     1       4.398   1.359   1.817  1.00  0.00     0.010 A 
ATOM     34  C   UNL     1       3.878   2.657   1.663  1.00  0.00    -0.014 A 
BRANCH  34  35
ATOM     35  C   UNL     1       4.358   3.806   2.479  1.00  0.00     0.031 A 
ATOM     36  C   UNL     1       5.702   4.396   2.128  1.00  0.00     0.074 A 
ATOM     37  C   UNL     1       3.569   4.420   3.381  1.00  0.00     0.049 A 
ATOM     38  N   UNL     1       6.240   5.527   2.505  1.00  0.00    -0.248 NA
ATOM     39  C   UNL     1       6.543   3.615   1.204  1.00  0.00     0.031 C 
ATOM     40  C   UNL     1       2.243   3.966   3.795  1.00  0.00     0.029 A 
ATOM     41  N   UNL     1       3.768   5.577   4.096  1.00  0.00    -0.354 N 
ATOM     42  C   UNL     1       7.471   5.593   1.863  1.00  0.00     0.074 A 
ATOM     43  C   UNL     1       7.618   4.378   1.096  1.00  0.00     0.031 C 
ATOM     44  C   UNL     1       1.744   4.840   4.689  1.00  0.00     0.029 A 
ATOM     45  C   UNL     1       2.714   5.912   4.914  1.00  0.00     0.049 A 
ATOM     46  H   UNL     1       4.589   6.117   4.028  1.00  0.00     0.167 HD
ATOM     47  C   UNL     1       8.393   6.583   1.885  1.00  0.00     0.034 A 
ATOM     48  C   UNL     1       2.551   6.967   5.740  1.00  0.00     0.034 A 
ATOM     49  C   UNL     1       8.258   7.787   2.656  1.00  0.00     0.049 A 
ATOM     50  C   UNL     1       3.613   8.041   5.782  1.00  0.00     0.074 A 
ATOM     51  C   UNL     1       9.135   8.851   2.752  1.00  0.00     0.029 A 
ATOM     52  N   UNL     1       7.183   8.076   3.481  1.00  0.00    -0.354 N 
ATOM     53  N   UNL     1       4.721   8.137   5.087  1.00  0.00    -0.248 NA
ATOM     54  C   UNL     1       3.380   9.175   6.690  1.00  0.00     0.031 C 
ATOM     55  C   UNL     1       8.608   9.767   3.668  1.00  0.00     0.029 A 
ATOM     56  C   UNL     1       7.378   9.296   4.102  1.00  0.00     0.049 A 
ATOM     57  H   UNL     1       6.396   7.497   3.607  1.00  0.00     0.167 HD
ATOM     58  C   UNL     1       5.292   9.357   5.439  1.00  0.00     0.074 A 
ATOM     59  C   UNL     1       4.397   9.973   6.397  1.00  0.00     0.031 C 
ATOM     60  C   UNL     1       6.452   9.917   5.014  1.00  0.00     0.034 A 
BRANCH  47  61
ATOM     61  C   UNL     1       9.634   6.392   1.052  1.00  0.00     0.023 A 
ATOM     62  C   UNL     1       9.558   6.465  -0.354  1.00  0.00     0.012 A 
ATOM     63  C   UNL     1      10.880   6.157   1.665  1.00  0.00     0.148 A 
ATOM     64  C   UNL     1      10.694   6.265  -1.138  1.00  0.00     0.002 A 
ATOM     65  C   UNL     1      12.016   6.006   0.880  1.00  0.00     0.091 A 
ATOM     66  F   UNL     1      10.927   6.068   3.002  1.00  0.00    -0.205 F 
ATOM     67  C   UNL     1      11.923   6.045  -0.521  1.00  0.00     0.022 A 
BRANCH  65  68
ATOM     68  S   UNL     1      13.655   5.790   1.580  1.00  0.00     0.127 S 
ATOM     69  O   UNL     1      13.963   4.414   1.194  1.00  0.00    -0.237 OA
ATOM     70  O   UNL     1      14.427   6.810   0.871  1.00  0.00    -0.237 OA
ATOM     71  O   UNL     1      13.515   6.018   3.012  1.00  0.00    -0.744 OA
ENDBRANCH  65  68
ENDBRANCH  47  61
BRANCH  48  72
ATOM     72  C   UNL     1       1.318   7.088   6.576  1.00  0.00     0.023 A 
ATOM     73  C   UNL     1       0.401   8.133   6.344  1.00  0.00     0.012 A 
ATOM     74  C   UNL     1       1.062   6.173   7.616  1.00  0.00     0.148 A 
ATOM     75  C   UNL     1      -0.726   8.286   7.156  1.00  0.00     0.002 A 
ATOM     76  C   UNL     1      -0.092   6.296   8.383  1.00  0.00     0.091 A 
ATOM     77  F   UNL     1       1.955   5.199   7.838  1.00  0.00    -0.205 F 
ATOM     78  C   UNL     1      -0.977   7.363   8.168  1.00  0.00     0.022 A 
BRANCH  76  79
ATOM     79  S   UNL     1      -0.555   5.085   9.626  1.00  0.00     0.127 S 
ATOM     80  O   UNL     1      -0.403   5.850  10.861  1.00  0.00    -0.237 OA
ATOM     81  O   UNL     1      -1.938   4.786   9.252  1.00  0.00    -0.237 OA
ATOM     82  O   UNL     1       0.367   3.971   9.456  1.00  0.00    -0.744 OA
ENDBRANCH  76  79
ENDBRANCH  48  72
BRANCH  60  83
ATOM     83  C   UNL     1       6.805  11.289   5.531  1.00  0.00     0.023 A 
ATOM     84  C   UNL     1       7.195  11.465   6.873  1.00  0.00     0.012 A 
ATOM     85  C   UNL     1       6.824  12.394   4.656  1.00  0.00     0.148 A 
ATOM     86  C   UNL     1       7.556  12.727   7.346  1.00  0.00     0.002 A 
ATOM     87  C   UNL     1       7.238  13.636   5.120  1.00  0.00     0.091 A 
ATOM     88  F   UNL     1       6.434  12.211   3.385  1.00  0.00    -0.205 F 
ATOM     89  C   UNL     1       7.590  13.808   6.468  1.00  0.00     0.022 A 
BRANCH  87  90
ATOM     90  S   UNL     1       7.413  15.056   4.034  1.00  0.00     0.127 S 
ATOM     91  O   UNL     1       6.265  15.872   4.424  1.00  0.00    -0.237 OA
ATOM     92  O   UNL     1       8.712  15.598   4.438  1.00  0.00    -0.237 OA
ATOM     93  O   UNL     1       7.376  14.530   2.676  1.00  0.00    -0.744 OA
ENDBRANCH  87  90
ENDBRANCH  60  83
ENDBRANCH  34  35
ENDBRANCH  27  29
ENDBRANCH  26  27
ENDBRANCH  25  26
ENDBRANCH  24  25
ENDBRANCH  23  24
ENDBRANCH   1  23
TORSDOF 22
