REMARK SMILES O=C(OCCOCCOC(=O)C1(n2ccnc2)CCN(C(=O)C2(c3ccccc3)CC2)CC1)c1ccc(-c2c3nc(c(-c4cccc(S(=O)(=O)[O-])c4F)c4ccc([nH]4)c(-c4cccc(S(=O)(=O)[O-])c4F)c4nc(c(-c5cccc(S(=O)(=O)[O-])c5F)c5ccc2[nH]5)C=C4)C=C3)cc1
REMARK SMILES IDX 5 1 4 2 3 3 2 4 1 5 34 6 35 7 96 8 36 9 95 10 37 11 38 12
REMARK SMILES IDX 39 13 89 14 40 15 94 16 88 17 90 18 41 19 93 20 87 21 86 22
REMARK SMILES IDX 42 24 74 25 54 26 73 27 55 28 58 29 72 30 91 31 56 32 57 33
REMARK SMILES IDX 71 35 92 36 59 37 43 38 44 39 52 40 45 41 47 42 53 43 46 44
REMARK SMILES IDX 48 45 49 46 50 47 51 48 75 49 76 50 84 51 77 52 79 53 85 54
REMARK SMILES IDX 78 55 80 56 81 57 82 58 83 59 60 60 61 61 69 62 62 63 64 64
REMARK SMILES IDX 70 65 63 66 65 67 66 68 67 69 68 70 6 71 7 72 8 73 9 74
REMARK SMILES IDX 10 75 11 76 12 77 18 78 33 79 19 80 32 81 20 82 21 83 22 84
REMARK SMILES IDX 13 85 14 86 17 87 15 88 16 89 23 90 30 91 31 92 24 93 25 94
REMARK SMILES IDX 29 95 26 96 28 97 27 98
REMARK H PARENT 90 23 58 34
REMARK Flexibility Score: inf
ROOT
ATOM      1  C   UNL     1       4.571  -0.324   0.403  1.00  0.00     0.202 C 
ENDROOT
BRANCH   1   2
ATOM      2  C   UNL     1       3.713   0.957   0.388  1.00  0.00     0.261 C 
BRANCH   2   3
ATOM      3  O   UNL     1       2.340   0.683   0.686  1.00  0.00    -0.460 OA
BRANCH   3   4
ATOM      4  C   UNL     1       1.338   0.490  -0.217  1.00  0.00     0.338 C 
ATOM      5  O   UNL     1       0.254   0.098   0.162  1.00  0.00    -0.246 OA
BRANCH   4   6
ATOM      6  C   UNL     1       1.539   0.824  -1.650  1.00  0.00     0.060 A 
ATOM      7  C   UNL     1       2.745   0.690  -2.339  1.00  0.00     0.016 A 
ATOM      8  C   UNL     1       0.421   1.327  -2.317  1.00  0.00     0.016 A 
ATOM      9  C   UNL     1       2.924   1.329  -3.546  1.00  0.00     0.010 A 
ATOM     10  C   UNL     1       0.559   1.843  -3.594  1.00  0.00     0.010 A 
ATOM     11  C   UNL     1       1.831   1.935  -4.159  1.00  0.00    -0.014 A 
BRANCH  11  12
ATOM     12  C   UNL     1       2.054   2.506  -5.480  1.00  0.00     0.031 A 
ATOM     13  C   UNL     1       2.650   1.564  -6.473  1.00  0.00     0.074 A 
ATOM     14  C   UNL     1       1.608   3.730  -5.818  1.00  0.00     0.049 A 
ATOM     15  N   UNL     1       3.693   1.732  -7.223  1.00  0.00    -0.248 NA
ATOM     16  C   UNL     1       2.076   0.209  -6.538  1.00  0.00     0.031 C 
ATOM     17  C   UNL     1       0.765   4.620  -5.015  1.00  0.00     0.029 A 
ATOM     18  N   UNL     1       1.650   4.346  -7.033  1.00  0.00    -0.354 N 
ATOM     19  C   UNL     1       3.778   0.577  -8.002  1.00  0.00     0.074 A 
ATOM     20  C   UNL     1       2.876  -0.381  -7.423  1.00  0.00     0.031 C 
ATOM     21  C   UNL     1       0.127   5.473  -5.842  1.00  0.00     0.029 A 
ATOM     22  C   UNL     1       0.627   5.273  -7.190  1.00  0.00     0.049 A 
ATOM     23  H   UNL     1       2.328   4.155  -7.721  1.00  0.00     0.167 HD
ATOM     24  C   UNL     1       4.411   0.557  -9.205  1.00  0.00     0.034 A 
ATOM     25  C   UNL     1       0.144   5.748  -8.360  1.00  0.00     0.034 A 
ATOM     26  C   UNL     1       5.328   1.652  -9.354  1.00  0.00     0.049 A 
ATOM     27  C   UNL     1       1.153   5.484  -9.410  1.00  0.00     0.074 A 
ATOM     28  C   UNL     1       6.449   2.090  -8.681  1.00  0.00     0.029 A 
ATOM     29  N   UNL     1       4.946   2.687 -10.170  1.00  0.00    -0.354 N 
ATOM     30  N   UNL     1       2.317   6.069  -9.469  1.00  0.00    -0.248 NA
ATOM     31  C   UNL     1       1.018   4.280 -10.215  1.00  0.00     0.031 C 
ATOM     32  C   UNL     1       6.415   3.510  -8.788  1.00  0.00     0.029 A 
ATOM     33  C   UNL     1       5.286   3.851  -9.536  1.00  0.00     0.049 A 
ATOM     34  H   UNL     1       4.508   2.607 -11.048  1.00  0.00     0.167 HD
ATOM     35  C   UNL     1       3.175   5.092  -9.956  1.00  0.00     0.074 A 
ATOM     36  C   UNL     1       2.300   4.073 -10.527  1.00  0.00     0.031 C 
ATOM     37  C   UNL     1       4.490   5.059  -9.587  1.00  0.00     0.034 A 
BRANCH  24  38
ATOM     38  C   UNL     1       3.952  -0.261 -10.391  1.00  0.00     0.023 A 
ATOM     39  C   UNL     1       4.794  -0.298 -11.525  1.00  0.00     0.012 A 
ATOM     40  C   UNL     1       2.638  -0.760 -10.556  1.00  0.00     0.148 A 
ATOM     41  C   UNL     1       4.336  -0.756 -12.766  1.00  0.00     0.002 A 
ATOM     42  C   UNL     1       2.218  -1.297 -11.767  1.00  0.00     0.091 A 
ATOM     43  F   UNL     1       1.728  -0.596  -9.591  1.00  0.00    -0.205 F 
ATOM     44  C   UNL     1       3.049  -1.267 -12.886  1.00  0.00     0.022 A 
BRANCH  42  45
ATOM     45  S   UNL     1       0.587  -2.033 -11.932  1.00  0.00     0.127 S 
ATOM     46  O   UNL     1      -0.168  -0.942 -12.540  1.00  0.00    -0.237 OA
ATOM     47  O   UNL     1       0.853  -3.170 -12.813  1.00  0.00    -0.237 OA
ATOM     48  O   UNL     1       0.205  -2.412 -10.577  1.00  0.00    -0.744 OA
ENDBRANCH  42  45
ENDBRANCH  24  38
BRANCH  25  49
ATOM     49  C   UNL     1      -1.227   6.204  -8.674  1.00  0.00     0.023 A 
ATOM     50  C   UNL     1      -1.432   7.086  -9.751  1.00  0.00     0.012 A 
ATOM     51  C   UNL     1      -2.360   5.610  -8.070  1.00  0.00     0.148 A 
ATOM     52  C   UNL     1      -2.721   7.357 -10.222  1.00  0.00     0.002 A 
ATOM     53  C   UNL     1      -3.641   5.901  -8.528  1.00  0.00     0.091 A 
ATOM     54  F   UNL     1      -2.179   4.692  -7.111  1.00  0.00    -0.205 F 
ATOM     55  C   UNL     1      -3.825   6.766  -9.612  1.00  0.00     0.022 A 
BRANCH  53  56
ATOM     56  S   UNL     1      -5.106   5.178  -7.777  1.00  0.00     0.127 S 
ATOM     57  O   UNL     1      -6.017   6.323  -7.717  1.00  0.00    -0.237 OA
ATOM     58  O   UNL     1      -5.473   4.154  -8.750  1.00  0.00    -0.237 OA
ATOM     59  O   UNL     1      -4.677   4.694  -6.470  1.00  0.00    -0.744 OA
ENDBRANCH  53  56
ENDBRANCH  25  49
BRANCH  37  60
ATOM     60  C   UNL     1       5.069   6.259  -8.877  1.00  0.00     0.023 A 
ATOM     61  C   UNL     1       4.571   6.697  -7.633  1.00  0.00     0.012 A 
ATOM     62  C   UNL     1       6.257   6.830  -9.368  1.00  0.00     0.148 A 
ATOM     63  C   UNL     1       5.223   7.697  -6.908  1.00  0.00     0.002 A 
ATOM     64  C   UNL     1       6.932   7.788  -8.619  1.00  0.00     0.091 A 
ATOM     65  F   UNL     1       6.730   6.403 -10.549  1.00  0.00    -0.205 F 
ATOM     66  C   UNL     1       6.412   8.232  -7.394  1.00  0.00     0.022 A 
BRANCH  64  67
ATOM     67  S   UNL     1       8.544   8.396  -9.124  1.00  0.00     0.127 S 
ATOM     68  O   UNL     1       8.206   9.656  -9.782  1.00  0.00    -0.237 OA
ATOM     69  O   UNL     1       9.247   8.544  -7.847  1.00  0.00    -0.237 OA
ATOM     70  O   UNL     1       9.101   7.359  -9.985  1.00  0.00    -0.744 OA
ENDBRANCH  64  67
ENDBRANCH  37  60
ENDBRANCH  11  12
ENDBRANCH   4   6
ENDBRANCH   3   4
ENDBRANCH   2   3
ENDBRANCH   1   2
BRANCH   1  71
ATOM     71  O   UNL     1       4.120  -1.475  -0.309  1.00  0.00    -0.374 OA
BRANCH  71  72
ATOM     72  C   UNL     1       3.013  -2.221   0.201  1.00  0.00     0.202 C 
BRANCH  72  73
ATOM     73  C   UNL     1       3.197  -2.991   1.508  1.00  0.00     0.261 C 
BRANCH  73  74
ATOM     74  O   UNL     1       3.539  -2.137   2.618  1.00  0.00    -0.461 OA
BRANCH  74  75
ATOM     75  C   UNL     1       4.787  -2.327   3.126  1.00  0.00     0.332 C 
ATOM     76  O   UNL     1       5.589  -3.143   2.679  1.00  0.00    -0.249 OA
BRANCH  75  77
ATOM     77  C   UNL     1       5.090  -1.450   4.362  1.00  0.00     0.146 C 
ATOM     78  C   UNL     1       4.690   0.048   4.255  1.00  0.00     0.062 C 
ATOM     79  C   UNL     1       6.623  -1.514   4.584  1.00  0.00     0.062 C 
ATOM     80  C   UNL     1       5.654   0.991   3.531  1.00  0.00     0.122 C 
ATOM     81  C   UNL     1       7.361  -0.753   3.498  1.00  0.00     0.122 C 
ATOM     82  N   UNL     1       7.062   0.656   3.585  1.00  0.00    -0.342 N 
ATOM     83  C   UNL     1       7.913   1.590   2.973  1.00  0.00     0.233 C 
ATOM     84  O   UNL     1       7.486   2.395   2.145  1.00  0.00    -0.274 OA
BRANCH  77  85
ATOM     85  N   UNL     1       4.348  -2.061   5.484  1.00  0.00    -0.320 N 
ATOM     86  C   UNL     1       3.002  -1.930   5.726  1.00  0.00     0.108 A 
ATOM     87  C   UNL     1       4.840  -2.902   6.446  1.00  0.00     0.200 A 
ATOM     88  C   UNL     1       2.757  -2.683   6.847  1.00  0.00     0.130 A 
ATOM     89  N   UNL     1       3.906  -3.276   7.290  1.00  0.00    -0.245 NA
ENDBRANCH  77  85
BRANCH  83  90
ATOM     90  C   UNL     1       9.338   1.757   3.463  1.00  0.00     0.074 C 
ATOM     91  C   UNL     1      10.397   0.668   3.612  1.00  0.00     0.023 C 
ATOM     92  C   UNL     1      10.401   1.506   2.382  1.00  0.00     0.023 C 
BRANCH  90  93
ATOM     93  C   UNL     1       9.519   2.995   4.355  1.00  0.00    -0.032 A 
ATOM     94  C   UNL     1       9.504   2.895   5.757  1.00  0.00     0.005 A 
ATOM     95  C   UNL     1       9.646   4.282   3.800  1.00  0.00     0.005 A 
ATOM     96  C   UNL     1       9.612   4.028   6.568  1.00  0.00     0.000 A 
ATOM     97  C   UNL     1       9.752   5.418   4.606  1.00  0.00     0.000 A 
ATOM     98  C   UNL     1       9.733   5.290   5.991  1.00  0.00     0.000 A 
ENDBRANCH  90  93
ENDBRANCH  83  90
ENDBRANCH  75  77
ENDBRANCH  74  75
ENDBRANCH  73  74
ENDBRANCH  72  73
ENDBRANCH  71  72
ENDBRANCH   1  71
TORSDOF 20
