REMARK SMILES COc1ccc(S(=O)(=O)N2CCC[C@H](C(=O)N3CCC[C@H](C(=O)OCCOCCOC(=O)c4ccc(-c5c6nc(c(-c7cccc(S(=O)(=O)[O-])c7F)c7ccc([nH]7)c(-c7cccc(S(=O)(=O)[O-])c7F)c7nc(c(-c8cccc(S(=O)(=O)[O-])c8F)c8ccc5[nH]8)C=C7)C=C6)cc4)C3)C2)cc1
REMARK SMILES IDX 26 1 25 2 24 3 22 4 23 5 21 6 17 7 18 8 96 9 19 10 20 11
REMARK SMILES IDX 15 12 16 13 14 14 10 15 11 16 97 17 12 18 13 19 7 20 8 21
REMARK SMILES IDX 9 22 6 23 3 24 4 25 99 26 5 27 98 28 2 29 1 30 27 31 28 32
REMARK SMILES IDX 29 33 30 34 31 35 32 36 33 37 34 38 95 39 35 40 94 41 36 42
REMARK SMILES IDX 37 43 38 44 88 45 39 46 93 47 87 48 89 49 40 50 92 51 86 52
REMARK SMILES IDX 85 53 41 55 73 56 53 57 72 58 54 59 57 60 71 61 90 62 55 63
REMARK SMILES IDX 56 64 70 66 91 67 58 68 42 69 43 70 51 71 44 72 46 73 52 74
REMARK SMILES IDX 45 75 47 76 48 77 49 78 50 79 74 80 75 81 83 82 76 83 78 84
REMARK SMILES IDX 84 85 77 86 79 87 80 88 81 89 82 90 59 91 60 92 68 93 61 94
REMARK SMILES IDX 63 95 69 96 62 97 64 98 65 99 66 100 67 101
REMARK H PARENT 89 54 57 65
REMARK Flexibility Score: inf
ROOT
ATOM      1  C   UNL     1      10.453  11.081   0.476  1.00  0.00     0.202 C 
ENDROOT
BRANCH   1   2
ATOM      2  C   UNL     1       9.580   9.826   0.438  1.00  0.00     0.261 C 
BRANCH   2   3
ATOM      3  O   UNL     1       8.193  10.173   0.573  1.00  0.00    -0.463 OA
BRANCH   3   4
ATOM      4  C   UNL     1       7.499   9.570   1.565  1.00  0.00     0.310 C 
ATOM      5  O   UNL     1       7.954   8.736   2.342  1.00  0.00    -0.252 OA
BRANCH   4   6
ATOM      6  C   UNL     1       6.045  10.005   1.617  1.00  0.00     0.119 C 
ATOM      7  N   UNL     1       5.269   8.916  -0.441  1.00  0.00    -0.342 N 
ATOM      8  C   UNL     1       4.820  10.163  -1.048  1.00  0.00     0.119 C 
ATOM      9  C   UNL     1       5.201   8.889   1.010  1.00  0.00     0.134 C 
ATOM     10  C   UNL     1       5.613  11.355  -0.528  1.00  0.00     0.022 C 
ATOM     11  C   UNL     1       5.694  11.367   1.001  1.00  0.00     0.019 C 
BRANCH   7  12
ATOM     12  C   UNL     1       6.092   8.086  -1.179  1.00  0.00     0.227 C 
ATOM     13  O   UNL     1       6.904   8.550  -1.983  1.00  0.00    -0.275 OA
BRANCH  12  14
ATOM     14  C   UNL     1       5.909   6.568  -1.080  1.00  0.00     0.094 C 
ATOM     15  N   UNL     1       3.516   6.292  -0.451  1.00  0.00    -0.197 NA
ATOM     16  C   UNL     1       3.847   5.886   0.921  1.00  0.00     0.102 C 
ATOM     17  C   UNL     1       4.515   6.155  -1.528  1.00  0.00     0.116 C 
ATOM     18  C   UNL     1       5.261   5.354   1.114  1.00  0.00     0.018 C 
ATOM     19  C   UNL     1       6.366   5.884   0.200  1.00  0.00     0.016 C 
BRANCH  15  20
ATOM     20  S   UNL     1       1.873   6.295  -0.880  1.00  0.00     0.243 S 
ATOM     21  O   UNL     1       1.728   6.901  -2.184  1.00  0.00    -0.207 OA
ATOM     22  O   UNL     1       1.144   6.794   0.269  1.00  0.00    -0.207 OA
BRANCH  20  23
ATOM     23  C   UNL     1       1.409   4.582  -1.044  1.00  0.00     0.082 A 
ATOM     24  C   UNL     1       0.528   1.932  -1.020  1.00  0.00     0.118 A 
ATOM     25  C   UNL     1      -0.382   2.970  -1.229  1.00  0.00     0.048 A 
ATOM     26  C   UNL     1       1.887   2.216  -0.898  1.00  0.00     0.048 A 
ATOM     27  C   UNL     1       0.053   4.298  -1.230  1.00  0.00     0.025 A 
ATOM     28  C   UNL     1       2.328   3.539  -0.906  1.00  0.00     0.025 A 
BRANCH  24  29
ATOM     29  O   UNL     1       0.001   0.670  -0.965  1.00  0.00    -0.497 OA
ATOM     30  C   UNL     1       0.676  -0.205  -0.065  1.00  0.00     0.278 C 
ENDBRANCH  24  29
ENDBRANCH  20  23
ENDBRANCH  15  20
ENDBRANCH  12  14
ENDBRANCH   7  12
ENDBRANCH   4   6
ENDBRANCH   3   4
ENDBRANCH   2   3
ENDBRANCH   1   2
BRANCH   1  31
ATOM     31  O   UNL     1      10.505  11.767   1.730  1.00  0.00    -0.374 OA
BRANCH  31  32
ATOM     32  C   UNL     1       9.339  12.478   2.143  1.00  0.00     0.202 C 
BRANCH  32  33
ATOM     33  C   UNL     1       9.042  13.799   1.421  1.00  0.00     0.261 C 
BRANCH  33  34
ATOM     34  O   UNL     1       8.740  13.623   0.025  1.00  0.00    -0.460 OA
BRANCH  34  35
ATOM     35  C   UNL     1       9.644  14.184  -0.818  1.00  0.00     0.338 C 
ATOM     36  O   UNL     1      10.621  14.848  -0.506  1.00  0.00    -0.246 OA
BRANCH  35  37
ATOM     37  C   UNL     1       9.399  13.769  -2.212  1.00  0.00     0.060 A 
ATOM     38  C   UNL     1      10.479  13.218  -2.913  1.00  0.00     0.016 A 
ATOM     39  C   UNL     1       8.190  14.027  -2.861  1.00  0.00     0.016 A 
ATOM     40  C   UNL     1      10.376  12.982  -4.282  1.00  0.00     0.010 A 
ATOM     41  C   UNL     1       8.091  13.795  -4.239  1.00  0.00     0.010 A 
ATOM     42  C   UNL     1       9.197  13.314  -4.963  1.00  0.00    -0.014 A 
BRANCH  42  43
ATOM     43  C   UNL     1       9.190  13.298  -6.447  1.00  0.00     0.031 A 
ATOM     44  C   UNL     1       9.417  14.586  -7.194  1.00  0.00     0.074 A 
ATOM     45  C   UNL     1       9.021  12.148  -7.123  1.00  0.00     0.049 A 
ATOM     46  N   UNL     1       9.484  14.795  -8.483  1.00  0.00    -0.248 NA
ATOM     47  C   UNL     1       9.598  15.800  -6.379  1.00  0.00     0.031 C 
ATOM     48  C   UNL     1       8.802  10.837  -6.515  1.00  0.00     0.029 A 
ATOM     49  N   UNL     1       8.995  11.904  -8.473  1.00  0.00    -0.354 N 
ATOM     50  C   UNL     1       9.695  16.160  -8.636  1.00  0.00     0.074 A 
ATOM     51  C   UNL     1       9.732  16.735  -7.309  1.00  0.00     0.031 C 
ATOM     52  C   UNL     1       8.648   9.925  -7.492  1.00  0.00     0.029 A 
ATOM     53  C   UNL     1       8.743  10.590  -8.791  1.00  0.00     0.049 A 
ATOM     54  H   UNL     1       9.145  12.603  -9.150  1.00  0.00     0.167 HD
ATOM     55  C   UNL     1       9.868  16.870  -9.776  1.00  0.00     0.034 A 
ATOM     56  C   UNL     1       8.597   9.996  -9.992  1.00  0.00     0.034 A 
ATOM     57  C   UNL     1       9.856  16.298 -11.095  1.00  0.00     0.049 A 
ATOM     58  C   UNL     1       8.767  10.815 -11.246  1.00  0.00     0.074 A 
ATOM     59  C   UNL     1      10.057  16.932 -12.309  1.00  0.00     0.029 A 
ATOM     60  N   UNL     1       9.626  14.961 -11.375  1.00  0.00    -0.354 N 
ATOM     61  N   UNL     1       9.087  12.081 -11.371  1.00  0.00    -0.248 NA
ATOM     62  C   UNL     1       8.587  10.115 -12.528  1.00  0.00     0.031 C 
ATOM     63  C   UNL     1       9.935  15.977 -13.325  1.00  0.00     0.029 A 
ATOM     64  C   UNL     1       9.671  14.748 -12.742  1.00  0.00     0.049 A 
ATOM     65  H   UNL     1       9.456  14.264 -10.701  1.00  0.00     0.167 HD
ATOM     66  C   UNL     1       9.180  12.320 -12.738  1.00  0.00     0.074 A 
ATOM     67  C   UNL     1       8.901  11.063 -13.402  1.00  0.00     0.031 C 
ATOM     68  C   UNL     1       9.454  13.479 -13.387  1.00  0.00     0.034 A 
BRANCH  55  69
ATOM     69  C   UNL     1      10.132  18.346  -9.645  1.00  0.00     0.023 A 
ATOM     70  C   UNL     1      11.406  18.784  -9.231  1.00  0.00     0.012 A 
ATOM     71  C   UNL     1       9.148  19.296  -9.982  1.00  0.00     0.148 A 
ATOM     72  C   UNL     1      11.691  20.145  -9.132  1.00  0.00     0.002 A 
ATOM     73  C   UNL     1       9.450  20.651  -9.914  1.00  0.00     0.091 A 
ATOM     74  F   UNL     1       7.935  18.859 -10.348  1.00  0.00    -0.205 F 
ATOM     75  C   UNL     1      10.718  21.077  -9.482  1.00  0.00     0.022 A 
BRANCH  73  76
ATOM     76  S   UNL     1       8.284  21.926 -10.407  1.00  0.00     0.127 S 
ATOM     77  O   UNL     1       7.864  22.458  -9.112  1.00  0.00    -0.237 OA
ATOM     78  O   UNL     1       9.124  22.830 -11.193  1.00  0.00    -0.237 OA
ATOM     79  O   UNL     1       7.249  21.244 -11.172  1.00  0.00    -0.744 OA
ENDBRANCH  73  76
ENDBRANCH  55  69
BRANCH  56  80
ATOM     80  C   UNL     1       8.330   8.531 -10.069  1.00  0.00     0.023 A 
ATOM     81  C   UNL     1       9.334   7.672 -10.556  1.00  0.00     0.012 A 
ATOM     82  C   UNL     1       7.102   7.985  -9.648  1.00  0.00     0.148 A 
ATOM     83  C   UNL     1       9.112   6.297 -10.644  1.00  0.00     0.002 A 
ATOM     84  C   UNL     1       6.907   6.609  -9.690  1.00  0.00     0.091 A 
ATOM     85  F   UNL     1       6.151   8.821  -9.211  1.00  0.00    -0.205 F 
ATOM     86  C   UNL     1       7.905   5.765 -10.201  1.00  0.00     0.022 A 
BRANCH  84  87
ATOM     87  S   UNL     1       5.431   5.824  -9.031  1.00  0.00     0.127 S 
ATOM     88  O   UNL     1       4.744   5.408 -10.251  1.00  0.00    -0.237 OA
ATOM     89  O   UNL     1       5.995   4.730  -8.239  1.00  0.00    -0.237 OA
ATOM     90  O   UNL     1       4.761   6.850  -8.244  1.00  0.00    -0.744 OA
ENDBRANCH  84  87
ENDBRANCH  56  80
BRANCH  68  91
ATOM     91  C   UNL     1       9.494  13.450 -14.892  1.00  0.00     0.023 A 
ATOM     92  C   UNL     1       8.288  13.377 -15.617  1.00  0.00     0.012 A 
ATOM     93  C   UNL     1      10.712  13.583 -15.587  1.00  0.00     0.148 A 
ATOM     94  C   UNL     1       8.296  13.412 -17.012  1.00  0.00     0.002 A 
ATOM     95  C   UNL     1      10.709  13.659 -16.976  1.00  0.00     0.091 A 
ATOM     96  F   UNL     1      11.851  13.631 -14.881  1.00  0.00    -0.205 F 
ATOM     97  C   UNL     1       9.503  13.566 -17.689  1.00  0.00     0.022 A 
BRANCH  95  98
ATOM     98  S   UNL     1      12.209  13.948 -17.923  1.00  0.00     0.127 S 
ATOM     99  O   UNL     1      12.492  12.613 -18.447  1.00  0.00    -0.237 OA
ATOM    100  O   UNL     1      11.766  14.915 -18.928  1.00  0.00    -0.237 OA
ATOM    101  O   UNL     1      13.183  14.472 -16.975  1.00  0.00    -0.744 OA
ENDBRANCH  95  98
ENDBRANCH  68  91
ENDBRANCH  42  43
ENDBRANCH  35  37
ENDBRANCH  34  35
ENDBRANCH  33  34
ENDBRANCH  32  33
ENDBRANCH  31  32
ENDBRANCH   1  31
TORSDOF 22
