REMARK SMILES COc1ccccc1-n1nnc(C(=O)OCCOCCOC(=O)c2ccc(-c3c4nc(c(-c5cccc(S(=O)(=O)[O-])c5F)c5ccc([nH]5)c(-c5cccc(S(=O)(=O)[O-])c5F)c5nc(c(-c6cccc(S(=O)(=O)[O-])c6F)c6ccc3[nH]6)C=C5)C=C4)cc2)c1-c1ccc(Cl)cc1
REMARK SMILES IDX 19 1 18 2 17 3 16 4 15 5 13 6 14 7 12 8 9 9 10 10 87 11
REMARK SMILES IDX 11 12 8 13 3 14 4 15 5 16 7 17 6 18 2 19 1 20 88 21 89 22
REMARK SMILES IDX 94 23 90 24 93 25 91 26 92 27 20 28 21 29 22 30 23 31 24 32
REMARK SMILES IDX 25 33 86 34 26 35 85 36 27 37 28 38 29 39 79 40 30 41 84 42
REMARK SMILES IDX 78 43 80 44 31 45 83 46 77 47 76 48 32 50 64 51 44 52 63 53
REMARK SMILES IDX 45 54 48 55 62 56 81 57 46 58 47 59 61 61 82 62 49 63 33 64
REMARK SMILES IDX 34 65 42 66 35 67 37 68 43 69 36 70 38 71 39 72 40 73 41 74
REMARK SMILES IDX 65 75 66 76 74 77 67 78 69 79 75 80 68 81 70 82 71 83 72 84
REMARK SMILES IDX 73 85 50 86 51 87 59 88 52 89 54 90 60 91 53 92 55 93 56 94
REMARK SMILES IDX 57 95 58 96
REMARK H PARENT 80 49 48 60
REMARK Flexibility Score: inf
ROOT
ATOM      1  C   UNL     1       7.869  -0.339   2.066  1.00  0.00     0.202 C 
ENDROOT
BRANCH   1   2
ATOM      2  O   UNL     1       7.915  -0.009   3.451  1.00  0.00    -0.374 OA
BRANCH   2   3
ATOM      3  C   UNL     1       6.920  -0.525   4.337  1.00  0.00     0.202 C 
BRANCH   3   4
ATOM      4  C   UNL     1       5.500   0.003   4.162  1.00  0.00     0.261 C 
BRANCH   4   5
ATOM      5  O   UNL     1       4.920  -0.497   2.951  1.00  0.00    -0.458 OA
BRANCH   5   6
ATOM      6  C   UNL     1       4.643   0.405   1.971  1.00  0.00     0.361 C 
ATOM      7  O   UNL     1       4.795   1.621   2.084  1.00  0.00    -0.244 OA
BRANCH   6   8
ATOM      8  C   UNL     1       4.215  -0.231   0.739  1.00  0.00     0.198 A 
ATOM      9  N   UNL     1       3.258  -1.420  -0.800  1.00  0.00    -0.208 N 
ATOM     10  N   UNL     1       4.061  -0.525  -1.423  1.00  0.00    -0.061 NA
ATOM     11  C   UNL     1       3.485  -1.402   0.569  1.00  0.00     0.109 A 
ATOM     12  N   UNL     1       4.553   0.279  -0.492  1.00  0.00    -0.122 NA
BRANCH   9  13
ATOM     13  C   UNL     1       2.217  -2.046  -1.505  1.00  0.00     0.109 A 
ATOM     14  C   UNL     1       0.901  -1.999  -1.024  1.00  0.00     0.144 A 
ATOM     15  C   UNL     1      -0.081  -2.764  -1.649  1.00  0.00     0.049 A 
ATOM     16  C   UNL     1       0.238  -3.530  -2.772  1.00  0.00     0.004 A 
ATOM     17  C   UNL     1       2.529  -2.759  -2.670  1.00  0.00     0.032 A 
ATOM     18  C   UNL     1       1.535  -3.518  -3.288  1.00  0.00     0.003 A 
BRANCH  14  19
ATOM     19  O   UNL     1       0.501  -1.258   0.059  1.00  0.00    -0.494 OA
ATOM     20  C   UNL     1       0.545   0.150  -0.190  1.00  0.00     0.278 C 
ENDBRANCH  14  19
ENDBRANCH   9  13
BRANCH  11  21
ATOM     21  C   UNL     1       3.018  -2.415   1.519  1.00  0.00     0.003 A 
ATOM     22  C   UNL     1       2.464  -2.041   2.750  1.00  0.00     0.012 A 
ATOM     23  C   UNL     1       3.217  -3.780   1.259  1.00  0.00     0.012 A 
ATOM     24  C   UNL     1       2.226  -2.992   3.744  1.00  0.00     0.021 A 
ATOM     25  C   UNL     1       2.955  -4.737   2.245  1.00  0.00     0.021 A 
ATOM     26  C   UNL     1       2.497  -4.334   3.495  1.00  0.00     0.041 A 
ATOM     27  Cl  UNL     1       2.298  -5.488   4.753  1.00  0.00    -0.084 Cl
ENDBRANCH  11  21
ENDBRANCH   6   8
ENDBRANCH   5   6
ENDBRANCH   4   5
ENDBRANCH   3   4
ENDBRANCH   2   3
ENDBRANCH   1   2
BRANCH   1  28
ATOM     28  C   UNL     1       8.177  -1.770   1.658  1.00  0.00     0.261 C 
BRANCH  28  29
ATOM     29  O   UNL     1       7.296  -2.707   2.257  1.00  0.00    -0.460 OA
BRANCH  29  30
ATOM     30  C   UNL     1       7.864  -3.410   3.266  1.00  0.00     0.338 C 
ATOM     31  O   UNL     1       8.800  -3.063   3.967  1.00  0.00    -0.246 OA
BRANCH  30  32
ATOM     32  C   UNL     1       7.319  -4.768   3.240  1.00  0.00     0.060 A 
ATOM     33  C   UNL     1       7.946  -5.692   4.074  1.00  0.00     0.016 A 
ATOM     34  C   UNL     1       6.476  -5.158   2.189  1.00  0.00     0.016 A 
ATOM     35  C   UNL     1       7.915  -7.012   3.697  1.00  0.00     0.010 A 
ATOM     36  C   UNL     1       6.432  -6.478   1.823  1.00  0.00     0.010 A 
ATOM     37  C   UNL     1       7.233  -7.367   2.524  1.00  0.00    -0.014 A 
BRANCH  37  38
ATOM     38  C   UNL     1       7.277  -8.752   2.124  1.00  0.00     0.031 A 
ATOM     39  C   UNL     1       6.553  -9.604   3.086  1.00  0.00     0.074 A 
ATOM     40  C   UNL     1       7.878  -9.177   0.998  1.00  0.00     0.049 A 
ATOM     41  N   UNL     1       7.082 -10.370   3.979  1.00  0.00    -0.248 NA
ATOM     42  C   UNL     1       5.109  -9.382   3.256  1.00  0.00     0.031 C 
ATOM     43  C   UNL     1       8.391  -8.384  -0.122  1.00  0.00     0.029 A 
ATOM     44  N   UNL     1       8.049 -10.454   0.567  1.00  0.00    -0.354 N 
ATOM     45  C   UNL     1       6.005 -10.940   4.643  1.00  0.00     0.074 A 
ATOM     46  C   UNL     1       4.864 -10.121   4.339  1.00  0.00     0.031 C 
ATOM     47  C   UNL     1       8.566  -9.194  -1.193  1.00  0.00     0.029 A 
ATOM     48  C   UNL     1       8.312 -10.568  -0.793  1.00  0.00     0.049 A 
ATOM     49  H   UNL     1       7.992 -11.232   1.167  1.00  0.00     0.167 HD
ATOM     50  C   UNL     1       6.095 -12.210   5.118  1.00  0.00     0.034 A 
ATOM     51  C   UNL     1       8.233 -11.707  -1.528  1.00  0.00     0.034 A 
ATOM     52  C   UNL     1       7.474 -12.631   5.210  1.00  0.00     0.049 A 
ATOM     53  C   UNL     1       8.328 -12.845  -0.581  1.00  0.00     0.074 A 
ATOM     54  C   UNL     1       8.593 -12.163   5.870  1.00  0.00     0.029 A 
ATOM     55  N   UNL     1       7.937 -13.447   4.205  1.00  0.00    -0.354 N 
ATOM     56  N   UNL     1       9.407 -13.118   0.097  1.00  0.00    -0.248 NA
ATOM     57  C   UNL     1       7.091 -13.381  -0.035  1.00  0.00     0.031 C 
ATOM     58  C   UNL     1       9.668 -12.347   4.951  1.00  0.00     0.029 A 
ATOM     59  C   UNL     1       9.166 -12.988   3.816  1.00  0.00     0.049 A 
ATOM     60  H   UNL     1       7.467 -14.226   3.830  1.00  0.00     0.167 HD
ATOM     61  C   UNL     1       8.940 -13.419   1.370  1.00  0.00     0.074 A 
ATOM     62  C   UNL     1       7.508 -13.668   1.202  1.00  0.00     0.031 C 
ATOM     63  C   UNL     1       9.690 -13.139   2.476  1.00  0.00     0.034 A 
BRANCH  50  64
ATOM     64  C   UNL     1       4.964 -13.213   5.069  1.00  0.00     0.023 A 
ATOM     65  C   UNL     1       5.209 -14.471   5.661  1.00  0.00     0.012 A 
ATOM     66  C   UNL     1       3.822 -13.107   4.240  1.00  0.00     0.148 A 
ATOM     67  C   UNL     1       4.408 -15.581   5.379  1.00  0.00     0.002 A 
ATOM     68  C   UNL     1       2.987 -14.194   4.020  1.00  0.00     0.091 A 
ATOM     69  F   UNL     1       3.589 -11.994   3.543  1.00  0.00    -0.205 F 
ATOM     70  C   UNL     1       3.296 -15.443   4.558  1.00  0.00     0.022 A 
BRANCH  68  71
ATOM     71  S   UNL     1       1.518 -14.061   2.992  1.00  0.00     0.127 S 
ATOM     72  O   UNL     1       1.909 -14.844   1.823  1.00  0.00    -0.237 OA
ATOM     73  O   UNL     1       0.504 -14.681   3.845  1.00  0.00    -0.237 OA
ATOM     74  O   UNL     1       1.317 -12.636   2.765  1.00  0.00    -0.744 OA
ENDBRANCH  68  71
ENDBRANCH  50  64
BRANCH  51  75
ATOM     75  C   UNL     1       7.773 -11.900  -2.926  1.00  0.00     0.023 A 
ATOM     76  C   UNL     1       8.060 -13.107  -3.598  1.00  0.00     0.012 A 
ATOM     77  C   UNL     1       6.804 -11.041  -3.492  1.00  0.00     0.148 A 
ATOM     78  C   UNL     1       7.381 -13.462  -4.771  1.00  0.00     0.002 A 
ATOM     79  C   UNL     1       6.134 -11.396  -4.659  1.00  0.00     0.091 A 
ATOM     80  F   UNL     1       6.471  -9.923  -2.835  1.00  0.00    -0.205 F 
ATOM     81  C   UNL     1       6.411 -12.612  -5.296  1.00  0.00     0.022 A 
BRANCH  79  82
ATOM     82  S   UNL     1       4.843 -10.366  -5.372  1.00  0.00     0.127 S 
ATOM     83  O   UNL     1       5.268 -10.272  -6.769  1.00  0.00    -0.237 OA
ATOM     84  O   UNL     1       3.650 -11.176  -5.146  1.00  0.00    -0.237 OA
ATOM     85  O   UNL     1       4.892  -9.102  -4.645  1.00  0.00    -0.744 OA
ENDBRANCH  79  82
ENDBRANCH  51  75
BRANCH  63  86
ATOM     86  C   UNL     1      11.130 -12.738   2.274  1.00  0.00     0.023 A 
ATOM     87  C   UNL     1      11.511 -11.558   1.599  1.00  0.00     0.012 A 
ATOM     88  C   UNL     1      12.115 -13.491   2.932  1.00  0.00     0.148 A 
ATOM     89  C   UNL     1      12.850 -11.153   1.567  1.00  0.00     0.002 A 
ATOM     90  C   UNL     1      13.434 -13.061   2.939  1.00  0.00     0.091 A 
ATOM     91  F   UNL     1      11.733 -14.608   3.570  1.00  0.00    -0.205 F 
ATOM     92  C   UNL     1      13.810 -11.898   2.249  1.00  0.00     0.022 A 
BRANCH  90  93
ATOM     93  S   UNL     1      14.686 -13.910   3.903  1.00  0.00     0.127 S 
ATOM     94  O   UNL     1      15.459 -14.591   2.866  1.00  0.00    -0.237 OA
ATOM     95  O   UNL     1      15.382 -12.802   4.559  1.00  0.00    -0.237 OA
ATOM     96  O   UNL     1      13.963 -14.783   4.820  1.00  0.00    -0.744 OA
ENDBRANCH  90  93
ENDBRANCH  63  86
ENDBRANCH  37  38
ENDBRANCH  30  32
ENDBRANCH  29  30
ENDBRANCH  28  29
ENDBRANCH   1  28
TORSDOF 20
