REMARK SMILES CCOC[C@@H](O)C[C@@]1(C(=O)OCCOCCOC(=O)c2ccc(-c3c4nc(c(-c5cccc(S(=O)(=O)[O-])c5F)c5ccc([nH]5)c(-c5cccc(S(=O)(=O)[O-])c5F)c5nc(c(-c6cccc(S(=O)(=O)[O-])c6F)c6ccc3[nH]6)C=C5)C=C4)cc2)CC[C@H](C)C1
REMARK SMILES IDX 13 1 12 2 11 3 9 4 10 5 8 6 83 7 87 8 84 9 85 10 86 11 7 12
REMARK SMILES IDX 5 13 4 14 3 15 2 16 1 17 6 18 14 20 15 21 16 22 17 23 18 24
REMARK SMILES IDX 19 25 20 26 21 27 82 28 22 29 81 30 23 31 24 32 25 33 75 34
REMARK SMILES IDX 26 35 80 36 74 37 76 38 27 39 79 40 73 41 72 42 28 44 60 45
REMARK SMILES IDX 40 46 59 47 41 48 44 49 58 50 77 51 42 52 43 53 57 55 78 56
REMARK SMILES IDX 45 57 29 58 30 59 38 60 31 61 33 62 39 63 32 64 34 65 35 66
REMARK SMILES IDX 36 67 37 68 61 69 62 70 70 71 63 72 65 73 71 74 64 75 66 76
REMARK SMILES IDX 67 77 68 78 69 79 46 80 47 81 55 82 48 83 50 84 56 85 49 86
REMARK SMILES IDX 51 87 52 88 53 89 54 90
REMARK H PARENT 6 19 76 43 44 54
REMARK Flexibility Score: inf
ROOT
ATOM      1  C   UNL     1       2.976  -4.274   2.401  1.00  0.00     0.202 C 
ENDROOT
BRANCH   1   2
ATOM      2  C   UNL     1       3.257  -2.788   2.658  1.00  0.00     0.261 C 
BRANCH   2   3
ATOM      3  O   UNL     1       3.561  -2.110   1.420  1.00  0.00    -0.463 OA
BRANCH   3   4
ATOM      4  C   UNL     1       4.850  -1.794   1.175  1.00  0.00     0.312 C 
ATOM      5  O   UNL     1       5.736  -1.929   2.011  1.00  0.00    -0.252 OA
BRANCH   4   6
ATOM      6  C   UNL     1       5.082  -1.277  -0.269  1.00  0.00     0.071 C 
ATOM      7  C   UNL     1       6.627  -1.346  -0.470  1.00  0.00     0.019 C 
ATOM      8  C   UNL     1       4.843   0.235  -0.337  1.00  0.00     0.022 C 
ATOM      9  C   UNL     1       6.970  -0.268  -1.480  1.00  0.00     0.004 C 
ATOM     10  C   UNL     1       5.869   0.787  -1.343  1.00  0.00    -0.013 C 
ATOM     11  C   UNL     1       6.425   2.133  -0.897  1.00  0.00     0.007 C 
BRANCH   6  12
ATOM     12  C   UNL     1       4.424  -2.082  -1.452  1.00  0.00     0.053 C 
BRANCH  12  13
ATOM     13  C   UNL     1       2.939  -1.933  -1.863  1.00  0.00     0.141 C 
BRANCH  13  14
ATOM     14  C   UNL     1       1.910  -2.053  -0.743  1.00  0.00     0.191 C 
BRANCH  14  15
ATOM     15  O   UNL     1       0.560  -2.016  -1.195  1.00  0.00    -0.379 OA
BRANCH  15  16
ATOM     16  C   UNL     1      -0.134  -0.765  -1.140  1.00  0.00     0.157 C 
ATOM     17  C   UNL     1       0.233   0.188  -0.011  1.00  0.00     0.035 C 
ENDBRANCH  15  16
ENDBRANCH  14  15
ENDBRANCH  13  14
BRANCH  13  18
ATOM     18  O   UNL     1       2.778  -0.701  -2.566  1.00  0.00    -0.391 OA
ATOM     19  H   UNL     1       2.978   0.039  -1.972  1.00  0.00     0.211 HD
ENDBRANCH  13  18
ENDBRANCH  12  13
ENDBRANCH   6  12
ENDBRANCH   4   6
ENDBRANCH   3   4
ENDBRANCH   2   3
ENDBRANCH   1   2
BRANCH   1  20
ATOM     20  O   UNL     1       4.130  -5.083   2.142  1.00  0.00    -0.374 OA
BRANCH  20  21
ATOM     21  C   UNL     1       4.654  -5.015   0.819  1.00  0.00     0.202 C 
BRANCH  21  22
ATOM     22  C   UNL     1       4.090  -6.022  -0.188  1.00  0.00     0.261 C 
BRANCH  22  23
ATOM     23  O   UNL     1       2.716  -5.730  -0.501  1.00  0.00    -0.460 OA
BRANCH  23  24
ATOM     24  C   UNL     1       1.821  -6.477   0.185  1.00  0.00     0.338 C 
ATOM     25  O   UNL     1       2.075  -7.401   0.947  1.00  0.00    -0.246 OA
BRANCH  24  26
ATOM     26  C   UNL     1       0.461  -5.926   0.042  1.00  0.00     0.060 A 
ATOM     27  C   UNL     1      -0.303  -5.814   1.210  1.00  0.00     0.016 A 
ATOM     28  C   UNL     1      -0.091  -5.592  -1.198  1.00  0.00     0.016 A 
ATOM     29  C   UNL     1      -1.643  -5.443   1.138  1.00  0.00     0.010 A 
ATOM     30  C   UNL     1      -1.438  -5.216  -1.267  1.00  0.00     0.010 A 
ATOM     31  C   UNL     1      -2.232  -5.187  -0.106  1.00  0.00    -0.014 A 
BRANCH  31  32
ATOM     32  C   UNL     1      -3.707  -5.034  -0.192  1.00  0.00     0.031 A 
ATOM     33  C   UNL     1      -4.535  -6.175  -0.723  1.00  0.00     0.074 A 
ATOM     34  C   UNL     1      -4.309  -3.908   0.232  1.00  0.00     0.049 A 
ATOM     35  N   UNL     1      -5.832  -6.258  -0.871  1.00  0.00    -0.248 NA
ATOM     36  C   UNL     1      -3.806  -7.384  -1.143  1.00  0.00     0.031 C 
ATOM     37  C   UNL     1      -3.624  -2.738   0.778  1.00  0.00     0.029 A 
ATOM     38  N   UNL     1      -5.638  -3.562   0.253  1.00  0.00    -0.354 N 
ATOM     39  C   UNL     1      -6.072  -7.506  -1.435  1.00  0.00     0.074 A 
ATOM     40  C   UNL     1      -4.785  -8.144  -1.610  1.00  0.00     0.031 C 
ATOM     41  C   UNL     1      -4.537  -1.795   1.068  1.00  0.00     0.029 A 
ATOM     42  C   UNL     1      -5.865  -2.282   0.699  1.00  0.00     0.049 A 
ATOM     43  H   UNL     1      -6.359  -4.172  -0.024  1.00  0.00     0.167 HD
ATOM     44  C   UNL     1      -7.255  -8.076  -1.766  1.00  0.00     0.034 A 
ATOM     45  C   UNL     1      -7.011  -1.576   0.779  1.00  0.00     0.034 A 
ATOM     46  C   UNL     1      -8.536  -7.454  -1.567  1.00  0.00     0.049 A 
ATOM     47  C   UNL     1      -8.311  -2.225   0.377  1.00  0.00     0.074 A 
ATOM     48  C   UNL     1      -9.793  -7.980  -1.813  1.00  0.00     0.029 A 
ATOM     49  N   UNL     1      -8.727  -6.167  -1.093  1.00  0.00    -0.354 N 
ATOM     50  N   UNL     1      -8.531  -3.449  -0.039  1.00  0.00    -0.248 NA
ATOM     51  C   UNL     1      -9.526  -1.404   0.485  1.00  0.00     0.031 C 
ATOM     52  C   UNL     1     -10.742  -6.993  -1.530  1.00  0.00     0.029 A 
ATOM     53  C   UNL     1     -10.080  -5.870  -1.062  1.00  0.00     0.049 A 
ATOM     54  H   UNL     1      -8.008  -5.553  -0.819  1.00  0.00     0.167 HD
ATOM     55  C   UNL     1      -9.909  -3.557  -0.200  1.00  0.00     0.074 A 
ATOM     56  C   UNL     1     -10.474  -2.279   0.180  1.00  0.00     0.031 C 
ATOM     57  C   UNL     1     -10.639  -4.614  -0.632  1.00  0.00     0.034 A 
BRANCH  44  58
ATOM     58  C   UNL     1      -7.226  -9.454  -2.376  1.00  0.00     0.023 A 
ATOM     59  C   UNL     1      -6.908 -10.572  -1.579  1.00  0.00     0.012 A 
ATOM     60  C   UNL     1      -7.584  -9.646  -3.725  1.00  0.00     0.148 A 
ATOM     61  C   UNL     1      -6.917 -11.856  -2.123  1.00  0.00     0.002 A 
ATOM     62  C   UNL     1      -7.637 -10.932  -4.247  1.00  0.00     0.091 A 
ATOM     63  F   UNL     1      -7.864  -8.568  -4.471  1.00  0.00    -0.205 F 
ATOM     64  C   UNL     1      -7.292 -12.037  -3.452  1.00  0.00     0.022 A 
BRANCH  62  65
ATOM     65  S   UNL     1      -8.188 -11.276  -5.922  1.00  0.00     0.127 S 
ATOM     66  O   UNL     1      -6.947 -11.719  -6.555  1.00  0.00    -0.237 OA
ATOM     67  O   UNL     1      -9.175 -12.334  -5.708  1.00  0.00    -0.237 OA
ATOM     68  O   UNL     1      -8.735 -10.026  -6.431  1.00  0.00    -0.744 OA
ENDBRANCH  62  65
ENDBRANCH  44  58
BRANCH  45  69
ATOM     69  C   UNL     1      -6.992  -0.174   1.285  1.00  0.00     0.023 A 
ATOM     70  C   UNL     1      -7.611   0.134   2.512  1.00  0.00     0.012 A 
ATOM     71  C   UNL     1      -6.368   0.855   0.554  1.00  0.00     0.148 A 
ATOM     72  C   UNL     1      -7.642   1.447   2.983  1.00  0.00     0.002 A 
ATOM     73  C   UNL     1      -6.350   2.150   1.058  1.00  0.00     0.091 A 
ATOM     74  F   UNL     1      -5.798   0.545  -0.619  1.00  0.00    -0.205 F 
ATOM     75  C   UNL     1      -7.004   2.453   2.262  1.00  0.00     0.022 A 
BRANCH  73  76
ATOM     76  S   UNL     1      -5.440   3.478   0.263  1.00  0.00     0.127 S 
ATOM     77  O   UNL     1      -6.520   4.333  -0.223  1.00  0.00    -0.237 OA
ATOM     78  O   UNL     1      -4.672   4.027   1.381  1.00  0.00    -0.237 OA
ATOM     79  O   UNL     1      -4.627   2.840  -0.764  1.00  0.00    -0.744 OA
ENDBRANCH  73  76
ENDBRANCH  45  69
BRANCH  57  80
ATOM     80  C   UNL     1     -12.140  -4.467  -0.673  1.00  0.00     0.023 A 
ATOM     81  C   UNL     1     -12.743  -3.639  -1.641  1.00  0.00     0.012 A 
ATOM     82  C   UNL     1     -12.955  -5.211   0.204  1.00  0.00     0.148 A 
ATOM     83  C   UNL     1     -14.132  -3.526  -1.710  1.00  0.00     0.002 A 
ATOM     84  C   UNL     1     -14.338  -5.135   0.093  1.00  0.00     0.091 A 
ATOM     85  F   UNL     1     -12.363  -5.982   1.128  1.00  0.00    -0.205 F 
ATOM     86  C   UNL     1     -14.928  -4.282  -0.853  1.00  0.00     0.022 A 
BRANCH  84  87
ATOM     87  S   UNL     1     -15.443  -6.145   1.086  1.00  0.00     0.127 S 
ATOM     88  O   UNL     1     -16.040  -5.149   1.975  1.00  0.00    -0.237 OA
ATOM     89  O   UNL     1     -16.355  -6.688   0.079  1.00  0.00    -0.237 OA
ATOM     90  O   UNL     1     -14.602  -7.139   1.740  1.00  0.00    -0.744 OA
ENDBRANCH  84  87
ENDBRANCH  57  80
ENDBRANCH  31  32
ENDBRANCH  24  26
ENDBRANCH  23  24
ENDBRANCH  22  23
ENDBRANCH  21  22
ENDBRANCH  20  21
ENDBRANCH   1  20
TORSDOF 23
