REMARK SMILES O=C(Cc1ccc(F)cc1F)N[C@H](CCO)C(=O)OCCOCCOC(=O)c1ccc(-c2c3nc(c(-c4cccc(S(=O)(=O)[O-])c4F)c4ccc([nH]4)c(-c4cccc(S(=O)(=O)[O-])c4F)c4nc(c(-c5cccc(S(=O)(=O)[O-])c5F)c5ccc2[nH]5)C=C4)C=C3)cc1
REMARK SMILES IDX 22 1 21 2 20 3 19 4 17 5 18 6 13 7 12 8 1 9 2 10 3 12 4 13
REMARK SMILES IDX 5 14 10 15 6 16 9 17 11 18 7 19 8 20 14 21 15 22 16 23 23 25
REMARK SMILES IDX 24 26 25 27 26 28 27 29 28 30 29 31 90 32 30 33 89 34 31 35
REMARK SMILES IDX 32 36 33 37 83 38 34 39 88 40 82 41 84 42 35 43 87 44 81 45
REMARK SMILES IDX 80 46 36 48 68 49 48 50 67 51 49 52 52 53 66 54 85 55 50 56
REMARK SMILES IDX 51 57 65 59 86 60 53 61 37 62 38 63 46 64 39 65 41 66 47 67
REMARK SMILES IDX 40 68 42 69 43 70 44 71 45 72 69 73 70 74 78 75 71 76 73 77
REMARK SMILES IDX 79 78 72 79 74 80 75 81 76 82 77 83 54 84 55 85 63 86 56 87
REMARK SMILES IDX 58 88 64 89 57 90 59 91 60 92 61 93 62 94
REMARK H PARENT 12 11 16 24 84 47 52 58
REMARK Flexibility Score: inf
ROOT
ATOM      1  O   UNL     1       2.400  -3.621  -4.341  1.00  0.00    -0.374 OA
ENDROOT
BRANCH   1   2
ATOM      2  C   UNL     1       3.516  -2.959  -4.933  1.00  0.00     0.202 C 
BRANCH   2   3
ATOM      3  C   UNL     1       3.399  -1.453  -5.164  1.00  0.00     0.261 C 
BRANCH   3   4
ATOM      4  O   UNL     1       3.466  -0.669  -3.955  1.00  0.00    -0.462 OA
BRANCH   4   5
ATOM      5  C   UNL     1       2.291  -0.069  -3.611  1.00  0.00     0.328 C 
ATOM      6  O   UNL     1       1.176  -0.472  -3.931  1.00  0.00    -0.250 OA
BRANCH   5   7
ATOM      7  C   UNL     1       2.494   1.187  -2.750  1.00  0.00     0.194 C 
BRANCH   7   8
ATOM      8  N   UNL     1       3.290   2.247  -3.379  1.00  0.00    -0.342 N 
ATOM      9  O   UNL     1       3.074   1.617  -5.587  1.00  0.00    -0.275 OA
ATOM     10  C   UNL     1       3.463   2.409  -4.735  1.00  0.00     0.225 C 
ATOM     11  H   UNL     1       3.736   2.894  -2.785  1.00  0.00     0.164 HD
BRANCH  10  12
ATOM     12  C   UNL     1       4.136   3.716  -5.099  1.00  0.00     0.138 C 
BRANCH  12  13
ATOM     13  C   UNL     1       3.098   4.805  -5.160  1.00  0.00    -0.003 A 
ATOM     14  C   UNL     1       2.219   4.878  -6.251  1.00  0.00     0.010 A 
ATOM     15  C   UNL     1       2.913   5.675  -4.081  1.00  0.00     0.129 A 
ATOM     16  C   UNL     1       1.188   5.815  -6.254  1.00  0.00     0.040 A 
ATOM     17  C   UNL     1       1.897   6.620  -4.083  1.00  0.00     0.078 A 
ATOM     18  F   UNL     1       3.693   5.563  -2.996  1.00  0.00    -0.207 F 
ATOM     19  C   UNL     1       1.040   6.679  -5.173  1.00  0.00     0.126 A 
ATOM     20  F   UNL     1       0.038   7.567  -5.175  1.00  0.00    -0.207 F 
ENDBRANCH  12  13
ENDBRANCH  10  12
ENDBRANCH   7   8
BRANCH   7  21
ATOM     21  C   UNL     1       3.025   0.981  -1.313  1.00  0.00     0.065 C 
BRANCH  21  22
ATOM     22  C   UNL     1       3.377  -0.420  -0.845  1.00  0.00     0.159 C 
BRANCH  22  23
ATOM     23  O   UNL     1       4.606  -0.854  -1.394  1.00  0.00    -0.396 OA
ATOM     24  H   UNL     1       4.539  -0.874  -2.362  1.00  0.00     0.210 HD
ENDBRANCH  22  23
ENDBRANCH  21  22
ENDBRANCH   7  21
ENDBRANCH   5   7
ENDBRANCH   4   5
ENDBRANCH   3   4
ENDBRANCH   2   3
ENDBRANCH   1   2
BRANCH   1  25
ATOM     25  C   UNL     1       2.173  -3.409  -2.951  1.00  0.00     0.202 C 
BRANCH  25  26
ATOM     26  C   UNL     1       3.092  -4.159  -1.980  1.00  0.00     0.261 C 
BRANCH  26  27
ATOM     27  O   UNL     1       4.460  -3.731  -2.090  1.00  0.00    -0.460 OA
BRANCH  27  28
ATOM     28  C   UNL     1       5.301  -4.652  -2.620  1.00  0.00     0.338 C 
ATOM     29  O   UNL     1       5.026  -5.798  -2.931  1.00  0.00    -0.246 OA
BRANCH  28  30
ATOM     30  C   UNL     1       6.595  -4.031  -2.970  1.00  0.00     0.060 A 
ATOM     31  C   UNL     1       7.079  -4.263  -4.264  1.00  0.00     0.016 A 
ATOM     32  C   UNL     1       7.364  -3.322  -2.045  1.00  0.00     0.016 A 
ATOM     33  C   UNL     1       8.368  -3.869  -4.610  1.00  0.00     0.010 A 
ATOM     34  C   UNL     1       8.663  -2.930  -2.394  1.00  0.00     0.010 A 
ATOM     35  C   UNL     1       9.190  -3.252  -3.659  1.00  0.00    -0.014 A 
BRANCH  35  36
ATOM     36  C   UNL     1      10.640  -3.112  -3.950  1.00  0.00     0.031 A 
ATOM     37  C   UNL     1      11.607  -4.094  -3.340  1.00  0.00     0.074 A 
ATOM     38  C   UNL     1      11.091  -2.165  -4.791  1.00  0.00     0.049 A 
ATOM     39  N   UNL     1      12.899  -4.199  -3.509  1.00  0.00    -0.248 NA
ATOM     40  C   UNL     1      11.040  -5.091  -2.417  1.00  0.00     0.031 C 
ATOM     41  C   UNL     1      10.259  -1.170  -5.465  1.00  0.00     0.029 A 
ATOM     42  N   UNL     1      12.365  -1.887  -5.219  1.00  0.00    -0.354 N 
ATOM     43  C   UNL     1      13.306  -5.247  -2.692  1.00  0.00     0.074 A 
ATOM     44  C   UNL     1      12.124  -5.738  -2.017  1.00  0.00     0.031 C 
ATOM     45  C   UNL     1      11.046  -0.386  -6.221  1.00  0.00     0.029 A 
ATOM     46  C   UNL     1      12.438  -0.806  -6.066  1.00  0.00     0.049 A 
ATOM     47  H   UNL     1      13.152  -2.411  -4.946  1.00  0.00     0.167 HD
ATOM     48  C   UNL     1      14.546  -5.766  -2.526  1.00  0.00     0.034 A 
ATOM     49  C   UNL     1      13.506  -0.219  -6.642  1.00  0.00     0.034 A 
ATOM     50  C   UNL     1      15.719  -5.294  -3.213  1.00  0.00     0.049 A 
ATOM     51  C   UNL     1      14.881  -0.791  -6.411  1.00  0.00     0.074 A 
ATOM     52  C   UNL     1      17.006  -5.798  -3.162  1.00  0.00     0.029 A 
ATOM     53  N   UNL     1      15.754  -4.195  -4.058  1.00  0.00    -0.354 N 
ATOM     54  N   UNL     1      15.230  -1.860  -5.737  1.00  0.00    -0.248 NA
ATOM     55  C   UNL     1      16.006  -0.091  -7.048  1.00  0.00     0.031 C 
ATOM     56  C   UNL     1      17.829  -4.975  -3.938  1.00  0.00     0.029 A 
ATOM     57  C   UNL     1      17.045  -3.985  -4.510  1.00  0.00     0.049 A 
ATOM     58  H   UNL     1      14.974  -3.645  -4.300  1.00  0.00     0.167 HD
ATOM     59  C   UNL     1      16.607  -1.984  -5.902  1.00  0.00     0.074 A 
ATOM     60  C   UNL     1      17.024  -0.888  -6.752  1.00  0.00     0.031 C 
ATOM     61  C   UNL     1      17.448  -2.918  -5.391  1.00  0.00     0.034 A 
BRANCH  48  62
ATOM     62  C   UNL     1      14.699  -6.909  -1.555  1.00  0.00     0.023 A 
ATOM     63  C   UNL     1      14.177  -8.181  -1.871  1.00  0.00     0.012 A 
ATOM     64  C   UNL     1      15.390  -6.730  -0.341  1.00  0.00     0.148 A 
ATOM     65  C   UNL     1      14.301  -9.242  -0.975  1.00  0.00     0.002 A 
ATOM     66  C   UNL     1      15.552  -7.805   0.525  1.00  0.00     0.091 A 
ATOM     67  F   UNL     1      15.860  -5.510  -0.045  1.00  0.00    -0.205 F 
ATOM     68  C   UNL     1      14.996  -9.057   0.217  1.00  0.00     0.022 A 
BRANCH  66  69
ATOM     69  S   UNL     1      16.502  -7.683   2.045  1.00  0.00     0.127 S 
ATOM     70  O   UNL     1      15.446  -7.689   3.055  1.00  0.00    -0.237 OA
ATOM     71  O   UNL     1      17.311  -8.902   2.002  1.00  0.00    -0.237 OA
ATOM     72  O   UNL     1      17.265  -6.447   1.941  1.00  0.00    -0.744 OA
ENDBRANCH  66  69
ENDBRANCH  48  62
BRANCH  49  73
ATOM     73  C   UNL     1      13.312   0.954  -7.541  1.00  0.00     0.023 A 
ATOM     74  C   UNL     1      13.554   0.815  -8.922  1.00  0.00     0.012 A 
ATOM     75  C   UNL     1      12.871   2.194  -7.041  1.00  0.00     0.148 A 
ATOM     76  C   UNL     1      13.384   1.898  -9.785  1.00  0.00     0.002 A 
ATOM     77  C   UNL     1      12.650   3.253  -7.914  1.00  0.00     0.091 A 
ATOM     78  F   UNL     1      12.660   2.308  -5.723  1.00  0.00    -0.205 F 
ATOM     79  C   UNL     1      12.922   3.112  -9.284  1.00  0.00     0.022 A 
BRANCH  77  80
ATOM     80  S   UNL     1      11.941   4.814  -7.381  1.00  0.00     0.127 S 
ATOM     81  O   UNL     1      13.043   5.742  -7.622  1.00  0.00    -0.237 OA
ATOM     82  O   UNL     1      10.806   4.954  -8.294  1.00  0.00    -0.237 OA
ATOM     83  O   UNL     1      11.571   4.628  -5.985  1.00  0.00    -0.744 OA
ENDBRANCH  77  80
ENDBRANCH  49  73
BRANCH  61  84
ATOM     84  C   UNL     1      18.908  -2.829  -5.762  1.00  0.00     0.023 A 
ATOM     85  C   UNL     1      19.710  -1.798  -5.234  1.00  0.00     0.012 A 
ATOM     86  C   UNL     1      19.502  -3.815  -6.576  1.00  0.00     0.148 A 
ATOM     87  C   UNL     1      21.070  -1.729  -5.540  1.00  0.00     0.002 A 
ATOM     88  C   UNL     1      20.867  -3.770  -6.833  1.00  0.00     0.091 A 
ATOM     89  F   UNL     1      18.721  -4.781  -7.083  1.00  0.00    -0.205 F 
ATOM     90  C   UNL     1      21.650  -2.720  -6.328  1.00  0.00     0.022 A 
BRANCH  88  91
ATOM     91  S   UNL     1      21.720  -5.056  -7.755  1.00  0.00     0.127 S 
ATOM     92  O   UNL     1      22.042  -4.365  -9.002  1.00  0.00    -0.237 OA
ATOM     93  O   UNL     1      22.872  -5.338  -6.898  1.00  0.00    -0.237 OA
ATOM     94  O   UNL     1      20.775  -6.157  -7.878  1.00  0.00    -0.744 OA
ENDBRANCH  88  91
ENDBRANCH  61  84
ENDBRANCH  35  36
ENDBRANCH  28  30
ENDBRANCH  27  28
ENDBRANCH  26  27
ENDBRANCH  25  26
ENDBRANCH   1  25
TORSDOF 23
