REMARK SMILES O=C(OCCOCCOC(=O)[C@H](CCc1ccccn1)c1ccccc1Br)c1ccc(-c2c3nc(c(-c4cccc(S(=O)(=O)[O-])c4F)c4ccc([nH]4)c(-c4cccc(S(=O)(=O)[O-])c4F)c4nc(c(-c5cccc(S(=O)(=O)[O-])c5F)c5ccc2[nH]5)C=C4)C=C3)cc1
REMARK SMILES IDX 6 1 5 2 4 3 3 4 2 5 1 6 28 7 29 8 90 9 30 10 89 11 31 12
REMARK SMILES IDX 32 13 33 14 83 15 34 16 88 17 82 18 84 19 35 20 87 21 81 22
REMARK SMILES IDX 80 23 36 25 68 26 48 27 67 28 49 29 52 30 66 31 85 32 50 33
REMARK SMILES IDX 51 34 65 36 86 37 53 38 37 39 38 40 46 41 39 42 41 43 47 44
REMARK SMILES IDX 40 45 42 46 43 47 44 48 45 49 69 50 70 51 78 52 71 53 73 54
REMARK SMILES IDX 79 55 72 56 74 57 75 58 76 59 77 60 54 61 55 62 63 63 56 64
REMARK SMILES IDX 58 65 64 66 57 67 59 68 60 69 61 70 62 71 7 72 8 73 9 74
REMARK SMILES IDX 10 75 11 76 12 77 21 78 22 79 26 80 23 81 25 82 27 83 24 84
REMARK SMILES IDX 13 85 14 86 15 87 16 88 20 89 17 90 19 91 18 92
REMARK H PARENT 84 24 52 35
REMARK Flexibility Score: inf
ROOT
ATOM      1  O   UNL     1       4.150   2.607   1.841  1.00  0.00    -0.374 OA
ENDROOT
BRANCH   1   2
ATOM      2  C   UNL     1       4.630   1.589   0.979  1.00  0.00     0.202 C 
BRANCH   2   3
ATOM      3  C   UNL     1       4.255   1.790  -0.483  1.00  0.00     0.261 C 
BRANCH   3   4
ATOM      4  O   UNL     1       4.673   3.082  -0.923  1.00  0.00    -0.460 OA
BRANCH   4   5
ATOM      5  C   UNL     1       3.910   4.200  -0.856  1.00  0.00     0.338 C 
ATOM      6  O   UNL     1       4.433   5.293  -1.057  1.00  0.00    -0.246 OA
BRANCH   5   7
ATOM      7  C   UNL     1       2.435   4.144  -0.644  1.00  0.00     0.060 A 
ATOM      8  C   UNL     1       1.806   3.421   0.374  1.00  0.00     0.016 A 
ATOM      9  C   UNL     1       1.651   4.974  -1.453  1.00  0.00     0.016 A 
ATOM     10  C   UNL     1       0.447   3.502   0.595  1.00  0.00     0.010 A 
ATOM     11  C   UNL     1       0.282   5.097  -1.212  1.00  0.00     0.010 A 
ATOM     12  C   UNL     1      -0.310   4.374  -0.169  1.00  0.00    -0.014 A 
BRANCH  12  13
ATOM     13  C   UNL     1      -1.736   4.476   0.151  1.00  0.00     0.031 A 
ATOM     14  C   UNL     1      -2.711   3.848  -0.781  1.00  0.00     0.074 A 
ATOM     15  C   UNL     1      -2.100   5.058   1.308  1.00  0.00     0.049 A 
ATOM     16  N   UNL     1      -4.008   3.925  -0.777  1.00  0.00    -0.248 NA
ATOM     17  C   UNL     1      -2.151   3.014  -1.861  1.00  0.00     0.031 C 
ATOM     18  C   UNL     1      -1.174   5.580   2.322  1.00  0.00     0.029 A 
ATOM     19  N   UNL     1      -3.337   5.315   1.830  1.00  0.00    -0.354 N 
ATOM     20  C   UNL     1      -4.420   3.228  -1.902  1.00  0.00     0.074 A 
ATOM     21  C   UNL     1      -3.242   2.684  -2.536  1.00  0.00     0.031 C 
ATOM     22  C   UNL     1      -1.878   6.113   3.331  1.00  0.00     0.029 A 
ATOM     23  C   UNL     1      -3.292   6.052   2.992  1.00  0.00     0.049 A 
ATOM     24  H   UNL     1      -4.175   5.005   1.417  1.00  0.00     0.167 HD
ATOM     25  C   UNL     1      -5.680   3.095  -2.365  1.00  0.00     0.034 A 
ATOM     26  C   UNL     1      -4.286   6.671   3.653  1.00  0.00     0.034 A 
ATOM     27  C   UNL     1      -6.818   3.642  -1.683  1.00  0.00     0.049 A 
ATOM     28  C   UNL     1      -5.671   6.544   3.080  1.00  0.00     0.074 A 
ATOM     29  C   UNL     1      -8.149   3.577  -2.041  1.00  0.00     0.029 A 
ATOM     30  N   UNL     1      -6.747   4.377  -0.507  1.00  0.00    -0.354 N 
ATOM     31  N   UNL     1      -6.071   5.850   2.038  1.00  0.00    -0.248 NA
ATOM     32  C   UNL     1      -6.743   7.279   3.761  1.00  0.00     0.031 C 
ATOM     33  C   UNL     1      -8.879   4.312  -1.103  1.00  0.00     0.029 A 
ATOM     34  C   UNL     1      -8.008   4.800  -0.139  1.00  0.00     0.049 A 
ATOM     35  H   UNL     1      -5.919   4.568  -0.009  1.00  0.00     0.167 HD
ATOM     36  C   UNL     1      -7.439   6.054   1.945  1.00  0.00     0.074 A 
ATOM     37  C   UNL     1      -7.805   6.905   3.062  1.00  0.00     0.031 C 
ATOM     38  C   UNL     1      -8.317   5.609   1.013  1.00  0.00     0.034 A 
BRANCH  25  39
ATOM     39  C   UNL     1      -5.870   2.410  -3.684  1.00  0.00     0.023 A 
ATOM     40  C   UNL     1      -5.750   1.012  -3.795  1.00  0.00     0.012 A 
ATOM     41  C   UNL     1      -6.194   3.173  -4.823  1.00  0.00     0.148 A 
ATOM     42  C   UNL     1      -5.931   0.384  -5.028  1.00  0.00     0.002 A 
ATOM     43  C   UNL     1      -6.416   2.538  -6.037  1.00  0.00     0.091 A 
ATOM     44  F   UNL     1      -6.267   4.506  -4.697  1.00  0.00    -0.205 F 
ATOM     45  C   UNL     1      -6.274   1.145  -6.144  1.00  0.00     0.022 A 
BRANCH  43  46
ATOM     46  S   UNL     1      -6.923   3.423  -7.514  1.00  0.00     0.127 S 
ATOM     47  O   UNL     1      -5.810   3.145  -8.421  1.00  0.00    -0.237 OA
ATOM     48  O   UNL     1      -8.173   2.745  -7.856  1.00  0.00    -0.237 OA
ATOM     49  O   UNL     1      -7.065   4.819  -7.124  1.00  0.00    -0.744 OA
ENDBRANCH  43  46
ENDBRANCH  25  39
BRANCH  26  50
ATOM     50  C   UNL     1      -4.007   7.510   4.855  1.00  0.00     0.023 A 
ATOM     51  C   UNL     1      -4.563   7.158   6.100  1.00  0.00     0.012 A 
ATOM     52  C   UNL     1      -3.206   8.668   4.771  1.00  0.00     0.148 A 
ATOM     53  C   UNL     1      -4.365   7.965   7.223  1.00  0.00     0.002 A 
ATOM     54  C   UNL     1      -2.963   9.434   5.906  1.00  0.00     0.091 A 
ATOM     55  F   UNL     1      -2.699   9.009   3.577  1.00  0.00    -0.205 F 
ATOM     56  C   UNL     1      -3.559   9.097   7.128  1.00  0.00     0.022 A 
BRANCH  54  57
ATOM     57  S   UNL     1      -1.836  10.834   5.894  1.00  0.00     0.127 S 
ATOM     58  O   UNL     1      -2.762  11.963   5.919  1.00  0.00    -0.237 OA
ATOM     59  O   UNL     1      -1.081  10.630   7.131  1.00  0.00    -0.237 OA
ATOM     60  O   UNL     1      -1.044  10.686   4.681  1.00  0.00    -0.744 OA
ENDBRANCH  54  57
ENDBRANCH  26  50
BRANCH  38  61
ATOM     61  C   UNL     1      -9.752   6.018   1.180  1.00  0.00     0.023 A 
ATOM     62  C   UNL     1     -10.139   7.338   0.884  1.00  0.00     0.012 A 
ATOM     63  C   UNL     1     -10.724   5.061   1.525  1.00  0.00     0.148 A 
ATOM     64  C   UNL     1     -11.479   7.708   0.953  1.00  0.00     0.002 A 
ATOM     65  C   UNL     1     -12.062   5.423   1.534  1.00  0.00     0.091 A 
ATOM     66  F   UNL     1     -10.321   3.816   1.816  1.00  0.00    -0.205 F 
ATOM     67  C   UNL     1     -12.441   6.748   1.262  1.00  0.00     0.022 A 
BRANCH  65  68
ATOM     68  S   UNL     1     -13.376   4.231   1.806  1.00  0.00     0.127 S 
ATOM     69  O   UNL     1     -13.901   4.658   3.102  1.00  0.00    -0.237 OA
ATOM     70  O   UNL     1     -14.263   4.487   0.672  1.00  0.00    -0.237 OA
ATOM     71  O   UNL     1     -12.741   2.919   1.796  1.00  0.00    -0.744 OA
ENDBRANCH  65  68
ENDBRANCH  38  61
ENDBRANCH  12  13
ENDBRANCH   5   7
ENDBRANCH   4   5
ENDBRANCH   3   4
ENDBRANCH   2   3
ENDBRANCH   1   2
BRANCH   1  72
ATOM     72  C   UNL     1       5.034   3.653   2.224  1.00  0.00     0.202 C 
BRANCH  72  73
ATOM     73  C   UNL     1       5.013   3.721   3.748  1.00  0.00     0.261 C 
BRANCH  73  74
ATOM     74  O   UNL     1       5.351   2.421   4.265  1.00  0.00    -0.463 OA
BRANCH  74  75
ATOM     75  C   UNL     1       4.281   1.599   4.509  1.00  0.00     0.313 C 
ATOM     76  O   UNL     1       3.105   1.887   4.373  1.00  0.00    -0.252 OA
BRANCH  75  77
ATOM     77  C   UNL     1       4.783   0.229   4.971  1.00  0.00     0.131 C 
BRANCH  77  78
ATOM     78  C   UNL     1       4.114  -0.096   6.306  1.00  0.00    -0.020 A 
ATOM     79  C   UNL     1       3.184  -1.144   6.423  1.00  0.00     0.006 A 
ATOM     80  C   UNL     1       4.345   0.691   7.457  1.00  0.00     0.022 A 
ATOM     81  C   UNL     1       2.538  -1.418   7.631  1.00  0.00     0.000 A 
ATOM     82  C   UNL     1       3.655   0.446   8.650  1.00  0.00     0.016 A 
ATOM     83  Br  UNL     1       5.598   2.124   7.517  1.00  0.00    -0.051 Br
ATOM     84  C   UNL     1       2.762  -0.615   8.740  1.00  0.00     0.001 A 
ENDBRANCH  77  78
BRANCH  77  85
ATOM     85  C   UNL     1       4.592  -0.734   3.767  1.00  0.00     0.026 C 
BRANCH  85  86
ATOM     86  C   UNL     1       5.566  -1.911   3.628  1.00  0.00     0.057 C 
BRANCH  86  87
ATOM     87  C   UNL     1       5.508  -2.868   4.777  1.00  0.00     0.040 A 
ATOM     88  C   UNL     1       6.311  -2.654   5.893  1.00  0.00     0.024 A 
ATOM     89  N   UNL     1       4.556  -3.831   4.727  1.00  0.00    -0.261 NA
ATOM     90  C   UNL     1       6.078  -3.410   7.033  1.00  0.00     0.003 A 
ATOM     91  C   UNL     1       4.365  -4.563   5.844  1.00  0.00     0.111 A 
ATOM     92  C   UNL     1       5.079  -4.376   7.016  1.00  0.00     0.020 A 
ENDBRANCH  86  87
ENDBRANCH  85  86
ENDBRANCH  77  85
ENDBRANCH  75  77
ENDBRANCH  74  75
ENDBRANCH  73  74
ENDBRANCH  72  73
ENDBRANCH   1  72
TORSDOF 21
