REMARK SMILES O=C(OCCOCCOC(=O)c1cc(Br)ccc1NC(=O)c1ccc(Br)s1)c1ccc(-c2c3nc(c(-c4cccc(S(=O)(=O)[O-])c4F)c4ccc([nH]4)c(-c4cccc(S(=O)(=O)[O-])c4F)c4nc(c(-c5cccc(S(=O)(=O)[O-])c5F)c5ccc2[nH]5)C=C4)C=C3)cc1
REMARK SMILES IDX 5 1 4 2 3 3 2 4 1 5 28 6 29 7 90 8 30 9 89 10 31 11 32 12
REMARK SMILES IDX 33 13 83 14 34 15 88 16 82 17 84 18 35 19 87 20 81 21 80 22
REMARK SMILES IDX 36 24 68 25 48 26 67 27 49 28 52 29 66 30 85 31 50 32 51 33
REMARK SMILES IDX 65 35 86 36 53 37 37 38 38 39 46 40 39 41 41 42 47 43 40 44
REMARK SMILES IDX 42 45 43 46 44 47 45 48 69 49 70 50 78 51 71 52 73 53 79 54
REMARK SMILES IDX 72 55 74 56 75 57 76 58 77 59 54 60 55 61 63 62 56 63 58 64
REMARK SMILES IDX 64 65 57 66 59 67 60 68 61 69 62 70 6 71 7 72 8 73 9 74
REMARK SMILES IDX 10 75 11 76 12 77 13 78 18 79 14 80 17 81 15 82 16 83 19 84
REMARK SMILES IDX 20 85 21 87 22 88 23 89 27 90 24 91 25 92 26 93
REMARK H PARENT 84 23 52 34 19 86
REMARK Flexibility Score: inf
ROOT
ATOM      1  C   UNL     1       4.040  -1.651  -0.218  1.00  0.00     0.202 C 
ENDROOT
BRANCH   1   2
ATOM      2  C   UNL     1       3.520  -0.832   0.962  1.00  0.00     0.261 C 
BRANCH   2   3
ATOM      3  O   UNL     1       2.147  -0.466   0.742  1.00  0.00    -0.460 OA
BRANCH   3   4
ATOM      4  C   UNL     1       1.650   0.796   0.751  1.00  0.00     0.338 C 
ATOM      5  O   UNL     1       0.444   0.971   0.894  1.00  0.00    -0.246 OA
BRANCH   4   6
ATOM      6  C   UNL     1       2.537   1.979   0.571  1.00  0.00     0.060 A 
ATOM      7  C   UNL     1       3.677   1.958  -0.235  1.00  0.00     0.016 A 
ATOM      8  C   UNL     1       2.159   3.189   1.167  1.00  0.00     0.016 A 
ATOM      9  C   UNL     1       4.489   3.073  -0.364  1.00  0.00     0.010 A 
ATOM     10  C   UNL     1       2.929   4.340   0.974  1.00  0.00     0.010 A 
ATOM     11  C   UNL     1       4.108   4.279   0.219  1.00  0.00    -0.014 A 
BRANCH  11  12
ATOM     12  C   UNL     1       4.976   5.457   0.026  1.00  0.00     0.031 A 
ATOM     13  C   UNL     1       5.745   5.998   1.190  1.00  0.00     0.074 A 
ATOM     14  C   UNL     1       5.112   5.974  -1.210  1.00  0.00     0.049 A 
ATOM     15  N   UNL     1       6.505   7.056   1.253  1.00  0.00    -0.248 NA
ATOM     16  C   UNL     1       5.647   5.247   2.453  1.00  0.00     0.031 C 
ATOM     17  C   UNL     1       4.451   5.461  -2.414  1.00  0.00     0.029 A 
ATOM     18  N   UNL     1       5.856   7.029  -1.667  1.00  0.00    -0.354 N 
ATOM     19  C   UNL     1       6.928   7.135   2.573  1.00  0.00     0.074 A 
ATOM     20  C   UNL     1       6.359   6.005   3.274  1.00  0.00     0.031 C 
ATOM     21  C   UNL     1       4.837   6.187  -3.473  1.00  0.00     0.029 A 
ATOM     22  C   UNL     1       5.711   7.260  -3.015  1.00  0.00     0.049 A 
ATOM     23  H   UNL     1       6.439   7.570  -1.086  1.00  0.00     0.167 HD
ATOM     24  C   UNL     1       7.720   8.072   3.142  1.00  0.00     0.034 A 
ATOM     25  C   UNL     1       6.204   8.250  -3.783  1.00  0.00     0.034 A 
ATOM     26  C   UNL     1       8.295   9.167   2.412  1.00  0.00     0.049 A 
ATOM     27  C   UNL     1       7.066   9.288  -3.119  1.00  0.00     0.074 A 
ATOM     28  C   UNL     1       9.085  10.200   2.881  1.00  0.00     0.029 A 
ATOM     29  N   UNL     1       8.140   9.365   1.046  1.00  0.00    -0.354 N 
ATOM     30  N   UNL     1       7.471   9.346  -1.872  1.00  0.00    -0.248 NA
ATOM     31  C   UNL     1       7.545  10.391  -3.960  1.00  0.00     0.031 C 
ATOM     32  C   UNL     1       9.396  11.030   1.798  1.00  0.00     0.029 A 
ATOM     33  C   UNL     1       8.816  10.505   0.652  1.00  0.00     0.049 A 
ATOM     34  H   UNL     1       7.624   8.779   0.446  1.00  0.00     0.167 HD
ATOM     35  C   UNL     1       8.260  10.484  -1.779  1.00  0.00     0.074 A 
ATOM     36  C   UNL     1       8.304  11.066  -3.107  1.00  0.00     0.031 C 
ATOM     37  C   UNL     1       8.873  11.019  -0.694  1.00  0.00     0.034 A 
BRANCH  24  38
ATOM     38  C   UNL     1       7.974   7.950   4.619  1.00  0.00     0.023 A 
ATOM     39  C   UNL     1       8.863   6.969   5.103  1.00  0.00     0.012 A 
ATOM     40  C   UNL     1       7.314   8.796   5.532  1.00  0.00     0.148 A 
ATOM     41  C   UNL     1       9.062   6.807   6.474  1.00  0.00     0.002 A 
ATOM     42  C   UNL     1       7.543   8.651   6.896  1.00  0.00     0.091 A 
ATOM     43  F   UNL     1       6.451   9.703   5.053  1.00  0.00    -0.205 F 
ATOM     44  C   UNL     1       8.407   7.650   7.369  1.00  0.00     0.022 A 
BRANCH  42  45
ATOM     45  S   UNL     1       6.780   9.717   8.124  1.00  0.00     0.127 S 
ATOM     46  O   UNL     1       5.818   8.809   8.746  1.00  0.00    -0.237 OA
ATOM     47  O   UNL     1       7.918  10.073   8.972  1.00  0.00    -0.237 OA
ATOM     48  O   UNL     1       6.203  10.831   7.385  1.00  0.00    -0.744 OA
ENDBRANCH  42  45
ENDBRANCH  24  38
BRANCH  25  49
ATOM     49  C   UNL     1       5.898   8.296  -5.243  1.00  0.00     0.023 A 
ATOM     50  C   UNL     1       6.934   8.109  -6.178  1.00  0.00     0.012 A 
ATOM     51  C   UNL     1       4.581   8.481  -5.713  1.00  0.00     0.148 A 
ATOM     52  C   UNL     1       6.669   8.127  -7.549  1.00  0.00     0.002 A 
ATOM     53  C   UNL     1       4.315   8.438  -7.077  1.00  0.00     0.091 A 
ATOM     54  F   UNL     1       3.607   8.685  -4.815  1.00  0.00    -0.205 F 
ATOM     55  C   UNL     1       5.359   8.278  -7.998  1.00  0.00     0.022 A 
BRANCH  53  56
ATOM     56  S   UNL     1       2.638   8.479  -7.723  1.00  0.00     0.127 S 
ATOM     57  O   UNL     1       2.536   9.853  -8.207  1.00  0.00    -0.237 OA
ATOM     58  O   UNL     1       2.686   7.458  -8.771  1.00  0.00    -0.237 OA
ATOM     59  O   UNL     1       1.782   8.133  -6.596  1.00  0.00    -0.744 OA
ENDBRANCH  53  56
ENDBRANCH  25  49
BRANCH  37  60
ATOM     60  C   UNL     1       9.651  12.287  -0.904  1.00  0.00     0.023 A 
ATOM     61  C   UNL     1       8.963  13.506  -1.058  1.00  0.00     0.012 A 
ATOM     62  C   UNL     1      11.058  12.280  -0.858  1.00  0.00     0.148 A 
ATOM     63  C   UNL     1       9.667  14.701  -1.183  1.00  0.00     0.002 A 
ATOM     64  C   UNL     1      11.751  13.480  -0.936  1.00  0.00     0.091 A 
ATOM     65  F   UNL     1      11.690  11.103  -0.736  1.00  0.00    -0.205 F 
ATOM     66  C   UNL     1      11.058  14.691  -1.108  1.00  0.00     0.022 A 
BRANCH  64  67
ATOM     67  S   UNL     1      13.534  13.565  -0.748  1.00  0.00     0.127 S 
ATOM     68  O   UNL     1      13.972  13.757  -2.129  1.00  0.00    -0.237 OA
ATOM     69  O   UNL     1      13.703  14.735   0.115  1.00  0.00    -0.237 OA
ATOM     70  O   UNL     1      13.929  12.304  -0.133  1.00  0.00    -0.744 OA
ENDBRANCH  64  67
ENDBRANCH  37  60
ENDBRANCH  11  12
ENDBRANCH   4   6
ENDBRANCH   3   4
ENDBRANCH   2   3
ENDBRANCH   1   2
BRANCH   1  71
ATOM     71  O   UNL     1       4.019  -0.996  -1.485  1.00  0.00    -0.374 OA
BRANCH  71  72
ATOM     72  C   UNL     1       2.756  -0.992  -2.164  1.00  0.00     0.202 C 
BRANCH  72  73
ATOM     73  C   UNL     1       3.005  -1.067  -3.676  1.00  0.00     0.261 C 
BRANCH  73  74
ATOM     74  O   UNL     1       3.549  -2.365  -3.979  1.00  0.00    -0.460 OA
BRANCH  74  75
ATOM     75  C   UNL     1       4.888  -2.497  -3.801  1.00  0.00     0.340 C 
ATOM     76  O   UNL     1       5.733  -1.618  -3.773  1.00  0.00    -0.246 OA
BRANCH  75  77
ATOM     77  C   UNL     1       5.130  -3.890  -3.361  1.00  0.00     0.084 A 
ATOM     78  C   UNL     1       4.416  -4.918  -4.002  1.00  0.00     0.033 A 
ATOM     79  C   UNL     1       5.951  -4.156  -2.240  1.00  0.00     0.056 A 
ATOM     80  C   UNL     1       4.459  -6.207  -3.491  1.00  0.00     0.018 A 
ATOM     81  C   UNL     1       5.907  -5.451  -1.712  1.00  0.00     0.028 A 
ATOM     82  Br  UNL     1       3.483  -7.588  -4.330  1.00  0.00    -0.051 Br
ATOM     83  C   UNL     1       5.180  -6.472  -2.335  1.00  0.00     0.018 A 
BRANCH  79  84
ATOM     84  N   UNL     1       6.695  -3.105  -1.645  1.00  0.00    -0.320 N 
ATOM     85  C   UNL     1       7.615  -3.062  -0.613  1.00  0.00     0.265 C 
ATOM     86  H   UNL     1       6.522  -2.225  -2.051  1.00  0.00     0.170 HD
ATOM     87  O   UNL     1       7.826  -1.974  -0.075  1.00  0.00    -0.268 OA
BRANCH  85  88
ATOM     88  C   UNL     1       8.323  -4.263  -0.225  1.00  0.00     0.093 A 
ATOM     89  C   UNL     1       9.048  -5.140  -1.014  1.00  0.00     0.027 A 
ATOM     90  S   UNL     1       8.347  -4.732   1.425  1.00  0.00    -0.123 S 
ATOM     91  C   UNL     1       9.530  -6.259  -0.270  1.00  0.00     0.028 A 
ATOM     92  C   UNL     1       9.190  -6.155   1.056  1.00  0.00     0.071 A 
ATOM     93  Br  UNL     1       9.609  -7.458   2.335  1.00  0.00    -0.039 Br
ENDBRANCH  85  88
ENDBRANCH  79  84
ENDBRANCH  75  77
ENDBRANCH  74  75
ENDBRANCH  73  74
ENDBRANCH  72  73
ENDBRANCH  71  72
ENDBRANCH   1  71
TORSDOF 19
