REMARK SMILES Cn1cc(S(=O)(=O)N2CCC(C(=O)OCCOCCOC(=O)c3ccc(-c4c5nc(c(-c6cccc(S(=O)(=O)[O-])c6F)c6ccc([nH]6)c(-c6cccc(S(=O)(=O)[O-])c6F)c6nc(c(-c7cccc(S(=O)(=O)[O-])c7F)c7ccc4[nH]7)C=C6)C=C5)cc3)CC2)cc1C(=O)N1CCCCC1
REMARK SMILES IDX 17 1 16 2 15 3 14 4 12 5 13 6 11 7 8 8 9 9 87 10 10 11 86 12
REMARK SMILES IDX 5 13 6 14 7 15 4 16 1 17 2 18 3 19 89 20 88 21 90 22 91 23
REMARK SMILES IDX 92 24 93 25 97 26 94 27 96 28 95 29 18 30 19 31 20 32 21 33
REMARK SMILES IDX 22 34 23 35 24 36 85 37 25 38 84 39 26 40 27 41 28 42 78 43
REMARK SMILES IDX 29 44 83 45 77 46 79 47 30 48 82 49 76 50 75 51 31 53 63 54
REMARK SMILES IDX 43 55 62 56 44 57 47 58 61 59 80 60 45 61 46 62 60 64 81 65
REMARK SMILES IDX 48 66 32 67 33 68 41 69 34 70 36 71 42 72 35 73 37 74 38 75
REMARK SMILES IDX 39 76 40 77 64 78 65 79 73 80 66 81 68 82 74 83 67 84 69 85
REMARK SMILES IDX 70 86 71 87 72 88 49 89 50 90 58 91 51 92 53 93 59 94 52 95
REMARK SMILES IDX 54 96 55 97 56 98 57 99
REMARK H PARENT 79 52 47 63
REMARK Flexibility Score: inf
ROOT
ATOM      1  O   UNL     1      -8.669  -4.567  -1.664  1.00  0.00    -0.374 OA
ENDROOT
BRANCH   1   2
ATOM      2  C   UNL     1      -9.564  -3.656  -1.020  1.00  0.00     0.202 C 
BRANCH   2   3
ATOM      3  C   UNL     1      -9.096  -3.111   0.330  1.00  0.00     0.261 C 
BRANCH   3   4
ATOM      4  O   UNL     1      -7.978  -2.219   0.169  1.00  0.00    -0.463 OA
BRANCH   4   5
ATOM      5  C   UNL     1      -6.841  -2.579   0.811  1.00  0.00     0.309 C 
ATOM      6  O   UNL     1      -6.722  -3.547   1.554  1.00  0.00    -0.252 OA
BRANCH   5   7
ATOM      7  C   UNL     1      -5.684  -1.645   0.542  1.00  0.00     0.102 C 
ATOM      8  N   UNL     1      -4.047   0.701   0.262  1.00  0.00    -0.198 NA
ATOM      9  C   UNL     1      -4.396  -0.099  -0.938  1.00  0.00     0.103 C 
ATOM     10  C   UNL     1      -4.206   0.056   1.585  1.00  0.00     0.103 C 
ATOM     11  C   UNL     1      -5.715  -0.848  -0.760  1.00  0.00     0.032 C 
ATOM     12  C   UNL     1      -5.536  -0.668   1.699  1.00  0.00     0.032 C 
BRANCH   8  13
ATOM     13  S   UNL     1      -2.658   1.680   0.113  1.00  0.00     0.244 S 
ATOM     14  O   UNL     1      -2.512   2.474   1.315  1.00  0.00    -0.207 OA
ATOM     15  O   UNL     1      -2.646   2.276  -1.206  1.00  0.00    -0.207 OA
BRANCH  13  16
ATOM     16  C   UNL     1      -1.211   0.716   0.112  1.00  0.00     0.101 A 
ATOM     17  C   UNL     1       2.330   0.422  -0.472  1.00  0.00     0.150 C 
ATOM     18  N   UNL     1       0.946   0.192  -0.121  1.00  0.00    -0.345 N 
ATOM     19  C   UNL     1       0.065   1.233   0.045  1.00  0.00     0.107 A 
ATOM     20  C   UNL     1       0.270  -1.016  -0.079  1.00  0.00     0.108 A 
ATOM     21  C   UNL     1      -1.077  -0.691   0.093  1.00  0.00     0.055 A 
BRANCH  20  22
ATOM     22  C   UNL     1       0.767  -2.352  -0.388  1.00  0.00     0.270 C 
ATOM     23  O   UNL     1       0.061  -3.146  -1.012  1.00  0.00    -0.267 OA
ATOM     24  N   UNL     1       2.068  -2.702  -0.040  1.00  0.00    -0.337 N 
ATOM     25  C   UNL     1       2.790  -3.625  -0.909  1.00  0.00     0.120 C 
ATOM     26  C   UNL     1       2.745  -2.289   1.188  1.00  0.00     0.120 C 
ATOM     27  C   UNL     1       3.314  -4.839  -0.155  1.00  0.00     0.022 C 
ATOM     28  C   UNL     1       3.280  -3.497   1.962  1.00  0.00     0.022 C 
ATOM     29  C   UNL     1       4.121  -4.407   1.066  1.00  0.00     0.004 C 
ENDBRANCH  20  22
ENDBRANCH  13  16
ENDBRANCH   8  13
ENDBRANCH   5   7
ENDBRANCH   4   5
ENDBRANCH   3   4
ENDBRANCH   2   3
ENDBRANCH   1   2
BRANCH   1  30
ATOM     30  C   UNL     1      -7.541  -4.002  -2.331  1.00  0.00     0.202 C 
BRANCH  30  31
ATOM     31  C   UNL     1      -7.813  -3.382  -3.708  1.00  0.00     0.261 C 
BRANCH  31  32
ATOM     32  O   UNL     1      -8.641  -2.208  -3.623  1.00  0.00    -0.460 OA
BRANCH  32  33
ATOM     33  C   UNL     1      -9.873  -2.344  -4.174  1.00  0.00     0.338 C 
ATOM     34  O   UNL     1     -10.297  -3.308  -4.792  1.00  0.00    -0.246 OA
BRANCH  33  35
ATOM     35  C   UNL     1     -10.743  -1.218  -3.779  1.00  0.00     0.060 A 
ATOM     36  C   UNL     1     -11.997  -1.536  -3.241  1.00  0.00     0.016 A 
ATOM     37  C   UNL     1     -10.385   0.114  -4.000  1.00  0.00     0.016 A 
ATOM     38  C   UNL     1     -12.921  -0.528  -2.976  1.00  0.00     0.010 A 
ATOM     39  C   UNL     1     -11.319   1.125  -3.742  1.00  0.00     0.010 A 
ATOM     40  C   UNL     1     -12.604   0.805  -3.267  1.00  0.00    -0.014 A 
BRANCH  40  41
ATOM     41  C   UNL     1     -13.672   1.835  -3.210  1.00  0.00     0.031 A 
ATOM     42  C   UNL     1     -14.373   2.230  -4.482  1.00  0.00     0.074 A 
ATOM     43  C   UNL     1     -14.028   2.396  -2.041  1.00  0.00     0.049 A 
ATOM     44  N   UNL     1     -15.345   3.087  -4.658  1.00  0.00    -0.248 NA
ATOM     45  C   UNL     1     -13.920   1.573  -5.720  1.00  0.00     0.031 C 
ATOM     46  C   UNL     1     -13.425   2.099  -0.743  1.00  0.00     0.029 A 
ATOM     47  N   UNL     1     -14.976   3.349  -1.763  1.00  0.00    -0.354 N 
ATOM     48  C   UNL     1     -15.607   3.087  -6.023  1.00  0.00     0.074 A 
ATOM     49  C   UNL     1     -14.684   2.155  -6.633  1.00  0.00     0.031 C 
ATOM     50  C   UNL     1     -14.001   2.875   0.192  1.00  0.00     0.029 A 
ATOM     51  C   UNL     1     -15.003   3.730  -0.442  1.00  0.00     0.049 A 
ATOM     52  H   UNL     1     -15.580   3.724  -2.444  1.00  0.00     0.167 HD
ATOM     53  C   UNL     1     -16.546   3.784  -6.706  1.00  0.00     0.034 A 
ATOM     54  C   UNL     1     -15.743   4.670   0.180  1.00  0.00     0.034 A 
ATOM     55  C   UNL     1     -17.483   4.690  -6.100  1.00  0.00     0.049 A 
ATOM     56  C   UNL     1     -16.771   5.442  -0.608  1.00  0.00     0.074 A 
ATOM     57  C   UNL     1     -18.504   5.402  -6.705  1.00  0.00     0.029 A 
ATOM     58  N   UNL     1     -17.509   5.016  -4.754  1.00  0.00    -0.354 N 
ATOM     59  N   UNL     1     -17.099   5.328  -1.872  1.00  0.00    -0.248 NA
ATOM     60  C   UNL     1     -17.554   6.449   0.125  1.00  0.00     0.031 C 
ATOM     61  C   UNL     1     -19.140   6.171  -5.724  1.00  0.00     0.029 A 
ATOM     62  C   UNL     1     -18.522   5.927  -4.508  1.00  0.00     0.049 A 
ATOM     63  H   UNL     1     -16.898   4.654  -4.073  1.00  0.00     0.167 HD
ATOM     64  C   UNL     1     -18.148   6.219  -2.077  1.00  0.00     0.074 A 
ATOM     65  C   UNL     1     -18.413   6.853  -0.802  1.00  0.00     0.031 C 
ATOM     66  C   UNL     1     -18.818   6.502  -3.221  1.00  0.00     0.034 A 
BRANCH  53  67
ATOM     67  C   UNL     1     -16.639   3.560  -8.191  1.00  0.00     0.023 A 
ATOM     68  C   UNL     1     -17.238   2.380  -8.674  1.00  0.00     0.012 A 
ATOM     69  C   UNL     1     -16.198   4.538  -9.103  1.00  0.00     0.148 A 
ATOM     70  C   UNL     1     -17.379   2.166 -10.044  1.00  0.00     0.002 A 
ATOM     71  C   UNL     1     -16.374   4.333 -10.467  1.00  0.00     0.091 A 
ATOM     72  F   UNL     1     -15.607   5.641  -8.623  1.00  0.00    -0.205 F 
ATOM     73  C   UNL     1     -16.957   3.146 -10.939  1.00  0.00     0.022 A 
BRANCH  71  74
ATOM     74  S   UNL     1     -15.923   5.565 -11.694  1.00  0.00     0.127 S 
ATOM     75  O   UNL     1     -14.728   4.967 -12.287  1.00  0.00    -0.237 OA
ATOM     76  O   UNL     1     -17.097   5.576 -12.568  1.00  0.00    -0.237 OA
ATOM     77  O   UNL     1     -15.707   6.803 -10.958  1.00  0.00    -0.744 OA
ENDBRANCH  71  74
ENDBRANCH  53  67
BRANCH  54  78
ATOM     78  C   UNL     1     -15.575   4.902   1.642  1.00  0.00     0.023 A 
ATOM     79  C   UNL     1     -16.604   4.527   2.527  1.00  0.00     0.012 A 
ATOM     80  C   UNL     1     -14.400   5.479   2.161  1.00  0.00     0.148 A 
ATOM     81  C   UNL     1     -16.478   4.746   3.899  1.00  0.00     0.002 A 
ATOM     82  C   UNL     1     -14.259   5.646   3.534  1.00  0.00     0.091 A 
ATOM     83  F   UNL     1     -13.442   5.855   1.302  1.00  0.00    -0.205 F 
ATOM     84  C   UNL     1     -15.302   5.295   4.404  1.00  0.00     0.022 A 
BRANCH  82  85
ATOM     85  S   UNL     1     -12.726   6.226   4.270  1.00  0.00     0.127 S 
ATOM     86  O   UNL     1     -13.050   7.615   4.584  1.00  0.00    -0.237 OA
ATOM     87  O   UNL     1     -12.591   5.347   5.432  1.00  0.00    -0.237 OA
ATOM     88  O   UNL     1     -11.708   6.021   3.248  1.00  0.00    -0.744 OA
ENDBRANCH  82  85
ENDBRANCH  54  78
BRANCH  66  89
ATOM     89  C   UNL     1     -19.927   7.519  -3.154  1.00  0.00     0.023 A 
ATOM     90  C   UNL     1     -19.609   8.887  -3.051  1.00  0.00     0.012 A 
ATOM     91  C   UNL     1     -21.275   7.129  -3.281  1.00  0.00     0.148 A 
ATOM     92  C   UNL     1     -20.617   9.851  -3.051  1.00  0.00     0.002 A 
ATOM     93  C   UNL     1     -22.271   8.098  -3.323  1.00  0.00     0.091 A 
ATOM     94  F   UNL     1     -21.559   5.821  -3.358  1.00  0.00    -0.205 F 
ATOM     95  C   UNL     1     -21.945   9.458  -3.199  1.00  0.00     0.022 A 
BRANCH  93  96
ATOM     96  S   UNL     1     -23.997   7.683  -3.603  1.00  0.00     0.127 S 
ATOM     97  O   UNL     1     -24.554   7.798  -2.256  1.00  0.00    -0.237 OA
ATOM     98  O   UNL     1     -24.426   8.730  -4.531  1.00  0.00    -0.237 OA
ATOM     99  O   UNL     1     -23.995   6.342  -4.171  1.00  0.00    -0.744 OA
ENDBRANCH  93  96
ENDBRANCH  66  89
ENDBRANCH  40  41
ENDBRANCH  33  35
ENDBRANCH  32  33
ENDBRANCH  31  32
ENDBRANCH  30  31
ENDBRANCH   1  30
TORSDOF 20
