REMARK SMILES C[C@H](NC(=O)c1ccc(C(C)(C)C)cc1)C(=O)N[C@@H](C(=O)OCCOCCOC(=O)c1ccc(-c2c3nc(c(-c4cccc(S(=O)(=O)[O-])c4F)c4ccc([nH]4)c(-c4cccc(S(=O)(=O)[O-])c4F)c4nc(c(-c5cccc(S(=O)(=O)[O-])c5F)c5ccc2[nH]5)C=C4)C=C3)cc1)[C@H](C)O
REMARK SMILES IDX 24 1 23 2 22 3 20 4 21 5 19 6 18 7 16 8 17 9 2 11 1 12 3 13
REMARK SMILES IDX 4 14 5 16 6 17 7 18 15 19 8 20 14 21 9 22 10 23 11 24 12 25
REMARK SMILES IDX 13 26 94 27 95 28 96 29 25 31 26 32 27 33 28 34 29 35 30 36
REMARK SMILES IDX 31 37 32 38 93 39 33 40 92 41 34 42 35 43 36 44 86 45 37 46
REMARK SMILES IDX 91 47 85 48 87 49 38 50 90 51 84 52 83 53 39 55 71 56 51 57
REMARK SMILES IDX 70 58 52 59 55 60 69 61 88 62 53 63 54 64 68 66 89 67 56 68
REMARK SMILES IDX 40 69 41 70 49 71 42 72 44 73 50 74 43 75 45 76 46 77 47 78
REMARK SMILES IDX 48 79 72 80 73 81 81 82 74 83 76 84 82 85 75 86 77 87 78 88
REMARK SMILES IDX 79 89 80 90 57 91 58 92 66 93 59 94 61 95 67 96 60 97 62 98
REMARK SMILES IDX 63 99 64 100 65 101
REMARK H PARENT 18 10 3 15 96 30 87 54 55 65
REMARK Flexibility Score: inf
ROOT
ATOM      1  C   UNL     1       2.193   5.887  -4.079  1.00  0.00     0.202 C 
ENDROOT
BRANCH   1   2
ATOM      2  C   UNL     1       0.704   6.237  -3.983  1.00  0.00     0.261 C 
BRANCH   2   3
ATOM      3  O   UNL     1       0.081   5.440  -2.964  1.00  0.00    -0.462 OA
BRANCH   3   4
ATOM      4  C   UNL     1      -1.071   4.803  -3.319  1.00  0.00     0.331 C 
ATOM      5  O   UNL     1      -1.708   5.020  -4.342  1.00  0.00    -0.250 OA
BRANCH   4   6
ATOM      6  C   UNL     1      -1.454   3.737  -2.278  1.00  0.00     0.221 C 
BRANCH   6   7
ATOM      7  N   UNL     1      -0.564   3.678  -1.096  1.00  0.00    -0.339 N 
ATOM      8  C   UNL     1      -0.845   3.976   0.211  1.00  0.00     0.243 C 
ATOM      9  O   UNL     1      -0.025   3.647   1.069  1.00  0.00    -0.273 OA
ATOM     10  H   UNL     1       0.358   3.384  -1.274  1.00  0.00     0.164 HD
BRANCH   8  11
ATOM     11  C   UNL     1      -2.195   4.622   0.584  1.00  0.00     0.168 C 
ATOM     12  C   UNL     1      -3.318   3.594   0.412  1.00  0.00     0.041 C 
BRANCH  11  13
ATOM     13  N   UNL     1      -2.262   5.866  -0.198  1.00  0.00    -0.341 N 
ATOM     14  C   UNL     1      -3.276   6.698  -0.576  1.00  0.00     0.251 C 
ATOM     15  H   UNL     1      -1.381   6.165  -0.520  1.00  0.00     0.164 HD
ATOM     16  O   UNL     1      -3.033   7.654  -1.305  1.00  0.00    -0.269 OA
BRANCH  14  17
ATOM     17  C   UNL     1      -4.665   6.385  -0.221  1.00  0.00     0.039 A 
ATOM     18  C   UNL     1      -5.588   6.266  -1.257  1.00  0.00     0.014 A 
ATOM     19  C   UNL     1      -5.050   6.166   1.098  1.00  0.00     0.014 A 
ATOM     20  C   UNL     1      -6.877   5.813  -0.979  1.00  0.00     0.005 A 
ATOM     21  C   UNL     1      -6.338   5.696   1.367  1.00  0.00     0.005 A 
ATOM     22  C   UNL     1      -7.262   5.464   0.331  1.00  0.00    -0.043 A 
BRANCH  22  23
ATOM     23  C   UNL     1      -8.653   4.863   0.588  1.00  0.00    -0.013 C 
ATOM     24  C   UNL     1      -9.713   5.966   0.415  1.00  0.00     0.016 C 
ATOM     25  C   UNL     1      -8.938   3.717  -0.413  1.00  0.00     0.016 C 
ATOM     26  C   UNL     1      -8.810   4.259   2.001  1.00  0.00     0.016 C 
ENDBRANCH  22  23
ENDBRANCH  14  17
ENDBRANCH  11  13
ENDBRANCH   8  11
ENDBRANCH   6   7
BRANCH   6  27
ATOM     27  C   UNL     1      -1.679   2.330  -2.914  1.00  0.00     0.145 C 
ATOM     28  C   UNL     1      -1.317   1.145  -2.013  1.00  0.00     0.041 C 
BRANCH  27  29
ATOM     29  O   UNL     1      -0.996   2.142  -4.155  1.00  0.00    -0.391 OA
ATOM     30  H   UNL     1      -0.039   2.139  -4.000  1.00  0.00     0.211 HD
ENDBRANCH  27  29
ENDBRANCH   6  27
ENDBRANCH   4   6
ENDBRANCH   3   4
ENDBRANCH   2   3
ENDBRANCH   1   2
BRANCH   1  31
ATOM     31  O   UNL     1       2.510   4.562  -4.521  1.00  0.00    -0.374 OA
BRANCH  31  32
ATOM     32  C   UNL     1       2.248   3.483  -3.630  1.00  0.00     0.202 C 
BRANCH  32  33
ATOM     33  C   UNL     1       3.223   3.261  -2.468  1.00  0.00     0.261 C 
BRANCH  33  34
ATOM     34  O   UNL     1       3.369   4.418  -1.633  1.00  0.00    -0.460 OA
BRANCH  34  35
ATOM     35  C   UNL     1       4.572   5.027  -1.753  1.00  0.00     0.338 C 
ATOM     36  O   UNL     1       5.529   4.636  -2.416  1.00  0.00    -0.246 OA
BRANCH  35  37
ATOM     37  C   UNL     1       4.563   6.353  -1.116  1.00  0.00     0.060 A 
ATOM     38  C   UNL     1       4.965   7.434  -1.909  1.00  0.00     0.016 A 
ATOM     39  C   UNL     1       4.281   6.529   0.241  1.00  0.00     0.016 A 
ATOM     40  C   UNL     1       5.166   8.682  -1.331  1.00  0.00     0.010 A 
ATOM     41  C   UNL     1       4.488   7.787   0.821  1.00  0.00     0.010 A 
ATOM     42  C   UNL     1       4.981   8.854   0.047  1.00  0.00    -0.014 A 
BRANCH  42  43
ATOM     43  C   UNL     1       5.465  10.109   0.671  1.00  0.00     0.031 A 
ATOM     44  C   UNL     1       6.804  10.117   1.360  1.00  0.00     0.074 A 
ATOM     45  C   UNL     1       4.755  11.246   0.560  1.00  0.00     0.049 A 
ATOM     46  N   UNL     1       7.463  11.121   1.875  1.00  0.00    -0.248 NA
ATOM     47  C   UNL     1       7.495   8.822   1.480  1.00  0.00     0.031 C 
ATOM     48  C   UNL     1       3.446  11.363  -0.081  1.00  0.00     0.029 A 
ATOM     49  N   UNL     1       5.038  12.518   0.986  1.00  0.00    -0.354 N 
ATOM     50  C   UNL     1       8.634  10.582   2.395  1.00  0.00     0.074 A 
ATOM     51  C   UNL     1       8.588   9.157   2.151  1.00  0.00     0.031 C 
ATOM     52  C   UNL     1       3.033  12.639   0.004  1.00  0.00     0.029 A 
ATOM     53  C   UNL     1       4.042  13.425   0.711  1.00  0.00     0.049 A 
ATOM     54  H   UNL     1       5.875  12.759   1.445  1.00  0.00     0.167 HD
ATOM     55  C   UNL     1       9.666  11.217   2.999  1.00  0.00     0.034 A 
ATOM     56  C   UNL     1       3.957  14.739   0.997  1.00  0.00     0.034 A 
ATOM     57  C   UNL     1       9.721  12.637   3.220  1.00  0.00     0.049 A 
ATOM     58  C   UNL     1       5.120  15.422   1.667  1.00  0.00     0.074 A 
ATOM     59  C   UNL     1      10.741  13.381   3.787  1.00  0.00     0.029 A 
ATOM     60  N   UNL     1       8.712  13.528   2.891  1.00  0.00    -0.354 N 
ATOM     61  N   UNL     1       6.274  14.919   2.035  1.00  0.00    -0.248 NA
ATOM     62  C   UNL     1       4.988  16.864   1.921  1.00  0.00     0.031 C 
ATOM     63  C   UNL     1      10.338  14.721   3.820  1.00  0.00     0.029 A 
ATOM     64  C   UNL     1       9.079  14.814   3.248  1.00  0.00     0.049 A 
ATOM     65  H   UNL     1       7.858  13.282   2.466  1.00  0.00     0.167 HD
ATOM     66  C   UNL     1       7.018  15.987   2.526  1.00  0.00     0.074 A 
ATOM     67  C   UNL     1       6.191  17.168   2.390  1.00  0.00     0.031 C 
ATOM     68  C   UNL     1       8.268  15.988   3.054  1.00  0.00     0.034 A 
BRANCH  55  69
ATOM     69  C   UNL     1      10.841  10.382   3.435  1.00  0.00     0.023 A 
ATOM     70  C   UNL     1      11.731   9.873   2.466  1.00  0.00     0.012 A 
ATOM     71  C   UNL     1      11.097  10.146   4.800  1.00  0.00     0.148 A 
ATOM     72  C   UNL     1      12.840   9.119   2.847  1.00  0.00     0.002 A 
ATOM     73  C   UNL     1      12.228   9.429   5.174  1.00  0.00     0.091 A 
ATOM     74  F   UNL     1      10.227  10.617   5.704  1.00  0.00    -0.205 F 
ATOM     75  C   UNL     1      13.094   8.906   4.200  1.00  0.00     0.022 A 
BRANCH  73  76
ATOM     76  S   UNL     1      12.681   9.166   6.892  1.00  0.00     0.127 S 
ATOM     77  O   UNL     1      12.379   7.745   7.063  1.00  0.00    -0.237 OA
ATOM     78  O   UNL     1      14.108   9.489   6.889  1.00  0.00    -0.237 OA
ATOM     79  O   UNL     1      11.855  10.080   7.669  1.00  0.00    -0.744 OA
ENDBRANCH  73  76
ENDBRANCH  55  69
BRANCH  56  80
ATOM     80  C   UNL     1       2.745  15.508   0.597  1.00  0.00     0.023 A 
ATOM     81  C   UNL     1       2.834  16.465  -0.432  1.00  0.00     0.012 A 
ATOM     82  C   UNL     1       1.502  15.278   1.217  1.00  0.00     0.148 A 
ATOM     83  C   UNL     1       1.712  17.200  -0.817  1.00  0.00     0.002 A 
ATOM     84  C   UNL     1       0.377  15.976   0.793  1.00  0.00     0.091 A 
ATOM     85  F   UNL     1       1.443  14.377   2.208  1.00  0.00    -0.205 F 
ATOM     86  C   UNL     1       0.483  16.948  -0.213  1.00  0.00     0.022 A 
BRANCH  84  87
ATOM     87  S   UNL     1      -1.265  15.627   1.432  1.00  0.00     0.127 S 
ATOM     88  O   UNL     1      -1.512  16.795   2.274  1.00  0.00    -0.237 OA
ATOM     89  O   UNL     1      -2.062  15.571   0.206  1.00  0.00    -0.237 OA
ATOM     90  O   UNL     1      -1.149  14.354   2.131  1.00  0.00    -0.744 OA
ENDBRANCH  84  87
ENDBRANCH  56  80
BRANCH  68  91
ATOM     91  C   UNL     1       8.841  17.312   3.491  1.00  0.00     0.023 A 
ATOM     92  C   UNL     1       8.351  17.939   4.654  1.00  0.00     0.012 A 
ATOM     93  C   UNL     1       9.911  17.900   2.787  1.00  0.00     0.148 A 
ATOM     94  C   UNL     1       8.892  19.148   5.088  1.00  0.00     0.002 A 
ATOM     95  C   UNL     1      10.477  19.081   3.253  1.00  0.00     0.091 A 
ATOM     96  F   UNL     1      10.351  17.300   1.672  1.00  0.00    -0.205 F 
ATOM     97  C   UNL     1       9.961  19.713   4.396  1.00  0.00     0.022 A 
BRANCH  95  98
ATOM     98  S   UNL     1      11.917  19.823   2.476  1.00  0.00     0.127 S 
ATOM     99  O   UNL     1      11.317  20.922   1.722  1.00  0.00    -0.237 OA
ATOM    100  O   UNL     1      12.717  20.239   3.629  1.00  0.00    -0.237 OA
ATOM    101  O   UNL     1      12.523  18.767   1.676  1.00  0.00    -0.744 OA
ENDBRANCH  95  98
ENDBRANCH  68  91
ENDBRANCH  42  43
ENDBRANCH  35  37
ENDBRANCH  34  35
ENDBRANCH  33  34
ENDBRANCH  32  33
ENDBRANCH  31  32
ENDBRANCH   1  31
TORSDOF 24
