REMARK SMILES CC1(C)[C@H](C#N)C(SCC(=O)OCCOCCOC(=O)c2ccc(-c3c4nc(c(-c5cccc(S(=O)(=O)[O-])c5F)c5ccc([nH]5)c(-c5cccc(S(=O)(=O)[O-])c5F)c5nc(c(-c6cccc(S(=O)(=O)[O-])c6F)c6ccc3[nH]6)C=C5)C=C4)cc2)=NC(=O)[C@@H]1C#N
REMARK SMILES IDX 15 1 14 2 13 3 12 4 10 5 11 6 9 7 8 8 7 9 1 10 2 11 3 12
REMARK SMILES IDX 4 13 87 14 85 15 84 16 86 17 5 18 6 19 88 20 89 21 16 22
REMARK SMILES IDX 17 23 18 24 19 25 20 26 21 27 22 28 83 29 23 30 82 31 24 32
REMARK SMILES IDX 25 33 26 34 76 35 27 36 81 37 75 38 77 39 28 40 80 41 74 42
REMARK SMILES IDX 73 43 29 45 61 46 41 47 60 48 42 49 45 50 59 51 78 52 43 53
REMARK SMILES IDX 44 54 58 56 79 57 46 58 30 59 31 60 39 61 32 62 34 63 40 64
REMARK SMILES IDX 33 65 35 66 36 67 37 68 38 69 62 70 63 71 71 72 64 73 66 74
REMARK SMILES IDX 72 75 65 76 67 77 68 78 69 79 70 80 47 81 48 82 56 83 49 84
REMARK SMILES IDX 51 85 57 86 50 87 52 88 53 89 54 90 55 91
REMARK H PARENT 77 44 45 55
REMARK Flexibility Score: inf
ROOT
ATOM      1  O   UNL     1       1.423   4.495  -5.214  1.00  0.00    -0.374 OA
ENDROOT
BRANCH   1   2
ATOM      2  C   UNL     1       2.728   5.058  -5.074  1.00  0.00     0.202 C 
BRANCH   2   3
ATOM      3  C   UNL     1       2.840   6.351  -4.258  1.00  0.00     0.261 C 
BRANCH   3   4
ATOM      4  O   UNL     1       2.414   6.178  -2.895  1.00  0.00    -0.463 OA
BRANCH   4   5
ATOM      5  C   UNL     1       1.399   6.979  -2.467  1.00  0.00     0.316 C 
ATOM      6  O   UNL     1       0.867   7.848  -3.152  1.00  0.00    -0.251 OA
BRANCH   5   7
ATOM      7  C   UNL     1       0.924   6.689  -1.055  1.00  0.00     0.198 C 
BRANCH   7   8
ATOM      8  S   UNL     1       1.834   5.381  -0.189  1.00  0.00    -0.097 SA
BRANCH   8   9
ATOM      9  C   UNL     1       0.689   4.037  -0.076  1.00  0.00     0.095 C 
ATOM     10  C   UNL     1       1.244   0.382   0.408  1.00  0.00     0.015 C 
ATOM     11  C   UNL     1       0.279   1.571   0.694  1.00  0.00     0.012 C 
ATOM     12  C   UNL     1      -0.431   1.250   2.038  1.00  0.00     0.015 C 
ATOM     13  C   UNL     1       1.162   2.876   0.782  1.00  0.00     0.156 C 
ATOM     14  C   UNL     1      -0.756   1.646  -0.473  1.00  0.00     0.191 C 
ATOM     15  C   UNL     1      -1.311   3.047  -0.687  1.00  0.00     0.264 C 
ATOM     16  N   UNL     1      -0.413   4.086  -0.739  1.00  0.00    -0.209 NA
ATOM     17  O   UNL     1      -2.490   3.243  -0.957  1.00  0.00    -0.271 OA
BRANCH  13  18
ATOM     18  C   UNL     1       1.334   3.363   2.166  1.00  0.00     0.073 C 
ATOM     19  N   UNL     1       1.431   3.736   3.264  1.00  0.00    -0.198 NA
ENDBRANCH  13  18
BRANCH  14  20
ATOM     20  C   UNL     1      -1.861   0.675  -0.359  1.00  0.00     0.076 C 
ATOM     21  N   UNL     1      -2.699  -0.125  -0.256  1.00  0.00    -0.197 NA
ENDBRANCH  14  20
ENDBRANCH   8   9
ENDBRANCH   7   8
ENDBRANCH   5   7
ENDBRANCH   4   5
ENDBRANCH   3   4
ENDBRANCH   2   3
ENDBRANCH   1   2
BRANCH   1  22
ATOM     22  C   UNL     1       0.813   3.954  -4.049  1.00  0.00     0.202 C 
BRANCH  22  23
ATOM     23  C   UNL     1       1.444   2.685  -3.477  1.00  0.00     0.261 C 
BRANCH  23  24
ATOM     24  O   UNL     1       2.820   2.830  -3.112  1.00  0.00    -0.460 OA
BRANCH  24  25
ATOM     25  C   UNL     1       3.607   1.825  -3.567  1.00  0.00     0.338 C 
ATOM     26  O   UNL     1       3.247   0.782  -4.084  1.00  0.00    -0.246 OA
BRANCH  25  27
ATOM     27  C   UNL     1       5.019   2.208  -3.456  1.00  0.00     0.060 A 
ATOM     28  C   UNL     1       5.712   2.487  -4.638  1.00  0.00     0.016 A 
ATOM     29  C   UNL     1       5.675   2.158  -2.226  1.00  0.00     0.016 A 
ATOM     30  C   UNL     1       7.091   2.662  -4.599  1.00  0.00     0.010 A 
ATOM     31  C   UNL     1       7.059   2.337  -2.190  1.00  0.00     0.010 A 
ATOM     32  C   UNL     1       7.775   2.545  -3.382  1.00  0.00    -0.014 A 
BRANCH  32  33
ATOM     33  C   UNL     1       9.255   2.505  -3.386  1.00  0.00     0.031 A 
ATOM     34  C   UNL     1       9.952   1.177  -3.269  1.00  0.00     0.074 A 
ATOM     35  C   UNL     1       9.960   3.642  -3.515  1.00  0.00     0.049 A 
ATOM     36  N   UNL     1      11.231   0.912  -3.276  1.00  0.00    -0.248 NA
ATOM     37  C   UNL     1       9.094  -0.012  -3.123  1.00  0.00     0.031 C 
ATOM     38  C   UNL     1       9.382   4.981  -3.629  1.00  0.00     0.029 A 
ATOM     39  N   UNL     1      11.313   3.853  -3.556  1.00  0.00    -0.354 N 
ATOM     40  C   UNL     1      11.335  -0.464  -3.110  1.00  0.00     0.074 A 
ATOM     41  C   UNL     1       9.989  -0.980  -2.990  1.00  0.00     0.031 C 
ATOM     42  C   UNL     1      10.378   5.879  -3.712  1.00  0.00     0.029 A 
ATOM     43  C   UNL     1      11.659   5.181  -3.635  1.00  0.00     0.049 A 
ATOM     44  H   UNL     1      11.974   3.124  -3.531  1.00  0.00     0.167 HD
ATOM     45  C   UNL     1      12.451  -1.229  -3.078  1.00  0.00     0.034 A 
ATOM     46  C   UNL     1      12.874   5.763  -3.633  1.00  0.00     0.034 A 
ATOM     47  C   UNL     1      13.783  -0.707  -3.221  1.00  0.00     0.049 A 
ATOM     48  C   UNL     1      14.098   4.889  -3.590  1.00  0.00     0.074 A 
ATOM     49  C   UNL     1      14.980  -1.399  -3.255  1.00  0.00     0.029 A 
ATOM     50  N   UNL     1      14.095   0.639  -3.340  1.00  0.00    -0.354 N 
ATOM     51  N   UNL     1      14.177   3.580  -3.559  1.00  0.00    -0.248 NA
ATOM     52  C   UNL     1      15.401   5.568  -3.619  1.00  0.00     0.031 C 
ATOM     53  C   UNL     1      16.018  -0.468  -3.368  1.00  0.00     0.029 A 
ATOM     54  C   UNL     1      15.465   0.801  -3.435  1.00  0.00     0.049 A 
ATOM     55  H   UNL     1      13.437   1.371  -3.355  1.00  0.00     0.167 HD
ATOM     56  C   UNL     1      15.533   3.277  -3.599  1.00  0.00     0.074 A 
ATOM     57  C   UNL     1      16.238   4.541  -3.678  1.00  0.00     0.031 C 
ATOM     58  C   UNL     1      16.143   2.067  -3.562  1.00  0.00     0.034 A 
BRANCH  45  59
ATOM     59  C   UNL     1      12.280  -2.716  -2.905  1.00  0.00     0.023 A 
ATOM     60  C   UNL     1      11.782  -3.491  -3.972  1.00  0.00     0.012 A 
ATOM     61  C   UNL     1      12.663  -3.352  -1.709  1.00  0.00     0.148 A 
ATOM     62  C   UNL     1      11.640  -4.872  -3.841  1.00  0.00     0.002 A 
ATOM     63  C   UNL     1      12.559  -4.734  -1.600  1.00  0.00     0.091 A 
ATOM     64  F   UNL     1      13.111  -2.595  -0.697  1.00  0.00    -0.205 F 
ATOM     65  C   UNL     1      12.038  -5.494  -2.661  1.00  0.00     0.022 A 
BRANCH  63  66
ATOM     66  S   UNL     1      13.110  -5.637  -0.148  1.00  0.00     0.127 S 
ATOM     67  O   UNL     1      11.839  -6.079   0.423  1.00  0.00    -0.237 OA
ATOM     68  O   UNL     1      13.918  -6.704  -0.739  1.00  0.00    -0.237 OA
ATOM     69  O   UNL     1      13.858  -4.683   0.658  1.00  0.00    -0.744 OA
ENDBRANCH  63  66
ENDBRANCH  45  59
BRANCH  46  70
ATOM     70  C   UNL     1      12.986   7.247  -3.718  1.00  0.00     0.023 A 
ATOM     71  C   UNL     1      13.502   7.841  -4.885  1.00  0.00     0.012 A 
ATOM     72  C   UNL     1      12.555   8.071  -2.660  1.00  0.00     0.148 A 
ATOM     73  C   UNL     1      13.613   9.229  -4.987  1.00  0.00     0.002 A 
ATOM     74  C   UNL     1      12.615   9.453  -2.790  1.00  0.00     0.091 A 
ATOM     75  F   UNL     1      12.082   7.485  -1.551  1.00  0.00    -0.205 F 
ATOM     76  C   UNL     1      13.159  10.034  -3.946  1.00  0.00     0.022 A 
BRANCH  74  77
ATOM     77  S   UNL     1      11.928  10.564  -1.557  1.00  0.00     0.127 S 
ATOM     78  O   UNL     1      13.135  11.134  -0.964  1.00  0.00    -0.237 OA
ATOM     79  O   UNL     1      11.150  11.488  -2.383  1.00  0.00    -0.237 OA
ATOM     80  O   UNL     1      11.124   9.725  -0.679  1.00  0.00    -0.744 OA
ENDBRANCH  74  77
ENDBRANCH  46  70
BRANCH  58  81
ATOM     81  C   UNL     1      17.646   2.041  -3.640  1.00  0.00     0.023 A 
ATOM     82  C   UNL     1      18.414   2.451  -2.533  1.00  0.00     0.012 A 
ATOM     83  C   UNL     1      18.295   1.535  -4.784  1.00  0.00     0.148 A 
ATOM     84  C   UNL     1      19.806   2.389  -2.574  1.00  0.00     0.002 A 
ATOM     85  C   UNL     1      19.680   1.429  -4.799  1.00  0.00     0.091 A 
ATOM     86  F   UNL     1      17.547   1.167  -5.834  1.00  0.00    -0.205 F 
ATOM     87  C   UNL     1      20.438   1.866  -3.700  1.00  0.00     0.022 A 
BRANCH  85  88
ATOM     88  S   UNL     1      20.572   0.677  -6.165  1.00  0.00     0.127 S 
ATOM     89  O   UNL     1      21.185   1.843  -6.798  1.00  0.00    -0.237 OA
ATOM     90  O   UNL     1      21.511  -0.207  -5.475  1.00  0.00    -0.237 OA
ATOM     91  O   UNL     1      19.569  -0.014  -6.965  1.00  0.00    -0.744 OA
ENDBRANCH  85  88
ENDBRANCH  58  81
ENDBRANCH  32  33
ENDBRANCH  25  27
ENDBRANCH  24  25
ENDBRANCH  23  24
ENDBRANCH  22  23
ENDBRANCH   1  22
TORSDOF 21
