REMARK SMILES Cc1ccc(C2=NN(C(=O)CCC(=O)OCCOCCOC(=O)c3ccc(-c4c5nc(c(-c6cccc(S(=O)(=O)[O-])c6F)c6ccc([nH]6)c(-c6cccc(S(=O)(=O)[O-])c6F)c6nc(c(-c7cccc(S(=O)(=O)[O-])c7F)c7ccc4[nH]7)C=C6)C=C5)cc3)[C@H](C[C@H]3C=c4cccc(C)c4=NC3=O)C2)cc1
REMARK SMILES IDX 17 1 16 2 15 3 13 4 14 5 12 6 11 7 9 8 10 9 8 10 6 11 7 12
REMARK SMILES IDX 101 13 87 14 5 15 1 16 2 17 3 18 103 19 4 20 102 21 88 22
REMARK SMILES IDX 89 23 90 24 99 25 91 26 98 27 100 28 92 29 97 30 93 31 95 32
REMARK SMILES IDX 94 33 96 34 18 35 19 36 20 37 21 38 22 39 23 40 24 41 25 42
REMARK SMILES IDX 86 43 26 44 85 45 27 46 28 47 29 48 79 49 30 50 84 51 78 52
REMARK SMILES IDX 80 53 31 54 83 55 77 56 76 57 32 59 64 60 44 61 63 62 45 63
REMARK SMILES IDX 48 64 62 65 81 66 46 67 47 68 61 70 82 71 49 72 33 73 34 74
REMARK SMILES IDX 42 75 35 76 37 77 43 78 36 79 38 80 39 81 40 82 41 83 65 84
REMARK SMILES IDX 66 85 74 86 67 87 69 88 75 89 68 90 70 91 71 92 72 93 73 94
REMARK SMILES IDX 50 95 51 96 59 97 52 98 54 99 60 100 53 101 55 102 56 103
REMARK SMILES IDX 57 104 58 105
REMARK H PARENT 80 58 48 69
REMARK Flexibility Score: inf
ROOT
ATOM      1  C   UNL     1      -8.445   1.469  -1.669  1.00  0.00     0.202 C 
ENDROOT
BRANCH   1   2
ATOM      2  C   UNL     1      -7.895   2.367  -0.593  1.00  0.00     0.261 C 
BRANCH   2   3
ATOM      3  O   UNL     1      -7.554   1.624   0.560  1.00  0.00    -0.463 OA
BRANCH   3   4
ATOM      4  C   UNL     1      -8.571   1.568   1.458  1.00  0.00     0.306 C 
ATOM      5  O   UNL     1      -9.594   2.188   1.431  1.00  0.00    -0.252 OA
BRANCH   4   6
ATOM      6  C   UNL     1      -8.221   0.566   2.520  1.00  0.00     0.132 C 
BRANCH   6   7
ATOM      7  C   UNL     1      -7.439  -0.627   2.002  1.00  0.00     0.114 C 
BRANCH   7   8
ATOM      8  C   UNL     1      -5.913  -0.503   1.735  1.00  0.00     0.243 C 
ATOM      9  O   UNL     1      -5.247  -0.582   2.788  1.00  0.00    -0.273 OA
BRANCH   8  10
ATOM     10  N   UNL     1      -5.261  -0.601   0.458  1.00  0.00    -0.230 N 
ATOM     11  C   UNL     1      -3.189  -0.971  -0.300  1.00  0.00     0.070 C 
ATOM     12  N   UNL     1      -4.001  -1.318   0.633  1.00  0.00    -0.174 NA
ATOM     13  C   UNL     1      -3.819  -0.025  -1.282  1.00  0.00     0.086 C 
ATOM     14  C   UNL     1      -5.467  -0.047  -1.283  1.00  0.00     0.118 C 
BRANCH  11  15
ATOM     15  C   UNL     1      -1.660  -1.237  -0.364  1.00  0.00    -0.002 A 
ATOM     16  C   UNL     1       2.678  -0.813   0.141  1.00  0.00     0.044 C 
ATOM     17  C   UNL     1       1.200  -1.026  -0.036  1.00  0.00    -0.051 A 
ATOM     18  C   UNL     1       0.504  -2.200   0.299  1.00  0.00     0.004 A 
ATOM     19  C   UNL     1       0.474  -0.021  -0.643  1.00  0.00     0.004 A 
ATOM     20  C   UNL     1      -0.925  -2.285   0.195  1.00  0.00     0.010 A 
ATOM     21  C   UNL     1      -0.888  -0.198  -0.900  1.00  0.00     0.010 A 
ENDBRANCH  11  15
BRANCH  14  22
ATOM     22  C   UNL     1      -6.760  -0.884  -2.672  1.00  0.00     0.045 C 
BRANCH  22  23
ATOM     23  C   UNL     1      -7.234  -2.776  -2.877  1.00  0.00     0.106 C 
ATOM     24  C   UNL     1      -6.920  -3.893  -1.747  1.00  0.00    -0.003 C 
ATOM     25  C   UNL     1      -8.700  -3.083  -3.369  1.00  0.00     0.253 C 
ATOM     26  C   UNL     1      -7.872  -4.391  -0.946  1.00  0.00    -0.003 A 
ATOM     27  N   UNL     1      -9.483  -4.082  -2.764  1.00  0.00    -0.212 NA
ATOM     28  O   UNL     1      -9.157  -2.414  -4.296  1.00  0.00    -0.272 OA
ATOM     29  C   UNL     1      -7.773  -4.622   0.493  1.00  0.00     0.010 A 
ATOM     30  C   UNL     1      -9.134  -4.647  -1.651  1.00  0.00     0.077 A 
ATOM     31  C   UNL     1      -8.769  -5.236   1.146  1.00  0.00     0.001 A 
ATOM     32  C   UNL     1      -9.902  -5.759  -0.953  1.00  0.00    -0.025 A 
ATOM     33  C   UNL     1      -9.744  -5.963   0.373  1.00  0.00     0.005 A 
ATOM     34  C   UNL     1     -10.543  -6.790  -1.814  1.00  0.00     0.047 C 
ENDBRANCH  22  23
ENDBRANCH  14  22
ENDBRANCH   8  10
ENDBRANCH   7   8
ENDBRANCH   6   7
ENDBRANCH   4   6
ENDBRANCH   3   4
ENDBRANCH   2   3
ENDBRANCH   1   2
BRANCH   1  35
ATOM     35  O   UNL     1      -9.100   0.331  -1.114  1.00  0.00    -0.374 OA
BRANCH  35  36
ATOM     36  C   UNL     1      -8.674  -1.070  -1.116  1.00  0.00     0.202 C 
BRANCH  36  37
ATOM     37  C   UNL     1      -7.039  -1.624  -0.746  1.00  0.00     0.261 C 
BRANCH  37  38
ATOM     38  O   UNL     1      -5.470  -1.992  -1.769  1.00  0.00    -0.460 OA
BRANCH  38  39
ATOM     39  C   UNL     1      -4.629  -1.468  -3.165  1.00  0.00     0.338 C 
ATOM     40  O   UNL     1      -3.927  -2.337  -3.684  1.00  0.00    -0.246 OA
BRANCH  39  41
ATOM     41  C   UNL     1      -4.557   0.249  -3.846  1.00  0.00     0.060 A 
ATOM     42  C   UNL     1      -3.424   1.083  -3.686  1.00  0.00     0.016 A 
ATOM     43  C   UNL     1      -5.648   1.078  -4.196  1.00  0.00     0.016 A 
ATOM     44  C   UNL     1      -3.548   2.451  -3.188  1.00  0.00     0.010 A 
ATOM     45  C   UNL     1      -5.779   2.427  -3.719  1.00  0.00     0.010 A 
ATOM     46  C   UNL     1      -4.779   3.062  -2.977  1.00  0.00    -0.014 A 
BRANCH  46  47
ATOM     47  C   UNL     1      -5.130   4.223  -2.031  1.00  0.00     0.031 A 
ATOM     48  C   UNL     1      -5.855   5.471  -2.565  1.00  0.00     0.074 A 
ATOM     49  C   UNL     1      -5.194   4.134  -0.645  1.00  0.00     0.049 A 
ATOM     50  N   UNL     1      -6.274   6.454  -1.818  1.00  0.00    -0.248 NA
ATOM     51  C   UNL     1      -6.168   5.723  -3.972  1.00  0.00     0.031 C 
ATOM     52  C   UNL     1      -6.279   4.802   0.120  1.00  0.00     0.029 A 
ATOM     53  N   UNL     1      -4.599   3.387   0.400  1.00  0.00    -0.354 N 
ATOM     54  C   UNL     1      -7.212   7.174  -2.517  1.00  0.00     0.074 A 
ATOM     55  C   UNL     1      -6.952   6.814  -3.890  1.00  0.00     0.031 C 
ATOM     56  C   UNL     1      -6.180   4.575   1.425  1.00  0.00     0.029 A 
ATOM     57  C   UNL     1      -4.911   3.958   1.669  1.00  0.00     0.049 A 
ATOM     58  H   UNL     1      -4.046   2.584   0.269  1.00  0.00     0.167 HD
ATOM     59  C   UNL     1      -8.188   7.883  -1.866  1.00  0.00     0.034 A 
ATOM     60  C   UNL     1      -4.227   4.210   2.837  1.00  0.00     0.034 A 
ATOM     61  C   UNL     1      -8.053   7.891  -0.392  1.00  0.00     0.049 A 
ATOM     62  C   UNL     1      -4.416   5.638   3.313  1.00  0.00     0.074 A 
ATOM     63  C   UNL     1      -8.836   7.465   0.671  1.00  0.00     0.029 A 
ATOM     64  N   UNL     1      -6.871   8.343   0.180  1.00  0.00    -0.354 N 
ATOM     65  N   UNL     1      -5.471   6.377   3.129  1.00  0.00    -0.248 NA
ATOM     66  C   UNL     1      -3.250   6.402   3.763  1.00  0.00     0.031 C 
ATOM     67  C   UNL     1      -8.092   7.649   1.880  1.00  0.00     0.029 A 
ATOM     68  C   UNL     1      -6.882   8.247   1.567  1.00  0.00     0.049 A 
ATOM     69  H   UNL     1      -6.111   8.692  -0.338  1.00  0.00     0.167 HD
ATOM     70  C   UNL     1      -5.005   7.660   2.947  1.00  0.00     0.074 A 
ATOM     71  C   UNL     1      -3.613   7.618   3.361  1.00  0.00     0.031 C 
ATOM     72  C   UNL     1      -5.688   8.655   2.307  1.00  0.00     0.034 A 
BRANCH  59  73
ATOM     73  C   UNL     1      -9.376   8.571  -2.543  1.00  0.00     0.023 A 
ATOM     74  C   UNL     1     -10.075   9.563  -1.812  1.00  0.00     0.012 A 
ATOM     75  C   UNL     1      -9.880   8.291  -3.835  1.00  0.00     0.148 A 
ATOM     76  C   UNL     1     -11.172  10.260  -2.342  1.00  0.00     0.002 A 
ATOM     77  C   UNL     1     -10.913   9.051  -4.399  1.00  0.00     0.091 A 
ATOM     78  F   UNL     1      -9.440   7.216  -4.499  1.00  0.00    -0.205 F 
ATOM     79  C   UNL     1     -11.571  10.030  -3.651  1.00  0.00     0.022 A 
BRANCH  77  80
ATOM     80  S   UNL     1     -11.405   8.869  -6.125  1.00  0.00     0.127 S 
ATOM     81  O   UNL     1     -12.713   8.225  -6.009  1.00  0.00    -0.237 OA
ATOM     82  O   UNL     1     -11.450  10.255  -6.592  1.00  0.00    -0.237 OA
ATOM     83  O   UNL     1     -10.365   8.061  -6.752  1.00  0.00    -0.744 OA
ENDBRANCH  77  80
ENDBRANCH  59  73
BRANCH  60  84
ATOM     84  C   UNL     1      -2.940   3.522   3.123  1.00  0.00     0.023 A 
ATOM     85  C   UNL     1      -3.110   2.183   3.484  1.00  0.00     0.012 A 
ATOM     86  C   UNL     1      -1.893   3.911   2.284  1.00  0.00     0.148 A 
ATOM     87  C   UNL     1      -2.631   1.248   2.597  1.00  0.00     0.002 A 
ATOM     88  C   UNL     1      -1.509   3.023   1.333  1.00  0.00     0.091 A 
ATOM     89  F   UNL     1      -1.496   5.186   2.219  1.00  0.00    -0.205 F 
ATOM     90  C   UNL     1      -1.959   1.711   1.467  1.00  0.00     0.022 A 
BRANCH  88  91
ATOM     91  S   UNL     1      -0.885   3.705  -0.203  1.00  0.00     0.127 S 
ATOM     92  O   UNL     1       0.547   3.782   0.049  1.00  0.00    -0.237 OA
ATOM     93  O   UNL     1      -1.280   2.705  -1.182  1.00  0.00    -0.237 OA
ATOM     94  O   UNL     1      -1.598   4.963  -0.369  1.00  0.00    -0.744 OA
ENDBRANCH  88  91
ENDBRANCH  60  84
BRANCH  72  95
ATOM     95  C   UNL     1      -5.142  10.077   2.286  1.00  0.00     0.023 A 
ATOM     96  C   UNL     1      -4.224  10.514   3.273  1.00  0.00     0.012 A 
ATOM     97  C   UNL     1      -5.580  11.062   1.378  1.00  0.00     0.148 A 
ATOM     98  C   UNL     1      -3.606  11.763   3.236  1.00  0.00     0.002 A 
ATOM     99  C   UNL     1      -5.048  12.349   1.412  1.00  0.00     0.091 A 
ATOM    100  F   UNL     1      -6.540  10.774   0.495  1.00  0.00    -0.205 F 
ATOM    101  C   UNL     1      -4.017  12.684   2.296  1.00  0.00     0.022 A 
BRANCH  99 102
ATOM    102  S   UNL     1      -5.726  13.696   0.438  1.00  0.00     0.127 S 
ATOM    103  O   UNL     1      -6.214  14.591   1.489  1.00  0.00    -0.237 OA
ATOM    104  O   UNL     1      -4.543  14.179  -0.274  1.00  0.00    -0.237 OA
ATOM    105  O   UNL     1      -6.762  13.115  -0.401  1.00  0.00    -0.744 OA
ENDBRANCH  99 102
ENDBRANCH  72  95
ENDBRANCH  46  47
ENDBRANCH  39  41
ENDBRANCH  38  39
ENDBRANCH  37  38
ENDBRANCH  36  37
ENDBRANCH  35  36
ENDBRANCH   1  35
TORSDOF 23
