REMARK SMILES CC(=O)[C@@H]1CCCC[N@H+]1CC(C)(C)C(=O)OCCOCCOC(=O)c1ccc(-c2c3nc(c(-c4cccc(S(=O)(=O)[O-])c4F)c4ccc([nH]4)c(-c4cccc(S(=O)(=O)[O-])c4F)c4nc(c(-c5cccc(S(=O)(=O)[O-])c5F)c5ccc2[nH]5)C=C4)C=C3)cc1
REMARK SMILES IDX 19 1 18 2 17 3 16 4 14 5 15 6 11 7 12 8 13 9 10 10 9 11 4 12
REMARK SMILES IDX 5 13 6 14 8 15 7 17 2 18 1 19 3 20 20 21 21 22 22 23 23 24
REMARK SMILES IDX 24 25 25 26 26 27 87 28 27 29 86 30 28 31 29 32 30 33 80 34
REMARK SMILES IDX 31 35 85 36 79 37 81 38 32 39 84 40 78 41 77 42 33 44 65 45
REMARK SMILES IDX 45 46 64 47 46 48 49 49 63 50 82 51 47 52 48 53 62 55 83 56
REMARK SMILES IDX 50 57 34 58 35 59 43 60 36 61 38 62 44 63 37 64 39 65 40 66
REMARK SMILES IDX 41 67 42 68 66 69 67 70 75 71 68 72 70 73 76 74 69 75 71 76
REMARK SMILES IDX 72 77 73 78 74 79 51 80 52 81 60 82 53 83 55 84 61 85 54 86
REMARK SMILES IDX 56 87 57 88 58 89 59 90
REMARK H PARENT 9 16 81 43 49 54
REMARK Flexibility Score: inf
ROOT
ATOM      1  O   UNL     1       2.946   6.613   4.189  1.00  0.00    -0.374 OA
ENDROOT
BRANCH   1   2
ATOM      2  C   UNL     1       4.190   6.170   4.719  1.00  0.00     0.202 C 
BRANCH   2   3
ATOM      3  C   UNL     1       4.789   4.845   4.218  1.00  0.00     0.261 C 
BRANCH   3   4
ATOM      4  O   UNL     1       4.450   4.550   2.859  1.00  0.00    -0.463 OA
BRANCH   4   5
ATOM      5  C   UNL     1       3.634   3.480   2.670  1.00  0.00     0.317 C 
ATOM      6  O   UNL     1       3.304   2.702   3.560  1.00  0.00    -0.251 OA
BRANCH   5   7
ATOM      7  C   UNL     1       3.186   3.320   1.214  1.00  0.00     0.111 C 
ATOM      8  C   UNL     1       3.670   1.923   0.792  1.00  0.00     0.029 C 
ATOM      9  C   UNL     1       3.896   4.303   0.243  1.00  0.00     0.029 C 
BRANCH   7  10
ATOM     10  C   UNL     1       1.639   3.564   1.044  1.00  0.00     0.281 C 
BRANCH  10  11
ATOM     11  N   UNL     1       0.562   2.912   1.819  1.00  0.00    -0.325 N 
ATOM     12  C   UNL     1       0.551   1.440   1.793  1.00  0.00     0.251 C 
ATOM     13  C   UNL     1      -0.531   0.797   2.674  1.00  0.00     0.074 C 
ATOM     14  C   UNL     1      -0.537   1.394   4.070  1.00  0.00     0.012 C 
ATOM     15  C   UNL     1       0.300   3.555   3.110  1.00  0.00     0.262 C 
ATOM     16  H   UNL     1      -0.287   3.101   1.287  1.00  0.00     0.348 HD
ATOM     17  C   UNL     1      -0.788   2.886   3.951  1.00  0.00     0.062 C 
BRANCH  12  18
ATOM     18  C   UNL     1       0.289   0.937   0.354  1.00  0.00     0.186 C 
ATOM     19  C   UNL     1       0.920  -0.378  -0.027  1.00  0.00     0.094 C 
ATOM     20  O   UNL     1      -0.443   1.521  -0.451  1.00  0.00    -0.293 OA
ENDBRANCH  12  18
ENDBRANCH  10  11
ENDBRANCH   7  10
ENDBRANCH   5   7
ENDBRANCH   4   5
ENDBRANCH   3   4
ENDBRANCH   2   3
ENDBRANCH   1   2
BRANCH   1  21
ATOM     21  C   UNL     1       2.868   6.928   2.800  1.00  0.00     0.202 C 
BRANCH  21  22
ATOM     22  C   UNL     1       3.868   7.912   2.173  1.00  0.00     0.261 C 
BRANCH  22  23
ATOM     23  O   UNL     1       5.235   7.478   2.271  1.00  0.00    -0.460 OA
BRANCH  23  24
ATOM     24  C   UNL     1       6.052   8.336   2.934  1.00  0.00     0.338 C 
ATOM     25  O   UNL     1       5.762   9.427   3.388  1.00  0.00    -0.246 OA
BRANCH  24  26
ATOM     26  C   UNL     1       7.328   7.668   3.244  1.00  0.00     0.060 A 
ATOM     27  C   UNL     1       7.654   7.496   4.597  1.00  0.00     0.016 A 
ATOM     28  C   UNL     1       8.228   7.309   2.241  1.00  0.00     0.016 A 
ATOM     29  C   UNL     1       8.900   6.996   4.955  1.00  0.00     0.010 A 
ATOM     30  C   UNL     1       9.488   6.825   2.603  1.00  0.00     0.010 A 
ATOM     31  C   UNL     1       9.840   6.705   3.961  1.00  0.00    -0.014 A 
BRANCH  31  32
ATOM     32  C   UNL     1      11.244   6.452   4.356  1.00  0.00     0.031 A 
ATOM     33  C   UNL     1      12.232   7.581   4.263  1.00  0.00     0.074 A 
ATOM     34  C   UNL     1      11.623   5.246   4.813  1.00  0.00     0.049 A 
ATOM     35  N   UNL     1      13.510   7.587   4.536  1.00  0.00    -0.248 NA
ATOM     36  C   UNL     1      11.710   8.879   3.800  1.00  0.00     0.031 C 
ATOM     37  C   UNL     1      10.745   4.086   4.963  1.00  0.00     0.029 A 
ATOM     38  N   UNL     1      12.854   4.792   5.212  1.00  0.00    -0.354 N 
ATOM     39  C   UNL     1      13.953   8.871   4.241  1.00  0.00     0.074 A 
ATOM     40  C   UNL     1      12.809   9.618   3.768  1.00  0.00     0.031 C 
ATOM     41  C   UNL     1      11.474   3.041   5.390  1.00  0.00     0.029 A 
ATOM     42  C   UNL     1      12.871   3.452   5.516  1.00  0.00     0.049 A 
ATOM     43  H   UNL     1      13.648   5.371   5.276  1.00  0.00     0.167 HD
ATOM     44  C   UNL     1      15.200   9.382   4.362  1.00  0.00     0.034 A 
ATOM     45  C   UNL     1      13.905   2.645   5.828  1.00  0.00     0.034 A 
ATOM     46  C   UNL     1      16.327   8.639   4.855  1.00  0.00     0.049 A 
ATOM     47  C   UNL     1      15.287   3.237   5.933  1.00  0.00     0.074 A 
ATOM     48  C   UNL     1      17.619   9.080   5.071  1.00  0.00     0.029 A 
ATOM     49  N   UNL     1      16.301   7.294   5.189  1.00  0.00    -0.354 N 
ATOM     50  N   UNL     1      15.669   4.481   5.769  1.00  0.00    -0.248 NA
ATOM     51  C   UNL     1      16.377   2.320   6.299  1.00  0.00     0.031 C 
ATOM     52  C   UNL     1      18.385   7.991   5.499  1.00  0.00     0.029 A 
ATOM     53  C   UNL     1      17.559   6.882   5.590  1.00  0.00     0.049 A 
ATOM     54  H   UNL     1      15.504   6.716   5.147  1.00  0.00     0.167 HD
ATOM     55  C   UNL     1      17.031   4.503   6.049  1.00  0.00     0.074 A 
ATOM     56  C   UNL     1      17.404   3.151   6.412  1.00  0.00     0.031 C 
ATOM     57  C   UNL     1      17.900   5.544   5.999  1.00  0.00     0.034 A 
BRANCH  44  58
ATOM     58  C   UNL     1      15.415  10.816   3.956  1.00  0.00     0.023 A 
ATOM     59  C   UNL     1      14.914  11.860   4.759  1.00  0.00     0.012 A 
ATOM     60  C   UNL     1      16.169  11.127   2.808  1.00  0.00     0.148 A 
ATOM     61  C   UNL     1      15.136  13.192   4.410  1.00  0.00     0.002 A 
ATOM     62  C   UNL     1      16.427  12.455   2.492  1.00  0.00     0.091 A 
ATOM     63  F   UNL     1      16.615  10.119   2.045  1.00  0.00    -0.205 F 
ATOM     64  C   UNL     1      15.902  13.489   3.285  1.00  0.00     0.022 A 
BRANCH  62  65
ATOM     65  S   UNL     1      17.468  12.937   1.111  1.00  0.00     0.127 S 
ATOM     66  O   UNL     1      16.494  13.545   0.205  1.00  0.00    -0.237 OA
ATOM     67  O   UNL     1      18.390  13.883   1.739  1.00  0.00    -0.237 OA
ATOM     68  O   UNL     1      18.088  11.712   0.627  1.00  0.00    -0.744 OA
ENDBRANCH  62  65
ENDBRANCH  44  58
BRANCH  45  69
ATOM     69  C   UNL     1      13.673   1.194   6.077  1.00  0.00     0.023 A 
ATOM     70  C   UNL     1      13.861   0.667   7.370  1.00  0.00     0.012 A 
ATOM     71  C   UNL     1      13.265   0.335   5.038  1.00  0.00     0.148 A 
ATOM     72  C   UNL     1      13.683  -0.695   7.614  1.00  0.00     0.002 A 
ATOM     73  C   UNL     1      13.032  -1.009   5.301  1.00  0.00     0.091 A 
ATOM     74  F   UNL     1      13.109   0.852   3.811  1.00  0.00    -0.205 F 
ATOM     75  C   UNL     1      13.259  -1.531   6.584  1.00  0.00     0.022 A 
BRANCH  73  76
ATOM     76  S   UNL     1      12.361  -2.127   4.066  1.00  0.00     0.127 S 
ATOM     77  O   UNL     1      13.511  -2.979   3.776  1.00  0.00    -0.237 OA
ATOM     78  O   UNL     1      11.281  -2.780   4.807  1.00  0.00    -0.237 OA
ATOM     79  O   UNL     1      11.909  -1.278   2.972  1.00  0.00    -0.744 OA
ENDBRANCH  73  76
ENDBRANCH  45  69
BRANCH  57  80
ATOM     80  C   UNL     1      19.331   5.282   6.392  1.00  0.00     0.023 A 
ATOM     81  C   UNL     1      20.171   4.534   5.544  1.00  0.00     0.012 A 
ATOM     82  C   UNL     1      19.862   5.845   7.570  1.00  0.00     0.148 A 
ATOM     83  C   UNL     1      21.507   4.320   5.880  1.00  0.00     0.002 A 
ATOM     84  C   UNL     1      21.207   5.674   7.871  1.00  0.00     0.091 A 
ATOM     85  F   UNL     1      19.042   6.540   8.372  1.00  0.00    -0.205 F 
ATOM     86  C   UNL     1      22.028   4.900   7.035  1.00  0.00     0.022 A 
BRANCH  84  87
ATOM     87  S   UNL     1      21.987   6.467   9.281  1.00  0.00     0.127 S 
ATOM     88  O   UNL     1      22.226   5.329  10.168  1.00  0.00    -0.237 OA
ATOM     89  O   UNL     1      23.195   7.040   8.685  1.00  0.00    -0.237 OA
ATOM     90  O   UNL     1      21.030   7.450   9.771  1.00  0.00    -0.744 OA
ENDBRANCH  84  87
ENDBRANCH  57  80
ENDBRANCH  31  32
ENDBRANCH  24  26
ENDBRANCH  23  24
ENDBRANCH  22  23
ENDBRANCH  21  22
ENDBRANCH   1  21
TORSDOF 20
