REMARK SMILES Cc1cc(F)c(C(=O)OCCOCCOC(=O)c2ccc(-c3c4nc(c(-c5cccc(S(=O)(=O)[O-])c5F)c5ccc([nH]5)c(-c5cccc(S(=O)(=O)[O-])c5F)c5nc(c(-c6cccc(S(=O)(=O)[O-])c6F)c6ccc3[nH]6)C=C5)C=C4)cc2)cc1F
REMARK SMILES IDX 13 1 12 2 11 3 10 4 9 5 7 6 8 7 6 8 1 9 2 10 3 11 82 12 4 13
REMARK SMILES IDX 81 14 83 15 5 16 14 17 15 18 16 19 17 20 18 21 19 22 80 23
REMARK SMILES IDX 20 24 79 25 21 26 22 27 23 28 73 29 24 30 78 31 72 32 74 33
REMARK SMILES IDX 25 34 77 35 71 36 70 37 26 39 58 40 38 41 57 42 39 43 42 44
REMARK SMILES IDX 56 45 75 46 40 47 41 48 55 50 76 51 43 52 27 53 28 54 36 55
REMARK SMILES IDX 29 56 31 57 37 58 30 59 32 60 33 61 34 62 35 63 59 64 60 65
REMARK SMILES IDX 68 66 61 67 63 68 69 69 62 70 64 71 65 72 66 73 67 74 44 75
REMARK SMILES IDX 45 76 53 77 46 78 48 79 54 80 47 81 49 82 50 83 51 84 52 85
REMARK H PARENT 74 38 42 49
REMARK Flexibility Score: inf
ROOT
ATOM      1  C   UNL     1      -1.744   5.741  -2.439  1.00  0.00     0.202 C 
ENDROOT
BRANCH   1   2
ATOM      2  O   UNL     1      -2.349   6.942  -1.962  1.00  0.00    -0.374 OA
BRANCH   2   3
ATOM      3  C   UNL     1      -1.543   7.836  -1.196  1.00  0.00     0.202 C 
BRANCH   3   4
ATOM      4  C   UNL     1      -1.264   7.452   0.261  1.00  0.00     0.261 C 
BRANCH   4   5
ATOM      5  O   UNL     1      -0.585   6.189   0.351  1.00  0.00    -0.460 OA
BRANCH   5   6
ATOM      6  C   UNL     1      -1.284   5.204   0.969  1.00  0.00     0.341 C 
ATOM      7  O   UNL     1      -2.330   5.319   1.583  1.00  0.00    -0.246 OA
BRANCH   6   8
ATOM      8  C   UNL     1      -0.651   3.904   0.678  1.00  0.00     0.098 A 
ATOM      9  C   UNL     1       1.005  -0.000  -0.061  1.00  0.00     0.047 C 
ATOM     10  C   UNL     1       0.440   1.371   0.152  1.00  0.00    -0.012 A 
ATOM     11  C   UNL     1      -0.945   1.565   0.111  1.00  0.00     0.046 A 
ATOM     12  C   UNL     1       1.264   2.468   0.431  1.00  0.00     0.127 A 
ATOM     13  C   UNL     1      -1.480   2.824   0.371  1.00  0.00     0.138 A 
ATOM     14  C   UNL     1       0.736   3.733   0.686  1.00  0.00     0.058 A 
ATOM     15  F   UNL     1       2.594   2.308   0.464  1.00  0.00    -0.207 F 
ATOM     16  F   UNL     1      -2.809   2.973   0.279  1.00  0.00    -0.206 F 
ENDBRANCH   6   8
ENDBRANCH   5   6
ENDBRANCH   4   5
ENDBRANCH   3   4
ENDBRANCH   2   3
ENDBRANCH   1   2
BRANCH   1  17
ATOM     17  C   UNL     1      -0.764   5.852  -3.615  1.00  0.00     0.261 C 
BRANCH  17  18
ATOM     18  O   UNL     1       0.429   6.580  -3.279  1.00  0.00    -0.460 OA
BRANCH  18  19
ATOM     19  C   UNL     1       0.533   7.808  -3.849  1.00  0.00     0.338 C 
ATOM     20  O   UNL     1      -0.244   8.320  -4.638  1.00  0.00    -0.246 OA
BRANCH  19  21
ATOM     21  C   UNL     1       1.645   8.540  -3.212  1.00  0.00     0.060 A 
ATOM     22  C   UNL     1       2.929   7.998  -3.151  1.00  0.00     0.016 A 
ATOM     23  C   UNL     1       1.384   9.809  -2.678  1.00  0.00     0.016 A 
ATOM     24  C   UNL     1       3.958   8.739  -2.565  1.00  0.00     0.010 A 
ATOM     25  C   UNL     1       2.413  10.547  -2.091  1.00  0.00     0.010 A 
ATOM     26  C   UNL     1       3.712  10.023  -2.041  1.00  0.00    -0.014 A 
BRANCH  26  27
ATOM     27  C   UNL     1       4.840  10.853  -1.550  1.00  0.00     0.031 A 
ATOM     28  C   UNL     1       5.045  11.117  -0.086  1.00  0.00     0.074 A 
ATOM     29  C   UNL     1       5.682  11.390  -2.454  1.00  0.00     0.049 A 
ATOM     30  N   UNL     1       6.030  11.750   0.498  1.00  0.00    -0.248 NA
ATOM     31  C   UNL     1       4.020  10.615   0.842  1.00  0.00     0.031 C 
ATOM     32  C   UNL     1       5.548  11.260  -3.906  1.00  0.00     0.029 A 
ATOM     33  N   UNL     1       6.811  12.151  -2.290  1.00  0.00    -0.354 N 
ATOM     34  C   UNL     1       5.747  11.728   1.857  1.00  0.00     0.074 A 
ATOM     35  C   UNL     1       4.485  11.036   2.013  1.00  0.00     0.031 C 
ATOM     36  C   UNL     1       6.568  11.899  -4.500  1.00  0.00     0.029 A 
ATOM     37  C   UNL     1       7.416  12.499  -3.474  1.00  0.00     0.049 A 
ATOM     38  H   UNL     1       7.156  12.422  -1.408  1.00  0.00     0.167 HD
ATOM     39  C   UNL     1       6.486  12.218   2.879  1.00  0.00     0.034 A 
ATOM     40  C   UNL     1       8.533  13.215  -3.713  1.00  0.00     0.034 A 
ATOM     41  C   UNL     1       7.749  12.889   2.723  1.00  0.00     0.049 A 
ATOM     42  C   UNL     1       9.336  13.740  -2.559  1.00  0.00     0.074 A 
ATOM     43  C   UNL     1       8.597  13.356   3.714  1.00  0.00     0.029 A 
ATOM     44  N   UNL     1       8.339  13.204   1.511  1.00  0.00    -0.354 N 
ATOM     45  N   UNL     1       9.126  13.582  -1.275  1.00  0.00    -0.248 NA
ATOM     46  C   UNL     1      10.542  14.518  -2.880  1.00  0.00     0.031 C 
ATOM     47  C   UNL     1       9.691  13.970   3.099  1.00  0.00     0.029 A 
ATOM     48  C   UNL     1       9.534  13.869   1.727  1.00  0.00     0.049 A 
ATOM     49  H   UNL     1       7.965  12.986   0.626  1.00  0.00     0.167 HD
ATOM     50  C   UNL     1      10.180  14.223  -0.636  1.00  0.00     0.074 A 
ATOM     51  C   UNL     1      11.038  14.759  -1.672  1.00  0.00     0.031 C 
ATOM     52  C   UNL     1      10.404  14.363   0.692  1.00  0.00     0.034 A 
BRANCH  39  53
ATOM     53  C   UNL     1       5.998  11.996   4.284  1.00  0.00     0.023 A 
ATOM     54  C   UNL     1       6.201  10.738   4.885  1.00  0.00     0.012 A 
ATOM     55  C   UNL     1       5.482  13.059   5.051  1.00  0.00     0.148 A 
ATOM     56  C   UNL     1       5.895  10.538   6.230  1.00  0.00     0.002 A 
ATOM     57  C   UNL     1       5.204  12.859   6.398  1.00  0.00     0.091 A 
ATOM     58  F   UNL     1       5.296  14.245   4.454  1.00  0.00    -0.205 F 
ATOM     59  C   UNL     1       5.408  11.600   6.988  1.00  0.00     0.022 A 
BRANCH  57  60
ATOM     60  S   UNL     1       4.623  14.170   7.480  1.00  0.00     0.127 S 
ATOM     61  O   UNL     1       3.304  13.669   7.866  1.00  0.00    -0.237 OA
ATOM     62  O   UNL     1       5.620  14.149   8.549  1.00  0.00    -0.237 OA
ATOM     63  O   UNL     1       4.609  15.383   6.675  1.00  0.00    -0.744 OA
ENDBRANCH  57  60
ENDBRANCH  39  53
BRANCH  40  64
ATOM     64  C   UNL     1       8.984  13.411  -5.116  1.00  0.00     0.023 A 
ATOM     65  C   UNL     1      10.079  12.669  -5.597  1.00  0.00     0.012 A 
ATOM     66  C   UNL     1       8.293  14.273  -5.989  1.00  0.00     0.148 A 
ATOM     67  C   UNL     1      10.487  12.791  -6.926  1.00  0.00     0.002 A 
ATOM     68  C   UNL     1       8.681  14.361  -7.320  1.00  0.00     0.091 A 
ATOM     69  F   UNL     1       7.254  14.965  -5.502  1.00  0.00    -0.205 F 
ATOM     70  C   UNL     1       9.783  13.628  -7.788  1.00  0.00     0.022 A 
BRANCH  68  71
ATOM     71  S   UNL     1       7.784  15.340  -8.528  1.00  0.00     0.127 S 
ATOM     72  O   UNL     1       8.789  16.326  -8.918  1.00  0.00    -0.237 OA
ATOM     73  O   UNL     1       7.474  14.340  -9.550  1.00  0.00    -0.237 OA
ATOM     74  O   UNL     1       6.625  15.873  -7.827  1.00  0.00    -0.744 OA
ENDBRANCH  68  71
ENDBRANCH  40  64
BRANCH  52  75
ATOM     75  C   UNL     1      11.627  15.120   1.134  1.00  0.00     0.023 A 
ATOM     76  C   UNL     1      11.615  16.527   1.103  1.00  0.00     0.012 A 
ATOM     77  C   UNL     1      12.722  14.445   1.708  1.00  0.00     0.148 A 
ATOM     78  C   UNL     1      12.678  17.254   1.637  1.00  0.00     0.002 A 
ATOM     79  C   UNL     1      13.762  15.175   2.268  1.00  0.00     0.091 A 
ATOM     80  F   UNL     1      12.708  13.104   1.720  1.00  0.00    -0.205 F 
ATOM     81  C   UNL     1      13.744  16.580   2.230  1.00  0.00     0.022 A 
BRANCH  79  82
ATOM     82  S   UNL     1      15.144  14.403   3.117  1.00  0.00     0.127 S 
ATOM     83  O   UNL     1      16.268  14.782   2.261  1.00  0.00    -0.237 OA
ATOM     84  O   UNL     1      15.117  15.070   4.419  1.00  0.00    -0.237 OA
ATOM     85  O   UNL     1      14.852  12.977   3.155  1.00  0.00    -0.744 OA
ENDBRANCH  79  82
ENDBRANCH  52  75
ENDBRANCH  26  27
ENDBRANCH  19  21
ENDBRANCH  18  19
ENDBRANCH  17  18
ENDBRANCH   1  17
TORSDOF 17
