REMARK SMILES O=C(COc1ccccc1C[NH+]1CCC2(CC[NH2+]CC2)CC1)OCCOCCOC(=O)c1ccc(-c2c3nc(c(-c4cccc(S(=O)(=O)[O-])c4F)c4ccc([nH]4)c(-c4cccc(S(=O)(=O)[O-])c4F)c4nc(c(-c5cccc(S(=O)(=O)[O-])c5F)c5ccc2[nH]5)C=C4)C=C3)cc1
REMARK SMILES IDX 25 1 24 2 23 3 2 4 1 5 3 6 4 7 5 8 6 9 10 10 7 11 9 12 8 13
REMARK SMILES IDX 11 14 12 15 13 16 22 17 14 19 21 20 15 21 16 22 20 23 17 24
REMARK SMILES IDX 19 25 18 26 26 29 27 30 28 31 29 32 30 33 31 34 32 35 33 36
REMARK SMILES IDX 94 37 34 38 93 39 35 40 36 41 37 42 87 43 38 44 92 45 86 46
REMARK SMILES IDX 88 47 39 48 91 49 85 50 84 51 40 53 72 54 52 55 71 56 53 57
REMARK SMILES IDX 56 58 70 59 89 60 54 61 55 62 69 64 90 65 57 66 41 67 42 68
REMARK SMILES IDX 50 69 43 70 45 71 51 72 44 73 46 74 47 75 48 76 49 77 73 78
REMARK SMILES IDX 74 79 82 80 75 81 77 82 83 83 76 84 78 85 79 86 80 87 81 88
REMARK SMILES IDX 58 89 59 90 67 91 60 92 62 93 68 94 61 95 63 96 64 97 65 98
REMARK SMILES IDX 66 99
REMARK H PARENT 12 18 18 27 18 28 88 52 56 63
REMARK Flexibility Score: inf
ROOT
ATOM      1  C   UNL     1       5.245  -0.351  -1.623  1.00  0.00     0.202 C 
ENDROOT
BRANCH   1   2
ATOM      2  C   UNL     1       4.413  -0.360  -0.342  1.00  0.00     0.261 C 
BRANCH   2   3
ATOM      3  O   UNL     1       3.000  -0.502  -0.574  1.00  0.00    -0.461 OA
BRANCH   3   4
ATOM      4  C   UNL     1       2.141   0.537  -0.705  1.00  0.00     0.344 C 
ATOM      5  O   UNL     1       1.025   0.355  -1.194  1.00  0.00    -0.248 OA
BRANCH   4   6
ATOM      6  C   UNL     1       2.588   1.923  -0.279  1.00  0.00     0.351 C 
BRANCH   6   7
ATOM      7  O   UNL     1       3.165   1.903   1.020  1.00  0.00    -0.481 OA
BRANCH   7   8
ATOM      8  C   UNL     1       2.557   2.749   1.899  1.00  0.00     0.129 A 
ATOM      9  C   UNL     1       3.187   3.978   2.119  1.00  0.00     0.047 A 
ATOM     10  C   UNL     1       1.460   2.339   2.670  1.00  0.00     0.048 A 
ATOM     11  C   UNL     1       2.692   4.850   3.083  1.00  0.00     0.004 A 
ATOM     12  C   UNL     1       0.944   3.260   3.597  1.00  0.00     0.013 A 
ATOM     13  C   UNL     1       1.561   4.497   3.812  1.00  0.00     0.001 A 
BRANCH  10  14
ATOM     14  C   UNL     1       0.825   0.967   2.558  1.00  0.00     0.302 C 
BRANCH  14  15
ATOM     15  N   UNL     1       1.303  -0.122   3.410  1.00  0.00    -0.331 N 
ATOM     16  C   UNL     1       2.611  -0.688   3.120  1.00  0.00     0.263 C 
ATOM     17  C   UNL     1       1.060  -0.029   4.839  1.00  0.00     0.263 C 
ATOM     18  H   UNL     1       0.634  -0.816   3.076  1.00  0.00     0.348 HD
ATOM     19  C   UNL     1       3.775   0.061   3.763  1.00  0.00     0.069 C 
ATOM     20  C   UNL     1       2.132   0.739   5.607  1.00  0.00     0.069 C 
ATOM     21  C   UNL     1       3.598   0.356   5.275  1.00  0.00    -0.008 C 
ATOM     22  C   UNL     1       4.041  -0.862   6.125  1.00  0.00     0.069 C 
ATOM     23  C   UNL     1       4.489   1.564   5.669  1.00  0.00     0.069 C 
ATOM     24  C   UNL     1       5.561  -1.081   6.125  1.00  0.00     0.261 C 
ATOM     25  C   UNL     1       5.977   1.244   5.617  1.00  0.00     0.261 C 
ATOM     26  N   UNL     1       6.305   0.128   6.498  1.00  0.00    -0.346 N 
ATOM     27  H   UNL     1       7.305  -0.064   6.435  1.00  0.00     0.346 HD
ATOM     28  H   UNL     1       6.047   0.383   7.452  1.00  0.00     0.346 HD
ENDBRANCH  14  15
ENDBRANCH  10  14
ENDBRANCH   7   8
ENDBRANCH   6   7
ENDBRANCH   4   6
ENDBRANCH   3   4
ENDBRANCH   2   3
ENDBRANCH   1   2
BRANCH   1  29
ATOM     29  O   UNL     1       4.690   0.302  -2.746  1.00  0.00    -0.374 OA
BRANCH  29  30
ATOM     30  C   UNL     1       3.579  -0.256  -3.441  1.00  0.00     0.202 C 
BRANCH  30  31
ATOM     31  C   UNL     1       3.144  -1.740  -3.434  1.00  0.00     0.261 C 
BRANCH  31  32
ATOM     32  O   UNL     1       3.638  -2.604  -2.407  1.00  0.00    -0.460 OA
BRANCH  32  33
ATOM     33  C   UNL     1       4.660  -3.405  -2.790  1.00  0.00     0.338 C 
ATOM     34  O   UNL     1       5.262  -3.370  -3.848  1.00  0.00    -0.246 OA
BRANCH  33  35
ATOM     35  C   UNL     1       5.053  -4.279  -1.671  1.00  0.00     0.060 A 
ATOM     36  C   UNL     1       6.338  -4.132  -1.139  1.00  0.00     0.016 A 
ATOM     37  C   UNL     1       4.222  -5.322  -1.255  1.00  0.00     0.016 A 
ATOM     38  C   UNL     1       6.822  -5.074  -0.234  1.00  0.00     0.010 A 
ATOM     39  C   UNL     1       4.713  -6.270  -0.351  1.00  0.00     0.010 A 
ATOM     40  C   UNL     1       6.032  -6.176   0.123  1.00  0.00    -0.014 A 
BRANCH  40  41
ATOM     41  C   UNL     1       6.659  -7.298   0.863  1.00  0.00     0.031 A 
ATOM     42  C   UNL     1       7.154  -8.496   0.096  1.00  0.00     0.074 A 
ATOM     43  C   UNL     1       6.828  -7.230   2.196  1.00  0.00     0.049 A 
ATOM     44  N   UNL     1       7.798  -9.548   0.531  1.00  0.00    -0.248 NA
ATOM     45  C   UNL     1       6.892  -8.510  -1.353  1.00  0.00     0.031 C 
ATOM     46  C   UNL     1       6.377  -6.131   3.047  1.00  0.00     0.029 A 
ATOM     47  N   UNL     1       7.416  -8.113   3.066  1.00  0.00    -0.354 N 
ATOM     48  C   UNL     1       8.015 -10.349  -0.585  1.00  0.00     0.074 A 
ATOM     49  C   UNL     1       7.412  -9.675  -1.714  1.00  0.00     0.031 C 
ATOM     50  C   UNL     1       6.686  -6.415   4.324  1.00  0.00     0.029 A 
ATOM     51  C   UNL     1       7.353  -7.715   4.379  1.00  0.00     0.049 A 
ATOM     52  H   UNL     1       7.843  -8.951   2.776  1.00  0.00     0.167 HD
ATOM     53  C   UNL     1       8.681 -11.525  -0.669  1.00  0.00     0.034 A 
ATOM     54  C   UNL     1       7.782  -8.332   5.498  1.00  0.00     0.034 A 
ATOM     55  C   UNL     1       9.294 -12.188   0.451  1.00  0.00     0.049 A 
ATOM     56  C   UNL     1       8.522  -9.640   5.377  1.00  0.00     0.074 A 
ATOM     57  C   UNL     1      10.015 -13.369   0.464  1.00  0.00     0.029 A 
ATOM     58  N   UNL     1       9.255 -11.729   1.758  1.00  0.00    -0.354 N 
ATOM     59  N   UNL     1       8.834 -10.315   4.297  1.00  0.00    -0.248 NA
ATOM     60  C   UNL     1       9.005 -10.249   6.625  1.00  0.00     0.031 C 
ATOM     61  C   UNL     1      10.405 -13.628   1.783  1.00  0.00     0.029 A 
ATOM     62  C   UNL     1       9.936 -12.603   2.588  1.00  0.00     0.049 A 
ATOM     63  H   UNL     1       8.808 -10.903   2.053  1.00  0.00     0.167 HD
ATOM     64  C   UNL     1       9.569 -11.413   4.731  1.00  0.00     0.074 A 
ATOM     65  C   UNL     1       9.684 -11.294   6.171  1.00  0.00     0.031 C 
ATOM     66  C   UNL     1      10.082 -12.442   4.011  1.00  0.00     0.034 A 
BRANCH  53  67
ATOM     67  C   UNL     1       8.835 -12.144  -2.032  1.00  0.00     0.023 A 
ATOM     68  C   UNL     1       9.770 -11.593  -2.933  1.00  0.00     0.012 A 
ATOM     69  C   UNL     1       8.114 -13.296  -2.401  1.00  0.00     0.148 A 
ATOM     70  C   UNL     1       9.970 -12.167  -4.188  1.00  0.00     0.002 A 
ATOM     71  C   UNL     1       8.344 -13.883  -3.640  1.00  0.00     0.091 A 
ATOM     72  F   UNL     1       7.214 -13.790  -1.539  1.00  0.00    -0.205 F 
ATOM     73  C   UNL     1       9.266 -13.316  -4.537  1.00  0.00     0.022 A 
BRANCH  71  74
ATOM     74  S   UNL     1       7.536 -15.400  -4.162  1.00  0.00     0.127 S 
ATOM     75  O   UNL     1       6.637 -14.911  -5.207  1.00  0.00    -0.237 OA
ATOM     76  O   UNL     1       8.662 -16.197  -4.651  1.00  0.00    -0.237 OA
ATOM     77  O   UNL     1       6.882 -15.935  -2.976  1.00  0.00    -0.744 OA
ENDBRANCH  71  74
ENDBRANCH  53  67
BRANCH  54  78
ATOM     78  C   UNL     1       7.569  -7.692   6.827  1.00  0.00     0.023 A 
ATOM     79  C   UNL     1       8.670  -7.189   7.545  1.00  0.00     0.012 A 
ATOM     80  C   UNL     1       6.277  -7.559   7.371  1.00  0.00     0.148 A 
ATOM     81  C   UNL     1       8.491  -6.591   8.794  1.00  0.00     0.002 A 
ATOM     82  C   UNL     1       6.099  -6.910   8.588  1.00  0.00     0.091 A 
ATOM     83  F   UNL     1       5.240  -8.067   6.688  1.00  0.00    -0.205 F 
ATOM     84  C   UNL     1       7.206  -6.440   9.309  1.00  0.00     0.022 A 
BRANCH  82  85
ATOM     85  S   UNL     1       4.463  -6.553   9.237  1.00  0.00     0.127 S 
ATOM     86  O   UNL     1       4.283  -7.626  10.210  1.00  0.00    -0.237 OA
ATOM     87  O   UNL     1       4.641  -5.220   9.816  1.00  0.00    -0.237 OA
ATOM     88  O   UNL     1       3.580  -6.580   8.078  1.00  0.00    -0.744 OA
ENDBRANCH  82  85
ENDBRANCH  54  78
BRANCH  66  89
ATOM     89  C   UNL     1      10.819 -13.517   4.766  1.00  0.00     0.023 A 
ATOM     90  C   UNL     1      10.089 -14.439   5.543  1.00  0.00     0.012 A 
ATOM     91  C   UNL     1      12.216 -13.654   4.663  1.00  0.00     0.148 A 
ATOM     92  C   UNL     1      10.742 -15.458   6.234  1.00  0.00     0.002 A 
ATOM     93  C   UNL     1      12.857 -14.698   5.322  1.00  0.00     0.091 A 
ATOM     94  F   UNL     1      12.899 -12.756   3.937  1.00  0.00    -0.205 F 
ATOM     95  C   UNL     1      12.123 -15.594   6.116  1.00  0.00     0.022 A 
BRANCH  93  96
ATOM     96  S   UNL     1      14.621 -14.989   5.148  1.00  0.00     0.127 S 
ATOM     97  O   UNL     1      15.149 -14.358   6.356  1.00  0.00    -0.237 OA
ATOM     98  O   UNL     1      14.703 -16.451   5.140  1.00  0.00    -0.237 OA
ATOM     99  O   UNL     1      14.998 -14.363   3.888  1.00  0.00    -0.744 OA
ENDBRANCH  93  96
ENDBRANCH  66  89
ENDBRANCH  40  41
ENDBRANCH  33  35
ENDBRANCH  32  33
ENDBRANCH  31  32
ENDBRANCH  30  31
ENDBRANCH  29  30
ENDBRANCH   1  29
TORSDOF 21
