REMARK SMILES Cc1ccccc1-c1c(Cl)ccc2c1C=C(C(=O)OCCOCCOC(=O)c1ccc(-c3c4nc(c(-c5cccc(S(=O)(=O)[O-])c5F)c5ccc([nH]5)c(-c5cccc(S(=O)(=O)[O-])c5F)c5nc(c(-c6cccc(S(=O)(=O)[O-])c6F)c6ccc3[nH]6)C=C5)C=C4)cc1)[C@@H](C(F)(F)F)O2
REMARK SMILES IDX 23 1 22 2 21 3 20 4 19 5 17 6 18 7 16 8 8 9 9 10 14 11 10 12
REMARK SMILES IDX 11 13 13 14 15 15 12 16 96 17 91 18 7 19 1 20 2 21 3 22 4 23
REMARK SMILES IDX 6 24 5 25 92 26 93 27 94 28 95 29 24 30 25 31 26 32 27 33
REMARK SMILES IDX 28 34 29 35 90 36 30 37 89 38 31 39 32 40 33 41 83 42 34 43
REMARK SMILES IDX 88 44 82 45 84 46 35 47 87 48 81 49 80 50 36 52 68 53 48 54
REMARK SMILES IDX 67 55 49 56 52 57 66 58 85 59 50 60 51 61 65 63 86 64 53 65
REMARK SMILES IDX 37 66 38 67 46 68 39 69 41 70 47 71 40 72 42 73 43 74 44 75
REMARK SMILES IDX 45 76 69 77 70 78 78 79 71 80 73 81 79 82 72 83 74 84 75 85
REMARK SMILES IDX 76 86 77 87 54 88 55 89 63 90 56 91 58 92 64 93 57 94 59 95
REMARK SMILES IDX 60 96 61 97 62 98
REMARK H PARENT 84 51 52 62
REMARK Flexibility Score: inf
ROOT
ATOM      1  C   UNL     1       6.612   2.172  -5.213  1.00  0.00     0.202 C 
ENDROOT
BRANCH   1   2
ATOM      2  O   UNL     1       6.534   3.312  -4.389  1.00  0.00    -0.374 OA
BRANCH   2   3
ATOM      3  C   UNL     1       7.056   3.050  -3.115  1.00  0.00     0.202 C 
BRANCH   3   4
ATOM      4  C   UNL     1       6.457   1.844  -2.357  1.00  0.00     0.261 C 
BRANCH   4   5
ATOM      5  O   UNL     1       5.106   1.613  -2.712  1.00  0.00    -0.460 OA
BRANCH   5   6
ATOM      6  C   UNL     1       4.334   2.560  -2.144  1.00  0.00     0.338 C 
ATOM      7  O   UNL     1       4.675   3.374  -1.305  1.00  0.00    -0.246 OA
BRANCH   6   8
ATOM      8  C   UNL     1       3.111   2.639  -2.980  1.00  0.00     0.087 C 
ATOM      9  C   UNL     1       0.556   2.681  -0.338  1.00  0.00     0.012 A 
ATOM     10  C   UNL     1       0.329   3.611   0.713  1.00  0.00     0.049 A 
ATOM     11  C   UNL     1       1.447   3.116  -1.355  1.00  0.00     0.027 A 
ATOM     12  Cl  UNL     1      -0.661   3.244   2.094  1.00  0.00    -0.084 Cl
ATOM     13  C   UNL     1       0.913   4.889   0.722  1.00  0.00     0.025 A 
ATOM     14  C   UNL     1       1.931   4.453  -1.390  1.00  0.00     0.128 A 
ATOM     15  C   UNL     1       1.997   2.194  -2.374  1.00  0.00     0.028 C 
ATOM     16  C   UNL     1       1.708   5.315  -0.331  1.00  0.00     0.049 A 
ATOM     17  O   UNL     1       2.667   4.984  -2.429  1.00  0.00    -0.475 OA
ATOM     18  C   UNL     1       3.069   4.066  -3.472  1.00  0.00     0.316 C 
BRANCH   9  19
ATOM     19  C   UNL     1      -0.181   1.368  -0.402  1.00  0.00    -0.013 A 
ATOM     20  C   UNL     1       1.875  -0.198  -0.456  1.00  0.00     0.045 C 
ATOM     21  C   UNL     1       0.407   0.087  -0.528  1.00  0.00    -0.043 A 
ATOM     22  C   UNL     1      -0.393  -1.075  -0.579  1.00  0.00     0.004 A 
ATOM     23  C   UNL     1      -1.767  -1.012  -0.418  1.00  0.00     0.000 A 
ATOM     24  C   UNL     1      -1.594   1.391  -0.310  1.00  0.00     0.009 A 
ATOM     25  C   UNL     1      -2.369   0.226  -0.267  1.00  0.00     0.001 A 
ENDBRANCH   9  19
BRANCH  18  26
ATOM     26  C   UNL     1       2.174   4.168  -4.703  1.00  0.00     0.430 C 
ATOM     27  F   UNL     1       2.269   5.375  -5.304  1.00  0.00    -0.167 F 
ATOM     28  F   UNL     1       2.522   3.240  -5.636  1.00  0.00    -0.167 F 
ATOM     29  F   UNL     1       0.867   3.958  -4.417  1.00  0.00    -0.167 F 
ENDBRANCH  18  26
ENDBRANCH   6   8
ENDBRANCH   5   6
ENDBRANCH   4   5
ENDBRANCH   3   4
ENDBRANCH   2   3
ENDBRANCH   1   2
BRANCH   1  30
ATOM     30  C   UNL     1       7.670   0.981  -5.004  1.00  0.00     0.261 C 
BRANCH  30  31
ATOM     31  O   UNL     1       8.620   0.761  -3.803  1.00  0.00    -0.460 OA
BRANCH  31  32
ATOM     32  C   UNL     1       9.838   0.764  -3.170  1.00  0.00     0.338 C 
ATOM     33  O   UNL     1      10.717  -0.103  -3.380  1.00  0.00    -0.246 OA
BRANCH  32  34
ATOM     34  C   UNL     1       9.872   1.450  -1.794  1.00  0.00     0.060 A 
ATOM     35  C   UNL     1      10.179   0.799  -0.595  1.00  0.00     0.016 A 
ATOM     36  C   UNL     1       9.489   2.752  -1.615  1.00  0.00     0.016 A 
ATOM     37  C   UNL     1       9.469   1.103   0.582  1.00  0.00     0.010 A 
ATOM     38  C   UNL     1       8.663   3.004  -0.533  1.00  0.00     0.010 A 
ATOM     39  C   UNL     1       8.500   2.063   0.487  1.00  0.00    -0.014 A 
BRANCH  39  40
ATOM     40  C   UNL     1       7.339   2.262   1.352  1.00  0.00     0.031 A 
ATOM     41  C   UNL     1       7.341   3.519   2.143  1.00  0.00     0.074 A 
ATOM     42  C   UNL     1       6.197   1.536   1.189  1.00  0.00     0.049 A 
ATOM     43  N   UNL     1       6.472   3.853   3.026  1.00  0.00    -0.248 NA
ATOM     44  C   UNL     1       8.381   4.535   1.989  1.00  0.00     0.031 C 
ATOM     45  C   UNL     1       4.852   2.000   1.521  1.00  0.00     0.029 A 
ATOM     46  N   UNL     1       5.964   0.241   0.710  1.00  0.00    -0.354 N 
ATOM     47  C   UNL     1       6.617   5.207   3.263  1.00  0.00     0.074 A 
ATOM     48  C   UNL     1       7.885   5.550   2.693  1.00  0.00     0.031 C 
ATOM     49  C   UNL     1       3.991   0.976   1.503  1.00  0.00     0.029 A 
ATOM     50  C   UNL     1       4.738  -0.232   1.199  1.00  0.00     0.049 A 
ATOM     51  H   UNL     1       6.570  -0.261   0.119  1.00  0.00     0.167 HD
ATOM     52  C   UNL     1       5.556   5.892   3.772  1.00  0.00     0.034 A 
ATOM     53  C   UNL     1       4.600  -1.390   1.913  1.00  0.00     0.034 A 
ATOM     54  C   UNL     1       4.463   4.939   4.061  1.00  0.00     0.049 A 
ATOM     55  C   UNL     1       4.325  -1.016   3.353  1.00  0.00     0.074 A 
ATOM     56  C   UNL     1       3.281   4.657   3.402  1.00  0.00     0.029 A 
ATOM     57  N   UNL     1       4.687   3.860   4.923  1.00  0.00    -0.354 N 
ATOM     58  N   UNL     1       4.623   0.171   3.818  1.00  0.00    -0.248 NA
ATOM     59  C   UNL     1       3.527  -1.797   4.296  1.00  0.00     0.031 C 
ATOM     60  C   UNL     1       2.857   3.353   3.794  1.00  0.00     0.029 A 
ATOM     61  C   UNL     1       3.771   2.838   4.705  1.00  0.00     0.049 A 
ATOM     62  H   UNL     1       5.403   3.829   5.598  1.00  0.00     0.167 HD
ATOM     63  C   UNL     1       3.914   0.405   4.949  1.00  0.00     0.074 A 
ATOM     64  C   UNL     1       3.307  -0.883   5.262  1.00  0.00     0.031 C 
ATOM     65  C   UNL     1       3.775   1.631   5.531  1.00  0.00     0.034 A 
BRANCH  52  66
ATOM     66  C   UNL     1       5.367   7.416   3.785  1.00  0.00     0.023 A 
ATOM     67  C   UNL     1       4.087   7.887   4.163  1.00  0.00     0.012 A 
ATOM     68  C   UNL     1       6.298   8.433   3.433  1.00  0.00     0.148 A 
ATOM     69  C   UNL     1       3.741   9.246   4.167  1.00  0.00     0.002 A 
ATOM     70  C   UNL     1       5.959   9.795   3.447  1.00  0.00     0.091 A 
ATOM     71  F   UNL     1       7.542   8.120   3.082  1.00  0.00    -0.205 F 
ATOM     72  C   UNL     1       4.676  10.203   3.808  1.00  0.00     0.022 A 
BRANCH  70  73
ATOM     73  S   UNL     1       7.122  11.111   3.013  1.00  0.00     0.127 S 
ATOM     74  O   UNL     1       6.398  11.829   1.962  1.00  0.00    -0.237 OA
ATOM     75  O   UNL     1       7.245  11.845   4.272  1.00  0.00    -0.237 OA
ATOM     76  O   UNL     1       8.343  10.456   2.560  1.00  0.00    -0.744 OA
ENDBRANCH  70  73
ENDBRANCH  52  66
BRANCH  53  77
ATOM     77  C   UNL     1       5.365  -2.526   1.331  1.00  0.00     0.023 A 
ATOM     78  C   UNL     1       4.938  -2.936   0.033  1.00  0.00     0.012 A 
ATOM     79  C   UNL     1       6.698  -2.717   1.700  1.00  0.00     0.148 A 
ATOM     80  C   UNL     1       5.858  -3.314  -0.944  1.00  0.00     0.002 A 
ATOM     81  C   UNL     1       7.614  -3.024   0.700  1.00  0.00     0.091 A 
ATOM     82  F   UNL     1       7.068  -2.448   2.958  1.00  0.00    -0.205 F 
ATOM     83  C   UNL     1       7.202  -3.307  -0.620  1.00  0.00     0.022 A 
BRANCH  81  84
ATOM     84  S   UNL     1       9.324  -2.520   0.852  1.00  0.00     0.127 S 
ATOM     85  O   UNL     1      10.056  -3.780   0.840  1.00  0.00    -0.237 OA
ATOM     86  O   UNL     1       9.440  -1.754  -0.385  1.00  0.00    -0.237 OA
ATOM     87  O   UNL     1       9.409  -1.750   2.082  1.00  0.00    -0.744 OA
ENDBRANCH  81  84
ENDBRANCH  53  77
BRANCH  65  88
ATOM     88  C   UNL     1       3.598   1.755   7.015  1.00  0.00     0.023 A 
ATOM     89  C   UNL     1       3.991   0.706   7.870  1.00  0.00     0.012 A 
ATOM     90  C   UNL     1       3.267   2.994   7.605  1.00  0.00     0.148 A 
ATOM     91  C   UNL     1       3.975   0.849   9.252  1.00  0.00     0.002 A 
ATOM     92  C   UNL     1       3.405   3.174   8.969  1.00  0.00     0.091 A 
ATOM     93  F   UNL     1       2.820   4.006   6.848  1.00  0.00    -0.205 F 
ATOM     94  C   UNL     1       3.710   2.094   9.801  1.00  0.00     0.022 A 
BRANCH  92  95
ATOM     95  S   UNL     1       3.388   4.813   9.699  1.00  0.00     0.127 S 
ATOM     96  O   UNL     1       2.078   4.833  10.345  1.00  0.00    -0.237 OA
ATOM     97  O   UNL     1       4.526   4.745  10.617  1.00  0.00    -0.237 OA
ATOM     98  O   UNL     1       3.566   5.744   8.593  1.00  0.00    -0.744 OA
ENDBRANCH  92  95
ENDBRANCH  65  88
ENDBRANCH  39  40
ENDBRANCH  32  34
ENDBRANCH  31  32
ENDBRANCH  30  31
ENDBRANCH   1  30
TORSDOF 19
