REMARK SMILES C[C@]1(C(=O)OCCOCCOC(=O)c2ccc(-c3c4nc(c(-c5cccc(S(=O)(=O)[O-])c5F)c5ccc([nH]5)c(-c5cccc(S(=O)(=O)[O-])c5F)c5nc(c(-c6cccc(S(=O)(=O)[O-])c6F)c6ccc3[nH]6)C=C5)C=C4)cc2)CCN(c2ccc([N+](=O)[O-])c(N)n2)C1
REMARK SMILES IDX 9 1 8 2 7 3 6 4 5 5 3 6 4 7 2 8 1 9 77 10 90 11 78 12 79 13
REMARK SMILES IDX 80 14 81 15 89 16 82 17 87 18 83 19 88 20 84 23 85 24 86 25
REMARK SMILES IDX 10 26 11 27 12 28 13 29 14 30 15 31 76 32 16 33 75 34 17 35
REMARK SMILES IDX 18 36 19 37 69 38 20 39 74 40 68 41 70 42 21 43 73 44 67 45
REMARK SMILES IDX 66 46 22 48 54 49 34 50 53 51 35 52 38 53 52 54 71 55 36 56
REMARK SMILES IDX 37 57 51 59 72 60 39 61 23 62 24 63 32 64 25 65 27 66 33 67
REMARK SMILES IDX 26 68 28 69 29 70 30 71 31 72 55 73 56 74 64 75 57 76 59 77
REMARK SMILES IDX 65 78 58 79 60 80 61 81 62 82 63 83 40 84 41 85 49 86 42 87
REMARK SMILES IDX 44 88 50 89 43 90 45 91 46 92 47 93 48 94
REMARK H PARENT 88 21 88 22 70 47 38 58
REMARK Flexibility Score: inf
ROOT
ATOM      1  C   UNL     1       2.037  -1.139  -2.013  1.00  0.00     0.202 C 
ENDROOT
BRANCH   1   2
ATOM      2  O   UNL     1       1.903   0.078  -2.741  1.00  0.00    -0.374 OA
BRANCH   2   3
ATOM      3  C   UNL     1       2.297   1.266  -2.046  1.00  0.00     0.202 C 
BRANCH   3   4
ATOM      4  C   UNL     1       1.302   1.808  -1.009  1.00  0.00     0.261 C 
BRANCH   4   5
ATOM      5  O   UNL     1       1.236   0.989   0.181  1.00  0.00    -0.463 OA
BRANCH   5   6
ATOM      6  C   UNL     1       0.094   0.276   0.361  1.00  0.00     0.313 C 
ATOM      7  O   UNL     1      -0.848   0.279  -0.426  1.00  0.00    -0.252 OA
BRANCH   6   8
ATOM      8  C   UNL     1       0.105  -0.602   1.607  1.00  0.00     0.084 C 
ATOM      9  C   UNL     1      -1.276  -0.472   2.273  1.00  0.00     0.026 C 
ATOM     10  C   UNL     1       0.404  -2.067   1.237  1.00  0.00     0.042 C 
ATOM     11  C   UNL     1       1.216  -0.309   2.627  1.00  0.00     0.136 C 
ATOM     12  C   UNL     1       0.901  -2.712   2.528  1.00  0.00     0.119 C 
ATOM     13  N   UNL     1       1.364  -1.587   3.325  1.00  0.00    -0.355 N 
BRANCH  13  14
ATOM     14  C   UNL     1       2.261  -1.771   4.345  1.00  0.00     0.131 A 
ATOM     15  C   UNL     1       2.232  -0.940   5.460  1.00  0.00     0.054 A 
ATOM     16  N   UNL     1       3.141  -2.797   4.264  1.00  0.00    -0.207 NA
ATOM     17  C   UNL     1       3.107  -1.173   6.516  1.00  0.00     0.093 A 
ATOM     18  C   UNL     1       4.041  -2.995   5.254  1.00  0.00     0.204 A 
ATOM     19  C   UNL     1       4.026  -2.217   6.405  1.00  0.00     0.311 A 
BRANCH  18  20
ATOM     20  N   UNL     1       4.885  -4.070   5.042  1.00  0.00    -0.378 N 
ATOM     21  H   UNL     1       5.574  -4.293   5.709  1.00  0.00     0.158 HD
ATOM     22  H   UNL     1       4.796  -4.612   4.225  1.00  0.00     0.158 HD
ENDBRANCH  18  20
BRANCH  19  23
ATOM     23  N   UNL     1       4.943  -2.470   7.503  1.00  0.00     0.066 N 
ATOM     24  O   UNL     1       4.558  -2.172   8.645  1.00  0.00    -0.258 OA
ATOM     25  O   UNL     1       6.057  -2.949   7.242  1.00  0.00    -0.258 OA
ENDBRANCH  19  23
ENDBRANCH  13  14
ENDBRANCH   6   8
ENDBRANCH   5   6
ENDBRANCH   4   5
ENDBRANCH   3   4
ENDBRANCH   2   3
ENDBRANCH   1   2
BRANCH   1  26
ATOM     26  C   UNL     1       3.406  -1.821  -2.062  1.00  0.00     0.261 C 
BRANCH  26  27
ATOM     27  O   UNL     1       4.429  -0.978  -1.511  1.00  0.00    -0.460 OA
BRANCH  27  28
ATOM     28  C   UNL     1       5.212  -0.390  -2.443  1.00  0.00     0.338 C 
ATOM     29  O   UNL     1       5.208  -0.611  -3.649  1.00  0.00    -0.246 OA
BRANCH  28  30
ATOM     30  C   UNL     1       5.994   0.709  -1.851  1.00  0.00     0.060 A 
ATOM     31  C   UNL     1       6.066   1.895  -2.591  1.00  0.00     0.016 A 
ATOM     32  C   UNL     1       6.708   0.571  -0.657  1.00  0.00     0.016 A 
ATOM     33  C   UNL     1       6.936   2.905  -2.202  1.00  0.00     0.010 A 
ATOM     34  C   UNL     1       7.581   1.592  -0.263  1.00  0.00     0.010 A 
ATOM     35  C   UNL     1       7.745   2.730  -1.073  1.00  0.00    -0.014 A 
BRANCH  35  36
ATOM     36  C   UNL     1       8.892   3.650  -0.886  1.00  0.00     0.031 A 
ATOM     37  C   UNL     1      10.261   3.199  -1.320  1.00  0.00     0.074 A 
ATOM     38  C   UNL     1       8.708   4.891  -0.406  1.00  0.00     0.049 A 
ATOM     39  N   UNL     1      11.383   3.870  -1.348  1.00  0.00    -0.248 NA
ATOM     40  C   UNL     1      10.382   1.807  -1.783  1.00  0.00     0.031 C 
ATOM     41  C   UNL     1       7.435   5.434   0.062  1.00  0.00     0.029 A 
ATOM     42  N   UNL     1       9.603   5.915  -0.224  1.00  0.00    -0.354 N 
ATOM     43  C   UNL     1      12.345   2.979  -1.809  1.00  0.00     0.074 A 
ATOM     44  C   UNL     1      11.681   1.712  -2.023  1.00  0.00     0.031 C 
ATOM     45  C   UNL     1       7.635   6.686   0.505  1.00  0.00     0.029 A 
ATOM     46  C   UNL     1       9.048   7.030   0.353  1.00  0.00     0.049 A 
ATOM     47  H   UNL     1      10.551   5.855  -0.483  1.00  0.00     0.167 HD
ATOM     48  C   UNL     1      13.657   3.198  -2.060  1.00  0.00     0.034 A 
ATOM     49  C   UNL     1       9.619   8.194   0.723  1.00  0.00     0.034 A 
ATOM     50  C   UNL     1      14.310   4.465  -1.868  1.00  0.00     0.049 A 
ATOM     51  C   UNL     1      11.074   8.428   0.418  1.00  0.00     0.074 A 
ATOM     52  C   UNL     1      15.620   4.810  -2.145  1.00  0.00     0.029 A 
ATOM     53  N   UNL     1      13.702   5.593  -1.338  1.00  0.00    -0.354 N 
ATOM     54  N   UNL     1      11.937   7.624  -0.155  1.00  0.00    -0.248 NA
ATOM     55  C   UNL     1      11.623   9.747   0.764  1.00  0.00     0.031 C 
ATOM     56  C   UNL     1      15.811   6.142  -1.760  1.00  0.00     0.029 A 
ATOM     57  C   UNL     1      14.612   6.634  -1.267  1.00  0.00     0.049 A 
ATOM     58  H   UNL     1      12.761   5.645  -1.053  1.00  0.00     0.167 HD
ATOM     59  C   UNL     1      13.121   8.345  -0.266  1.00  0.00     0.074 A 
ATOM     60  C   UNL     1      12.856   9.661   0.280  1.00  0.00     0.031 C 
ATOM     61  C   UNL     1      14.321   7.952  -0.761  1.00  0.00     0.034 A 
BRANCH  48  62
ATOM     62  C   UNL     1      14.460   2.041  -2.594  1.00  0.00     0.023 A 
ATOM     63  C   UNL     1      14.249   1.596  -3.916  1.00  0.00     0.012 A 
ATOM     64  C   UNL     1      15.428   1.401  -1.798  1.00  0.00     0.148 A 
ATOM     65  C   UNL     1      14.958   0.506  -4.421  1.00  0.00     0.002 A 
ATOM     66  C   UNL     1      16.162   0.344  -2.323  1.00  0.00     0.091 A 
ATOM     67  F   UNL     1      15.596   1.816  -0.534  1.00  0.00    -0.205 F 
ATOM     68  C   UNL     1      15.920  -0.114  -3.629  1.00  0.00     0.022 A 
BRANCH  66  69
ATOM     69  S   UNL     1      17.473  -0.465  -1.399  1.00  0.00     0.127 S 
ATOM     70  O   UNL     1      16.815  -1.698  -0.970  1.00  0.00    -0.237 OA
ATOM     71  O   UNL     1      18.506  -0.650  -2.419  1.00  0.00    -0.237 OA
ATOM     72  O   UNL     1      17.836   0.462  -0.336  1.00  0.00    -0.744 OA
ENDBRANCH  66  69
ENDBRANCH  48  62
BRANCH  49  73
ATOM     73  C   UNL     1       8.783   9.236   1.380  1.00  0.00     0.023 A 
ATOM     74  C   UNL     1       8.440  10.408   0.681  1.00  0.00     0.012 A 
ATOM     75  C   UNL     1       8.271   9.032   2.677  1.00  0.00     0.148 A 
ATOM     76  C   UNL     1       7.615  11.368   1.269  1.00  0.00     0.002 A 
ATOM     77  C   UNL     1       7.404   9.964   3.234  1.00  0.00     0.091 A 
ATOM     78  F   UNL     1       8.623   7.915   3.329  1.00  0.00    -0.205 F 
ATOM     79  C   UNL     1       7.087  11.141   2.538  1.00  0.00     0.022 A 
BRANCH  77  80
ATOM     80  S   UNL     1       6.564   9.685   4.797  1.00  0.00     0.127 S 
ATOM     81  O   UNL     1       7.187  10.688   5.655  1.00  0.00    -0.237 OA
ATOM     82  O   UNL     1       5.171   9.957   4.441  1.00  0.00    -0.237 OA
ATOM     83  O   UNL     1       6.833   8.297   5.148  1.00  0.00    -0.744 OA
ENDBRANCH  77  80
ENDBRANCH  49  73
BRANCH  61  84
ATOM     84  C   UNL     1      15.442   8.960  -0.759  1.00  0.00     0.023 A 
ATOM     85  C   UNL     1      16.060   9.317   0.456  1.00  0.00     0.012 A 
ATOM     86  C   UNL     1      15.928   9.500  -1.966  1.00  0.00     0.148 A 
ATOM     87  C   UNL     1      17.121  10.222   0.473  1.00  0.00     0.002 A 
ATOM     88  C   UNL     1      17.017  10.364  -1.946  1.00  0.00     0.091 A 
ATOM     89  F   UNL     1      15.315   9.165  -3.111  1.00  0.00    -0.205 F 
ATOM     90  C   UNL     1      17.606  10.736  -0.727  1.00  0.00     0.022 A 
BRANCH  88  91
ATOM     91  S   UNL     1      17.763  10.996  -3.454  1.00  0.00     0.127 S 
ATOM     92  O   UNL     1      17.233  12.357  -3.502  1.00  0.00    -0.237 OA
ATOM     93  O   UNL     1      19.193  10.909  -3.157  1.00  0.00    -0.237 OA
ATOM     94  O   UNL     1      17.316  10.107  -4.518  1.00  0.00    -0.744 OA
ENDBRANCH  88  91
ENDBRANCH  61  84
ENDBRANCH  35  36
ENDBRANCH  28  30
ENDBRANCH  27  28
ENDBRANCH  26  27
ENDBRANCH   1  26
TORSDOF 20
