REMARK SMILES O=C(OCCOCCOC(=O)[C@]12COc3ccccc3[C@H]1C[N@H+](CCO)C2)c1ccc(-c2c3nc(c(-c4cccc(S(=O)(=O)[O-])c4F)c4ccc([nH]4)c(-c4cccc(S(=O)(=O)[O-])c4F)c4nc(c(-c5cccc(S(=O)(=O)[O-])c5F)c5ccc2[nH]5)C=C4)C=C3)cc1
REMARK SMILES IDX 6 1 5 2 4 3 3 4 2 5 1 6 28 7 29 8 90 9 30 10 89 11 31 12
REMARK SMILES IDX 32 13 33 14 83 15 34 16 88 17 82 18 84 19 35 20 87 21 81 22
REMARK SMILES IDX 80 23 36 25 68 26 48 27 67 28 49 29 52 30 66 31 85 32 50 33
REMARK SMILES IDX 51 34 65 36 86 37 53 38 37 39 38 40 46 41 39 42 41 43 47 44
REMARK SMILES IDX 40 45 42 46 43 47 44 48 45 49 69 50 70 51 78 52 71 53 73 54
REMARK SMILES IDX 79 55 72 56 74 57 75 58 76 59 77 60 54 61 55 62 63 63 56 64
REMARK SMILES IDX 58 65 64 66 57 67 59 68 60 69 61 70 62 71 7 72 8 73 9 74
REMARK SMILES IDX 10 75 11 76 12 77 13 78 21 79 27 80 14 81 20 82 22 83 23 84
REMARK SMILES IDX 15 85 19 86 16 88 18 89 17 90 24 91 25 92 26 93
REMARK H PARENT 84 24 52 35 23 87 26 94
REMARK Flexibility Score: inf
ROOT
ATOM      1  O   UNL     1       4.037   0.489   0.995  1.00  0.00    -0.374 OA
ENDROOT
BRANCH   1   2
ATOM      2  C   UNL     1       4.436   0.879  -0.311  1.00  0.00     0.202 C 
BRANCH   2   3
ATOM      3  C   UNL     1       3.975   0.011  -1.486  1.00  0.00     0.261 C 
BRANCH   3   4
ATOM      4  O   UNL     1       2.622  -0.455  -1.417  1.00  0.00    -0.460 OA
BRANCH   4   5
ATOM      5  C   UNL     1       2.234  -1.674  -0.948  1.00  0.00     0.338 C 
ATOM      6  O   UNL     1       1.200  -2.182  -1.354  1.00  0.00    -0.246 OA
BRANCH   5   7
ATOM      7  C   UNL     1       2.913  -2.256   0.246  1.00  0.00     0.060 A 
ATOM      8  C   UNL     1       2.089  -2.747   1.274  1.00  0.00     0.016 A 
ATOM      9  C   UNL     1       4.297  -2.339   0.394  1.00  0.00     0.016 A 
ATOM     10  C   UNL     1       2.647  -3.274   2.444  1.00  0.00     0.010 A 
ATOM     11  C   UNL     1       4.855  -2.762   1.594  1.00  0.00     0.010 A 
ATOM     12  C   UNL     1       4.036  -3.276   2.606  1.00  0.00    -0.014 A 
BRANCH  12  13
ATOM     13  C   UNL     1       4.693  -4.084   3.650  1.00  0.00     0.031 A 
ATOM     14  C   UNL     1       5.010  -3.543   5.005  1.00  0.00     0.074 A 
ATOM     15  C   UNL     1       5.127  -5.298   3.257  1.00  0.00     0.049 A 
ATOM     16  N   UNL     1       5.524  -4.178   6.024  1.00  0.00    -0.248 NA
ATOM     17  C   UNL     1       4.732  -2.121   5.259  1.00  0.00     0.031 C 
ATOM     18  C   UNL     1       4.957  -5.846   1.904  1.00  0.00     0.029 A 
ATOM     19  N   UNL     1       5.853  -6.252   3.910  1.00  0.00    -0.354 N 
ATOM     20  C   UNL     1       5.601  -3.252   7.054  1.00  0.00     0.074 A 
ATOM     21  C   UNL     1       5.117  -1.993   6.527  1.00  0.00     0.031 C 
ATOM     22  C   UNL     1       5.635  -6.996   1.806  1.00  0.00     0.029 A 
ATOM     23  C   UNL     1       6.221  -7.301   3.104  1.00  0.00     0.049 A 
ATOM     24  H   UNL     1       6.089  -6.194   4.864  1.00  0.00     0.167 HD
ATOM     25  C   UNL     1       6.011  -3.467   8.326  1.00  0.00     0.034 A 
ATOM     26  C   UNL     1       6.925  -8.411   3.384  1.00  0.00     0.034 A 
ATOM     27  C   UNL     1       6.501  -4.739   8.793  1.00  0.00     0.049 A 
ATOM     28  C   UNL     1       7.303  -8.654   4.809  1.00  0.00     0.074 A 
ATOM     29  C   UNL     1       6.835  -5.111  10.083  1.00  0.00     0.029 A 
ATOM     30  N   UNL     1       6.747  -5.838   7.982  1.00  0.00    -0.354 N 
ATOM     31  N   UNL     1       7.152  -7.852   5.835  1.00  0.00    -0.248 NA
ATOM     32  C   UNL     1       7.867  -9.967   5.139  1.00  0.00     0.031 C 
ATOM     33  C   UNL     1       7.294  -6.430  10.050  1.00  0.00     0.029 A 
ATOM     34  C   UNL     1       7.235  -6.885   8.741  1.00  0.00     0.049 A 
ATOM     35  H   UNL     1       6.596  -5.867   7.010  1.00  0.00     0.167 HD
ATOM     36  C   UNL     1       7.570  -8.572   6.942  1.00  0.00     0.074 A 
ATOM     37  C   UNL     1       7.980  -9.877   6.459  1.00  0.00     0.031 C 
ATOM     38  C   UNL     1       7.609  -8.182   8.238  1.00  0.00     0.034 A 
BRANCH  25  39
ATOM     39  C   UNL     1       5.847  -2.373   9.348  1.00  0.00     0.023 A 
ATOM     40  C   UNL     1       4.562  -2.152   9.883  1.00  0.00     0.012 A 
ATOM     41  C   UNL     1       6.956  -1.716   9.918  1.00  0.00     0.148 A 
ATOM     42  C   UNL     1       4.380  -1.301  10.972  1.00  0.00     0.002 A 
ATOM     43  C   UNL     1       6.770  -0.885  11.020  1.00  0.00     0.091 A 
ATOM     44  F   UNL     1       8.170  -1.943   9.397  1.00  0.00    -0.205 F 
ATOM     45  C   UNL     1       5.484  -0.678  11.547  1.00  0.00     0.022 A 
BRANCH  43  46
ATOM     46  S   UNL     1       8.125  -0.078  11.883  1.00  0.00     0.127 S 
ATOM     47  O   UNL     1       7.789   1.335  11.706  1.00  0.00    -0.237 OA
ATOM     48  O   UNL     1       7.958  -0.576  13.248  1.00  0.00    -0.237 OA
ATOM     49  O   UNL     1       9.345  -0.508  11.214  1.00  0.00    -0.744 OA
ENDBRANCH  43  46
ENDBRANCH  25  39
BRANCH  26  50
ATOM     50  C   UNL     1       7.124  -9.406   2.300  1.00  0.00     0.023 A 
ATOM     51  C   UNL     1       6.222 -10.480   2.192  1.00  0.00     0.012 A 
ATOM     52  C   UNL     1       8.068  -9.184   1.278  1.00  0.00     0.148 A 
ATOM     53  C   UNL     1       6.256 -11.322   1.081  1.00  0.00     0.002 A 
ATOM     54  C   UNL     1       8.075 -10.007   0.158  1.00  0.00     0.091 A 
ATOM     55  F   UNL     1       8.901  -8.141   1.400  1.00  0.00    -0.205 F 
ATOM     56  C   UNL     1       7.173 -11.079   0.060  1.00  0.00     0.022 A 
BRANCH  54  57
ATOM     57  S   UNL     1       9.132  -9.699  -1.263  1.00  0.00     0.127 S 
ATOM     58  O   UNL     1      10.073 -10.813  -1.181  1.00  0.00    -0.237 OA
ATOM     59  O   UNL     1       8.180  -9.777  -2.372  1.00  0.00    -0.237 OA
ATOM     60  O   UNL     1       9.701  -8.375  -1.052  1.00  0.00    -0.744 OA
ENDBRANCH  54  57
ENDBRANCH  26  50
BRANCH  38  61
ATOM     61  C   UNL     1       8.124  -9.167   9.244  1.00  0.00     0.023 A 
ATOM     62  C   UNL     1       9.515  -9.317   9.400  1.00  0.00     0.012 A 
ATOM     63  C   UNL     1       7.242  -9.816  10.128  1.00  0.00     0.148 A 
ATOM     64  C   UNL     1      10.024 -10.102  10.431  1.00  0.00     0.002 A 
ATOM     65  C   UNL     1       7.757 -10.570  11.172  1.00  0.00     0.091 A 
ATOM     66  F   UNL     1       5.923  -9.652   9.947  1.00  0.00    -0.205 F 
ATOM     67  C   UNL     1       9.147 -10.716  11.323  1.00  0.00     0.022 A 
BRANCH  65  68
ATOM     68  S   UNL     1       6.718 -11.342  12.416  1.00  0.00     0.127 S 
ATOM     69  O   UNL     1       7.054 -12.756  12.249  1.00  0.00    -0.237 OA
ATOM     70  O   UNL     1       7.217 -10.737  13.650  1.00  0.00    -0.237 OA
ATOM     71  O   UNL     1       5.346 -10.995  12.072  1.00  0.00    -0.744 OA
ENDBRANCH  65  68
ENDBRANCH  38  61
ENDBRANCH  12  13
ENDBRANCH   5   7
ENDBRANCH   4   5
ENDBRANCH   3   4
ENDBRANCH   2   3
ENDBRANCH   1   2
BRANCH   1  72
ATOM     72  C   UNL     1       2.729   0.888   1.397  1.00  0.00     0.202 C 
BRANCH  72  73
ATOM     73  C   UNL     1       2.586   2.312   1.956  1.00  0.00     0.261 C 
BRANCH  73  74
ATOM     74  O   UNL     1       3.202   3.352   1.167  1.00  0.00    -0.463 OA
BRANCH  74  75
ATOM     75  C   UNL     1       4.498   3.554   1.513  1.00  0.00     0.322 C 
ATOM     76  O   UNL     1       5.116   2.825   2.287  1.00  0.00    -0.251 OA
BRANCH  75  77
ATOM     77  C   UNL     1       5.181   4.751   0.886  1.00  0.00     0.162 C 
ATOM     78  C   UNL     1       5.539   5.616   2.099  1.00  0.00     0.255 C 
ATOM     79  C   UNL     1       4.533   5.656  -0.172  1.00  0.00     0.105 C 
ATOM     80  C   UNL     1       6.370   4.147   0.110  1.00  0.00     0.285 C 
ATOM     81  O   UNL     1       4.343   6.223   2.640  1.00  0.00    -0.492 OA
ATOM     82  C   UNL     1       3.839   6.884   0.371  1.00  0.00     0.004 A 
ATOM     83  C   UNL     1       5.759   6.151  -0.971  1.00  0.00     0.272 C 
ATOM     84  N   UNL     1       6.734   5.079  -0.958  1.00  0.00    -0.331 N 
ATOM     85  C   UNL     1       3.761   7.084   1.750  1.00  0.00     0.123 A 
ATOM     86  C   UNL     1       3.383   7.904  -0.482  1.00  0.00     0.008 A 
ATOM     87  H   UNL     1       7.650   5.471  -0.740  1.00  0.00     0.348 HD
ATOM     88  C   UNL     1       3.139   8.214   2.274  1.00  0.00     0.047 A 
ATOM     89  C   UNL     1       2.852   9.084   0.042  1.00  0.00     0.001 A 
ATOM     90  C   UNL     1       2.704   9.227   1.420  1.00  0.00     0.004 A 
BRANCH  84  91
ATOM     91  C   UNL     1       7.051   4.485  -2.264  1.00  0.00     0.290 C 
BRANCH  91  92
ATOM     92  C   UNL     1       5.909   3.929  -3.141  1.00  0.00     0.217 C 
BRANCH  92  93
ATOM     93  O   UNL     1       5.121   4.954  -3.740  1.00  0.00    -0.391 OA
ATOM     94  H   UNL     1       4.700   5.486  -3.046  1.00  0.00     0.210 HD
ENDBRANCH  92  93
ENDBRANCH  91  92
ENDBRANCH  84  91
ENDBRANCH  75  77
ENDBRANCH  74  75
ENDBRANCH  73  74
ENDBRANCH  72  73
ENDBRANCH   1  72
TORSDOF 20
