REMARK SMILES CCOc1cccc2c(SCC(=O)OCCOCCOC(=O)c3ccc(-c4c5nc(c(-c6cccc(S(=O)(=O)[O-])c6F)c6ccc([nH]6)c(-c6cccc(S(=O)(=O)[O-])c6F)c6nc(c(-c7cccc(S(=O)(=O)[O-])c7F)c7ccc4[nH]7)C=C6)C=C5)cc3)cc(C)nc12
REMARK SMILES IDX 16 1 15 2 14 3 12 4 13 5 11 6 10 7 9 8 4 9 5 10 90 11 6 12
REMARK SMILES IDX 8 13 89 14 7 15 87 16 86 17 88 18 3 19 2 20 1 21 17 22 18 23
REMARK SMILES IDX 19 24 20 25 21 26 22 27 23 28 24 29 85 30 25 31 84 32 26 33
REMARK SMILES IDX 27 34 28 35 78 36 29 37 83 38 77 39 79 40 30 41 82 42 76 43
REMARK SMILES IDX 75 44 31 46 63 47 43 48 62 49 44 50 47 51 61 52 80 53 45 54
REMARK SMILES IDX 46 55 60 57 81 58 48 59 32 60 33 61 41 62 34 63 36 64 42 65
REMARK SMILES IDX 35 66 37 67 38 68 39 69 40 70 64 71 65 72 73 73 66 74 68 75
REMARK SMILES IDX 74 76 67 77 69 78 70 79 71 80 72 81 49 82 50 83 58 84 51 85
REMARK SMILES IDX 53 86 59 87 52 88 54 89 55 90 56 91 57 92
REMARK H PARENT 79 45 47 56
REMARK Flexibility Score: inf
ROOT
ATOM      1  C   UNL     1       7.257  -2.820  -2.111  1.00  0.00     0.202 C 
ENDROOT
BRANCH   1   2
ATOM      2  C   UNL     1       8.468  -1.879  -2.159  1.00  0.00     0.261 C 
BRANCH   2   3
ATOM      3  O   UNL     1       8.282  -0.664  -1.398  1.00  0.00    -0.463 OA
BRANCH   3   4
ATOM      4  C   UNL     1       8.328   0.504  -2.092  1.00  0.00     0.316 C 
ATOM      5  O   UNL     1       8.456   0.582  -3.312  1.00  0.00    -0.251 OA
BRANCH   4   6
ATOM      6  C   UNL     1       8.281   1.754  -1.238  1.00  0.00     0.197 C 
BRANCH   6   7
ATOM      7  S   UNL     1       7.454   1.615   0.373  1.00  0.00    -0.114 SA
BRANCH   7   8
ATOM      8  C   UNL     1       5.676   1.836   0.090  1.00  0.00     0.019 A 
ATOM      9  C   UNL     1       2.520   1.597   2.026  1.00  0.00     0.145 A 
ATOM     10  C   UNL     1       2.947   1.545   3.355  1.00  0.00     0.049 A 
ATOM     11  C   UNL     1       3.405   1.768   0.951  1.00  0.00     0.114 A 
ATOM     12  C   UNL     1       4.301   1.610   3.630  1.00  0.00     0.005 A 
ATOM     13  C   UNL     1       4.792   1.779   1.215  1.00  0.00     0.018 A 
ATOM     14  N   UNL     1       2.919   1.867  -0.302  1.00  0.00    -0.249 NA
ATOM     15  C   UNL     1       5.209   1.712   2.576  1.00  0.00     0.012 A 
ATOM     16  C   UNL     1       3.761   1.964  -1.347  1.00  0.00     0.039 A 
ATOM     17  C   UNL     1       5.138   1.960  -1.193  1.00  0.00     0.039 A 
ATOM     18  C   UNL     1       3.122   1.874  -2.701  1.00  0.00     0.067 C 
BRANCH   9  19
ATOM     19  O   UNL     1       1.161   1.515   1.799  1.00  0.00    -0.492 OA
BRANCH  19  20
ATOM     20  C   UNL     1       0.735   0.147   1.688  1.00  0.00     0.226 C 
ATOM     21  C   UNL     1       0.613  -0.272   0.233  1.00  0.00     0.049 C 
ENDBRANCH  19  20
ENDBRANCH   9  19
ENDBRANCH   7   8
ENDBRANCH   6   7
ENDBRANCH   4   6
ENDBRANCH   3   4
ENDBRANCH   2   3
ENDBRANCH   1   2
BRANCH   1  22
ATOM     22  O   UNL     1       6.101  -2.398  -2.842  1.00  0.00    -0.374 OA
BRANCH  22  23
ATOM     23  C   UNL     1       5.372  -1.299  -2.304  1.00  0.00     0.202 C 
BRANCH  23  24
ATOM     24  C   UNL     1       4.445  -1.618  -1.130  1.00  0.00     0.261 C 
BRANCH  24  25
ATOM     25  O   UNL     1       5.138  -2.259  -0.058  1.00  0.00    -0.460 OA
BRANCH  25  26
ATOM     26  C   UNL     1       4.533  -3.384   0.375  1.00  0.00     0.338 C 
ATOM     27  O   UNL     1       3.413  -3.787   0.086  1.00  0.00    -0.246 OA
BRANCH  26  28
ATOM     28  C   UNL     1       5.487  -4.195   1.135  1.00  0.00     0.060 A 
ATOM     29  C   UNL     1       5.778  -5.464   0.627  1.00  0.00     0.016 A 
ATOM     30  C   UNL     1       5.999  -3.771   2.363  1.00  0.00     0.016 A 
ATOM     31  C   UNL     1       6.520  -6.352   1.393  1.00  0.00     0.010 A 
ATOM     32  C   UNL     1       6.750  -4.666   3.130  1.00  0.00     0.010 A 
ATOM     33  C   UNL     1       6.965  -5.975   2.668  1.00  0.00    -0.014 A 
BRANCH  33  34
ATOM     34  C   UNL     1       7.536  -7.027   3.538  1.00  0.00     0.031 A 
ATOM     35  C   UNL     1       6.655  -7.696   4.556  1.00  0.00     0.074 A 
ATOM     36  C   UNL     1       8.798  -7.445   3.340  1.00  0.00     0.049 A 
ATOM     37  N   UNL     1       6.883  -8.772   5.262  1.00  0.00    -0.248 NA
ATOM     38  C   UNL     1       5.343  -7.077   4.809  1.00  0.00     0.031 C 
ATOM     39  C   UNL     1       9.743  -6.845   2.398  1.00  0.00     0.029 A 
ATOM     40  N   UNL     1       9.495  -8.478   3.909  1.00  0.00    -0.354 N 
ATOM     41  C   UNL     1       5.748  -8.960   6.042  1.00  0.00     0.074 A 
ATOM     42  C   UNL     1       4.844  -7.871   5.746  1.00  0.00     0.031 C 
ATOM     43  C   UNL     1      10.899  -7.528   2.449  1.00  0.00     0.029 A 
ATOM     44  C   UNL     1      10.771  -8.613   3.419  1.00  0.00     0.049 A 
ATOM     45  H   UNL     1       9.117  -9.067   4.601  1.00  0.00     0.167 HD
ATOM     46  C   UNL     1       5.474  -9.968   6.904  1.00  0.00     0.034 A 
ATOM     47  C   UNL     1      11.720  -9.524   3.708  1.00  0.00     0.034 A 
ATOM     48  C   UNL     1       6.375 -11.054   7.178  1.00  0.00     0.049 A 
ATOM     49  C   UNL     1      11.379 -10.650   4.649  1.00  0.00     0.074 A 
ATOM     50  C   UNL     1       6.184 -12.147   8.003  1.00  0.00     0.029 A 
ATOM     51  N   UNL     1       7.647 -11.176   6.638  1.00  0.00    -0.354 N 
ATOM     52  N   UNL     1      10.246 -10.899   5.262  1.00  0.00    -0.248 NA
ATOM     53  C   UNL     1      12.430 -11.646   4.898  1.00  0.00     0.031 C 
ATOM     54  C   UNL     1       7.349 -12.924   7.974  1.00  0.00     0.029 A 
ATOM     55  C   UNL     1       8.258 -12.322   7.117  1.00  0.00     0.049 A 
ATOM     56  H   UNL     1       8.056 -10.541   6.007  1.00  0.00     0.167 HD
ATOM     57  C   UNL     1      10.438 -12.092   5.949  1.00  0.00     0.074 A 
ATOM     58  C   UNL     1      11.787 -12.531   5.648  1.00  0.00     0.031 C 
ATOM     59  C   UNL     1       9.588 -12.757   6.771  1.00  0.00     0.034 A 
BRANCH  46  60
ATOM     60  C   UNL     1       4.127  -9.960   7.577  1.00  0.00     0.023 A 
ATOM     61  C   UNL     1       2.978 -10.297   6.832  1.00  0.00     0.012 A 
ATOM     62  C   UNL     1       3.998  -9.661   8.947  1.00  0.00     0.148 A 
ATOM     63  C   UNL     1       1.719 -10.310   7.432  1.00  0.00     0.002 A 
ATOM     64  C   UNL     1       2.744  -9.712   9.547  1.00  0.00     0.091 A 
ATOM     65  F   UNL     1       5.097  -9.316   9.633  1.00  0.00    -0.205 F 
ATOM     66  C   UNL     1       1.603 -10.027   8.790  1.00  0.00     0.022 A 
BRANCH  64  67
ATOM     67  S   UNL     1       2.501  -9.425  11.304  1.00  0.00     0.127 S 
ATOM     68  O   UNL     1       1.869  -8.106  11.303  1.00  0.00    -0.237 OA
ATOM     69  O   UNL     1       1.612 -10.526  11.678  1.00  0.00    -0.237 OA
ATOM     70  O   UNL     1       3.825  -9.486  11.906  1.00  0.00    -0.744 OA
ENDBRANCH  64  67
ENDBRANCH  46  60
BRANCH  47  71
ATOM     71  C   UNL     1      13.044  -9.451   3.031  1.00  0.00     0.023 A 
ATOM     72  C   UNL     1      13.396 -10.422   2.074  1.00  0.00     0.012 A 
ATOM     73  C   UNL     1      13.938  -8.396   3.297  1.00  0.00     0.148 A 
ATOM     74  C   UNL     1      14.623 -10.357   1.413  1.00  0.00     0.002 A 
ATOM     75  C   UNL     1      15.134  -8.305   2.594  1.00  0.00     0.091 A 
ATOM     76  F   UNL     1      13.596  -7.491   4.226  1.00  0.00    -0.205 F 
ATOM     77  C   UNL     1      15.486  -9.293   1.663  1.00  0.00     0.022 A 
BRANCH  75  78
ATOM     78  S   UNL     1      16.229  -6.890   2.756  1.00  0.00     0.127 S 
ATOM     79  O   UNL     1      17.301  -7.433   3.585  1.00  0.00    -0.237 OA
ATOM     80  O   UNL     1      16.598  -6.627   1.364  1.00  0.00    -0.237 OA
ATOM     81  O   UNL     1      15.419  -5.843   3.364  1.00  0.00    -0.744 OA
ENDBRANCH  75  78
ENDBRANCH  47  71
BRANCH  59  82
ATOM     82  C   UNL     1      10.092 -14.029   7.400  1.00  0.00     0.023 A 
ATOM     83  C   UNL     1      11.051 -13.960   8.430  1.00  0.00     0.012 A 
ATOM     84  C   UNL     1       9.584 -15.283   7.011  1.00  0.00     0.148 A 
ATOM     85  C   UNL     1      11.526 -15.122   9.036  1.00  0.00     0.002 A 
ATOM     86  C   UNL     1      10.028 -16.434   7.652  1.00  0.00     0.091 A 
ATOM     87  F   UNL     1       8.688 -15.333   6.014  1.00  0.00    -0.205 F 
ATOM     88  C   UNL     1      11.007 -16.357   8.655  1.00  0.00     0.022 A 
BRANCH  86  89
ATOM     89  S   UNL     1       9.338 -18.050   7.279  1.00  0.00     0.127 S 
ATOM     90  O   UNL     1      10.329 -18.592   6.351  1.00  0.00    -0.237 OA
ATOM     91  O   UNL     1       9.316 -18.697   8.592  1.00  0.00    -0.237 OA
ATOM     92  O   UNL     1       8.019 -17.791   6.718  1.00  0.00    -0.744 OA
ENDBRANCH  86  89
ENDBRANCH  59  82
ENDBRANCH  33  34
ENDBRANCH  26  28
ENDBRANCH  25  26
ENDBRANCH  24  25
ENDBRANCH  23  24
ENDBRANCH  22  23
ENDBRANCH   1  22
TORSDOF 21
