REMARK SMILES O=C(CC1(C(=O)OCCOCCOC(=O)c2ccc(-c3c4nc(c(-c5cccc(S(=O)(=O)[O-])c5F)c5ccc([nH]5)c(-c5cccc(S(=O)(=O)[O-])c5F)c5nc(c(-c6cccc(S(=O)(=O)[O-])c6F)c6ccc3[nH]6)C=C5)C=C4)cc2)CCCCC1)Nc1ccc(N2CCOC2=O)cc1
REMARK SMILES IDX 9 1 8 2 7 3 5 4 6 5 4 6 79 7 83 8 80 9 82 10 81 11 3 12 2 13
REMARK SMILES IDX 1 14 84 15 85 17 86 18 96 19 87 20 95 21 88 22 89 23 90 24
REMARK SMILES IDX 93 25 91 26 92 27 94 28 10 29 11 30 12 31 13 32 14 33 15 34
REMARK SMILES IDX 16 35 17 36 78 37 18 38 77 39 19 40 20 41 21 42 71 43 22 44
REMARK SMILES IDX 76 45 70 46 72 47 23 48 75 49 69 50 68 51 24 53 56 54 36 55
REMARK SMILES IDX 55 56 37 57 40 58 54 59 73 60 38 61 39 62 53 64 74 65 41 66
REMARK SMILES IDX 25 67 26 68 34 69 27 70 29 71 35 72 28 73 30 74 31 75 32 76
REMARK SMILES IDX 33 77 57 78 58 79 66 80 59 81 61 82 67 83 60 84 62 85 63 86
REMARK SMILES IDX 64 87 65 88 42 89 43 90 51 91 44 92 46 93 52 94 45 95 47 96
REMARK SMILES IDX 48 97 49 98 50 99
REMARK H PARENT 84 16 72 52 40 63
REMARK Flexibility Score: inf
ROOT
ATOM      1  C   UNL     1       1.383  -1.672  -4.524  1.00  0.00     0.202 C 
ENDROOT
BRANCH   1   2
ATOM      2  C   UNL     1       2.741  -1.009  -4.287  1.00  0.00     0.261 C 
BRANCH   2   3
ATOM      3  O   UNL     1       3.391  -1.528  -3.119  1.00  0.00    -0.463 OA
BRANCH   3   4
ATOM      4  C   UNL     1       3.669  -0.615  -2.161  1.00  0.00     0.312 C 
ATOM      5  O   UNL     1       3.528   0.593  -2.316  1.00  0.00    -0.252 OA
BRANCH   4   6
ATOM      6  C   UNL     1       4.277  -1.202  -0.876  1.00  0.00     0.077 C 
ATOM      7  C   UNL     1       5.679  -0.544  -0.763  1.00  0.00     0.019 C 
ATOM      8  C   UNL     1       4.480  -2.746  -0.877  1.00  0.00     0.019 C 
ATOM      9  C   UNL     1       6.628  -1.023  -1.867  1.00  0.00     0.001 C 
ATOM     10  C   UNL     1       5.499  -3.284  -1.879  1.00  0.00     0.001 C 
ATOM     11  C   UNL     1       6.820  -2.533  -1.819  1.00  0.00     0.000 C 
BRANCH   6  12
ATOM     12  C   UNL     1       3.404  -0.873   0.387  1.00  0.00     0.119 C 
BRANCH  12  13
ATOM     13  C   UNL     1       2.433   0.312   0.456  1.00  0.00     0.225 C 
ATOM     14  O   UNL     1       1.317   0.157   0.950  1.00  0.00    -0.275 OA
ATOM     15  N   UNL     1       2.936   1.498  -0.015  1.00  0.00    -0.326 N 
ATOM     16  H   UNL     1       3.890   1.507  -0.255  1.00  0.00     0.169 HD
BRANCH  15  17
ATOM     17  C   UNL     1       2.232   2.701  -0.190  1.00  0.00     0.041 A 
ATOM     18  C   UNL     1       2.647   3.498  -1.264  1.00  0.00     0.028 A 
ATOM     19  C   UNL     1       1.154   3.109   0.589  1.00  0.00     0.028 A 
ATOM     20  C   UNL     1       1.941   4.644  -1.614  1.00  0.00     0.028 A 
ATOM     21  C   UNL     1       0.505   4.316   0.296  1.00  0.00     0.028 A 
ATOM     22  C   UNL     1       0.875   5.071  -0.824  1.00  0.00     0.047 A 
BRANCH  22  23
ATOM     23  N   UNL     1       0.159   6.223  -1.177  1.00  0.00    -0.274 N 
ATOM     24  C   UNL     1      -0.160   6.570  -2.523  1.00  0.00     0.171 C 
ATOM     25  C   UNL     1      -0.263   7.209  -0.314  1.00  0.00     0.414 C 
ATOM     26  C   UNL     1      -1.200   7.644  -2.324  1.00  0.00     0.257 C 
ATOM     27  O   UNL     1      -0.945   8.169  -1.018  1.00  0.00    -0.447 OA
ATOM     28  O   UNL     1      -0.052   7.303   0.890  1.00  0.00    -0.224 OA
ENDBRANCH  22  23
ENDBRANCH  15  17
ENDBRANCH  12  13
ENDBRANCH   6  12
ENDBRANCH   4   6
ENDBRANCH   3   4
ENDBRANCH   2   3
ENDBRANCH   1   2
BRANCH   1  29
ATOM     29  O   UNL     1       0.517  -1.840  -3.407  1.00  0.00    -0.374 OA
BRANCH  29  30
ATOM     30  C   UNL     1       0.909  -2.737  -2.368  1.00  0.00     0.202 C 
BRANCH  30  31
ATOM     31  C   UNL     1       1.151  -4.218  -2.709  1.00  0.00     0.261 C 
BRANCH  31  32
ATOM     32  O   UNL     1       2.216  -4.440  -3.653  1.00  0.00    -0.460 OA
BRANCH  32  33
ATOM     33  C   UNL     1       1.822  -4.987  -4.832  1.00  0.00     0.338 C 
ATOM     34  O   UNL     1       0.690  -5.320  -5.146  1.00  0.00    -0.246 OA
BRANCH  33  35
ATOM     35  C   UNL     1       2.921  -4.947  -5.813  1.00  0.00     0.060 A 
ATOM     36  C   UNL     1       2.741  -4.168  -6.964  1.00  0.00     0.016 A 
ATOM     37  C   UNL     1       4.049  -5.754  -5.671  1.00  0.00     0.016 A 
ATOM     38  C   UNL     1       3.674  -4.217  -7.996  1.00  0.00     0.010 A 
ATOM     39  C   UNL     1       4.979  -5.812  -6.715  1.00  0.00     0.010 A 
ATOM     40  C   UNL     1       4.778  -5.071  -7.895  1.00  0.00    -0.014 A 
BRANCH  40  41
ATOM     41  C   UNL     1       5.646  -5.284  -9.079  1.00  0.00     0.031 A 
ATOM     42  C   UNL     1       5.502  -6.550  -9.878  1.00  0.00     0.074 A 
ATOM     43  C   UNL     1       6.548  -4.354  -9.442  1.00  0.00     0.049 A 
ATOM     44  N   UNL     1       6.188  -6.958 -10.912  1.00  0.00    -0.248 NA
ATOM     45  C   UNL     1       4.443  -7.482  -9.453  1.00  0.00     0.031 C 
ATOM     46  C   UNL     1       6.766  -3.080  -8.758  1.00  0.00     0.029 A 
ATOM     47  N   UNL     1       7.467  -4.354 -10.461  1.00  0.00    -0.354 N 
ATOM     48  C   UNL     1       5.676  -8.208 -11.239  1.00  0.00     0.074 A 
ATOM     49  C   UNL     1       4.621  -8.493 -10.290  1.00  0.00     0.031 C 
ATOM     50  C   UNL     1       7.780  -2.434  -9.358  1.00  0.00     0.029 A 
ATOM     51  C   UNL     1       8.304  -3.263 -10.441  1.00  0.00     0.049 A 
ATOM     52  H   UNL     1       7.521  -5.065 -11.140  1.00  0.00     0.167 HD
ATOM     53  C   UNL     1       6.044  -9.039 -12.243  1.00  0.00     0.034 A 
ATOM     54  C   UNL     1       9.390  -2.984 -11.188  1.00  0.00     0.034 A 
ATOM     55  C   UNL     1       7.082  -8.743 -13.194  1.00  0.00     0.049 A 
ATOM     56  C   UNL     1       9.803  -3.943 -12.274  1.00  0.00     0.074 A 
ATOM     57  C   UNL     1       7.493  -9.496 -14.279  1.00  0.00     0.029 A 
ATOM     58  N   UNL     1       7.889  -7.616 -13.162  1.00  0.00    -0.354 N 
ATOM     59  N   UNL     1       9.240  -5.068 -12.641  1.00  0.00    -0.248 NA
ATOM     60  C   UNL     1      10.985  -3.578 -13.070  1.00  0.00     0.031 C 
ATOM     61  C   UNL     1       8.578  -8.847 -14.876  1.00  0.00     0.029 A 
ATOM     62  C   UNL     1       8.810  -7.664 -14.193  1.00  0.00     0.049 A 
ATOM     63  H   UNL     1       7.816  -6.888 -12.502  1.00  0.00     0.167 HD
ATOM     64  C   UNL     1       9.973  -5.526 -13.731  1.00  0.00     0.074 A 
ATOM     65  C   UNL     1      11.011  -4.546 -13.976  1.00  0.00     0.031 C 
ATOM     66  C   UNL     1       9.809  -6.660 -14.457  1.00  0.00     0.034 A 
BRANCH  53  67
ATOM     67  C   UNL     1       5.320 -10.354 -12.370  1.00  0.00     0.023 A 
ATOM     68  C   UNL     1       3.984 -10.385 -12.816  1.00  0.00     0.012 A 
ATOM     69  C   UNL     1       5.989 -11.566 -12.105  1.00  0.00     0.148 A 
ATOM     70  C   UNL     1       3.313 -11.599 -12.965  1.00  0.00     0.002 A 
ATOM     71  C   UNL     1       5.330 -12.774 -12.303  1.00  0.00     0.091 A 
ATOM     72  F   UNL     1       7.253 -11.515 -11.662  1.00  0.00    -0.205 F 
ATOM     73  C   UNL     1       3.989 -12.792 -12.720  1.00  0.00     0.022 A 
BRANCH  71  74
ATOM     74  S   UNL     1       6.138 -14.364 -12.093  1.00  0.00     0.127 S 
ATOM     75  O   UNL     1       5.453 -14.889 -10.913  1.00  0.00    -0.237 OA
ATOM     76  O   UNL     1       5.804 -15.044 -13.345  1.00  0.00    -0.237 OA
ATOM     77  O   UNL     1       7.554 -14.077 -11.915  1.00  0.00    -0.744 OA
ENDBRANCH  71  74
ENDBRANCH  53  67
BRANCH  54  78
ATOM     78  C   UNL     1      10.164  -1.735 -10.938  1.00  0.00     0.023 A 
ATOM     79  C   UNL     1      10.172  -0.712 -11.905  1.00  0.00     0.012 A 
ATOM     80  C   UNL     1      10.885  -1.556  -9.741  1.00  0.00     0.148 A 
ATOM     81  C   UNL     1      10.911   0.454 -11.698  1.00  0.00     0.002 A 
ATOM     82  C   UNL     1      11.569  -0.368  -9.516  1.00  0.00     0.091 A 
ATOM     83  F   UNL     1      10.876  -2.549  -8.840  1.00  0.00    -0.205 F 
ATOM     84  C   UNL     1      11.601   0.630 -10.501  1.00  0.00     0.022 A 
BRANCH  82  85
ATOM     85  S   UNL     1      12.371  -0.001  -7.952  1.00  0.00     0.127 S 
ATOM     86  O   UNL     1      13.781   0.006  -8.333  1.00  0.00    -0.237 OA
ATOM     87  O   UNL     1      11.811   1.312  -7.631  1.00  0.00    -0.237 OA
ATOM     88  O   UNL     1      11.969  -1.064  -7.041  1.00  0.00    -0.744 OA
ENDBRANCH  82  85
ENDBRANCH  54  78
BRANCH  66  89
ATOM     89  C   UNL     1      10.738  -6.890 -15.623  1.00  0.00     0.023 A 
ATOM     90  C   UNL     1      12.089  -7.219 -15.398  1.00  0.00     0.012 A 
ATOM     91  C   UNL     1      10.246  -6.854 -16.943  1.00  0.00     0.148 A 
ATOM     92  C   UNL     1      12.944  -7.475 -16.470  1.00  0.00     0.002 A 
ATOM     93  C   UNL     1      11.090  -7.164 -18.003  1.00  0.00     0.091 A 
ATOM     94  F   UNL     1       8.961  -6.524 -17.138  1.00  0.00    -0.205 F 
ATOM     95  C   UNL     1      12.442  -7.460 -17.769  1.00  0.00     0.022 A 
BRANCH  93  96
ATOM     96  S   UNL     1      10.511  -7.267 -19.700  1.00  0.00     0.127 S 
ATOM     97  O   UNL     1      11.174  -6.116 -20.311  1.00  0.00    -0.237 OA
ATOM     98  O   UNL     1      11.032  -8.567 -20.125  1.00  0.00    -0.237 OA
ATOM     99  O   UNL     1       9.058  -7.186 -19.638  1.00  0.00    -0.744 OA
ENDBRANCH  93  96
ENDBRANCH  66  89
ENDBRANCH  40  41
ENDBRANCH  33  35
ENDBRANCH  32  33
ENDBRANCH  31  32
ENDBRANCH  30  31
ENDBRANCH  29  30
ENDBRANCH   1  29
TORSDOF 21
