REMARK SMILES Cc1cccc(NC(=O)[C@H]2C=C[C@@H]([NH3+])C2)c1C(=O)OCCOCCOC(=O)c1ccc(-c2c3nc(c(-c4cccc(S(=O)(=O)[O-])c4F)c4ccc([nH]4)c(-c4cccc(S(=O)(=O)[O-])c4F)c4nc(c(-c5cccc(S(=O)(=O)[O-])c5F)c5ccc2[nH]5)C=C4)C=C3)cc1
REMARK SMILES IDX 22 1 21 2 20 3 19 4 17 5 18 6 16 7 1 8 2 9 3 10 4 11 6 12
REMARK SMILES IDX 5 13 7 14 8 15 9 17 10 18 11 19 15 20 12 21 13 22 14 23
REMARK SMILES IDX 23 27 24 28 25 29 26 30 27 31 28 32 29 33 90 34 30 35 89 36
REMARK SMILES IDX 31 37 32 38 33 39 83 40 34 41 88 42 82 43 84 44 35 45 87 46
REMARK SMILES IDX 81 47 80 48 36 50 68 51 48 52 67 53 49 54 52 55 66 56 85 57
REMARK SMILES IDX 50 58 51 59 65 61 86 62 53 63 37 64 38 65 46 66 39 67 41 68
REMARK SMILES IDX 47 69 40 70 42 71 43 72 44 73 45 74 69 75 70 76 78 77 71 78
REMARK SMILES IDX 73 79 79 80 72 81 74 82 75 83 76 84 77 85 54 86 55 87 63 88
REMARK SMILES IDX 56 89 58 90 64 91 57 92 59 93 60 94 61 95 62 96
REMARK H PARENT 7 16 14 24 14 25 14 26 84 49 52 60
REMARK Flexibility Score: inf
ROOT
ATOM      1  O   UNL     1      -0.234   2.933  -2.859  1.00  0.00    -0.374 OA
ENDROOT
BRANCH   1   2
ATOM      2  C   UNL     1       0.236   3.783  -1.828  1.00  0.00     0.202 C 
BRANCH   2   3
ATOM      3  C   UNL     1       1.480   3.297  -1.082  1.00  0.00     0.261 C 
BRANCH   3   4
ATOM      4  O   UNL     1       1.347   1.947  -0.691  1.00  0.00    -0.460 OA
BRANCH   4   5
ATOM      5  C   UNL     1       0.476   1.810   0.329  1.00  0.00     0.340 C 
ATOM      6  O   UNL     1      -0.095   2.695   0.953  1.00  0.00    -0.246 OA
BRANCH   5   7
ATOM      7  C   UNL     1      -0.052   0.458   0.196  1.00  0.00     0.086 A 
ATOM      8  C   UNL     1       2.294  -0.608   0.235  1.00  0.00     0.045 C 
ATOM      9  C   UNL     1       0.803  -0.659   0.056  1.00  0.00    -0.034 A 
ATOM     10  C   UNL     1       0.236  -1.864  -0.353  1.00  0.00     0.004 A 
ATOM     11  C   UNL     1      -1.096  -1.899  -0.746  1.00  0.00     0.002 A 
ATOM     12  C   UNL     1      -1.440   0.402  -0.059  1.00  0.00     0.056 A 
ATOM     13  C   UNL     1      -1.897  -0.755  -0.649  1.00  0.00     0.027 A 
BRANCH  12  14
ATOM     14  N   UNL     1      -2.248   1.533   0.203  1.00  0.00    -0.325 N 
ATOM     15  C   UNL     1      -3.553   1.876   0.230  1.00  0.00     0.231 C 
ATOM     16  H   UNL     1      -1.687   2.307   0.437  1.00  0.00     0.169 HD
ATOM     17  O   UNL     1      -3.782   3.090   0.367  1.00  0.00    -0.274 OA
BRANCH  15  18
ATOM     18  C   UNL     1      -4.761   0.967   0.061  1.00  0.00     0.107 C 
ATOM     19  C   UNL     1      -5.100   0.807  -1.388  1.00  0.00    -0.012 C 
ATOM     20  C   UNL     1      -4.790  -0.451   0.632  1.00  0.00     0.087 C 
ATOM     21  C   UNL     1      -5.481  -0.442  -1.669  1.00  0.00     0.033 C 
ATOM     22  C   UNL     1      -5.470  -1.316  -0.455  1.00  0.00     0.205 C 
BRANCH  22  23
ATOM     23  N   UNL     1      -4.803  -2.583  -0.717  1.00  0.00    -0.352 N 
ATOM     24  H   UNL     1      -3.849  -2.406  -1.030  1.00  0.00     0.345 HD
ATOM     25  H   UNL     1      -5.310  -3.091  -1.441  1.00  0.00     0.345 HD
ATOM     26  H   UNL     1      -4.783  -3.140   0.138  1.00  0.00     0.345 HD
ENDBRANCH  22  23
ENDBRANCH  15  18
ENDBRANCH  12  14
ENDBRANCH   5   7
ENDBRANCH   4   5
ENDBRANCH   3   4
ENDBRANCH   2   3
ENDBRANCH   1   2
BRANCH   1  27
ATOM     27  C   UNL     1       0.704   2.428  -3.801  1.00  0.00     0.202 C 
BRANCH  27  28
ATOM     28  C   UNL     1       2.030   3.176  -4.134  1.00  0.00     0.261 C 
BRANCH  28  29
ATOM     29  O   UNL     1       1.975   4.595  -3.858  1.00  0.00    -0.460 OA
BRANCH  29  30
ATOM     30  C   UNL     1       3.169   5.262  -3.737  1.00  0.00     0.338 C 
ATOM     31  O   UNL     1       4.099   5.157  -4.516  1.00  0.00    -0.246 OA
BRANCH  30  32
ATOM     32  C   UNL     1       3.205   5.959  -2.399  1.00  0.00     0.060 A 
ATOM     33  C   UNL     1       4.321   5.814  -1.569  1.00  0.00     0.016 A 
ATOM     34  C   UNL     1       2.040   6.478  -1.844  1.00  0.00     0.016 A 
ATOM     35  C   UNL     1       4.189   5.892  -0.166  1.00  0.00     0.010 A 
ATOM     36  C   UNL     1       1.887   6.484  -0.451  1.00  0.00     0.010 A 
ATOM     37  C   UNL     1       2.931   6.079   0.407  1.00  0.00    -0.014 A 
BRANCH  37  38
ATOM     38  C   UNL     1       2.553   5.578   1.761  1.00  0.00     0.031 A 
ATOM     39  C   UNL     1       1.721   6.376   2.719  1.00  0.00     0.074 A 
ATOM     40  C   UNL     1       2.647   4.245   2.041  1.00  0.00     0.049 A 
ATOM     41  N   UNL     1       1.452   5.991   3.928  1.00  0.00    -0.248 NA
ATOM     42  C   UNL     1       1.161   7.694   2.429  1.00  0.00     0.031 C 
ATOM     43  C   UNL     1       1.731   3.505   2.918  1.00  0.00     0.029 A 
ATOM     44  N   UNL     1       3.530   3.247   1.600  1.00  0.00    -0.354 N 
ATOM     45  C   UNL     1       0.418   6.769   4.393  1.00  0.00     0.074 A 
ATOM     46  C   UNL     1       0.397   7.905   3.508  1.00  0.00     0.031 C 
ATOM     47  C   UNL     1       2.175   2.259   3.096  1.00  0.00     0.029 A 
ATOM     48  C   UNL     1       3.487   2.175   2.505  1.00  0.00     0.049 A 
ATOM     49  H   UNL     1       4.087   3.292   0.790  1.00  0.00     0.167 HD
ATOM     50  C   UNL     1      -0.392   6.311   5.391  1.00  0.00     0.034 A 
ATOM     51  C   UNL     1       4.531   1.515   3.074  1.00  0.00     0.034 A 
ATOM     52  C   UNL     1       0.100   5.053   5.981  1.00  0.00     0.049 A 
ATOM     53  C   UNL     1       4.513   1.672   4.586  1.00  0.00     0.074 A 
ATOM     54  C   UNL     1      -0.374   3.753   6.021  1.00  0.00     0.029 A 
ATOM     55  N   UNL     1       1.386   5.006   6.517  1.00  0.00    -0.354 N 
ATOM     56  N   UNL     1       3.470   2.050   5.279  1.00  0.00    -0.248 NA
ATOM     57  C   UNL     1       5.690   1.506   5.437  1.00  0.00     0.031 C 
ATOM     58  C   UNL     1       0.690   2.912   6.470  1.00  0.00     0.029 A 
ATOM     59  C   UNL     1       1.794   3.700   6.758  1.00  0.00     0.049 A 
ATOM     60  H   UNL     1       1.937   5.801   6.702  1.00  0.00     0.167 HD
ATOM     61  C   UNL     1       3.889   2.521   6.495  1.00  0.00     0.074 A 
ATOM     62  C   UNL     1       5.239   1.991   6.608  1.00  0.00     0.031 C 
ATOM     63  C   UNL     1       3.159   3.424   7.230  1.00  0.00     0.034 A 
BRANCH  50  64
ATOM     64  C   UNL     1      -1.716   6.947   5.800  1.00  0.00     0.023 A 
ATOM     65  C   UNL     1      -2.268   6.572   7.046  1.00  0.00     0.012 A 
ATOM     66  C   UNL     1      -2.491   7.848   5.025  1.00  0.00     0.148 A 
ATOM     67  C   UNL     1      -3.490   7.083   7.511  1.00  0.00     0.002 A 
ATOM     68  C   UNL     1      -3.663   8.427   5.528  1.00  0.00     0.091 A 
ATOM     69  F   UNL     1      -2.161   8.085   3.750  1.00  0.00    -0.205 F 
ATOM     70  C   UNL     1      -4.173   8.035   6.766  1.00  0.00     0.022 A 
BRANCH  68  71
ATOM     71  S   UNL     1      -4.541   9.744   4.659  1.00  0.00     0.127 S 
ATOM     72  O   UNL     1      -5.759   9.068   4.214  1.00  0.00    -0.237 OA
ATOM     73  O   UNL     1      -4.750  10.735   5.715  1.00  0.00    -0.237 OA
ATOM     74  O   UNL     1      -3.647  10.189   3.596  1.00  0.00    -0.744 OA
ENDBRANCH  68  71
ENDBRANCH  50  64
BRANCH  51  75
ATOM     75  C   UNL     1       5.697   1.316   2.178  1.00  0.00     0.023 A 
ATOM     76  C   UNL     1       5.630   0.194   1.321  1.00  0.00     0.012 A 
ATOM     77  C   UNL     1       6.522   2.393   1.825  1.00  0.00     0.148 A 
ATOM     78  C   UNL     1       6.250   0.206   0.070  1.00  0.00     0.002 A 
ATOM     79  C   UNL     1       7.086   2.425   0.552  1.00  0.00     0.091 A 
ATOM     80  F   UNL     1       6.592   3.434   2.664  1.00  0.00    -0.205 F 
ATOM     81  C   UNL     1       6.939   1.342  -0.331  1.00  0.00     0.022 A 
BRANCH  79  82
ATOM     82  S   UNL     1       7.743   3.938  -0.158  1.00  0.00     0.127 S 
ATOM     83  O   UNL     1       9.153   3.609  -0.332  1.00  0.00    -0.237 OA
ATOM     84  O   UNL     1       6.972   4.026  -1.396  1.00  0.00    -0.237 OA
ATOM     85  O   UNL     1       7.444   4.979   0.813  1.00  0.00    -0.744 OA
ENDBRANCH  79  82
ENDBRANCH  51  75
BRANCH  63  86
ATOM     86  C   UNL     1       3.714   4.184   8.430  1.00  0.00     0.023 A 
ATOM     87  C   UNL     1       5.095   4.407   8.608  1.00  0.00     0.012 A 
ATOM     88  C   UNL     1       2.852   4.821   9.360  1.00  0.00     0.148 A 
ATOM     89  C   UNL     1       5.605   5.133   9.691  1.00  0.00     0.002 A 
ATOM     90  C   UNL     1       3.359   5.643  10.368  1.00  0.00     0.091 A 
ATOM     91  F   UNL     1       1.528   4.620   9.285  1.00  0.00    -0.205 F 
ATOM     92  C   UNL     1       4.736   5.768  10.563  1.00  0.00     0.022 A 
BRANCH  90  93
ATOM     93  S   UNL     1       2.269   6.696  11.339  1.00  0.00     0.127 S 
ATOM     94  O   UNL     1       1.957   5.842  12.482  1.00  0.00    -0.237 OA
ATOM     95  O   UNL     1       3.128   7.841  11.651  1.00  0.00    -0.237 OA
ATOM     96  O   UNL     1       1.165   7.009  10.442  1.00  0.00    -0.744 OA
ENDBRANCH  90  93
ENDBRANCH  63  86
ENDBRANCH  37  38
ENDBRANCH  30  32
ENDBRANCH  29  30
ENDBRANCH  28  29
ENDBRANCH  27  28
ENDBRANCH   1  27
TORSDOF 20
