REMARK SMILES CC(C)C[C@H](NC(=O)[C@H](Cc1ccccc1)NC(=O)CNC(=O)CNC(=O)OCc1ccccc1)C(=O)OCCOCCOC(=O)c1ccc(-c2c3nc(c(-c4cccc(S(=O)(=O)[O-])c4F)c4ccc([nH]4)c(-c4cccc(S(=O)(=O)[O-])c4F)c4nc(c(-c5cccc(S(=O)(=O)[O-])c5F)c5ccc2[nH]5)C=C4)C=C3)cc1
REMARK SMILES IDX 36 1 37 2 5 3 4 4 2 5 1 6 3 7 6 8 7 9 8 11 9 12 17 13 18 14
REMARK SMILES IDX 19 16 20 17 21 18 22 19 23 21 24 22 25 23 26 24 27 26 28 27
REMARK SMILES IDX 29 28 30 29 31 30 35 31 32 32 34 33 33 34 10 35 11 36 12 37
REMARK SMILES IDX 16 38 13 39 15 40 14 41 38 42 39 43 40 44 41 45 42 46 43 47
REMARK SMILES IDX 44 48 45 49 46 50 47 51 48 52 109 53 49 54 108 55 50 56
REMARK SMILES IDX 51 57 52 58 102 59 53 60 107 61 101 62 103 63 54 64 106 65
REMARK SMILES IDX 100 66 99 67 55 69 87 70 67 71 86 72 68 73 71 74 85 75
REMARK SMILES IDX 104 76 69 77 70 78 84 80 105 81 72 82 56 83 57 84 65 85
REMARK SMILES IDX 58 86 60 87 66 88 59 89 61 90 62 91 63 92 64 93 88 94 89 95
REMARK SMILES IDX 97 96 90 97 92 98 98 99 91 100 93 101 94 102 95 103 96 104
REMARK SMILES IDX 73 105 74 106 82 107 75 108 77 109 83 110 76 111 78 112
REMARK SMILES IDX 79 113 80 114 81 115
REMARK H PARENT 6 10 17 15 21 20 25 25 103 68 71 79
REMARK Flexibility Score: inf
ROOT
ATOM      1  C   UNL     1       2.895   4.003  -2.865  1.00  0.00     0.328 C 
ATOM      2  O   UNL     1       2.283   3.742  -3.916  1.00  0.00    -0.250 OA
ENDROOT
BRANCH   1   3
ATOM      3  C   UNL     1       2.220   3.145  -1.409  1.00  0.00     0.192 C 
BRANCH   3   4
ATOM      4  C   UNL     1       2.799   2.630   0.174  1.00  0.00     0.040 C 
BRANCH   4   5
ATOM      5  C   UNL     1       4.032   3.036   1.224  1.00  0.00    -0.015 C 
ATOM      6  C   UNL     1       3.696   2.705   2.701  1.00  0.00     0.007 C 
ATOM      7  C   UNL     1       5.445   2.373   1.100  1.00  0.00     0.007 C 
ENDBRANCH   4   5
ENDBRANCH   3   4
BRANCH   3   8
ATOM      8  N   UNL     1       1.660   1.964  -2.168  1.00  0.00    -0.341 N 
ATOM      9  C   UNL     1       0.396   1.457  -2.021  1.00  0.00     0.243 C 
ATOM     10  H   UNL     1       2.251   1.524  -2.822  1.00  0.00     0.164 HD
ATOM     11  O   UNL     1      -0.587   1.967  -2.540  1.00  0.00    -0.273 OA
BRANCH   9  12
ATOM     12  C   UNL     1       0.366   0.212  -1.160  1.00  0.00     0.175 C 
BRANCH  12  13
ATOM     13  N   UNL     1      -0.045   0.543   0.183  1.00  0.00    -0.342 N 
ATOM     14  C   UNL     1       0.713   0.441   1.309  1.00  0.00     0.240 C 
ATOM     15  H   UNL     1      -0.965   0.877   0.296  1.00  0.00     0.164 HD
ATOM     16  O   UNL     1       0.227   0.900   2.350  1.00  0.00    -0.273 OA
BRANCH  14  17
ATOM     17  C   UNL     1       2.108  -0.283   1.347  1.00  0.00     0.216 C 
BRANCH  17  18
ATOM     18  N   UNL     1       2.901  -0.737   0.168  1.00  0.00    -0.346 N 
ATOM     19  C   UNL     1       4.226  -0.448  -0.114  1.00  0.00     0.239 C 
ATOM     20  H   UNL     1       2.430  -1.306  -0.483  1.00  0.00     0.164 HD
ATOM     21  O   UNL     1       5.028  -1.282   0.335  1.00  0.00    -0.273 OA
BRANCH  19  22
ATOM     22  C   UNL     1       4.726   0.512  -1.350  1.00  0.00     0.219 C 
BRANCH  22  23
ATOM     23  N   UNL     1       4.363   1.900  -1.868  1.00  0.00    -0.312 N 
ATOM     24  C   UNL     1       5.002   3.141  -1.648  1.00  0.00     0.407 C 
ATOM     25  H   UNL     1       3.563   1.937  -2.442  1.00  0.00     0.167 HD
ATOM     26  O   UNL     1       6.153   3.274  -2.052  1.00  0.00    -0.225 OA
BRANCH  24  27
ATOM     27  O   UNL     1       4.307   4.242  -0.936  1.00  0.00    -0.445 OA
BRANCH  27  28
ATOM     28  C   UNL     1       3.087   5.559  -0.997  1.00  0.00     0.270 C 
BRANCH  28  29
ATOM     29  C   UNL     1       2.853   6.902  -2.181  1.00  0.00    -0.011 A 
ATOM     30  C   UNL     1       3.455   8.654  -2.018  1.00  0.00     0.007 A 
ATOM     31  C   UNL     1       1.465   6.639  -3.345  1.00  0.00     0.007 A 
ATOM     32  C   UNL     1       2.837  10.004  -3.103  1.00  0.00     0.000 A 
ATOM     33  C   UNL     1       0.835   7.997  -4.390  1.00  0.00     0.000 A 
ATOM     34  C   UNL     1       1.590   9.633  -4.348  1.00  0.00     0.000 A 
ENDBRANCH  28  29
ENDBRANCH  27  28
ENDBRANCH  24  27
ENDBRANCH  22  23
ENDBRANCH  19  22
ENDBRANCH  17  18
ENDBRANCH  14  17
ENDBRANCH  12  13
BRANCH  12  35
ATOM     35  C   UNL     1      -0.417  -0.940  -1.807  1.00  0.00     0.070 C 
BRANCH  35  36
ATOM     36  C   UNL     1       0.461  -2.164  -2.032  1.00  0.00    -0.045 A 
ATOM     37  C   UNL     1      -0.051  -3.443  -1.796  1.00  0.00     0.004 A 
ATOM     38  C   UNL     1       1.794  -2.050  -2.464  1.00  0.00     0.004 A 
ATOM     39  C   UNL     1       0.781  -4.562  -1.878  1.00  0.00     0.000 A 
ATOM     40  C   UNL     1       2.640  -3.157  -2.484  1.00  0.00     0.000 A 
ATOM     41  C   UNL     1       2.133  -4.414  -2.182  1.00  0.00     0.000 A 
ENDBRANCH  35  36
ENDBRANCH  12  35
ENDBRANCH   9  12
ENDBRANCH   3   8
ENDBRANCH   1   3
BRANCH   1  42
ATOM     42  O   UNL     1       3.976   4.934  -2.969  1.00  0.00    -0.462 OA
BRANCH  42  43
ATOM     43  C   UNL     1       5.165   5.995  -2.237  1.00  0.00     0.261 C 
BRANCH  43  44
ATOM     44  C   UNL     1       5.172   6.823  -0.623  1.00  0.00     0.202 C 
BRANCH  44  45
ATOM     45  O   UNL     1       4.241   7.787   0.116  1.00  0.00    -0.374 OA
BRANCH  45  46
ATOM     46  C   UNL     1       2.886   7.760   0.726  1.00  0.00     0.202 C 
BRANCH  46  47
ATOM     47  C   UNL     1       1.521   8.253   0.005  1.00  0.00     0.261 C 
BRANCH  47  48
ATOM     48  O   UNL     1       1.185   7.686  -1.286  1.00  0.00    -0.460 OA
BRANCH  48  49
ATOM     49  C   UNL     1       1.540   8.517  -2.531  1.00  0.00     0.338 C 
ATOM     50  O   UNL     1       0.755   9.494  -2.330  1.00  0.00    -0.246 OA
BRANCH  49  51
ATOM     51  C   UNL     1       3.017   8.042  -4.013  1.00  0.00     0.060 A 
ATOM     52  C   UNL     1       4.466   8.618  -4.182  1.00  0.00     0.016 A 
ATOM     53  C   UNL     1       2.972   7.220  -5.283  1.00  0.00     0.016 A 
ATOM     54  C   UNL     1       5.404   8.566  -5.245  1.00  0.00     0.010 A 
ATOM     55  C   UNL     1       3.897   7.198  -6.400  1.00  0.00     0.010 A 
ATOM     56  C   UNL     1       5.077   7.927  -6.409  1.00  0.00    -0.014 A 
BRANCH  56  57
ATOM     57  C   UNL     1       5.953   8.093  -7.593  1.00  0.00     0.031 A 
ATOM     58  C   UNL     1       5.658   9.181  -8.592  1.00  0.00     0.074 A 
ATOM     59  C   UNL     1       7.051   7.331  -7.734  1.00  0.00     0.049 A 
ATOM     60  N   UNL     1       6.286   9.488  -9.698  1.00  0.00    -0.248 NA
ATOM     61  C   UNL     1       4.509  10.052  -8.296  1.00  0.00     0.031 C 
ATOM     62  C   UNL     1       7.474   6.298  -6.791  1.00  0.00     0.029 A 
ATOM     63  N   UNL     1       7.993   7.288  -8.732  1.00  0.00    -0.354 N 
ATOM     64  C   UNL     1       5.585  10.553 -10.255  1.00  0.00     0.074 A 
ATOM     65  C   UNL     1       4.499  10.860  -9.348  1.00  0.00     0.031 C 
ATOM     66  C   UNL     1       8.561   5.681  -7.282  1.00  0.00     0.029 A 
ATOM     67  C   UNL     1       8.882   6.249  -8.590  1.00  0.00     0.049 A 
ATOM     68  H   UNL     1       8.029   7.936  -9.473  1.00  0.00     0.167 HD
ATOM     69  C   UNL     1       5.820  11.204 -11.422  1.00  0.00     0.034 A 
ATOM     70  C   UNL     1       9.809   5.770  -9.443  1.00  0.00     0.034 A 
ATOM     71  C   UNL     1       6.903  10.880 -12.315  1.00  0.00     0.049 A 
ATOM     72  C   UNL     1      10.022   6.471 -10.757  1.00  0.00     0.074 A 
ATOM     73  C   UNL     1       7.254  11.495 -13.504  1.00  0.00     0.029 A 
ATOM     74  N   UNL     1       7.792   9.830 -12.131  1.00  0.00    -0.354 N 
ATOM     75  N   UNL     1       9.408   7.527 -11.234  1.00  0.00    -0.248 NA
ATOM     76  C   UNL     1      11.070   5.937 -11.638  1.00  0.00     0.031 C 
ATOM     77  C   UNL     1       8.321  10.784 -14.064  1.00  0.00     0.029 A 
ATOM     78  C   UNL     1       8.671   9.760 -13.197  1.00  0.00     0.049 A 
ATOM     79  H   UNL     1       7.797   9.224 -11.355  1.00  0.00     0.167 HD
ATOM     80  C   UNL     1      10.009   7.802 -12.456  1.00  0.00     0.074 A 
ATOM     81  C   UNL     1      11.049   6.808 -12.639  1.00  0.00     0.031 C 
ATOM     82  C   UNL     1       9.724   8.785 -13.346  1.00  0.00     0.034 A 
BRANCH  69  83
ATOM     83  C   UNL     1       4.870  12.308 -11.822  1.00  0.00     0.023 A 
ATOM     84  C   UNL     1       4.877  13.538 -11.133  1.00  0.00     0.012 A 
ATOM     85  C   UNL     1       3.999  12.140 -12.918  1.00  0.00     0.148 A 
ATOM     86  C   UNL     1       4.004  14.565 -11.502  1.00  0.00     0.002 A 
ATOM     87  C   UNL     1       3.164  13.182 -13.307  1.00  0.00     0.091 A 
ATOM     88  F   UNL     1       3.993  10.960 -13.554  1.00  0.00    -0.205 F 
ATOM     89  C   UNL     1       3.155  14.390 -12.592  1.00  0.00     0.022 A 
BRANCH  87  90
ATOM     90  S   UNL     1       2.090  13.078 -14.744  1.00  0.00     0.127 S 
ATOM     91  O   UNL     1       0.771  12.988 -14.121  1.00  0.00    -0.237 OA
ATOM     92  O   UNL     1       2.358  14.348 -15.421  1.00  0.00    -0.237 OA
ATOM     93  O   UNL     1       2.517  11.897 -15.481  1.00  0.00    -0.744 OA
ENDBRANCH  87  90
ENDBRANCH  69  83
BRANCH  70  94
ATOM     94  C   UNL     1      10.574   4.547  -9.071  1.00  0.00     0.023 A 
ATOM     95  C   UNL     1      11.944   4.633  -8.762  1.00  0.00     0.012 A 
ATOM     96  C   UNL     1       9.916   3.305  -8.945  1.00  0.00     0.148 A 
ATOM     97  C   UNL     1      12.647   3.501  -8.343  1.00  0.00     0.002 A 
ATOM     98  C   UNL     1      10.606   2.199  -8.467  1.00  0.00     0.091 A 
ATOM     99  F   UNL     1       8.616   3.242  -9.264  1.00  0.00    -0.205 F 
ATOM    100  C   UNL     1      11.976   2.291  -8.180  1.00  0.00     0.022 A 
BRANCH  98 101
ATOM    101  S   UNL     1       9.788   0.645  -8.088  1.00  0.00     0.127 S 
ATOM    102  O   UNL     1      10.349  -0.244  -9.102  1.00  0.00    -0.237 OA
ATOM    103  O   UNL     1      10.247   0.388  -6.722  1.00  0.00    -0.237 OA
ATOM    104  O   UNL     1       8.360   0.908  -8.201  1.00  0.00    -0.744 OA
ENDBRANCH  98 101
ENDBRANCH  70  94
BRANCH  82 105
ATOM    105  C   UNL     1      10.571   8.870 -14.589  1.00  0.00     0.023 A 
ATOM    106  C   UNL     1      10.407   7.928 -15.623  1.00  0.00     0.012 A 
ATOM    107  C   UNL     1      11.462   9.948 -14.767  1.00  0.00     0.148 A 
ATOM    108  C   UNL     1      11.135   8.045 -16.807  1.00  0.00     0.002 A 
ATOM    109  C   UNL     1      12.144  10.086 -15.969  1.00  0.00     0.091 A 
ATOM    110  F   UNL     1      11.615  10.822 -13.762  1.00  0.00    -0.205 F 
ATOM    111  C   UNL     1      11.992   9.129 -16.985  1.00  0.00     0.022 A 
BRANCH 109 112
ATOM    112  S   UNL     1      13.190  11.502 -16.327  1.00  0.00     0.127 S 
ATOM    113  O   UNL     1      14.516  10.886 -16.381  1.00  0.00    -0.237 OA
ATOM    114  O   UNL     1      12.672  11.948 -17.620  1.00  0.00    -0.237 OA
ATOM    115  O   UNL     1      12.988  12.443 -15.234  1.00  0.00    -0.744 OA
ENDBRANCH 109 112
ENDBRANCH  82 105
ENDBRANCH  56  57
ENDBRANCH  49  51
ENDBRANCH  48  49
ENDBRANCH  47  48
ENDBRANCH  46  47
ENDBRANCH  45  46
ENDBRANCH  44  45
ENDBRANCH  43  44
ENDBRANCH  42  43
ENDBRANCH   1  42
TORSDOF 31
