REMARK SMILES O=C(OCCOCCOC(=O)c1cc2ccccc2cc1OCCO)c1ccc(-c2c3nc(c(-c4cccc(S(=O)(=O)[O-])c4F)c4ccc([nH]4)c(-c4cccc(S(=O)(=O)[O-])c4F)c4nc(c(-c5cccc(S(=O)(=O)[O-])c5F)c5ccc2[nH]5)C=C4)C=C3)cc1
REMARK SMILES IDX 7 1 6 2 5 3 4 4 3 5 2 6 1 7 26 8 27 9 88 10 28 11 87 12
REMARK SMILES IDX 29 13 30 14 31 15 81 16 32 17 86 18 80 19 82 20 33 21 85 22
REMARK SMILES IDX 79 23 78 24 34 26 66 27 46 28 65 29 47 30 50 31 64 32 83 33
REMARK SMILES IDX 48 34 49 35 63 37 84 38 51 39 35 40 36 41 44 42 37 43 39 44
REMARK SMILES IDX 45 45 38 46 40 47 41 48 42 49 43 50 67 51 68 52 76 53 69 54
REMARK SMILES IDX 71 55 77 56 70 57 72 58 73 59 74 60 75 61 52 62 53 63 61 64
REMARK SMILES IDX 54 65 56 66 62 67 55 68 57 69 58 70 59 71 60 72 8 73 9 74
REMARK SMILES IDX 10 75 11 76 12 77 13 78 21 79 14 80 20 81 15 82 19 83 16 84
REMARK SMILES IDX 18 85 17 86 22 87 23 88 24 89 25 90
REMARK H PARENT 82 25 50 36 25 91
REMARK Flexibility Score: inf
ROOT
ATOM      1  C   UNL     1       3.352  -1.972  -0.408  1.00  0.00     0.202 C 
ENDROOT
BRANCH   1   2
ATOM      2  O   UNL     1       4.606  -1.435   0.036  1.00  0.00    -0.374 OA
BRANCH   2   3
ATOM      3  C   UNL     1       4.597  -0.726   1.274  1.00  0.00     0.202 C 
BRANCH   3   4
ATOM      4  C   UNL     1       4.159   0.739   1.201  1.00  0.00     0.261 C 
BRANCH   4   5
ATOM      5  O   UNL     1       2.770   0.836   0.848  1.00  0.00    -0.460 OA
BRANCH   5   6
ATOM      6  C   UNL     1       2.225   1.249  -0.319  1.00  0.00     0.338 C 
ATOM      7  O   UNL     1       1.011   1.441  -0.360  1.00  0.00    -0.246 OA
BRANCH   6   8
ATOM      8  C   UNL     1       3.011   1.436  -1.578  1.00  0.00     0.060 A 
ATOM      9  C   UNL     1       4.257   0.860  -1.827  1.00  0.00     0.016 A 
ATOM     10  C   UNL     1       2.396   2.138  -2.627  1.00  0.00     0.016 A 
ATOM     11  C   UNL     1       4.865   0.919  -3.062  1.00  0.00     0.010 A 
ATOM     12  C   UNL     1       3.006   2.224  -3.881  1.00  0.00     0.010 A 
ATOM     13  C   UNL     1       4.237   1.598  -4.093  1.00  0.00    -0.014 A 
BRANCH  13  14
ATOM     14  C   UNL     1       5.009   1.739  -5.327  1.00  0.00     0.031 A 
ATOM     15  C   UNL     1       5.778   3.001  -5.514  1.00  0.00     0.074 A 
ATOM     16  C   UNL     1       5.131   0.682  -6.147  1.00  0.00     0.049 A 
ATOM     17  N   UNL     1       6.518   3.372  -6.517  1.00  0.00    -0.248 NA
ATOM     18  C   UNL     1       5.725   3.970  -4.404  1.00  0.00     0.031 C 
ATOM     19  C   UNL     1       4.519  -0.631  -5.925  1.00  0.00     0.029 A 
ATOM     20  N   UNL     1       5.817   0.540  -7.319  1.00  0.00    -0.354 N 
ATOM     21  C   UNL     1       6.965   4.643  -6.192  1.00  0.00     0.074 A 
ATOM     22  C   UNL     1       6.447   4.968  -4.884  1.00  0.00     0.031 C 
ATOM     23  C   UNL     1       4.834  -1.438  -6.949  1.00  0.00     0.029 A 
ATOM     24  C   UNL     1       5.610  -0.677  -7.921  1.00  0.00     0.049 A 
ATOM     25  H   UNL     1       6.401   1.238  -7.694  1.00  0.00     0.167 HD
ATOM     26  C   UNL     1       7.724   5.468  -6.946  1.00  0.00     0.034 A 
ATOM     27  C   UNL     1       5.962  -1.091  -9.152  1.00  0.00     0.034 A 
ATOM     28  C   UNL     1       8.203   5.100  -8.247  1.00  0.00     0.049 A 
ATOM     29  C   UNL     1       6.743  -0.129 -10.004  1.00  0.00     0.074 A 
ATOM     30  C   UNL     1       8.939   5.848  -9.142  1.00  0.00     0.029 A 
ATOM     31  N   UNL     1       7.963   3.868  -8.847  1.00  0.00    -0.354 N 
ATOM     32  N   UNL     1       7.167   1.078  -9.703  1.00  0.00    -0.248 NA
ATOM     33  C   UNL     1       7.106  -0.576 -11.352  1.00  0.00     0.031 C 
ATOM     34  C   UNL     1       9.107   5.083 -10.301  1.00  0.00     0.029 A 
ATOM     35  C   UNL     1       8.519   3.839 -10.109  1.00  0.00     0.049 A 
ATOM     36  H   UNL     1       7.468   3.125  -8.431  1.00  0.00     0.167 HD
ATOM     37  C   UNL     1       7.867   1.528 -10.812  1.00  0.00     0.074 A 
ATOM     38  C   UNL     1       7.825   0.451 -11.786  1.00  0.00     0.031 C 
ATOM     39  C   UNL     1       8.479   2.721 -11.022  1.00  0.00     0.034 A 
BRANCH  26  40
ATOM     40  C   UNL     1       7.976   6.845  -6.401  1.00  0.00     0.023 A 
ATOM     41  C   UNL     1       8.824   7.036  -5.291  1.00  0.00     0.012 A 
ATOM     42  C   UNL     1       7.305   7.952  -6.956  1.00  0.00     0.148 A 
ATOM     43  C   UNL     1       8.959   8.299  -4.711  1.00  0.00     0.002 A 
ATOM     44  C   UNL     1       7.481   9.213  -6.404  1.00  0.00     0.091 A 
ATOM     45  F   UNL     1       6.474   7.743  -7.987  1.00  0.00    -0.205 F 
ATOM     46  C   UNL     1       8.292   9.386  -5.271  1.00  0.00     0.022 A 
BRANCH  44  47
ATOM     47  S   UNL     1       6.713  10.683  -7.090  1.00  0.00     0.127 S 
ATOM     48  O   UNL     1       5.747  11.026  -6.047  1.00  0.00    -0.237 OA
ATOM     49  O   UNL     1       7.849  11.599  -7.194  1.00  0.00    -0.237 OA
ATOM     50  O   UNL     1       6.137  10.280  -8.365  1.00  0.00    -0.744 OA
ENDBRANCH  44  47
ENDBRANCH  26  40
BRANCH  27  51
ATOM     51  C   UNL     1       5.537  -2.433  -9.641  1.00  0.00     0.023 A 
ATOM     52  C   UNL     1       6.495  -3.430  -9.899  1.00  0.00     0.012 A 
ATOM     53  C   UNL     1       4.170  -2.736  -9.814  1.00  0.00     0.148 A 
ATOM     54  C   UNL     1       6.101  -4.696 -10.341  1.00  0.00     0.002 A 
ATOM     55  C   UNL     1       3.782  -4.014 -10.200  1.00  0.00     0.091 A 
ATOM     56  F   UNL     1       3.271  -1.770  -9.580  1.00  0.00    -0.205 F 
ATOM     57  C   UNL     1       4.747  -4.991 -10.481  1.00  0.00     0.022 A 
BRANCH  55  58
ATOM     58  S   UNL     1       2.058  -4.516 -10.281  1.00  0.00     0.127 S 
ATOM     59  O   UNL     1       1.869  -4.706 -11.716  1.00  0.00    -0.237 OA
ATOM     60  O   UNL     1       2.066  -5.748  -9.492  1.00  0.00    -0.237 OA
ATOM     61  O   UNL     1       1.299  -3.426  -9.684  1.00  0.00    -0.744 OA
ENDBRANCH  55  58
ENDBRANCH  27  51
BRANCH  39  62
ATOM     62  C   UNL     1       9.185   2.906 -12.334  1.00  0.00     0.023 A 
ATOM     63  C   UNL     1       8.442   3.115 -13.511  1.00  0.00     0.012 A 
ATOM     64  C   UNL     1      10.590   2.985 -12.369  1.00  0.00     0.148 A 
ATOM     65  C   UNL     1       9.093   3.378 -14.714  1.00  0.00     0.002 A 
ATOM     66  C   UNL     1      11.228   3.306 -13.558  1.00  0.00     0.091 A 
ATOM     67  F   UNL     1      11.271   2.763 -11.235  1.00  0.00    -0.205 F 
ATOM     68  C   UNL     1      10.483   3.490 -14.734  1.00  0.00     0.022 A 
BRANCH  66  69
ATOM     69  S   UNL     1      12.998   3.587 -13.648  1.00  0.00     0.127 S 
ATOM     70  O   UNL     1      13.444   2.426 -14.415  1.00  0.00    -0.237 OA
ATOM     71  O   UNL     1      13.071   4.860 -14.367  1.00  0.00    -0.237 OA
ATOM     72  O   UNL     1      13.470   3.643 -12.271  1.00  0.00    -0.744 OA
ENDBRANCH  66  69
ENDBRANCH  39  62
ENDBRANCH  13  14
ENDBRANCH   6   8
ENDBRANCH   5   6
ENDBRANCH   4   5
ENDBRANCH   3   4
ENDBRANCH   2   3
ENDBRANCH   1   2
BRANCH   1  73
ATOM     73  C   UNL     1       3.587  -3.399  -0.893  1.00  0.00     0.261 C 
BRANCH  73  74
ATOM     74  O   UNL     1       3.915  -4.172   0.266  1.00  0.00    -0.460 OA
BRANCH  74  75
ATOM     75  C   UNL     1       5.209  -4.221   0.628  1.00  0.00     0.342 C 
ATOM     76  O   UNL     1       6.171  -4.076  -0.096  1.00  0.00    -0.246 OA
BRANCH  75  77
ATOM     77  C   UNL     1       5.286  -4.217   2.114  1.00  0.00     0.102 A 
ATOM     78  C   UNL     1       6.313  -3.374   2.608  1.00  0.00     0.028 A 
ATOM     79  C   UNL     1       4.490  -4.924   3.023  1.00  0.00     0.134 A 
ATOM     80  C   UNL     1       6.582  -3.242   3.979  1.00  0.00    -0.017 A 
ATOM     81  C   UNL     1       4.823  -4.854   4.390  1.00  0.00     0.056 A 
ATOM     82  C   UNL     1       7.563  -2.362   4.471  1.00  0.00     0.009 A 
ATOM     83  C   UNL     1       5.850  -4.030   4.881  1.00  0.00    -0.015 A 
ATOM     84  C   UNL     1       7.842  -2.298   5.837  1.00  0.00     0.001 A 
ATOM     85  C   UNL     1       6.159  -3.977   6.249  1.00  0.00     0.009 A 
ATOM     86  C   UNL     1       7.153  -3.120   6.724  1.00  0.00     0.001 A 
BRANCH  79  87
ATOM     87  O   UNL     1       3.444  -5.780   2.830  1.00  0.00    -0.490 OA
BRANCH  87  88
ATOM     88  C   UNL     1       2.328  -5.472   1.996  1.00  0.00     0.257 C 
BRANCH  88  89
ATOM     89  C   UNL     1       1.538  -4.179   2.267  1.00  0.00     0.197 C 
BRANCH  89  90
ATOM     90  O   UNL     1       2.316  -3.035   2.576  1.00  0.00    -0.393 OA
ATOM     91  H   UNL     1       2.800  -3.187   3.403  1.00  0.00     0.210 HD
ENDBRANCH  89  90
ENDBRANCH  88  89
ENDBRANCH  87  88
ENDBRANCH  79  87
ENDBRANCH  75  77
ENDBRANCH  74  75
ENDBRANCH  73  74
ENDBRANCH   1  73
TORSDOF 21
