REMARK SMILES CC1=C([C@H](NC(=O)[C@@H]2[C@H](C)c3cc(F)ccc3N2C)C(=O)OCCOCCOC(=O)c2ccc(-c3c4nc(c(-c5cccc(S(=O)(=O)[O-])c5F)c5ccc([nH]5)c(-c5cccc(S(=O)(=O)[O-])c5F)c5nc(c(-c6cccc(S(=O)(=O)[O-])c6F)c6ccc3[nH]6)C=C5)C=C4)cc2)[C@@H](C)N=N1
REMARK SMILES IDX 26 1 25 2 24 3 23 4 22 5 20 6 21 7 4 8 3 9 1 10 2 11 97 12
REMARK SMILES IDX 94 13 96 14 95 15 5 16 6 17 7 19 8 20 9 21 18 22 11 23 10 24
REMARK SMILES IDX 17 25 19 26 12 27 16 28 13 29 15 30 14 31 27 32 28 33 29 34
REMARK SMILES IDX 30 35 31 36 32 37 93 38 33 39 92 40 34 41 35 42 36 43 86 44
REMARK SMILES IDX 37 45 91 46 85 47 87 48 38 49 90 50 84 51 83 52 39 54 71 55
REMARK SMILES IDX 51 56 70 57 52 58 55 59 69 60 88 61 53 62 54 63 68 65 89 66
REMARK SMILES IDX 56 67 40 68 41 69 49 70 42 71 44 72 50 73 43 74 45 75 46 76
REMARK SMILES IDX 47 77 48 78 72 79 73 80 81 81 74 82 76 83 82 84 75 85 77 86
REMARK SMILES IDX 78 87 79 88 80 89 57 90 58 91 66 92 59 93 61 94 67 95 60 96
REMARK SMILES IDX 62 97 63 98 64 99 65 100
REMARK H PARENT 5 18 87 53 55 64
REMARK Flexibility Score: inf
ROOT
ATOM      1  C   UNL     1       4.428   1.964   3.386  1.00  0.00     0.202 C 
ENDROOT
BRANCH   1   2
ATOM      2  O   UNL     1       5.417   2.294   2.397  1.00  0.00    -0.374 OA
BRANCH   2   3
ATOM      3  C   UNL     1       5.594   3.749   2.053  1.00  0.00     0.202 C 
BRANCH   3   4
ATOM      4  C   UNL     1       5.071   4.964   0.304  1.00  0.00     0.261 C 
BRANCH   4   5
ATOM      5  O   UNL     1       3.631   4.998  -0.566  1.00  0.00    -0.461 OA
BRANCH   5   6
ATOM      6  C   UNL     1       3.376   4.454  -1.798  1.00  0.00     0.333 C 
ATOM      7  O   UNL     1       4.254   4.323  -2.647  1.00  0.00    -0.249 OA
BRANCH   6   8
ATOM      8  C   UNL     1       1.829   3.692  -1.970  1.00  0.00     0.223 C 
BRANCH   8   9
ATOM      9  C   UNL     1       1.251   4.228  -3.200  1.00  0.00     0.012 C 
ATOM     10  C   UNL     1       2.543   2.923  -4.925  1.00  0.00     0.069 C 
ATOM     11  C   UNL     1       1.567   3.954  -4.462  1.00  0.00     0.064 C 
ATOM     12  N   UNL     1       0.917   4.803  -5.318  1.00  0.00    -0.160 NA
ATOM     13  C   UNL     1       0.213   5.277  -3.222  1.00  0.00     0.156 C 
ATOM     14  N   UNL     1       0.222   5.642  -4.659  1.00  0.00    -0.181 NA
ATOM     15  C   UNL     1       0.497   6.426  -2.268  1.00  0.00     0.040 C 
ENDBRANCH   8   9
BRANCH   8  16
ATOM     16  N   UNL     1       0.606   3.487  -1.082  1.00  0.00    -0.337 N 
ATOM     17  C   UNL     1       0.556   3.383   0.307  1.00  0.00     0.244 C 
ATOM     18  H   UNL     1      -0.258   3.421  -1.549  1.00  0.00     0.164 HD
ATOM     19  O   UNL     1      -0.455   3.112   0.934  1.00  0.00    -0.273 OA
BRANCH  17  20
ATOM     20  C   UNL     1       1.888   3.689   0.841  1.00  0.00     0.178 C 
ATOM     21  C   UNL     1       2.877   2.558   0.369  1.00  0.00     0.050 C 
ATOM     22  N   UNL     1       2.274   4.315   2.114  1.00  0.00    -0.362 N 
ATOM     23  C   UNL     1       4.141   3.172   0.731  1.00  0.00    -0.016 A 
ATOM     24  C   UNL     1       2.535   1.123   0.614  1.00  0.00     0.015 C 
ATOM     25  C   UNL     1       3.647   4.510   1.804  1.00  0.00     0.041 A 
ATOM     26  C   UNL     1       1.329   5.218   2.750  1.00  0.00     0.144 C 
ATOM     27  C   UNL     1       5.796   3.010   0.076  1.00  0.00     0.045 A 
ATOM     28  C   UNL     1       4.889   5.675   2.248  1.00  0.00     0.029 A 
ATOM     29  C   UNL     1       7.038   4.192   0.561  1.00  0.00     0.123 A 
ATOM     30  C   UNL     1       6.596   5.519   1.671  1.00  0.00     0.041 A 
ATOM     31  F   UNL     1       8.291   4.093   0.108  1.00  0.00    -0.207 F 
ENDBRANCH  17  20
ENDBRANCH   8  16
ENDBRANCH   6   8
ENDBRANCH   5   6
ENDBRANCH   4   5
ENDBRANCH   3   4
ENDBRANCH   2   3
ENDBRANCH   1   2
BRANCH   1  32
ATOM     32  C   UNL     1       3.738   2.861   4.524  1.00  0.00     0.261 C 
BRANCH  32  33
ATOM     33  O   UNL     1       3.693   4.339   4.473  1.00  0.00    -0.460 OA
BRANCH  33  34
ATOM     34  C   UNL     1       3.857   5.182   5.546  1.00  0.00     0.338 C 
ATOM     35  O   UNL     1       4.034   4.782   6.686  1.00  0.00    -0.246 OA
BRANCH  34  36
ATOM     36  C   UNL     1       4.126   6.668   5.120  1.00  0.00     0.060 A 
ATOM     37  C   UNL     1       3.385   7.444   4.188  1.00  0.00     0.016 A 
ATOM     38  C   UNL     1       5.466   7.053   5.285  1.00  0.00     0.016 A 
ATOM     39  C   UNL     1       4.064   8.272   3.214  1.00  0.00     0.010 A 
ATOM     40  C   UNL     1       6.133   7.861   4.315  1.00  0.00     0.010 A 
ATOM     41  C   UNL     1       5.488   8.346   3.157  1.00  0.00    -0.014 A 
BRANCH  41  42
ATOM     42  C   UNL     1       6.242   9.213   2.141  1.00  0.00     0.031 A 
ATOM     43  C   UNL     1       5.817  10.586   2.493  1.00  0.00     0.074 A 
ATOM     44  C   UNL     1       7.182   9.042   1.137  1.00  0.00     0.049 A 
ATOM     45  N   UNL     1       4.954  11.295   1.836  1.00  0.00    -0.248 NA
ATOM     46  C   UNL     1       6.042  11.031   3.881  1.00  0.00     0.031 C 
ATOM     47  C   UNL     1       7.721   7.840   0.503  1.00  0.00     0.029 A 
ATOM     48  N   UNL     1       7.978   9.978   0.467  1.00  0.00    -0.354 N 
ATOM     49  C   UNL     1       4.799  12.418   2.631  1.00  0.00     0.074 A 
ATOM     50  C   UNL     1       5.186  12.047   3.965  1.00  0.00     0.031 C 
ATOM     51  C   UNL     1       8.919   8.029  -0.094  1.00  0.00     0.029 A 
ATOM     52  C   UNL     1       9.171   9.447  -0.119  1.00  0.00     0.049 A 
ATOM     53  H   UNL     1       7.736  10.930   0.404  1.00  0.00     0.167 HD
ATOM     54  C   UNL     1       4.846  13.656   2.079  1.00  0.00     0.034 A 
ATOM     55  C   UNL     1      10.207  10.048  -0.792  1.00  0.00     0.034 A 
ATOM     56  C   UNL     1       4.597  13.626   0.666  1.00  0.00     0.049 A 
ATOM     57  C   UNL     1       9.715  11.356  -1.229  1.00  0.00     0.074 A 
ATOM     58  C   UNL     1       3.554  13.232  -0.146  1.00  0.00     0.029 A 
ATOM     59  N   UNL     1       5.719  13.642  -0.115  1.00  0.00    -0.354 N 
ATOM     60  N   UNL     1       8.848  11.499  -2.184  1.00  0.00    -0.248 NA
ATOM     61  C   UNL     1       9.821  12.424  -0.261  1.00  0.00     0.031 C 
ATOM     62  C   UNL     1       4.161  12.691  -1.316  1.00  0.00     0.029 A 
ATOM     63  C   UNL     1       5.539  12.861  -1.220  1.00  0.00     0.049 A 
ATOM     64  H   UNL     1       6.540  14.146   0.091  1.00  0.00     0.167 HD
ATOM     65  C   UNL     1       7.946  12.395  -1.642  1.00  0.00     0.074 A 
ATOM     66  C   UNL     1       8.625  12.971  -0.477  1.00  0.00     0.031 C 
ATOM     67  C   UNL     1       6.633  12.331  -1.995  1.00  0.00     0.034 A 
BRANCH  54  68
ATOM     68  C   UNL     1       5.611  14.757   2.765  1.00  0.00     0.023 A 
ATOM     69  C   UNL     1       5.258  16.084   2.495  1.00  0.00     0.012 A 
ATOM     70  C   UNL     1       6.791  14.538   3.527  1.00  0.00     0.148 A 
ATOM     71  C   UNL     1       6.001  17.144   3.027  1.00  0.00     0.002 A 
ATOM     72  C   UNL     1       7.465  15.584   4.134  1.00  0.00     0.091 A 
ATOM     73  F   UNL     1       7.344  13.321   3.557  1.00  0.00    -0.205 F 
ATOM     74  C   UNL     1       7.078  16.897   3.877  1.00  0.00     0.022 A 
BRANCH  72  75
ATOM     75  S   UNL     1       8.840  15.303   5.259  1.00  0.00     0.127 S 
ATOM     76  O   UNL     1       9.968  15.781   4.467  1.00  0.00    -0.237 OA
ATOM     77  O   UNL     1       8.473  16.150   6.394  1.00  0.00    -0.237 OA
ATOM     78  O   UNL     1       8.819  13.875   5.551  1.00  0.00    -0.744 OA
ENDBRANCH  72  75
ENDBRANCH  54  68
BRANCH  55  79
ATOM     79  C   UNL     1      11.697   9.820  -0.748  1.00  0.00     0.023 A 
ATOM     80  C   UNL     1      12.566  10.718  -1.433  1.00  0.00     0.012 A 
ATOM     81  C   UNL     1      12.282   8.976   0.211  1.00  0.00     0.148 A 
ATOM     82  C   UNL     1      13.919  10.855  -1.083  1.00  0.00     0.002 A 
ATOM     83  C   UNL     1      13.628   9.119   0.560  1.00  0.00     0.091 A 
ATOM     84  F   UNL     1      11.507   8.087   0.840  1.00  0.00    -0.205 F 
ATOM     85  C   UNL     1      14.443  10.075  -0.062  1.00  0.00     0.022 A 
BRANCH  83  86
ATOM     86  S   UNL     1      14.369   8.152   1.882  1.00  0.00     0.127 S 
ATOM     87  O   UNL     1      15.623   7.708   1.271  1.00  0.00    -0.237 OA
ATOM     88  O   UNL     1      14.522   9.150   2.937  1.00  0.00    -0.237 OA
ATOM     89  O   UNL     1      13.425   7.077   2.161  1.00  0.00    -0.744 OA
ENDBRANCH  83  86
ENDBRANCH  55  79
BRANCH  67  90
ATOM     90  C   UNL     1       6.268  11.553  -3.232  1.00  0.00     0.023 A 
ATOM     91  C   UNL     1       6.257  10.143  -3.311  1.00  0.00     0.012 A 
ATOM     92  C   UNL     1       5.751  12.303  -4.300  1.00  0.00     0.148 A 
ATOM     93  C   UNL     1       5.713   9.503  -4.434  1.00  0.00     0.002 A 
ATOM     94  C   UNL     1       5.191  11.667  -5.396  1.00  0.00     0.091 A 
ATOM     95  F   UNL     1       5.777  13.639  -4.193  1.00  0.00    -0.205 F 
ATOM     96  C   UNL     1       5.165  10.265  -5.468  1.00  0.00     0.022 A 
BRANCH  94  97
ATOM     97  S   UNL     1       4.415  12.599  -6.715  1.00  0.00     0.127 S 
ATOM     98  O   UNL     1       5.306  12.330  -7.842  1.00  0.00    -0.237 OA
ATOM     99  O   UNL     1       3.099  11.967  -6.807  1.00  0.00    -0.237 OA
ATOM    100  O   UNL     1       4.383  13.987  -6.270  1.00  0.00    -0.744 OA
ENDBRANCH  94  97
ENDBRANCH  67  90
ENDBRANCH  41  42
ENDBRANCH  34  36
ENDBRANCH  33  34
ENDBRANCH  32  33
ENDBRANCH   1  32
TORSDOF 20
