REMARK SMILES O=C(OCCOCCOC(=O)[C@@H]1[C@H](C(=O)Nc2ccccc2OC(F)F)[C@@H]2C=C[C@H]1C2)c1ccc(-c2c3nc(c(-c4cccc(S(=O)(=O)[O-])c4F)c4ccc([nH]4)c(-c4cccc(S(=O)(=O)[O-])c4F)c4nc(c(-c5cccc(S(=O)(=O)[O-])c5F)c5ccc2[nH]5)C=C4)C=C3)cc1
REMARK SMILES IDX 7 1 6 2 5 3 4 4 3 5 2 6 1 7 32 8 33 9 94 10 34 11 93 12
REMARK SMILES IDX 35 13 36 14 37 15 87 16 38 17 92 18 86 19 88 20 39 21 91 22
REMARK SMILES IDX 85 23 84 24 40 26 72 27 52 28 71 29 53 30 56 31 70 32 89 33
REMARK SMILES IDX 54 34 55 35 69 37 90 38 57 39 41 40 42 41 50 42 43 43 45 44
REMARK SMILES IDX 51 45 44 46 46 47 47 48 48 49 49 50 73 51 74 52 82 53 75 54
REMARK SMILES IDX 77 55 83 56 76 57 78 58 79 59 80 60 81 61 58 62 59 63 67 64
REMARK SMILES IDX 60 65 62 66 68 67 61 68 63 69 64 70 65 71 66 72 8 73 9 74
REMARK SMILES IDX 10 75 11 76 12 77 13 78 30 79 27 80 29 81 31 82 28 83 14 84
REMARK SMILES IDX 15 85 16 86 17 88 18 89 22 90 19 91 21 92 20 93 23 94 24 95
REMARK SMILES IDX 25 96 26 97
REMARK H PARENT 88 25 56 36 16 87
REMARK Flexibility Score: inf
ROOT
ATOM      1  C   UNL     1       2.298   3.482  -1.184  1.00  0.00     0.202 C 
ENDROOT
BRANCH   1   2
ATOM      2  O   UNL     1       2.662   3.038   0.129  1.00  0.00    -0.374 OA
BRANCH   2   3
ATOM      3  C   UNL     1       3.445   1.860   0.200  1.00  0.00     0.202 C 
BRANCH   3   4
ATOM      4  C   UNL     1       2.710   0.526   0.518  1.00  0.00     0.261 C 
BRANCH   4   5
ATOM      5  O   UNL     1       1.272   0.622   0.683  1.00  0.00    -0.460 OA
BRANCH   5   6
ATOM      6  C   UNL     1       0.679   0.217   1.854  1.00  0.00     0.338 C 
ATOM      7  O   UNL     1      -0.424  -0.308   1.897  1.00  0.00    -0.246 OA
BRANCH   6   8
ATOM      8  C   UNL     1       1.503   0.456   3.056  1.00  0.00     0.060 A 
ATOM      9  C   UNL     1       2.275   1.599   3.028  1.00  0.00     0.016 A 
ATOM     10  C   UNL     1       1.730  -0.518   4.028  1.00  0.00     0.016 A 
ATOM     11  C   UNL     1       3.504   1.546   3.638  1.00  0.00     0.010 A 
ATOM     12  C   UNL     1       2.800  -0.344   4.921  1.00  0.00     0.010 A 
ATOM     13  C   UNL     1       3.733   0.685   4.709  1.00  0.00    -0.014 A 
BRANCH  13  14
ATOM     14  C   UNL     1       4.907   0.973   5.587  1.00  0.00     0.031 A 
ATOM     15  C   UNL     1       5.759  -0.137   6.131  1.00  0.00     0.074 A 
ATOM     16  C   UNL     1       5.208   2.260   5.890  1.00  0.00     0.049 A 
ATOM     17  N   UNL     1       6.555  -0.114   7.165  1.00  0.00    -0.248 NA
ATOM     18  C   UNL     1       5.688  -1.448   5.463  1.00  0.00     0.031 C 
ATOM     19  C   UNL     1       4.488   3.449   5.405  1.00  0.00     0.029 A 
ATOM     20  N   UNL     1       6.208   2.808   6.654  1.00  0.00    -0.354 N 
ATOM     21  C   UNL     1       6.961  -1.427   7.364  1.00  0.00     0.074 A 
ATOM     22  C   UNL     1       6.388  -2.213   6.292  1.00  0.00     0.031 C 
ATOM     23  C   UNL     1       5.146   4.558   5.740  1.00  0.00     0.029 A 
ATOM     24  C   UNL     1       6.155   4.185   6.704  1.00  0.00     0.049 A 
ATOM     25  H   UNL     1       6.891   2.273   7.119  1.00  0.00     0.167 HD
ATOM     26  C   UNL     1       7.713  -1.914   8.380  1.00  0.00     0.034 A 
ATOM     27  C   UNL     1       6.732   5.072   7.533  1.00  0.00     0.034 A 
ATOM     28  C   UNL     1       8.329  -1.068   9.370  1.00  0.00     0.049 A 
ATOM     29  C   UNL     1       7.570   4.514   8.633  1.00  0.00     0.074 A 
ATOM     30  C   UNL     1       9.098  -1.425  10.463  1.00  0.00     0.029 A 
ATOM     31  N   UNL     1       8.266   0.321   9.364  1.00  0.00    -0.354 N 
ATOM     32  N   UNL     1       7.863   3.261   8.880  1.00  0.00    -0.248 NA
ATOM     33  C   UNL     1       8.134   5.477   9.580  1.00  0.00     0.031 C 
ATOM     34  C   UNL     1       9.497  -0.252  11.115  1.00  0.00     0.029 A 
ATOM     35  C   UNL     1       8.995   0.838  10.419  1.00  0.00     0.049 A 
ATOM     36  H   UNL     1       7.772   0.859   8.704  1.00  0.00     0.167 HD
ATOM     37  C   UNL     1       8.654   3.278  10.015  1.00  0.00     0.074 A 
ATOM     38  C   UNL     1       8.821   4.674  10.381  1.00  0.00     0.031 C 
ATOM     39  C   UNL     1       9.172   2.238  10.711  1.00  0.00     0.034 A 
BRANCH  26  40
ATOM     40  C   UNL     1       7.869  -3.410   8.492  1.00  0.00     0.023 A 
ATOM     41  C   UNL     1       8.704  -4.113   7.602  1.00  0.00     0.012 A 
ATOM     42  C   UNL     1       7.192  -4.122   9.506  1.00  0.00     0.148 A 
ATOM     43  C   UNL     1       8.832  -5.501   7.694  1.00  0.00     0.002 A 
ATOM     44  C   UNL     1       7.353  -5.500   9.614  1.00  0.00     0.091 A 
ATOM     45  F   UNL     1       6.385  -3.443  10.334  1.00  0.00    -0.205 F 
ATOM     46  C   UNL     1       8.163  -6.192   8.701  1.00  0.00     0.022 A 
BRANCH  44  47
ATOM     47  S   UNL     1       6.580  -6.470  10.915  1.00  0.00     0.127 S 
ATOM     48  O   UNL     1       5.551  -7.194  10.170  1.00  0.00    -0.237 OA
ATOM     49  O   UNL     1       7.690  -7.300  11.383  1.00  0.00    -0.237 OA
ATOM     50  O   UNL     1       6.087  -5.510  11.892  1.00  0.00    -0.744 OA
ENDBRANCH  44  47
ENDBRANCH  26  40
BRANCH  27  51
ATOM     51  C   UNL     1       6.452   6.531   7.383  1.00  0.00     0.023 A 
ATOM     52  C   UNL     1       7.486   7.386   6.963  1.00  0.00     0.012 A 
ATOM     53  C   UNL     1       5.151   7.059   7.538  1.00  0.00     0.148 A 
ATOM     54  C   UNL     1       7.231   8.735   6.702  1.00  0.00     0.002 A 
ATOM     55  C   UNL     1       4.888   8.382   7.198  1.00  0.00     0.091 A 
ATOM     56  F   UNL     1       4.175   6.242   7.961  1.00  0.00    -0.205 F 
ATOM     57  C   UNL     1       5.931   9.227   6.798  1.00  0.00     0.022 A 
BRANCH  55  58
ATOM     58  S   UNL     1       3.210   9.022   7.103  1.00  0.00     0.127 S 
ATOM     59  O   UNL     1       3.096   9.757   8.358  1.00  0.00    -0.237 OA
ATOM     60  O   UNL     1       3.263   9.858   5.902  1.00  0.00    -0.237 OA
ATOM     61  O   UNL     1       2.360   7.846   6.966  1.00  0.00    -0.744 OA
ENDBRANCH  55  58
ENDBRANCH  27  51
BRANCH  39  62
ATOM     62  C   UNL     1      10.008   2.595  11.901  1.00  0.00     0.023 A 
ATOM     63  C   UNL     1       9.388   3.015  13.093  1.00  0.00     0.012 A 
ATOM     64  C   UNL     1      11.408   2.481  11.839  1.00  0.00     0.148 A 
ATOM     65  C   UNL     1      10.159   3.345  14.205  1.00  0.00     0.002 A 
ATOM     66  C   UNL     1      12.165   2.764  12.965  1.00  0.00     0.091 A 
ATOM     67  F   UNL     1      11.970   2.114  10.678  1.00  0.00    -0.205 F 
ATOM     68  C   UNL     1      11.544   3.207  14.145  1.00  0.00     0.022 A 
BRANCH  66  69
ATOM     69  S   UNL     1      13.942   2.525  12.994  1.00  0.00     0.127 S 
ATOM     70  O   UNL     1      14.430   3.898  12.880  1.00  0.00    -0.237 OA
ATOM     71  O   UNL     1      14.152   1.908  14.304  1.00  0.00    -0.237 OA
ATOM     72  O   UNL     1      14.244   1.654  11.865  1.00  0.00    -0.744 OA
ENDBRANCH  66  69
ENDBRANCH  39  62
ENDBRANCH  13  14
ENDBRANCH   6   8
ENDBRANCH   5   6
ENDBRANCH   4   5
ENDBRANCH   3   4
ENDBRANCH   2   3
ENDBRANCH   1   2
BRANCH   1  73
ATOM     73  C   UNL     1       3.458   3.843  -2.143  1.00  0.00     0.261 C 
BRANCH  73  74
ATOM     74  O   UNL     1       3.698   2.831  -3.175  1.00  0.00    -0.463 OA
BRANCH  74  75
ATOM     75  C   UNL     1       4.985   2.367  -3.312  1.00  0.00     0.310 C 
ATOM     76  O   UNL     1       5.886   2.689  -2.544  1.00  0.00    -0.252 OA
BRANCH  75  77
ATOM     77  C   UNL     1       5.223   1.570  -4.615  1.00  0.00     0.119 C 
ATOM     78  C   UNL     1       4.798   0.132  -5.183  1.00  0.00     0.100 C 
ATOM     79  C   UNL     1       6.767   1.556  -4.888  1.00  0.00     0.027 C 
ATOM     80  C   UNL     1       6.156  -0.412  -5.739  1.00  0.00     0.025 C 
ATOM     81  C   UNL     1       7.426   0.479  -4.057  1.00  0.00    -0.027 C 
ATOM     82  C   UNL     1       6.824   0.862  -6.250  1.00  0.00     0.017 C 
ATOM     83  C   UNL     1       7.076  -0.702  -4.582  1.00  0.00    -0.027 C 
BRANCH  78  84
ATOM     84  C   UNL     1       3.969  -1.148  -4.832  1.00  0.00     0.229 C 
ATOM     85  O   UNL     1       3.157  -1.553  -5.684  1.00  0.00    -0.274 OA
ATOM     86  N   UNL     1       4.184  -2.020  -3.801  1.00  0.00    -0.323 N 
ATOM     87  H   UNL     1       3.892  -2.945  -3.969  1.00  0.00     0.170 HD
BRANCH  86  88
ATOM     88  C   UNL     1       4.755  -1.799  -2.551  1.00  0.00     0.084 A 
ATOM     89  C   UNL     1       5.366  -2.833  -1.839  1.00  0.00     0.030 A 
ATOM     90  C   UNL     1       4.713  -0.545  -1.996  1.00  0.00     0.149 A 
ATOM     91  C   UNL     1       6.151  -2.538  -0.717  1.00  0.00     0.002 A 
ATOM     92  C   UNL     1       5.639  -0.217  -1.000  1.00  0.00     0.049 A 
ATOM     93  C   UNL     1       6.353  -1.215  -0.347  1.00  0.00     0.004 A 
BRANCH  90  94
ATOM     94  O   UNL     1       3.800   0.383  -2.396  1.00  0.00    -0.433 OA
BRANCH  94  95
ATOM     95  C   UNL     1       2.405   0.069  -2.602  1.00  0.00     0.542 C 
ATOM     96  F   UNL     1       2.092   0.363  -3.885  1.00  0.00    -0.167 F 
ATOM     97  F   UNL     1       2.116  -1.227  -2.364  1.00  0.00    -0.167 F 
ENDBRANCH  94  95
ENDBRANCH  90  94
ENDBRANCH  86  88
ENDBRANCH  78  84
ENDBRANCH  75  77
ENDBRANCH  74  75
ENDBRANCH  73  74
ENDBRANCH   1  73
TORSDOF 21
