REMARK SMILES O=C(OCCOCCOC(=O)[C@]1(CCc2ccccc2)C[C@H]2CC[C@@H]1O2)c1ccc(-c2c3nc(c(-c4cccc(S(=O)(=O)[O-])c4F)c4ccc([nH]4)c(-c4cccc(S(=O)(=O)[O-])c4F)c4nc(c(-c5cccc(S(=O)(=O)[O-])c5F)c5ccc2[nH]5)C=C4)C=C3)cc1
REMARK SMILES IDX 6 1 5 2 4 3 3 4 2 5 1 6 27 7 28 8 89 9 29 10 88 11 30 12
REMARK SMILES IDX 31 13 32 14 82 15 33 16 87 17 81 18 83 19 34 20 86 21 80 22
REMARK SMILES IDX 79 23 35 25 67 26 47 27 66 28 48 29 51 30 65 31 84 32 49 33
REMARK SMILES IDX 50 34 64 36 85 37 52 38 36 39 37 40 45 41 38 42 40 43 46 44
REMARK SMILES IDX 39 45 41 46 42 47 43 48 44 49 68 50 69 51 77 52 70 53 72 54
REMARK SMILES IDX 78 55 71 56 73 57 74 58 75 59 76 60 53 61 54 62 62 63 55 64
REMARK SMILES IDX 57 65 63 66 56 67 58 68 59 69 60 70 61 71 7 72 8 73 9 74
REMARK SMILES IDX 10 75 11 76 12 77 21 78 25 79 22 80 24 81 26 82 23 83 13 84
REMARK SMILES IDX 14 85 15 86 16 87 20 88 17 89 19 90 18 91
REMARK H PARENT 83 24 51 35
REMARK Flexibility Score: inf
ROOT
ATOM      1  O   UNL     1       3.671   0.880   1.018  1.00  0.00    -0.374 OA
ENDROOT
BRANCH   1   2
ATOM      2  C   UNL     1       4.018   1.328  -0.290  1.00  0.00     0.202 C 
BRANCH   2   3
ATOM      3  C   UNL     1       3.727   0.358  -1.438  1.00  0.00     0.261 C 
BRANCH   3   4
ATOM      4  O   UNL     1       2.367  -0.086  -1.411  1.00  0.00    -0.460 OA
BRANCH   4   5
ATOM      5  C   UNL     1       1.894  -1.221  -0.840  1.00  0.00     0.338 C 
ATOM      6  O   UNL     1       0.687  -1.445  -0.902  1.00  0.00    -0.246 OA
BRANCH   5   7
ATOM      7  C   UNL     1       2.768  -2.226  -0.160  1.00  0.00     0.060 A 
ATOM      8  C   UNL     1       3.976  -1.932   0.466  1.00  0.00     0.016 A 
ATOM      9  C   UNL     1       2.301  -3.548  -0.079  1.00  0.00     0.016 A 
ATOM     10  C   UNL     1       4.713  -2.888   1.125  1.00  0.00     0.010 A 
ATOM     11  C   UNL     1       3.031  -4.528   0.608  1.00  0.00     0.010 A 
ATOM     12  C   UNL     1       4.242  -4.187   1.214  1.00  0.00    -0.014 A 
BRANCH  12  13
ATOM     13  C   UNL     1       5.161  -5.133   1.858  1.00  0.00     0.031 A 
ATOM     14  C   UNL     1       6.006  -5.995   0.980  1.00  0.00     0.074 A 
ATOM     15  C   UNL     1       5.403  -5.006   3.176  1.00  0.00     0.049 A 
ATOM     16  N   UNL     1       6.912  -6.867   1.315  1.00  0.00    -0.248 NA
ATOM     17  C   UNL     1       5.834  -5.827  -0.476  1.00  0.00     0.031 C 
ATOM     18  C   UNL     1       4.743  -4.043   4.066  1.00  0.00     0.029 A 
ATOM     19  N   UNL     1       6.304  -5.641   3.986  1.00  0.00    -0.354 N 
ATOM     20  C   UNL     1       7.369  -7.404   0.121  1.00  0.00     0.074 A 
ATOM     21  C   UNL     1       6.679  -6.727  -0.953  1.00  0.00     0.031 C 
ATOM     22  C   UNL     1       5.276  -4.141   5.293  1.00  0.00     0.029 A 
ATOM     23  C   UNL     1       6.250  -5.225   5.296  1.00  0.00     0.049 A 
ATOM     24  H   UNL     1       6.929  -6.329   3.663  1.00  0.00     0.167 HD
ATOM     25  C   UNL     1       8.270  -8.395  -0.048  1.00  0.00     0.034 A 
ATOM     26  C   UNL     1       6.887  -5.712   6.378  1.00  0.00     0.034 A 
ATOM     27  C   UNL     1       8.939  -9.039   1.047  1.00  0.00     0.049 A 
ATOM     28  C   UNL     1       7.824  -6.870   6.164  1.00  0.00     0.074 A 
ATOM     29  C   UNL     1       9.794 -10.123   1.020  1.00  0.00     0.029 A 
ATOM     30  N   UNL     1       8.819  -8.649   2.374  1.00  0.00    -0.354 N 
ATOM     31  N   UNL     1       8.209  -7.424   5.038  1.00  0.00    -0.248 NA
ATOM     32  C   UNL     1       8.411  -7.476   7.365  1.00  0.00     0.031 C 
ATOM     33  C   UNL     1      10.171 -10.405   2.337  1.00  0.00     0.029 A 
ATOM     34  C   UNL     1       9.582  -9.473   3.179  1.00  0.00     0.049 A 
ATOM     35  H   UNL     1       8.271  -7.897   2.694  1.00  0.00     0.167 HD
ATOM     36  C   UNL     1       9.088  -8.438   5.392  1.00  0.00     0.074 A 
ATOM     37  C   UNL     1       9.216  -8.387   6.836  1.00  0.00     0.031 C 
ATOM     38  C   UNL     1       9.710  -9.354   4.609  1.00  0.00     0.034 A 
BRANCH  25  39
ATOM     39  C   UNL     1       8.507  -8.878  -1.449  1.00  0.00     0.023 A 
ATOM     40  C   UNL     1       9.276  -8.114  -2.349  1.00  0.00     0.012 A 
ATOM     41  C   UNL     1       7.952 -10.101  -1.873  1.00  0.00     0.148 A 
ATOM     42  C   UNL     1       9.468  -8.552  -3.660  1.00  0.00     0.002 A 
ATOM     43  C   UNL     1       8.183 -10.550  -3.165  1.00  0.00     0.091 A 
ATOM     44  F   UNL     1       7.196 -10.790  -1.007  1.00  0.00    -0.205 F 
ATOM     45  C   UNL     1       8.930  -9.772  -4.064  1.00  0.00     0.022 A 
BRANCH  43  46
ATOM     46  S   UNL     1       7.580 -12.132  -3.763  1.00  0.00     0.127 S 
ATOM     47  O   UNL     1       6.664 -11.717  -4.825  1.00  0.00    -0.237 OA
ATOM     48  O   UNL     1       8.812 -12.766  -4.231  1.00  0.00    -0.237 OA
ATOM     49  O   UNL     1       6.949 -12.783  -2.623  1.00  0.00    -0.744 OA
ENDBRANCH  43  46
ENDBRANCH  25  39
BRANCH  26  50
ATOM     50  C   UNL     1       6.617  -5.168   7.741  1.00  0.00     0.023 A 
ATOM     51  C   UNL     1       7.662  -4.605   8.499  1.00  0.00     0.012 A 
ATOM     52  C   UNL     1       5.327  -5.234   8.307  1.00  0.00     0.148 A 
ATOM     53  C   UNL     1       7.437  -4.160   9.804  1.00  0.00     0.002 A 
ATOM     54  C   UNL     1       5.095  -4.726   9.579  1.00  0.00     0.091 A 
ATOM     55  F   UNL     1       4.346  -5.805   7.594  1.00  0.00    -0.205 F 
ATOM     56  C   UNL     1       6.152  -4.210  10.340  1.00  0.00     0.022 A 
BRANCH  54  57
ATOM     57  S   UNL     1       3.442  -4.632  10.276  1.00  0.00     0.127 S 
ATOM     58  O   UNL     1       3.449  -5.748  11.217  1.00  0.00    -0.237 OA
ATOM     59  O   UNL     1       3.444  -3.304  10.893  1.00  0.00    -0.237 OA
ATOM     60  O   UNL     1       2.537  -4.758   9.141  1.00  0.00    -0.744 OA
ENDBRANCH  54  57
ENDBRANCH  26  50
BRANCH  38  61
ATOM     61  C   UNL     1      10.599 -10.349   5.302  1.00  0.00     0.023 A 
ATOM     62  C   UNL     1      10.028 -11.374   6.081  1.00  0.00     0.012 A 
ATOM     63  C   UNL     1      11.994 -10.301   5.124  1.00  0.00     0.148 A 
ATOM     64  C   UNL     1      10.840 -12.317   6.707  1.00  0.00     0.002 A 
ATOM     65  C   UNL     1      12.791 -11.278   5.704  1.00  0.00     0.091 A 
ATOM     66  F   UNL     1      12.513  -9.304   4.394  1.00  0.00    -0.205 F 
ATOM     67  C   UNL     1      12.218 -12.276   6.509  1.00  0.00     0.022 A 
BRANCH  65  68
ATOM     68  S   UNL     1      14.560 -11.364   5.412  1.00  0.00     0.127 S 
ATOM     69  O   UNL     1      15.095 -10.908   6.694  1.00  0.00    -0.237 OA
ATOM     70  O   UNL     1      14.759 -12.788   5.139  1.00  0.00    -0.237 OA
ATOM     71  O   UNL     1      14.822 -10.490   4.277  1.00  0.00    -0.744 OA
ENDBRANCH  65  68
ENDBRANCH  38  61
ENDBRANCH  12  13
ENDBRANCH   5   7
ENDBRANCH   4   5
ENDBRANCH   3   4
ENDBRANCH   2   3
ENDBRANCH   1   2
BRANCH   1  72
ATOM     72  C   UNL     1       2.323   1.110   1.433  1.00  0.00     0.202 C 
BRANCH  72  73
ATOM     73  C   UNL     1       2.320   2.188   2.508  1.00  0.00     0.261 C 
BRANCH  73  74
ATOM     74  O   UNL     1       2.992   3.311   1.922  1.00  0.00    -0.463 OA
BRANCH  74  75
ATOM     75  C   UNL     1       4.181   3.682   2.461  1.00  0.00     0.314 C 
ATOM     76  O   UNL     1       4.536   3.398   3.594  1.00  0.00    -0.252 OA
BRANCH  75  77
ATOM     77  C   UNL     1       4.995   4.569   1.501  1.00  0.00     0.097 C 
ATOM     78  C   UNL     1       5.360   5.867   2.258  1.00  0.00     0.053 C 
ATOM     79  C   UNL     1       4.021   5.143   0.425  1.00  0.00     0.136 C 
ATOM     80  C   UNL     1       4.470   6.913   1.582  1.00  0.00     0.120 C 
ATOM     81  C   UNL     1       4.663   6.049  -0.621  1.00  0.00     0.036 C 
ATOM     82  O   UNL     1       3.313   6.143   1.207  1.00  0.00    -0.374 OA
ATOM     83  C   UNL     1       5.021   7.281   0.207  1.00  0.00     0.035 C 
BRANCH  77  84
ATOM     84  C   UNL     1       6.234   3.875   0.866  1.00  0.00     0.026 C 
BRANCH  84  85
ATOM     85  C   UNL     1       7.373   3.306   1.736  1.00  0.00     0.037 C 
BRANCH  85  86
ATOM     86  C   UNL     1       7.234   1.916   2.309  1.00  0.00    -0.048 A 
ATOM     87  C   UNL     1       6.861   1.749   3.647  1.00  0.00     0.004 A 
ATOM     88  C   UNL     1       7.564   0.770   1.569  1.00  0.00     0.004 A 
ATOM     89  C   UNL     1       6.737   0.481   4.216  1.00  0.00     0.000 A 
ATOM     90  C   UNL     1       7.492  -0.501   2.155  1.00  0.00     0.000 A 
ATOM     91  C   UNL     1       7.056  -0.647   3.471  1.00  0.00     0.000 A 
ENDBRANCH  85  86
ENDBRANCH  84  85
ENDBRANCH  77  84
ENDBRANCH  75  77
ENDBRANCH  74  75
ENDBRANCH  73  74
ENDBRANCH  72  73
ENDBRANCH   1  72
TORSDOF 20
