REMARK SMILES O=C(OCCOCCOC(=O)c1cc(SCc2csc(-c3ccsc3)n2)ccn1)c1ccc(-c2c3nc(c(-c4cccc(S(=O)(=O)[O-])c4F)c4ccc([nH]4)c(-c4cccc(S(=O)(=O)[O-])c4F)c4nc(c(-c5cccc(S(=O)(=O)[O-])c5F)c5ccc2[nH]5)C=C4)C=C3)cc1
REMARK SMILES IDX 7 1 6 2 5 3 4 4 3 5 2 6 1 7 30 8 31 9 92 10 32 11 91 12
REMARK SMILES IDX 33 13 34 14 35 15 85 16 36 17 90 18 84 19 86 20 37 21 89 22
REMARK SMILES IDX 83 23 82 24 38 26 70 27 50 28 69 29 51 30 54 31 68 32 87 33
REMARK SMILES IDX 52 34 53 35 67 37 88 38 55 39 39 40 40 41 48 42 41 43 43 44
REMARK SMILES IDX 49 45 42 46 44 47 45 48 46 49 47 50 71 51 72 52 80 53 73 54
REMARK SMILES IDX 75 55 81 56 74 57 76 58 77 59 78 60 79 61 56 62 57 63 65 64
REMARK SMILES IDX 58 65 60 66 66 67 59 68 61 69 62 70 63 71 64 72 8 73 9 74
REMARK SMILES IDX 10 75 11 76 12 77 13 78 29 79 14 80 28 81 27 82 15 83 16 84
REMARK SMILES IDX 17 85 18 86 26 87 19 88 20 89 21 90 22 91 25 92 23 93 24 94
REMARK H PARENT 86 25 54 36
REMARK Flexibility Score: inf
ROOT
ATOM      1  C   UNL     1       3.051  -1.617  -1.673  1.00  0.00     0.202 C 
ENDROOT
BRANCH   1   2
ATOM      2  O   UNL     1       4.347  -1.347  -1.132  1.00  0.00    -0.374 OA
BRANCH   2   3
ATOM      3  C   UNL     1       4.545  -1.695   0.237  1.00  0.00     0.202 C 
BRANCH   3   4
ATOM      4  C   UNL     1       4.200  -0.569   1.214  1.00  0.00     0.261 C 
BRANCH   4   5
ATOM      5  O   UNL     1       2.801  -0.257   1.123  1.00  0.00    -0.460 OA
BRANCH   5   6
ATOM      6  C   UNL     1       2.204   0.818   0.559  1.00  0.00     0.338 C 
ATOM      7  O   UNL     1       0.985   0.930   0.689  1.00  0.00    -0.246 OA
BRANCH   6   8
ATOM      8  C   UNL     1       2.927   1.876  -0.215  1.00  0.00     0.060 A 
ATOM      9  C   UNL     1       4.147   1.710  -0.878  1.00  0.00     0.016 A 
ATOM     10  C   UNL     1       2.268   3.110  -0.359  1.00  0.00     0.016 A 
ATOM     11  C   UNL     1       4.726   2.739  -1.613  1.00  0.00     0.010 A 
ATOM     12  C   UNL     1       2.828   4.141  -1.118  1.00  0.00     0.010 A 
ATOM     13  C   UNL     1       4.072   3.960  -1.730  1.00  0.00    -0.014 A 
BRANCH  13  14
ATOM     14  C   UNL     1       4.754   5.072  -2.410  1.00  0.00     0.031 A 
ATOM     15  C   UNL     1       5.418   6.115  -1.569  1.00  0.00     0.074 A 
ATOM     16  C   UNL     1       4.803   5.108  -3.752  1.00  0.00     0.049 A 
ATOM     17  N   UNL     1       6.018   7.213  -1.935  1.00  0.00    -0.248 NA
ATOM     18  C   UNL     1       5.412   5.884  -0.113  1.00  0.00     0.031 C 
ATOM     19  C   UNL     1       4.238   4.092  -4.641  1.00  0.00     0.029 A 
ATOM     20  N   UNL     1       5.343   6.036  -4.601  1.00  0.00    -0.354 N 
ATOM     21  C   UNL     1       6.418   7.829  -0.758  1.00  0.00     0.074 A 
ATOM     22  C   UNL     1       6.011   6.976   0.336  1.00  0.00     0.031 C 
ATOM     23  C   UNL     1       4.442   4.465  -5.915  1.00  0.00     0.029 A 
ATOM     24  C   UNL     1       5.110   5.762  -5.928  1.00  0.00     0.049 A 
ATOM     25  H   UNL     1       5.848   6.823  -4.292  1.00  0.00     0.167 HD
ATOM     26  C   UNL     1       7.066   9.006  -0.609  1.00  0.00     0.034 A 
ATOM     27  C   UNL     1       5.382   6.500  -7.022  1.00  0.00     0.034 A 
ATOM     28  C   UNL     1       7.460   9.832  -1.714  1.00  0.00     0.049 A 
ATOM     29  C   UNL     1       6.083   7.819  -6.831  1.00  0.00     0.074 A 
ATOM     30  C   UNL     1       8.093  11.060  -1.694  1.00  0.00     0.029 A 
ATOM     31  N   UNL     1       7.248   9.507  -3.048  1.00  0.00    -0.354 N 
ATOM     32  N   UNL     1       6.496   8.377  -5.716  1.00  0.00    -0.248 NA
ATOM     33  C   UNL     1       6.376   8.602  -8.038  1.00  0.00     0.031 C 
ATOM     34  C   UNL     1       8.249  11.484  -3.019  1.00  0.00     0.029 A 
ATOM     35  C   UNL     1       7.734  10.510  -3.863  1.00  0.00     0.049 A 
ATOM     36  H   UNL     1       6.815   8.682  -3.366  1.00  0.00     0.167 HD
ATOM     37  C   UNL     1       7.120   9.561  -6.086  1.00  0.00     0.074 A 
ATOM     38  C   UNL     1       7.044   9.632  -7.533  1.00  0.00     0.031 C 
ATOM     39  C   UNL     1       7.689  10.512  -5.305  1.00  0.00     0.034 A 
BRANCH  26  40
ATOM     40  C   UNL     1       7.352   9.452   0.797  1.00  0.00     0.023 A 
ATOM     41  C   UNL     1       8.373   8.824   1.539  1.00  0.00     0.012 A 
ATOM     42  C   UNL     1       6.583  10.466   1.400  1.00  0.00     0.148 A 
ATOM     43  C   UNL     1       8.597   9.169   2.872  1.00  0.00     0.002 A 
ATOM     44  C   UNL     1       6.836  10.829   2.718  1.00  0.00     0.091 A 
ATOM     45  F   UNL     1       5.593  11.026   0.691  1.00  0.00    -0.205 F 
ATOM     46  C   UNL     1       7.833  10.175   3.458  1.00  0.00     0.022 A 
BRANCH  44  47
ATOM     47  S   UNL     1       5.930  12.146   3.537  1.00  0.00     0.127 S 
ATOM     48  O   UNL     1       4.997  11.389   4.370  1.00  0.00    -0.237 OA
ATOM     49  O   UNL     1       6.986  12.836   4.279  1.00  0.00    -0.237 OA
ATOM     50  O   UNL     1       5.329  12.935   2.471  1.00  0.00    -0.744 OA
ENDBRANCH  44  47
ENDBRANCH  26  40
BRANCH  27  51
ATOM     51  C   UNL     1       5.009   5.987  -8.371  1.00  0.00     0.023 A 
ATOM     52  C   UNL     1       6.018   5.588  -9.268  1.00  0.00     0.012 A 
ATOM     53  C   UNL     1       3.659   5.826  -8.744  1.00  0.00     0.148 A 
ATOM     54  C   UNL     1       5.689   5.050 -10.515  1.00  0.00     0.002 A 
ATOM     55  C   UNL     1       3.338   5.239  -9.964  1.00  0.00     0.091 A 
ATOM     56  F   UNL     1       2.711   6.230  -7.886  1.00  0.00    -0.205 F 
ATOM     57  C   UNL     1       4.352   4.863 -10.857  1.00  0.00     0.022 A 
BRANCH  55  58
ATOM     58  S   UNL     1       1.649   4.835 -10.425  1.00  0.00     0.127 S 
ATOM     59  O   UNL     1       1.381   5.816 -11.473  1.00  0.00    -0.237 OA
ATOM     60  O   UNL     1       1.783   3.455 -10.893  1.00  0.00    -0.237 OA
ATOM     61  O   UNL     1       0.864   4.979  -9.206  1.00  0.00    -0.744 OA
ENDBRANCH  55  58
ENDBRANCH  27  51
BRANCH  39  62
ATOM     62  C   UNL     1       8.307  11.697  -5.992  1.00  0.00     0.023 A 
ATOM     63  C   UNL     1       7.481  12.726  -6.482  1.00  0.00     0.012 A 
ATOM     64  C   UNL     1       9.707  11.847  -6.030  1.00  0.00     0.148 A 
ATOM     65  C   UNL     1       8.041  13.887  -7.012  1.00  0.00     0.002 A 
ATOM     66  C   UNL     1      10.257  13.024  -6.519  1.00  0.00     0.091 A 
ATOM     67  F   UNL     1      10.470  10.842  -5.576  1.00  0.00    -0.205 F 
ATOM     68  C   UNL     1       9.426  14.042  -7.016  1.00  0.00     0.022 A 
BRANCH  66  69
ATOM     69  S   UNL     1      12.022  13.350  -6.466  1.00  0.00     0.127 S 
ATOM     70  O   UNL     1      12.397  13.191  -7.870  1.00  0.00    -0.237 OA
ATOM     71  O   UNL     1      12.071  14.726  -5.972  1.00  0.00    -0.237 OA
ATOM     72  O   UNL     1      12.584  12.363  -5.552  1.00  0.00    -0.744 OA
ENDBRANCH  66  69
ENDBRANCH  39  62
ENDBRANCH  13  14
ENDBRANCH   6   8
ENDBRANCH   5   6
ENDBRANCH   4   5
ENDBRANCH   3   4
ENDBRANCH   2   3
ENDBRANCH   1   2
BRANCH   1  73
ATOM     73  C   UNL     1       3.227  -2.336  -3.015  1.00  0.00     0.261 C 
BRANCH  73  74
ATOM     74  O   UNL     1       3.836  -3.615  -2.763  1.00  0.00    -0.459 OA
BRANCH  74  75
ATOM     75  C   UNL     1       5.203  -3.611  -2.717  1.00  0.00     0.357 C 
ATOM     76  O   UNL     1       5.950  -2.845  -3.298  1.00  0.00    -0.244 OA
BRANCH  75  77
ATOM     77  C   UNL     1       5.596  -4.603  -1.672  1.00  0.00     0.149 A 
ATOM     78  C   UNL     1       4.864  -5.775  -1.528  1.00  0.00     0.051 A 
ATOM     79  N   UNL     1       6.561  -4.212  -0.803  1.00  0.00    -0.249 NA
ATOM     80  C   UNL     1       5.043  -6.538  -0.381  1.00  0.00     0.012 A 
ATOM     81  C   UNL     1       6.758  -4.994   0.274  1.00  0.00     0.113 A 
ATOM     82  C   UNL     1       6.022  -6.138   0.532  1.00  0.00     0.035 A 
BRANCH  80  83
ATOM     83  S   UNL     1       4.092  -7.993   0.033  1.00  0.00    -0.120 SA
BRANCH  83  84
ATOM     84  C   UNL     1       2.673  -7.978  -1.117  1.00  0.00     0.132 C 
BRANCH  84  85
ATOM     85  C   UNL     1       1.610  -6.978  -0.778  1.00  0.00     0.062 A 
ATOM     86  C   UNL     1       1.376  -5.771  -1.411  1.00  0.00     0.091 A 
ATOM     87  N   UNL     1       0.663  -7.300   0.190  1.00  0.00    -0.240 NA
ATOM     88  S   UNL     1      -0.049  -5.042  -0.813  1.00  0.00    -0.122 S 
ATOM     89  C   UNL     1      -0.289  -6.387   0.228  1.00  0.00     0.124 A 
BRANCH  89  90
ATOM     90  C   UNL     1      -1.502  -6.564   1.097  1.00  0.00     0.021 A 
ATOM     91  C   UNL     1      -1.635  -7.590   2.083  1.00  0.00     0.023 A 
ATOM     92  C   UNL     1      -2.636  -5.781   1.022  1.00  0.00     0.076 A 
ATOM     93  C   UNL     1      -2.857  -7.547   2.719  1.00  0.00     0.065 A 
ATOM     94  S   UNL     1      -3.850  -6.291   2.119  1.00  0.00    -0.152 S 
ENDBRANCH  89  90
ENDBRANCH  84  85
ENDBRANCH  83  84
ENDBRANCH  80  83
ENDBRANCH  75  77
ENDBRANCH  74  75
ENDBRANCH  73  74
ENDBRANCH   1  73
TORSDOF 21
