REMARK SMILES N#Cc1ccc(C[N@H+]2CCCC[C@H]2C(=O)OCCOCCOC(=O)c2ccc(-c3c4nc(c(-c5cccc(S(=O)(=O)[O-])c5F)c5ccc([nH]5)c(-c5cccc(S(=O)(=O)[O-])c5F)c5nc(c(-c6cccc(S(=O)(=O)[O-])c6F)c6ccc3[nH]6)C=C5)C=C4)cc2)c(F)c1
REMARK SMILES IDX 19 1 18 2 17 3 16 4 14 5 15 6 13 7 8 8 9 9 10 11 12 12 11 13
REMARK SMILES IDX 7 14 6 15 3 16 4 17 90 18 5 19 88 20 89 21 2 22 1 23 20 24
REMARK SMILES IDX 21 25 22 26 23 27 24 28 25 29 26 30 87 31 27 32 86 33 28 34
REMARK SMILES IDX 29 35 30 36 80 37 31 38 85 39 79 40 81 41 32 42 84 43 78 44
REMARK SMILES IDX 77 45 33 47 65 48 45 49 64 50 46 51 49 52 63 53 82 54 47 55
REMARK SMILES IDX 48 56 62 58 83 59 50 60 34 61 35 62 43 63 36 64 38 65 44 66
REMARK SMILES IDX 37 67 39 68 40 69 41 70 42 71 66 72 67 73 75 74 68 75 70 76
REMARK SMILES IDX 76 77 69 78 71 79 72 80 73 81 74 82 51 83 52 84 60 85 53 86
REMARK SMILES IDX 55 87 61 88 54 89 56 90 57 91 58 92 59 93
REMARK H PARENT 8 10 81 46 49 57
REMARK Flexibility Score: inf
ROOT
ATOM      1  O   UNL     1      -0.291  -0.955   2.876  1.00  0.00    -0.374 OA
ENDROOT
BRANCH   1   2
ATOM      2  C   UNL     1      -0.220  -2.257   2.306  1.00  0.00     0.202 C 
BRANCH   2   3
ATOM      3  C   UNL     1       0.904  -2.808   1.383  1.00  0.00     0.261 C 
BRANCH   3   4
ATOM      4  O   UNL     1       2.273  -2.425   1.595  1.00  0.00    -0.459 OA
BRANCH   4   5
ATOM      5  C   UNL     1       2.451  -1.144   1.205  1.00  0.00     0.364 C 
ATOM      6  O   UNL     1       1.483  -0.412   1.068  1.00  0.00    -0.245 OA
BRANCH   5   7
ATOM      7  C   UNL     1       3.884  -0.682   0.931  1.00  0.00     0.295 C 
ATOM      8  N   UNL     1       3.983   0.811   0.840  1.00  0.00    -0.319 N 
ATOM      9  C   UNL     1       3.634   1.478   2.096  1.00  0.00     0.263 C 
ATOM     10  H   UNL     1       4.980   0.982   0.703  1.00  0.00     0.349 HD
ATOM     11  C   UNL     1       4.445   0.959   3.298  1.00  0.00     0.062 C 
ATOM     12  C   UNL     1       4.870  -1.177   1.999  1.00  0.00     0.078 C 
ATOM     13  C   UNL     1       4.614  -0.557   3.367  1.00  0.00     0.013 C 
BRANCH   8  14
ATOM     14  C   UNL     1       3.427   1.445  -0.392  1.00  0.00     0.302 C 
BRANCH  14  15
ATOM     15  C   UNL     1       1.944   1.329  -0.722  1.00  0.00     0.042 A 
ATOM     16  C   UNL     1      -0.796   0.635  -0.775  1.00  0.00     0.055 A 
ATOM     17  C   UNL     1      -0.375   1.804  -0.126  1.00  0.00     0.020 A 
ATOM     18  C   UNL     1       0.125  -0.112  -1.513  1.00  0.00     0.059 A 
ATOM     19  C   UNL     1       0.986   2.155  -0.104  1.00  0.00     0.014 A 
ATOM     20  C   UNL     1       1.476   0.249  -1.494  1.00  0.00     0.133 A 
ATOM     21  F   UNL     1       2.357  -0.582  -2.071  1.00  0.00    -0.206 F 
BRANCH  16  22
ATOM     22  C   UNL     1      -2.135   0.155  -0.597  1.00  0.00     0.099 C 
ATOM     23  N   UNL     1      -3.219  -0.243  -0.442  1.00  0.00    -0.192 NA
ENDBRANCH  16  22
ENDBRANCH  14  15
ENDBRANCH   8  14
ENDBRANCH   5   7
ENDBRANCH   4   5
ENDBRANCH   3   4
ENDBRANCH   2   3
ENDBRANCH   1   2
BRANCH   1  24
ATOM     24  C   UNL     1       0.708  -0.469   3.761  1.00  0.00     0.202 C 
BRANCH  24  25
ATOM     25  C   UNL     1       1.034  -1.179   5.071  1.00  0.00     0.261 C 
BRANCH  25  26
ATOM     26  O   UNL     1       1.222  -2.585   4.911  1.00  0.00    -0.460 OA
BRANCH  26  27
ATOM     27  C   UNL     1       0.183  -3.306   5.397  1.00  0.00     0.338 C 
ATOM     28  O   UNL     1      -0.786  -2.887   6.008  1.00  0.00    -0.246 OA
BRANCH  27  29
ATOM     29  C   UNL     1       0.249  -4.679   4.881  1.00  0.00     0.060 A 
ATOM     30  C   UNL     1      -0.879  -5.145   4.190  1.00  0.00     0.016 A 
ATOM     31  C   UNL     1       1.343  -5.506   5.129  1.00  0.00     0.016 A 
ATOM     32  C   UNL     1      -0.951  -6.468   3.802  1.00  0.00     0.010 A 
ATOM     33  C   UNL     1       1.253  -6.849   4.770  1.00  0.00     0.010 A 
ATOM     34  C   UNL     1       0.084  -7.337   4.157  1.00  0.00    -0.014 A 
BRANCH  34  35
ATOM     35  C   UNL     1      -0.178  -8.784   4.078  1.00  0.00     0.031 A 
ATOM     36  C   UNL     1      -0.557  -9.510   5.336  1.00  0.00     0.074 A 
ATOM     37  C   UNL     1      -0.150  -9.411   2.892  1.00  0.00     0.049 A 
ATOM     38  N   UNL     1      -0.829 -10.774   5.510  1.00  0.00    -0.248 NA
ATOM     39  C   UNL     1      -0.643  -8.701   6.565  1.00  0.00     0.031 C 
ATOM     40  C   UNL     1       0.150  -8.776   1.610  1.00  0.00     0.029 A 
ATOM     41  N   UNL     1      -0.371 -10.724   2.581  1.00  0.00    -0.354 N 
ATOM     42  C   UNL     1      -1.082 -10.922   6.868  1.00  0.00     0.074 A 
ATOM     43  C   UNL     1      -0.918  -9.621   7.476  1.00  0.00     0.031 C 
ATOM     44  C   UNL     1       0.115  -9.710   0.646  1.00  0.00     0.029 A 
ATOM     45  C   UNL     1      -0.171 -11.008   1.253  1.00  0.00     0.049 A 
ATOM     46  H   UNL     1      -0.646 -11.398   3.243  1.00  0.00     0.167 HD
ATOM     47  C   UNL     1      -1.428 -12.042   7.542  1.00  0.00     0.034 A 
ATOM     48  C   UNL     1      -0.186 -12.191   0.614  1.00  0.00     0.034 A 
ATOM     49  C   UNL     1      -1.589 -13.326   6.917  1.00  0.00     0.049 A 
ATOM     50  C   UNL     1      -0.504 -13.434   1.400  1.00  0.00     0.074 A 
ATOM     51  C   UNL     1      -1.960 -14.525   7.497  1.00  0.00     0.029 A 
ATOM     52  N   UNL     1      -1.368 -13.583   5.572  1.00  0.00    -0.354 N 
ATOM     53  N   UNL     1      -0.811 -13.554   2.670  1.00  0.00    -0.248 NA
ATOM     54  C   UNL     1      -0.506 -14.702   0.659  1.00  0.00     0.031 C 
ATOM     55  C   UNL     1      -1.909 -15.518   6.513  1.00  0.00     0.029 A 
ATOM     56  C   UNL     1      -1.570 -14.926   5.306  1.00  0.00     0.049 A 
ATOM     57  H   UNL     1      -1.105 -12.909   4.904  1.00  0.00     0.167 HD
ATOM     58  C   UNL     1      -1.087 -14.902   2.871  1.00  0.00     0.074 A 
ATOM     59  C   UNL     1      -0.924 -15.553   1.586  1.00  0.00     0.031 C 
ATOM     60  C   UNL     1      -1.439 -15.546   4.012  1.00  0.00     0.034 A 
BRANCH  47  61
ATOM     61  C   UNL     1      -1.633 -11.926   9.030  1.00  0.00     0.023 A 
ATOM     62  C   UNL     1      -2.733 -11.208   9.543  1.00  0.00     0.012 A 
ATOM     63  C   UNL     1      -0.744 -12.555   9.924  1.00  0.00     0.148 A 
ATOM     64  C   UNL     1      -2.919 -11.079  10.920  1.00  0.00     0.002 A 
ATOM     65  C   UNL     1      -0.965 -12.468  11.293  1.00  0.00     0.091 A 
ATOM     66  F   UNL     1       0.308 -13.215   9.420  1.00  0.00    -0.205 F 
ATOM     67  C   UNL     1      -2.042 -11.717  11.793  1.00  0.00     0.022 A 
BRANCH  65  68
ATOM     68  S   UNL     1       0.060 -13.319  12.495  1.00  0.00     0.127 S 
ATOM     69  O   UNL     1       0.722 -12.200  13.164  1.00  0.00    -0.237 OA
ATOM     70  O   UNL     1      -0.937 -14.013  13.310  1.00  0.00    -0.237 OA
ATOM     71  O   UNL     1       0.939 -14.194  11.731  1.00  0.00    -0.744 OA
ENDBRANCH  65  68
ENDBRANCH  47  61
BRANCH  48  72
ATOM     72  C   UNL     1       0.092 -12.253  -0.847  1.00  0.00     0.023 A 
ATOM     73  C   UNL     1      -0.934 -12.624  -1.736  1.00  0.00     0.012 A 
ATOM     74  C   UNL     1       1.366 -11.936  -1.357  1.00  0.00     0.148 A 
ATOM     75  C   UNL     1      -0.686 -12.715  -3.106  1.00  0.00     0.002 A 
ATOM     76  C   UNL     1       1.590 -11.973  -2.727  1.00  0.00     0.091 A 
ATOM     77  F   UNL     1       2.329 -11.589  -0.491  1.00  0.00    -0.205 F 
ATOM     78  C   UNL     1       0.572 -12.382  -3.602  1.00  0.00     0.022 A 
BRANCH  76  79
ATOM     79  S   UNL     1       3.140 -11.447  -3.466  1.00  0.00     0.127 S 
ATOM     80  O   UNL     1       3.639 -12.696  -4.034  1.00  0.00    -0.237 OA
ATOM     81  O   UNL     1       2.682 -10.461  -4.446  1.00  0.00    -0.237 OA
ATOM     82  O   UNL     1       3.931 -10.891  -2.377  1.00  0.00    -0.744 OA
ENDBRANCH  76  79
ENDBRANCH  48  72
BRANCH  60  83
ATOM     83  C   UNL     1      -1.731 -17.021   3.916  1.00  0.00     0.023 A 
ATOM     84  C   UNL     1      -0.690 -17.940   3.679  1.00  0.00     0.012 A 
ATOM     85  C   UNL     1      -3.040 -17.499   4.127  1.00  0.00     0.148 A 
ATOM     86  C   UNL     1      -0.955 -19.308   3.610  1.00  0.00     0.002 A 
ATOM     87  C   UNL     1      -3.286 -18.865   4.116  1.00  0.00     0.091 A 
ATOM     88  F   UNL     1      -4.019 -16.607   4.337  1.00  0.00    -0.205 F 
ATOM     89  C   UNL     1      -2.249 -19.770   3.841  1.00  0.00     0.022 A 
BRANCH  87  90
ATOM     90  S   UNL     1      -4.897 -19.558   4.503  1.00  0.00     0.127 S 
ATOM     91  O   UNL     1      -5.298 -20.115   3.212  1.00  0.00    -0.237 OA
ATOM     92  O   UNL     1      -4.565 -20.555   5.521  1.00  0.00    -0.237 OA
ATOM     93  O   UNL     1      -5.712 -18.450   4.981  1.00  0.00    -0.744 OA
ENDBRANCH  87  90
ENDBRANCH  60  83
ENDBRANCH  34  35
ENDBRANCH  27  29
ENDBRANCH  26  27
ENDBRANCH  25  26
ENDBRANCH  24  25
ENDBRANCH   1  24
TORSDOF 20
