REMARK SMILES O=C(CCc1ccccc1)Nc1ccccc1Oc1ccsc1C(=O)OCCOCCOC(=O)c1ccc(-c2c3nc(c(-c4cccc(S(=O)(=O)[O-])c4F)c4ccc([nH]4)c(-c4cccc(S(=O)(=O)[O-])c4F)c4nc(c(-c5cccc(S(=O)(=O)[O-])c5F)c5ccc2[nH]5)C=C4)C=C3)cc1
REMARK SMILES IDX 27 1 26 2 24 3 25 4 23 5 19 6 20 7 21 8 22 9 18 10 17 11
REMARK SMILES IDX 12 12 13 13 14 14 16 15 15 16 11 17 1 18 2 19 3 21 4 22 5 23
REMARK SMILES IDX 6 24 10 25 7 26 9 27 8 28 28 29 29 30 30 31 31 32 32 33
REMARK SMILES IDX 33 34 34 35 35 36 36 37 97 38 37 39 96 40 38 41 39 42 40 43
REMARK SMILES IDX 90 44 41 45 95 46 89 47 91 48 42 49 94 50 88 51 87 52 43 54
REMARK SMILES IDX 75 55 55 56 74 57 56 58 59 59 73 60 92 61 57 62 58 63 72 65
REMARK SMILES IDX 93 66 60 67 44 68 45 69 53 70 46 71 48 72 54 73 47 74 49 75
REMARK SMILES IDX 50 76 51 77 52 78 76 79 77 80 85 81 78 82 80 83 86 84 79 85
REMARK SMILES IDX 81 86 82 87 83 88 84 89 61 90 62 91 70 92 63 93 65 94 71 95
REMARK SMILES IDX 64 96 66 97 67 98 68 99 69 100
REMARK H PARENT 11 20 91 53 59 64
REMARK Flexibility Score: inf
ROOT
ATOM      1  C   UNL     1      -2.812   1.640   0.082  1.00  0.00     0.261 C 
ENDROOT
BRANCH   1   2
ATOM      2  O   UNL     1      -1.465   1.712  -0.419  1.00  0.00    -0.459 OA
BRANCH   2   3
ATOM      3  C   UNL     1      -0.621   2.590   0.185  1.00  0.00     0.352 C 
ATOM      4  O   UNL     1      -0.946   3.302   1.138  1.00  0.00    -0.245 OA
BRANCH   3   5
ATOM      5  C   UNL     1       0.686   2.593  -0.450  1.00  0.00     0.155 A 
ATOM      6  C   UNL     1       1.237   1.781  -1.431  1.00  0.00     0.152 A 
ATOM      7  C   UNL     1       2.545   2.212  -1.821  1.00  0.00     0.060 A 
ATOM      8  C   UNL     1       3.005   3.247  -1.039  1.00  0.00     0.070 A 
ATOM      9  S   UNL     1       1.836   3.760   0.090  1.00  0.00    -0.133 S 
BRANCH   6  10
ATOM     10  O   UNL     1       0.542   0.725  -1.923  1.00  0.00    -0.453 OA
BRANCH  10  11
ATOM     11  C   UNL     1       1.111  -0.384  -2.508  1.00  0.00     0.151 A 
ATOM     12  C   UNL     1       2.263  -1.067  -2.073  1.00  0.00     0.084 A 
ATOM     13  C   UNL     1       2.729  -2.169  -2.804  1.00  0.00     0.030 A 
ATOM     14  C   UNL     1       2.012  -2.648  -3.902  1.00  0.00     0.002 A 
ATOM     15  C   UNL     1       0.414  -0.862  -3.627  1.00  0.00     0.049 A 
ATOM     16  C   UNL     1       0.855  -1.994  -4.314  1.00  0.00     0.004 A 
BRANCH  12  17
ATOM     17  N   UNL     1       3.008  -0.721  -0.926  1.00  0.00    -0.323 N 
ATOM     18  O   UNL     1       1.281  -0.797   0.584  1.00  0.00    -0.275 OA
ATOM     19  C   UNL     1       2.428  -0.476   0.296  1.00  0.00     0.224 C 
ATOM     20  H   UNL     1       3.987  -0.653  -1.004  1.00  0.00     0.170 HD
BRANCH  19  21
ATOM     21  C   UNL     1       3.305   0.195   1.330  1.00  0.00     0.105 C 
BRANCH  21  22
ATOM     22  C   UNL     1       4.230  -0.786   2.042  1.00  0.00     0.045 C 
BRANCH  22  23
ATOM     23  C   UNL     1       5.298  -1.307   1.114  1.00  0.00    -0.048 A 
ATOM     24  C   UNL     1       5.293  -2.651   0.720  1.00  0.00     0.004 A 
ATOM     25  C   UNL     1       6.217  -0.423   0.528  1.00  0.00     0.004 A 
ATOM     26  C   UNL     1       6.159  -3.090  -0.281  1.00  0.00     0.000 A 
ATOM     27  C   UNL     1       7.071  -0.862  -0.481  1.00  0.00     0.000 A 
ATOM     28  C   UNL     1       7.035  -2.193  -0.890  1.00  0.00     0.000 A 
ENDBRANCH  22  23
ENDBRANCH  21  22
ENDBRANCH  19  21
ENDBRANCH  12  17
ENDBRANCH  10  11
ENDBRANCH   6  10
ENDBRANCH   3   5
ENDBRANCH   2   3
ENDBRANCH   1   2
BRANCH   1  29
ATOM     29  C   UNL     1      -3.104   0.272   0.698  1.00  0.00     0.202 C 
BRANCH  29  30
ATOM     30  O   UNL     1      -2.555   0.078   2.004  1.00  0.00    -0.374 OA
BRANCH  30  31
ATOM     31  C   UNL     1      -1.213  -0.420   2.012  1.00  0.00     0.202 C 
BRANCH  31  32
ATOM     32  C   UNL     1      -1.106  -1.948   1.879  1.00  0.00     0.261 C 
BRANCH  32  33
ATOM     33  O   UNL     1      -1.439  -2.386   0.548  1.00  0.00    -0.460 OA
BRANCH  33  34
ATOM     34  C   UNL     1      -2.591  -3.082   0.436  1.00  0.00     0.338 C 
ATOM     35  O   UNL     1      -3.293  -3.501   1.343  1.00  0.00    -0.246 OA
BRANCH  34  36
ATOM     36  C   UNL     1      -3.022  -3.109  -0.976  1.00  0.00     0.060 A 
ATOM     37  C   UNL     1      -4.332  -2.691  -1.247  1.00  0.00     0.016 A 
ATOM     38  C   UNL     1      -2.202  -3.580  -2.004  1.00  0.00     0.016 A 
ATOM     39  C   UNL     1      -4.849  -2.798  -2.535  1.00  0.00     0.010 A 
ATOM     40  C   UNL     1      -2.728  -3.697  -3.297  1.00  0.00     0.010 A 
ATOM     41  C   UNL     1      -4.065  -3.344  -3.560  1.00  0.00    -0.014 A 
BRANCH  41  42
ATOM     42  C   UNL     1      -4.695  -3.677  -4.862  1.00  0.00     0.031 A 
ATOM     43  C   UNL     1      -5.072  -5.105  -5.146  1.00  0.00     0.074 A 
ATOM     44  C   UNL     1      -4.945  -2.721  -5.775  1.00  0.00     0.049 A 
ATOM     45  N   UNL     1      -5.593  -5.625  -6.227  1.00  0.00    -0.248 NA
ATOM     46  C   UNL     1      -4.827  -6.078  -4.069  1.00  0.00     0.031 C 
ATOM     47  C   UNL     1      -4.643  -1.300  -5.613  1.00  0.00     0.029 A 
ATOM     48  N   UNL     1      -5.488  -2.811  -7.033  1.00  0.00    -0.354 N 
ATOM     49  C   UNL     1      -5.714  -6.986  -5.973  1.00  0.00     0.074 A 
ATOM     50  C   UNL     1      -5.198  -7.214  -4.640  1.00  0.00     0.031 C 
ATOM     51  C   UNL     1      -4.970  -0.655  -6.746  1.00  0.00     0.029 A 
ATOM     52  C   UNL     1      -5.478  -1.621  -7.720  1.00  0.00     0.049 A 
ATOM     53  H   UNL     1      -5.849  -3.647  -7.407  1.00  0.00     0.167 HD
ATOM     54  C   UNL     1      -6.222  -7.957  -6.768  1.00  0.00     0.034 A 
ATOM     55  C   UNL     1      -5.812  -1.347  -8.998  1.00  0.00     0.034 A 
ATOM     56  C   UNL     1      -6.751  -7.728  -8.085  1.00  0.00     0.049 A 
ATOM     57  C   UNL     1      -6.342  -2.449  -9.878  1.00  0.00     0.074 A 
ATOM     58  C   UNL     1      -7.323  -8.642  -8.953  1.00  0.00     0.029 A 
ATOM     59  N   UNL     1      -6.764  -6.502  -8.732  1.00  0.00    -0.354 N 
ATOM     60  N   UNL     1      -6.549  -3.710  -9.587  1.00  0.00    -0.248 NA
ATOM     61  C   UNL     1      -6.715  -2.084 -11.254  1.00  0.00     0.031 C 
ATOM     62  C   UNL     1      -7.656  -7.973 -10.135  1.00  0.00     0.029 A 
ATOM     63  C   UNL     1      -7.320  -6.637  -9.992  1.00  0.00     0.049 A 
ATOM     64  H   UNL     1      -6.426  -5.660  -8.350  1.00  0.00     0.167 HD
ATOM     65  C   UNL     1      -7.107  -4.281 -10.727  1.00  0.00     0.074 A 
ATOM     66  C   UNL     1      -7.220  -3.223 -11.710  1.00  0.00     0.031 C 
ATOM     67  C   UNL     1      -7.481  -5.566 -10.943  1.00  0.00     0.034 A 
BRANCH  54  68
ATOM     68  C   UNL     1      -6.251  -9.361  -6.222  1.00  0.00     0.023 A 
ATOM     69  C   UNL     1      -7.171  -9.697  -5.209  1.00  0.00     0.012 A 
ATOM     70  C   UNL     1      -5.402 -10.357  -6.743  1.00  0.00     0.148 A 
ATOM     71  C   UNL     1      -7.222 -10.993  -4.697  1.00  0.00     0.002 A 
ATOM     72  C   UNL     1      -5.489 -11.657  -6.259  1.00  0.00     0.091 A 
ATOM     73  F   UNL     1      -4.518 -10.014  -7.691  1.00  0.00    -0.205 F 
ATOM     74  C   UNL     1      -6.390 -11.974  -5.229  1.00  0.00     0.022 A 
BRANCH  72  75
ATOM     75  S   UNL     1      -4.513 -13.006  -6.933  1.00  0.00     0.127 S 
ATOM     76  O   UNL     1      -3.545 -13.234  -5.862  1.00  0.00    -0.237 OA
ATOM     77  O   UNL     1      -5.512 -14.064  -7.088  1.00  0.00    -0.237 OA
ATOM     78  O   UNL     1      -3.957 -12.511  -8.185  1.00  0.00    -0.744 OA
ENDBRANCH  72  75
ENDBRANCH  54  68
BRANCH  55  79
ATOM     79  C   UNL     1      -5.662   0.042  -9.518  1.00  0.00     0.023 A 
ATOM     80  C   UNL     1      -6.806   0.804  -9.820  1.00  0.00     0.012 A 
ATOM     81  C   UNL     1      -4.387   0.617  -9.689  1.00  0.00     0.148 A 
ATOM     82  C   UNL     1      -6.683   2.106 -10.307  1.00  0.00     0.002 A 
ATOM     83  C   UNL     1      -4.273   1.932 -10.121  1.00  0.00     0.091 A 
ATOM     84  F   UNL     1      -3.311  -0.133  -9.414  1.00  0.00    -0.205 F 
ATOM     85  C   UNL     1      -5.419   2.674 -10.447  1.00  0.00     0.022 A 
BRANCH  83  86
ATOM     86  S   UNL     1      -2.693   2.783 -10.206  1.00  0.00     0.127 S 
ATOM     87  O   UNL     1      -2.506   2.926 -11.647  1.00  0.00    -0.237 OA
ATOM     88  O   UNL     1      -2.984   4.029  -9.495  1.00  0.00    -0.237 OA
ATOM     89  O   UNL     1      -1.741   1.914  -9.528  1.00  0.00    -0.744 OA
ENDBRANCH  83  86
ENDBRANCH  55  79
BRANCH  67  90
ATOM     90  C   UNL     1      -8.090  -5.913 -12.277  1.00  0.00     0.023 A 
ATOM     91  C   UNL     1      -7.273  -5.993 -13.422  1.00  0.00     0.012 A 
ATOM     92  C   UNL     1      -9.453  -6.258 -12.375  1.00  0.00     0.148 A 
ATOM     93  C   UNL     1      -7.808  -6.389 -14.648  1.00  0.00     0.002 A 
ATOM     94  C   UNL     1      -9.969  -6.697 -13.589  1.00  0.00     0.091 A 
ATOM     95  F   UNL     1     -10.216  -6.159 -11.277  1.00  0.00    -0.205 F 
ATOM     96  C   UNL     1      -9.150  -6.753 -14.728  1.00  0.00     0.022 A 
BRANCH  94  97
ATOM     97  S   UNL     1     -11.660  -7.278 -13.768  1.00  0.00     0.127 S 
ATOM     98  O   UNL     1     -12.252  -6.221 -14.585  1.00  0.00    -0.237 OA
ATOM     99  O   UNL     1     -11.476  -8.554 -14.460  1.00  0.00    -0.237 OA
ATOM    100  O   UNL     1     -12.192  -7.392 -12.417  1.00  0.00    -0.744 OA
ENDBRANCH  94  97
ENDBRANCH  67  90
ENDBRANCH  41  42
ENDBRANCH  34  36
ENDBRANCH  33  34
ENDBRANCH  32  33
ENDBRANCH  31  32
ENDBRANCH  30  31
ENDBRANCH  29  30
ENDBRANCH   1  29
TORSDOF 23
