REMARK SMILES Cc1c(Cl)cccc1NC(=O)NCc1cn([C@@H]2C[NH2+][C@H](C(=O)OCCOCCOC(=O)c3ccc(-c4c5nc(c(-c6cccc(S(=O)(=O)[O-])c6F)c6ccc([nH]6)c(-c6cccc(S(=O)(=O)[O-])c6F)c6nc(c(-c7cccc(S(=O)(=O)[O-])c7F)c7ccc4[nH]7)C=C6)C=C5)cc3)C2)nn1
REMARK SMILES IDX 25 1 24 2 23 3 21 4 22 5 20 6 17 7 18 8 95 9 19 10 16 13
REMARK SMILES IDX 14 14 15 15 97 16 96 17 13 18 12 19 9 20 10 21 11 23 8 25
REMARK SMILES IDX 1 26 2 27 3 28 4 29 5 30 7 31 6 32 26 33 27 34 28 35 29 36
REMARK SMILES IDX 30 37 31 38 32 39 33 40 94 41 34 42 93 43 35 44 36 45 37 46
REMARK SMILES IDX 87 47 38 48 92 49 86 50 88 51 39 52 91 53 85 54 84 55 40 57
REMARK SMILES IDX 72 58 52 59 71 60 53 61 56 62 70 63 89 64 54 65 55 66 69 68
REMARK SMILES IDX 90 69 57 70 41 71 42 72 50 73 43 74 45 75 51 76 44 77 46 78
REMARK SMILES IDX 47 79 48 80 49 81 73 82 74 83 82 84 75 85 77 86 83 87 76 88
REMARK SMILES IDX 78 89 79 90 80 91 81 92 58 93 59 94 67 95 60 96 62 97 68 98
REMARK SMILES IDX 61 99 63 100 64 101 65 102 66 103
REMARK H PARENT 19 11 19 12 9 22 12 24 88 56 56 67
REMARK Flexibility Score: inf
ROOT
ATOM      1  C   UNL     1      -3.773  -8.835  -0.480  1.00  0.00     0.202 C 
ENDROOT
BRANCH   1   2
ATOM      2  C   UNL     1      -3.659  -7.310  -0.470  1.00  0.00     0.261 C 
BRANCH   2   3
ATOM      3  O   UNL     1      -3.637  -6.787   0.866  1.00  0.00    -0.459 OA
BRANCH   3   4
ATOM      4  C   UNL     1      -4.660  -5.948   1.192  1.00  0.00     0.365 C 
ATOM      5  O   UNL     1      -5.493  -5.529   0.395  1.00  0.00    -0.245 OA
BRANCH   4   6
ATOM      6  C   UNL     1      -4.751  -5.722   2.716  1.00  0.00     0.295 C 
ATOM      7  C   UNL     1      -4.657  -3.444   3.579  1.00  0.00     0.170 C 
ATOM      8  C   UNL     1      -3.262  -4.029   3.358  1.00  0.00     0.289 C 
ATOM      9  C   UNL     1      -5.619  -4.513   3.058  1.00  0.00     0.110 C 
ATOM     10  N   UNL     1      -3.432  -5.484   3.338  1.00  0.00    -0.333 N 
ATOM     11  H   UNL     1      -3.413  -5.858   4.287  1.00  0.00     0.347 HD
ATOM     12  H   UNL     1      -2.683  -5.944   2.821  1.00  0.00     0.347 HD
BRANCH   7  13
ATOM     13  N   UNL     1      -4.833  -2.178   2.906  1.00  0.00    -0.243 N 
ATOM     14  C   UNL     1      -4.901  -0.598   1.437  1.00  0.00     0.102 A 
ATOM     15  C   UNL     1      -4.646  -1.940   1.585  1.00  0.00     0.137 A 
ATOM     16  N   UNL     1      -5.313  -0.088   2.638  1.00  0.00    -0.134 NA
ATOM     17  N   UNL     1      -5.277  -1.075   3.536  1.00  0.00    -0.067 NA
BRANCH  14  18
ATOM     18  C   UNL     1      -4.786   0.126   0.161  1.00  0.00     0.178 C 
BRANCH  18  19
ATOM     19  N   UNL     1      -4.527   1.531   0.253  1.00  0.00    -0.332 N 
ATOM     20  N   UNL     1      -2.279   2.053  -0.449  1.00  0.00    -0.308 N 
ATOM     21  C   UNL     1      -3.558   2.346  -0.158  1.00  0.00     0.319 C 
ATOM     22  H   UNL     1      -1.798   2.860  -0.741  1.00  0.00     0.171 HD
ATOM     23  O   UNL     1      -3.851   3.551  -0.194  1.00  0.00    -0.248 OA
ATOM     24  H   UNL     1      -5.238   2.011   0.738  1.00  0.00     0.165 HD
BRANCH  20  25
ATOM     25  C   UNL     1      -1.421   0.934  -0.460  1.00  0.00     0.047 A 
ATOM     26  C   UNL     1       0.578   2.416   0.194  1.00  0.00     0.048 C 
ATOM     27  C   UNL     1      -0.076   1.075  -0.037  1.00  0.00    -0.009 A 
ATOM     28  C   UNL     1       0.715  -0.091   0.109  1.00  0.00     0.046 A 
ATOM     29  Cl  UNL     1       2.368  -0.020   0.619  1.00  0.00    -0.084 Cl
ATOM     30  C   UNL     1       0.203  -1.355  -0.180  1.00  0.00     0.021 A 
ATOM     31  C   UNL     1      -1.811  -0.307  -0.960  1.00  0.00     0.026 A 
ATOM     32  C   UNL     1      -1.050  -1.460  -0.759  1.00  0.00     0.004 A 
ENDBRANCH  20  25
ENDBRANCH  18  19
ENDBRANCH  14  18
ENDBRANCH   7  13
ENDBRANCH   4   6
ENDBRANCH   3   4
ENDBRANCH   2   3
ENDBRANCH   1   2
BRANCH   1  33
ATOM     33  O   UNL     1      -4.925  -9.445   0.106  1.00  0.00    -0.374 OA
BRANCH  33  34
ATOM     34  C   UNL     1      -5.207  -9.284   1.494  1.00  0.00     0.202 C 
BRANCH  34  35
ATOM     35  C   UNL     1      -4.293  -9.930   2.528  1.00  0.00     0.261 C 
BRANCH  35  36
ATOM     36  O   UNL     1      -2.946  -9.537   2.354  1.00  0.00    -0.460 OA
BRANCH  36  37
ATOM     37  C   UNL     1      -2.210 -10.432   1.664  1.00  0.00     0.338 C 
ATOM     38  O   UNL     1      -2.623 -11.410   1.049  1.00  0.00    -0.246 OA
BRANCH  37  39
ATOM     39  C   UNL     1      -0.792 -10.132   1.861  1.00  0.00     0.060 A 
ATOM     40  C   UNL     1       0.069 -11.131   1.404  1.00  0.00     0.016 A 
ATOM     41  C   UNL     1      -0.442  -9.229   2.875  1.00  0.00     0.016 A 
ATOM     42  C   UNL     1       1.119 -11.465   2.213  1.00  0.00     0.010 A 
ATOM     43  C   UNL     1       0.591  -9.582   3.698  1.00  0.00     0.010 A 
ATOM     44  C   UNL     1       1.278 -10.757   3.407  1.00  0.00    -0.014 A 
BRANCH  44  45
ATOM     45  C   UNL     1       2.267 -11.239   4.332  1.00  0.00     0.031 A 
ATOM     46  C   UNL     1       3.628 -10.881   3.899  1.00  0.00     0.074 A 
ATOM     47  C   UNL     1       1.925 -11.866   5.471  1.00  0.00     0.049 A 
ATOM     48  N   UNL     1       4.539 -11.680   3.456  1.00  0.00    -0.248 NA
ATOM     49  C   UNL     1       3.924  -9.453   3.700  1.00  0.00     0.031 C 
ATOM     50  C   UNL     1       0.593 -12.012   6.064  1.00  0.00     0.029 A 
ATOM     51  N   UNL     1       2.745 -12.370   6.427  1.00  0.00    -0.354 N 
ATOM     52  C   UNL     1       5.616 -10.856   3.155  1.00  0.00     0.074 A 
ATOM     53  C   UNL     1       5.098  -9.520   3.074  1.00  0.00     0.031 C 
ATOM     54  C   UNL     1       0.732 -12.305   7.378  1.00  0.00     0.029 A 
ATOM     55  C   UNL     1       2.146 -12.466   7.676  1.00  0.00     0.049 A 
ATOM     56  H   UNL     1       3.675 -12.641   6.252  1.00  0.00     0.167 HD
ATOM     57  C   UNL     1       6.892 -11.300   3.298  1.00  0.00     0.034 A 
ATOM     58  C   UNL     1       2.797 -12.537   8.864  1.00  0.00     0.034 A 
ATOM     59  C   UNL     1       6.934 -12.736   3.408  1.00  0.00     0.049 A 
ATOM     60  C   UNL     1       4.193 -12.960   8.579  1.00  0.00     0.074 A 
ATOM     61  C   UNL     1       6.543 -13.783   2.599  1.00  0.00     0.029 A 
ATOM     62  N   UNL     1       7.071 -13.254   4.675  1.00  0.00    -0.354 N 
ATOM     63  N   UNL     1       4.500 -14.141   8.120  1.00  0.00    -0.248 NA
ATOM     64  C   UNL     1       5.189 -11.923   8.345  1.00  0.00     0.031 C 
ATOM     65  C   UNL     1       6.028 -14.765   3.492  1.00  0.00     0.029 A 
ATOM     66  C   UNL     1       6.192 -14.297   4.798  1.00  0.00     0.049 A 
ATOM     67  H   UNL     1       7.690 -12.932   5.370  1.00  0.00     0.167 HD
ATOM     68  C   UNL     1       5.469 -13.896   7.154  1.00  0.00     0.074 A 
ATOM     69  C   UNL     1       5.935 -12.535   7.418  1.00  0.00     0.031 C 
ATOM     70  C   UNL     1       5.575 -14.689   6.047  1.00  0.00     0.034 A 
BRANCH  57  71
ATOM     71  C   UNL     1       8.049 -10.439   3.743  1.00  0.00     0.023 A 
ATOM     72  C   UNL     1       9.327 -11.037   3.718  1.00  0.00     0.012 A 
ATOM     73  C   UNL     1       7.927  -9.213   4.437  1.00  0.00     0.148 A 
ATOM     74  C   UNL     1      10.407 -10.480   4.408  1.00  0.00     0.002 A 
ATOM     75  C   UNL     1       9.021  -8.624   5.056  1.00  0.00     0.091 A 
ATOM     76  F   UNL     1       6.729  -8.660   4.634  1.00  0.00    -0.205 F 
ATOM     77  C   UNL     1      10.256  -9.271   5.075  1.00  0.00     0.022 A 
BRANCH  75  78
ATOM     78  S   UNL     1       8.880  -7.042   5.899  1.00  0.00     0.127 S 
ATOM     79  O   UNL     1       8.917  -7.454   7.299  1.00  0.00    -0.237 OA
ATOM     80  O   UNL     1      10.074  -6.344   5.424  1.00  0.00    -0.237 OA
ATOM     81  O   UNL     1       7.626  -6.460   5.436  1.00  0.00    -0.744 OA
ENDBRANCH  75  78
ENDBRANCH  57  71
BRANCH  58  82
ATOM     82  C   UNL     1       2.388 -11.982  10.176  1.00  0.00     0.023 A 
ATOM     83  C   UNL     1       2.990 -12.454  11.359  1.00  0.00     0.012 A 
ATOM     84  C   UNL     1       1.592 -10.816  10.259  1.00  0.00     0.148 A 
ATOM     85  C   UNL     1       2.819 -11.779  12.576  1.00  0.00     0.002 A 
ATOM     86  C   UNL     1       1.411 -10.158  11.471  1.00  0.00     0.091 A 
ATOM     87  F   UNL     1       1.091 -10.291   9.133  1.00  0.00    -0.205 F 
ATOM     88  C   UNL     1       2.032 -10.631  12.632  1.00  0.00     0.022 A 
BRANCH  86  89
ATOM     89  S   UNL     1       0.420  -8.663  11.600  1.00  0.00     0.127 S 
ATOM     90  O   UNL     1      -0.394  -8.937  12.784  1.00  0.00    -0.237 OA
ATOM     91  O   UNL     1       1.443  -7.637  11.782  1.00  0.00    -0.237 OA
ATOM     92  O   UNL     1      -0.342  -8.582  10.359  1.00  0.00    -0.744 OA
ENDBRANCH  86  89
ENDBRANCH  58  82
BRANCH  70  93
ATOM     93  C   UNL     1       4.770 -15.965   6.008  1.00  0.00     0.023 A 
ATOM     94  C   UNL     1       3.358 -15.964   6.000  1.00  0.00     0.012 A 
ATOM     95  C   UNL     1       5.448 -17.169   5.763  1.00  0.00     0.148 A 
ATOM     96  C   UNL     1       2.642 -17.141   5.772  1.00  0.00     0.002 A 
ATOM     97  C   UNL     1       4.733 -18.326   5.484  1.00  0.00     0.091 A 
ATOM     98  F   UNL     1       6.790 -17.152   5.768  1.00  0.00    -0.205 F 
ATOM     99  C   UNL     1       3.329 -18.320   5.498  1.00  0.00     0.022 A 
BRANCH  97 100
ATOM    100  S   UNL     1       5.562 -19.835   4.981  1.00  0.00     0.127 S 
ATOM    101  O   UNL     1       5.476 -20.649   6.191  1.00  0.00    -0.237 OA
ATOM    102  O   UNL     1       4.728 -20.298   3.871  1.00  0.00    -0.237 OA
ATOM    103  O   UNL     1       6.908 -19.438   4.584  1.00  0.00    -0.744 OA
ENDBRANCH  97 100
ENDBRANCH  70  93
ENDBRANCH  44  45
ENDBRANCH  37  39
ENDBRANCH  36  37
ENDBRANCH  35  36
ENDBRANCH  34  35
ENDBRANCH  33  34
ENDBRANCH   1  33
TORSDOF 21
