REMARK SMILES COc1cc([C@@H]2CC(=O)Nc3c(C(=O)OCCOCCOC(=O)c4ccc(-c5c6nc(c(-c7cccc(S(=O)(=O)[O-])c7F)c7ccc([nH]7)c(-c7cccc(S(=O)(=O)[O-])c7F)c7nc(c(-c8cccc(S(=O)(=O)[O-])c8F)c8ccc5[nH]8)C=C7)C=C6)cc4)cn(-c4ccc(F)cc4)c32)c(OC)c2c1OCO2
REMARK SMILES IDX 19 1 18 2 17 3 16 4 15 5 13 6 14 7 12 8 6 9 7 10 96 11 8 12
REMARK SMILES IDX 11 13 88 14 9 15 10 16 87 17 5 19 3 20 4 21 101 22 100 23
REMARK SMILES IDX 102 24 97 25 104 26 103 27 2 28 1 29 98 30 99 31 89 32 90 33
REMARK SMILES IDX 95 34 91 35 94 36 92 37 93 38 20 39 21 40 22 41 23 42 24 43
REMARK SMILES IDX 25 44 86 45 26 46 85 47 27 48 28 49 29 50 79 51 30 52 84 53
REMARK SMILES IDX 78 54 80 55 31 56 83 57 77 58 76 59 32 61 64 62 44 63 63 64
REMARK SMILES IDX 45 65 48 66 62 67 81 68 46 69 47 70 61 72 82 73 49 74 33 75
REMARK SMILES IDX 34 76 42 77 35 78 37 79 43 80 36 81 38 82 39 83 40 84 41 85
REMARK SMILES IDX 65 86 66 87 74 88 67 89 69 90 75 91 68 92 70 93 71 94 72 95
REMARK SMILES IDX 73 96 50 97 51 98 59 99 52 100 54 101 60 102 53 103 55 104
REMARK SMILES IDX 56 105 57 106 58 107
REMARK H PARENT 10 18 80 60 48 71
REMARK Flexibility Score: inf
ROOT
ATOM      1  C   UNL     1      -1.956   4.679 -10.332  1.00  0.00     0.202 C 
ENDROOT
BRANCH   1   2
ATOM      2  O   UNL     1      -0.986   5.307 -11.163  1.00  0.00    -0.374 OA
BRANCH   2   3
ATOM      3  C   UNL     1       0.104   4.557 -11.698  1.00  0.00     0.202 C 
BRANCH   3   4
ATOM      4  C   UNL     1       1.226   4.128 -10.749  1.00  0.00     0.261 C 
BRANCH   4   5
ATOM      5  O   UNL     1       0.777   3.195  -9.757  1.00  0.00    -0.460 OA
BRANCH   5   6
ATOM      6  C   UNL     1       0.535   3.749  -8.533  1.00  0.00     0.341 C 
ATOM      7  O   UNL     1       0.790   4.904  -8.226  1.00  0.00    -0.246 OA
BRANCH   6   8
ATOM      8  C   UNL     1      -0.174   2.846  -7.644  1.00  0.00     0.102 A 
ATOM      9  C   UNL     1      -0.552  -0.268  -5.730  1.00  0.00     0.082 C 
ATOM     10  C   UNL     1      -0.351  -1.305  -6.850  1.00  0.00     0.115 C 
ATOM     11  C   UNL     1      -0.698   1.092  -6.343  1.00  0.00     0.055 A 
ATOM     12  C   UNL     1       0.517  -0.830  -8.010  1.00  0.00     0.225 C 
ATOM     13  C   UNL     1      -0.155   1.440  -7.559  1.00  0.00     0.078 A 
ATOM     14  N   UNL     1      -1.333   2.199  -5.827  1.00  0.00    -0.317 N 
ATOM     15  O   UNL     1       1.203  -1.610  -8.671  1.00  0.00    -0.275 OA
ATOM     16  N   UNL     1       0.452   0.499  -8.358  1.00  0.00    -0.324 N 
ATOM     17  C   UNL     1      -1.026   3.272  -6.632  1.00  0.00     0.109 A 
ATOM     18  H   UNL     1       0.853   0.787  -9.210  1.00  0.00     0.170 HD
BRANCH   9  19
ATOM     19  C   UNL     1       0.562  -0.325  -4.666  1.00  0.00     0.012 A 
ATOM     20  C   UNL     1       1.109  -0.736  -2.304  1.00  0.00     0.165 A 
ATOM     21  C   UNL     1       0.206  -0.783  -3.369  1.00  0.00     0.059 A 
ATOM     22  C   UNL     1       2.404  -0.338  -2.572  1.00  0.00     0.211 A 
ATOM     23  C   UNL     1       2.786   0.066  -3.835  1.00  0.00     0.211 A 
ATOM     24  O   UNL     1       3.438  -0.287  -1.684  1.00  0.00    -0.449 OA
ATOM     25  C   UNL     1       1.894   0.104  -4.896  1.00  0.00     0.168 A 
ATOM     26  O   UNL     1       4.100   0.437  -3.863  1.00  0.00    -0.449 OA
ATOM     27  C   UNL     1       4.526   0.082  -2.543  1.00  0.00     0.468 C 
BRANCH  20  28
ATOM     28  O   UNL     1       0.633  -1.111  -1.080  1.00  0.00    -0.493 OA
ATOM     29  C   UNL     1       0.993  -0.214  -0.032  1.00  0.00     0.278 C 
ENDBRANCH  20  28
BRANCH  25  30
ATOM     30  O   UNL     1       2.185   0.560  -6.141  1.00  0.00    -0.492 OA
ATOM     31  C   UNL     1       3.525   0.813  -6.522  1.00  0.00     0.278 C 
ENDBRANCH  25  30
ENDBRANCH   9  19
BRANCH  14  32
ATOM     32  C   UNL     1      -2.084   2.295  -4.641  1.00  0.00     0.046 A 
ATOM     33  C   UNL     1      -1.458   2.064  -3.414  1.00  0.00     0.029 A 
ATOM     34  C   UNL     1      -3.440   2.631  -4.705  1.00  0.00     0.029 A 
ATOM     35  C   UNL     1      -2.210   2.084  -2.243  1.00  0.00     0.041 A 
ATOM     36  C   UNL     1      -4.188   2.652  -3.525  1.00  0.00     0.041 A 
ATOM     37  C   UNL     1      -3.570   2.365  -2.310  1.00  0.00     0.123 A 
ATOM     38  F   UNL     1      -4.293   2.370  -1.183  1.00  0.00    -0.207 F 
ENDBRANCH  14  32
ENDBRANCH   6   8
ENDBRANCH   5   6
ENDBRANCH   4   5
ENDBRANCH   3   4
ENDBRANCH   2   3
ENDBRANCH   1   2
BRANCH   1  39
ATOM     39  C   UNL     1      -2.886   3.631 -10.921  1.00  0.00     0.261 C 
BRANCH  39  40
ATOM     40  O   UNL     1      -2.193   2.562 -11.539  1.00  0.00    -0.460 OA
BRANCH  40  41
ATOM     41  C   UNL     1      -2.187   2.649 -12.890  1.00  0.00     0.338 C 
ATOM     42  O   UNL     1      -2.351   3.651 -13.562  1.00  0.00    -0.246 OA
BRANCH  41  43
ATOM     43  C   UNL     1      -2.107   1.298 -13.443  1.00  0.00     0.060 A 
ATOM     44  C   UNL     1      -2.046   1.194 -14.834  1.00  0.00     0.016 A 
ATOM     45  C   UNL     1      -2.375   0.194 -12.620  1.00  0.00     0.016 A 
ATOM     46  C   UNL     1      -2.453   0.015 -15.414  1.00  0.00     0.010 A 
ATOM     47  C   UNL     1      -2.796  -0.974 -13.200  1.00  0.00     0.010 A 
ATOM     48  C   UNL     1      -2.905  -1.020 -14.587  1.00  0.00    -0.014 A 
BRANCH  48  49
ATOM     49  C   UNL     1      -3.343  -2.252 -15.204  1.00  0.00     0.031 A 
ATOM     50  C   UNL     1      -2.192  -2.998 -15.755  1.00  0.00     0.074 A 
ATOM     51  C   UNL     1      -4.624  -2.668 -15.159  1.00  0.00     0.049 A 
ATOM     52  N   UNL     1      -1.867  -3.109 -17.000  1.00  0.00    -0.248 NA
ATOM     53  C   UNL     1      -1.146  -3.452 -14.823  1.00  0.00     0.031 C 
ATOM     54  C   UNL     1      -5.732  -2.068 -14.404  1.00  0.00     0.029 A 
ATOM     55  N   UNL     1      -5.188  -3.791 -15.682  1.00  0.00    -0.354 N 
ATOM     56  C   UNL     1      -0.743  -3.930 -16.995  1.00  0.00     0.074 A 
ATOM     57  C   UNL     1      -0.200  -3.866 -15.668  1.00  0.00     0.031 C 
ATOM     58  C   UNL     1      -6.751  -2.955 -14.322  1.00  0.00     0.029 A 
ATOM     59  C   UNL     1      -6.429  -4.115 -15.134  1.00  0.00     0.049 A 
ATOM     60  H   UNL     1      -4.758  -4.328 -16.386  1.00  0.00     0.167 HD
ATOM     61  C   UNL     1      -0.602  -4.883 -17.955  1.00  0.00     0.034 A 
ATOM     62  C   UNL     1      -7.111  -5.273 -15.316  1.00  0.00     0.034 A 
ATOM     63  C   UNL     1      -1.503  -4.635 -19.052  1.00  0.00     0.049 A 
ATOM     64  C   UNL     1      -6.603  -5.878 -16.564  1.00  0.00     0.074 A 
ATOM     65  C   UNL     1      -1.605  -3.725 -20.080  1.00  0.00     0.029 A 
ATOM     66  N   UNL     1      -2.741  -5.196 -18.867  1.00  0.00    -0.354 N 
ATOM     67  N   UNL     1      -6.799  -5.344 -17.735  1.00  0.00    -0.248 NA
ATOM     68  C   UNL     1      -5.557  -6.891 -16.500  1.00  0.00     0.031 C 
ATOM     69  C   UNL     1      -2.994  -3.634 -20.387  1.00  0.00     0.029 A 
ATOM     70  C   UNL     1      -3.697  -4.527 -19.578  1.00  0.00     0.049 A 
ATOM     71  H   UNL     1      -2.919  -5.978 -18.296  1.00  0.00     0.167 HD
ATOM     72  C   UNL     1      -5.617  -5.591 -18.407  1.00  0.00     0.074 A 
ATOM     73  C   UNL     1      -4.989  -6.697 -17.694  1.00  0.00     0.031 C 
ATOM     74  C   UNL     1      -5.101  -4.663 -19.261  1.00  0.00     0.034 A 
BRANCH  61  75
ATOM     75  C   UNL     1      -0.080  -6.286 -17.703  1.00  0.00     0.023 A 
ATOM     76  C   UNL     1       0.088  -7.117 -18.832  1.00  0.00     0.012 A 
ATOM     77  C   UNL     1      -0.035  -6.919 -16.437  1.00  0.00     0.148 A 
ATOM     78  C   UNL     1       0.255  -8.501 -18.710  1.00  0.00     0.002 A 
ATOM     79  C   UNL     1       0.206  -8.283 -16.316  1.00  0.00     0.091 A 
ATOM     80  F   UNL     1      -0.365  -6.246 -15.335  1.00  0.00    -0.205 F 
ATOM     81  C   UNL     1       0.323  -9.085 -17.451  1.00  0.00     0.022 A 
BRANCH  79  82
ATOM     82  S   UNL     1       0.329  -9.079 -14.708  1.00  0.00     0.127 S 
ATOM     83  O   UNL     1      -0.892  -9.879 -14.684  1.00  0.00    -0.237 OA
ATOM     84  O   UNL     1       1.570  -9.841 -14.851  1.00  0.00    -0.237 OA
ATOM     85  O   UNL     1       0.401  -7.996 -13.735  1.00  0.00    -0.744 OA
ENDBRANCH  79  82
ENDBRANCH  61  75
BRANCH  62  86
ATOM     86  C   UNL     1      -8.057  -6.014 -14.451  1.00  0.00     0.023 A 
ATOM     87  C   UNL     1      -8.990  -6.900 -15.030  1.00  0.00     0.012 A 
ATOM     88  C   UNL     1      -7.826  -6.100 -13.062  1.00  0.00     0.148 A 
ATOM     89  C   UNL     1      -9.636  -7.875 -14.259  1.00  0.00     0.002 A 
ATOM     90  C   UNL     1      -8.465  -7.077 -12.301  1.00  0.00     0.091 A 
ATOM     91  F   UNL     1      -6.914  -5.285 -12.515  1.00  0.00    -0.205 F 
ATOM     92  C   UNL     1      -9.361  -7.975 -12.899  1.00  0.00     0.022 A 
BRANCH  90  93
ATOM     93  S   UNL     1      -8.127  -7.316 -10.550  1.00  0.00     0.127 S 
ATOM     94  O   UNL     1      -9.469  -7.237  -9.973  1.00  0.00    -0.237 OA
ATOM     95  O   UNL     1      -7.533  -8.650 -10.537  1.00  0.00    -0.237 OA
ATOM     96  O   UNL     1      -7.239  -6.228 -10.164  1.00  0.00    -0.744 OA
ENDBRANCH  90  93
ENDBRANCH  62  86
BRANCH  74  97
ATOM     97  C   UNL     1      -6.037  -3.615 -19.786  1.00  0.00     0.023 A 
ATOM     98  C   UNL     1      -6.568  -2.582 -18.987  1.00  0.00     0.012 A 
ATOM     99  C   UNL     1      -6.304  -3.623 -21.163  1.00  0.00     0.148 A 
ATOM    100  C   UNL     1      -7.364  -1.583 -19.557  1.00  0.00     0.002 A 
ATOM    101  C   UNL     1      -7.055  -2.607 -21.732  1.00  0.00     0.091 A 
ATOM    102  F   UNL     1      -5.791  -4.621 -21.898  1.00  0.00    -0.205 F 
ATOM    103  C   UNL     1      -7.597  -1.589 -20.931  1.00  0.00     0.022 A 
BRANCH 101 104
ATOM    104  S   UNL     1      -7.288  -2.499 -23.505  1.00  0.00     0.127 S 
ATOM    105  O   UNL     1      -8.704  -2.833 -23.648  1.00  0.00    -0.237 OA
ATOM    106  O   UNL     1      -6.957  -1.100 -23.777  1.00  0.00    -0.237 OA
ATOM    107  O   UNL     1      -6.359  -3.456 -24.094  1.00  0.00    -0.744 OA
ENDBRANCH 101 104
ENDBRANCH  74  97
ENDBRANCH  48  49
ENDBRANCH  41  43
ENDBRANCH  40  41
ENDBRANCH  39  40
ENDBRANCH   1  39
TORSDOF 21
