REMARK SMILES CC[C@@H]1CC[C@H]([C@@H](C)C(=O)OCCOCCOC(=O)c2ccc(-c3c4nc(c(-c5cccc(S(=O)(=O)[O-])c5F)c5ccc([nH]5)c(-c5cccc(S(=O)(=O)[O-])c5F)c5nc(c(-c6cccc(S(=O)(=O)[O-])c6F)c6ccc3[nH]6)C=C5)C=C4)cc2)C1
REMARK SMILES IDX 15 1 14 2 13 3 12 4 11 5 9 6 10 7 7 8 8 9 6 10 3 11 4 12
REMARK SMILES IDX 83 13 5 14 2 15 1 16 16 17 17 18 18 19 19 20 20 21 21 22
REMARK SMILES IDX 82 23 22 24 81 25 23 26 24 27 25 28 75 29 26 30 80 31 74 32
REMARK SMILES IDX 76 33 27 34 79 35 73 36 72 37 28 39 60 40 40 41 59 42 41 43
REMARK SMILES IDX 44 44 58 45 77 46 42 47 43 48 57 50 78 51 45 52 29 53 30 54
REMARK SMILES IDX 38 55 31 56 33 57 39 58 32 59 34 60 35 61 36 62 37 63 61 64
REMARK SMILES IDX 62 65 70 66 63 67 65 68 71 69 64 70 66 71 67 72 68 73 69 74
REMARK SMILES IDX 46 75 47 76 55 77 48 78 50 79 56 80 49 81 51 82 52 83 53 84
REMARK SMILES IDX 54 85
REMARK H PARENT 76 38 44 49
REMARK Flexibility Score: inf
ROOT
ATOM      1  C   UNL     1      -1.905  -5.694  -1.247  1.00  0.00     0.202 C 
ENDROOT
BRANCH   1   2
ATOM      2  O   UNL     1      -2.452  -7.007  -1.129  1.00  0.00    -0.374 OA
BRANCH   2   3
ATOM      3  C   UNL     1      -2.523  -7.560   0.183  1.00  0.00     0.202 C 
BRANCH   3   4
ATOM      4  C   UNL     1      -1.219  -8.095   0.785  1.00  0.00     0.261 C 
BRANCH   4   5
ATOM      5  O   UNL     1      -0.204  -7.096   1.011  1.00  0.00    -0.463 OA
BRANCH   5   6
ATOM      6  C   UNL     1       0.852  -7.145   0.157  1.00  0.00     0.309 C 
ATOM      7  O   UNL     1       0.912  -7.858  -0.841  1.00  0.00    -0.252 OA
BRANCH   6   8
ATOM      8  C   UNL     1       2.036  -6.300   0.600  1.00  0.00     0.099 C 
ATOM      9  C   UNL     1       2.904  -7.187   1.497  1.00  0.00     0.020 C 
BRANCH   8  10
ATOM     10  C   UNL     1       1.736  -4.940   1.264  1.00  0.00     0.003 C 
ATOM     11  C   UNL     1       1.233  -2.603   0.826  1.00  0.00    -0.011 C 
ATOM     12  C   UNL     1       2.750  -2.731   0.821  1.00  0.00     0.004 C 
ATOM     13  C   UNL     1       0.798  -4.024   0.468  1.00  0.00     0.008 C 
ATOM     14  C   UNL     1       3.017  -4.093   1.457  1.00  0.00     0.005 C 
BRANCH  11  15
ATOM     15  C   UNL     1       0.684  -1.559  -0.148  1.00  0.00     0.000 C 
ATOM     16  C   UNL     1       1.120  -0.142   0.195  1.00  0.00     0.004 C 
ENDBRANCH  11  15
ENDBRANCH   8  10
ENDBRANCH   6   8
ENDBRANCH   5   6
ENDBRANCH   4   5
ENDBRANCH   3   4
ENDBRANCH   2   3
ENDBRANCH   1   2
BRANCH   1  17
ATOM     17  C   UNL     1      -2.790  -4.555  -0.727  1.00  0.00     0.261 C 
BRANCH  17  18
ATOM     18  O   UNL     1      -2.928  -4.605   0.706  1.00  0.00    -0.460 OA
BRANCH  18  19
ATOM     19  C   UNL     1      -4.201  -4.483   1.150  1.00  0.00     0.338 C 
ATOM     20  O   UNL     1      -5.182  -4.173   0.487  1.00  0.00    -0.246 OA
BRANCH  19  21
ATOM     21  C   UNL     1      -4.312  -4.955   2.542  1.00  0.00     0.060 A 
ATOM     22  C   UNL     1      -5.176  -6.030   2.785  1.00  0.00     0.016 A 
ATOM     23  C   UNL     1      -3.687  -4.293   3.601  1.00  0.00     0.016 A 
ATOM     24  C   UNL     1      -5.478  -6.399   4.095  1.00  0.00     0.010 A 
ATOM     25  C   UNL     1      -3.996  -4.665   4.917  1.00  0.00     0.010 A 
ATOM     26  C   UNL     1      -4.931  -5.685   5.170  1.00  0.00    -0.014 A 
BRANCH  26  27
ATOM     27  C   UNL     1      -5.474  -5.913   6.535  1.00  0.00     0.031 A 
ATOM     28  C   UNL     1      -6.509  -4.963   7.080  1.00  0.00     0.074 A 
ATOM     29  C   UNL     1      -5.093  -6.977   7.264  1.00  0.00     0.049 A 
ATOM     30  N   UNL     1      -7.164  -5.015   8.211  1.00  0.00    -0.248 NA
ATOM     31  C   UNL     1      -6.854  -3.805   6.239  1.00  0.00     0.031 C 
ATOM     32  C   UNL     1      -4.100  -7.968   6.856  1.00  0.00     0.029 A 
ATOM     33  N   UNL     1      -5.493  -7.392   8.511  1.00  0.00    -0.354 N 
ATOM     34  C   UNL     1      -7.986  -3.894   8.226  1.00  0.00     0.074 A 
ATOM     35  C   UNL     1      -7.733  -3.168   7.000  1.00  0.00     0.031 C 
ATOM     36  C   UNL     1      -3.956  -8.871   7.842  1.00  0.00     0.029 A 
ATOM     37  C   UNL     1      -4.838  -8.517   8.954  1.00  0.00     0.049 A 
ATOM     38  H   UNL     1      -6.184  -6.929   9.037  1.00  0.00     0.167 HD
ATOM     39  C   UNL     1      -8.890  -3.513   9.160  1.00  0.00     0.034 A 
ATOM     40  C   UNL     1      -4.936  -9.182  10.123  1.00  0.00     0.034 A 
ATOM     41  C   UNL     1      -9.167  -4.243  10.367  1.00  0.00     0.049 A 
ATOM     42  C   UNL     1      -5.939  -8.729  11.153  1.00  0.00     0.074 A 
ATOM     43  C   UNL     1     -10.101  -3.959  11.348  1.00  0.00     0.029 A 
ATOM     44  N   UNL     1      -8.508  -5.395  10.764  1.00  0.00    -0.354 N 
ATOM     45  N   UNL     1      -6.805  -7.748  11.087  1.00  0.00    -0.248 NA
ATOM     46  C   UNL     1      -6.003  -9.501  12.404  1.00  0.00     0.031 C 
ATOM     47  C   UNL     1      -9.995  -4.933  12.348  1.00  0.00     0.029 A 
ATOM     48  C   UNL     1      -9.005  -5.830  11.981  1.00  0.00     0.049 A 
ATOM     49  H   UNL     1      -7.791  -5.839  10.256  1.00  0.00     0.167 HD
ATOM     50  C   UNL     1      -7.538  -7.803  12.269  1.00  0.00     0.074 A 
ATOM     51  C   UNL     1      -7.028  -8.930  13.023  1.00  0.00     0.031 C 
ATOM     52  C   UNL     1      -8.531  -6.986  12.697  1.00  0.00     0.034 A 
BRANCH  39  53
ATOM     53  C   UNL     1      -9.686  -2.264   8.890  1.00  0.00     0.023 A 
ATOM     54  C   UNL     1     -10.733  -2.304   7.947  1.00  0.00     0.012 A 
ATOM     55  C   UNL     1      -9.442  -1.077   9.605  1.00  0.00     0.148 A 
ATOM     56  C   UNL     1     -11.509  -1.172   7.701  1.00  0.00     0.002 A 
ATOM     57  C   UNL     1     -10.243   0.037   9.380  1.00  0.00     0.091 A 
ATOM     58  F   UNL     1      -8.425  -1.052  10.478  1.00  0.00    -0.205 F 
ATOM     59  C   UNL     1     -11.271  -0.006   8.424  1.00  0.00     0.022 A 
BRANCH  57  60
ATOM     60  S   UNL     1     -10.056   1.562  10.313  1.00  0.00     0.127 S 
ATOM     61  O   UNL     1      -9.410   2.431   9.330  1.00  0.00    -0.237 OA
ATOM     62  O   UNL     1     -11.444   1.913  10.618  1.00  0.00    -0.237 OA
ATOM     63  O   UNL     1      -9.250   1.220  11.476  1.00  0.00    -0.744 OA
ENDBRANCH  57  60
ENDBRANCH  39  53
BRANCH  40  64
ATOM     64  C   UNL     1      -4.092 -10.386  10.363  1.00  0.00     0.023 A 
ATOM     65  C   UNL     1      -4.692 -11.659  10.405  1.00  0.00     0.012 A 
ATOM     66  C   UNL     1      -2.697 -10.278  10.528  1.00  0.00     0.148 A 
ATOM     67  C   UNL     1      -3.922 -12.801  10.633  1.00  0.00     0.002 A 
ATOM     68  C   UNL     1      -1.929 -11.424  10.701  1.00  0.00     0.091 A 
ATOM     69  F   UNL     1      -2.148  -9.056  10.511  1.00  0.00    -0.205 F 
ATOM     70  C   UNL     1      -2.541 -12.685  10.769  1.00  0.00     0.022 A 
BRANCH  68  71
ATOM     71  S   UNL     1      -0.135 -11.372  10.753  1.00  0.00     0.127 S 
ATOM     72  O   UNL     1       0.130 -11.581  12.174  1.00  0.00    -0.237 OA
ATOM     73  O   UNL     1       0.229 -12.494   9.887  1.00  0.00    -0.237 OA
ATOM     74  O   UNL     1       0.231 -10.066  10.221  1.00  0.00    -0.744 OA
ENDBRANCH  68  71
ENDBRANCH  40  64
BRANCH  52  75
ATOM     75  C   UNL     1      -9.158  -7.282  14.035  1.00  0.00     0.023 A 
ATOM     76  C   UNL     1      -8.447  -6.991  15.216  1.00  0.00     0.012 A 
ATOM     77  C   UNL     1     -10.477  -7.770  14.126  1.00  0.00     0.148 A 
ATOM     78  C   UNL     1      -9.027  -7.207  16.466  1.00  0.00     0.002 A 
ATOM     79  C   UNL     1     -11.064  -7.943  15.375  1.00  0.00     0.091 A 
ATOM     80  F   UNL     1     -11.132  -8.061  12.992  1.00  0.00    -0.205 F 
ATOM     81  C   UNL     1     -10.338  -7.671  16.545  1.00  0.00     0.022 A 
BRANCH  79  82
ATOM     82  S   UNL     1     -12.778  -8.450  15.565  1.00  0.00     0.127 S 
ATOM     83  O   UNL     1     -12.634  -9.859  15.926  1.00  0.00    -0.237 OA
ATOM     84  O   UNL     1     -13.243  -7.587  16.651  1.00  0.00    -0.237 OA
ATOM     85  O   UNL     1     -13.412  -8.191  14.279  1.00  0.00    -0.744 OA
ENDBRANCH  79  82
ENDBRANCH  52  75
ENDBRANCH  26  27
ENDBRANCH  19  21
ENDBRANCH  18  19
ENDBRANCH  17  18
ENDBRANCH   1  17
TORSDOF 19
