REMARK SMILES C=C1C=C[C@H](C(=O)OCCOCCOC(=O)c2ccc(-c3c4nc(c(-c5cccc(S(=O)(=O)[O-])c5F)c5ccc([nH]5)c(-c5cccc(S(=O)(=O)[O-])c5F)c5nc(c(-c6cccc(S(=O)(=O)[O-])c6F)c6ccc3[nH]6)C=C5)C=C4)cc2)C(=S)N1
REMARK SMILES IDX 12 1 11 2 10 3 9 4 8 5 6 6 7 7 5 8 1 9 2 10 3 11 82 12 4 13
REMARK SMILES IDX 80 14 81 16 13 17 14 18 15 19 16 20 17 21 18 22 79 23 19 24
REMARK SMILES IDX 78 25 20 26 21 27 22 28 72 29 23 30 77 31 71 32 73 33 24 34
REMARK SMILES IDX 76 35 70 36 69 37 25 39 57 40 37 41 56 42 38 43 41 44 55 45
REMARK SMILES IDX 74 46 39 47 40 48 54 50 75 51 42 52 26 53 27 54 35 55 28 56
REMARK SMILES IDX 30 57 36 58 29 59 31 60 32 61 33 62 34 63 58 64 59 65 67 66
REMARK SMILES IDX 60 67 62 68 68 69 61 70 63 71 64 72 65 73 66 74 43 75 44 76
REMARK SMILES IDX 52 77 45 78 47 79 53 80 46 81 48 82 49 83 50 84 51 85
REMARK H PARENT 82 15 73 38 41 49
REMARK Flexibility Score: inf
ROOT
ATOM      1  C   UNL     1      -0.328   6.264   0.157  1.00  0.00     0.202 C 
ENDROOT
BRANCH   1   2
ATOM      2  O   UNL     1      -1.516   6.821   0.717  1.00  0.00    -0.374 OA
BRANCH   2   3
ATOM      3  C   UNL     1      -2.167   6.024   1.707  1.00  0.00     0.202 C 
BRANCH   3   4
ATOM      4  C   UNL     1      -3.088   4.912   1.190  1.00  0.00     0.261 C 
BRANCH   4   5
ATOM      5  O   UNL     1      -2.374   3.858   0.515  1.00  0.00    -0.462 OA
BRANCH   5   6
ATOM      6  C   UNL     1      -2.466   3.848  -0.844  1.00  0.00     0.319 C 
ATOM      7  O   UNL     1      -3.020   4.716  -1.512  1.00  0.00    -0.251 OA
BRANCH   6   8
ATOM      8  C   UNL     1      -1.708   2.685  -1.475  1.00  0.00     0.180 C 
ATOM      9  C   UNL     1       1.078  -0.076   0.171  1.00  0.00     0.037 C 
ATOM     10  C   UNL     1       0.213   0.808  -0.338  1.00  0.00     0.031 C 
ATOM     11  C   UNL     1       0.646   2.074  -0.880  1.00  0.00     0.022 C 
ATOM     12  N   UNL     1      -1.126   0.513  -0.384  1.00  0.00    -0.350 N 
ATOM     13  C   UNL     1      -0.221   2.941  -1.422  1.00  0.00    -0.003 C 
ATOM     14  C   UNL     1      -2.100   1.319  -0.915  1.00  0.00     0.098 C 
ATOM     15  H   UNL     1      -1.411  -0.349  -0.003  1.00  0.00     0.167 HD
ATOM     16  S   UNL     1      -3.673   0.742  -1.018  1.00  0.00    -0.064 S 
ENDBRANCH   6   8
ENDBRANCH   5   6
ENDBRANCH   4   5
ENDBRANCH   3   4
ENDBRANCH   2   3
ENDBRANCH   1   2
BRANCH   1  17
ATOM     17  C   UNL     1       0.962   6.487   0.954  1.00  0.00     0.261 C 
BRANCH  17  18
ATOM     18  O   UNL     1       0.941   5.785   2.209  1.00  0.00    -0.460 OA
BRANCH  18  19
ATOM     19  C   UNL     1       0.778   6.567   3.301  1.00  0.00     0.338 C 
ATOM     20  O   UNL     1       0.752   7.790   3.336  1.00  0.00    -0.246 OA
BRANCH  19  21
ATOM     21  C   UNL     1       0.440   5.729   4.466  1.00  0.00     0.060 A 
ATOM     22  C   UNL     1      -0.730   6.041   5.171  1.00  0.00     0.016 A 
ATOM     23  C   UNL     1       1.262   4.681   4.884  1.00  0.00     0.016 A 
ATOM     24  C   UNL     1      -1.069   5.321   6.315  1.00  0.00     0.010 A 
ATOM     25  C   UNL     1       0.924   3.966   6.038  1.00  0.00     0.010 A 
ATOM     26  C   UNL     1      -0.231   4.295   6.771  1.00  0.00    -0.014 A 
BRANCH  26  27
ATOM     27  C   UNL     1      -0.523   3.610   8.053  1.00  0.00     0.031 A 
ATOM     28  C   UNL     1       0.261   3.970   9.283  1.00  0.00     0.074 A 
ATOM     29  C   UNL     1      -1.469   2.655   8.108  1.00  0.00     0.049 A 
ATOM     30  N   UNL     1       0.204   3.450  10.480  1.00  0.00    -0.248 NA
ATOM     31  C   UNL     1       1.243   5.058   9.144  1.00  0.00     0.031 C 
ATOM     32  C   UNL     1      -2.295   2.221   6.983  1.00  0.00     0.029 A 
ATOM     33  N   UNL     1      -1.869   1.854   9.149  1.00  0.00    -0.354 N 
ATOM     34  C   UNL     1       1.159   4.122  11.233  1.00  0.00     0.074 A 
ATOM     35  C   UNL     1       1.786   5.086  10.354  1.00  0.00     0.031 C 
ATOM     36  C   UNL     1      -3.079   1.206   7.384  1.00  0.00     0.029 A 
ATOM     37  C   UNL     1      -2.787   0.899   8.782  1.00  0.00     0.049 A 
ATOM     38  H   UNL     1      -1.530   1.954  10.068  1.00  0.00     0.167 HD
ATOM     39  C   UNL     1       1.478   3.958  12.539  1.00  0.00     0.034 A 
ATOM     40  C   UNL     1      -3.307  -0.128   9.484  1.00  0.00     0.034 A 
ATOM     41  C   UNL     1       0.842   3.007  13.412  1.00  0.00     0.049 A 
ATOM     42  C   UNL     1      -2.907  -0.313  10.924  1.00  0.00     0.074 A 
ATOM     43  C   UNL     1       1.051   2.811  14.766  1.00  0.00     0.029 A 
ATOM     44  N   UNL     1      -0.109   2.079  13.017  1.00  0.00    -0.354 N 
ATOM     45  N   UNL     1      -2.099   0.414  11.657  1.00  0.00    -0.248 NA
ATOM     46  C   UNL     1      -3.510  -1.447  11.641  1.00  0.00     0.031 C 
ATOM     47  C   UNL     1       0.256   1.737  15.180  1.00  0.00     0.029 A 
ATOM     48  C   UNL     1      -0.475   1.288  14.092  1.00  0.00     0.049 A 
ATOM     49  H   UNL     1      -0.470   1.995  12.105  1.00  0.00     0.167 HD
ATOM     50  C   UNL     1      -2.116  -0.156  12.926  1.00  0.00     0.074 A 
ATOM     51  C   UNL     1      -3.036  -1.274  12.868  1.00  0.00     0.031 C 
ATOM     52  C   UNL     1      -1.420   0.201  14.034  1.00  0.00     0.034 A 
BRANCH  39  53
ATOM     53  C   UNL     1       2.557   4.837  13.114  1.00  0.00     0.023 A 
ATOM     54  C   UNL     1       2.295   6.202  13.353  1.00  0.00     0.012 A 
ATOM     55  C   UNL     1       3.806   4.298  13.481  1.00  0.00     0.148 A 
ATOM     56  C   UNL     1       3.270   7.022  13.921  1.00  0.00     0.002 A 
ATOM     57  C   UNL     1       4.756   5.112  14.085  1.00  0.00     0.091 A 
ATOM     58  F   UNL     1       4.042   3.003  13.226  1.00  0.00    -0.205 F 
ATOM     59  C   UNL     1       4.494   6.476  14.296  1.00  0.00     0.022 A 
BRANCH  57  60
ATOM     60  S   UNL     1       6.334   4.487  14.675  1.00  0.00     0.127 S 
ATOM     61  O   UNL     1       7.266   5.104  13.731  1.00  0.00    -0.237 OA
ATOM     62  O   UNL     1       6.392   5.030  16.032  1.00  0.00    -0.237 OA
ATOM     63  O   UNL     1       6.244   3.035  14.604  1.00  0.00    -0.744 OA
ENDBRANCH  57  60
ENDBRANCH  39  53
BRANCH  40  64
ATOM     64  C   UNL     1      -4.271  -1.059   8.833  1.00  0.00     0.023 A 
ATOM     65  C   UNL     1      -5.618  -1.066   9.241  1.00  0.00     0.012 A 
ATOM     66  C   UNL     1      -3.861  -1.923   7.798  1.00  0.00     0.148 A 
ATOM     67  C   UNL     1      -6.534  -1.936   8.649  1.00  0.00     0.002 A 
ATOM     68  C   UNL     1      -4.790  -2.746   7.174  1.00  0.00     0.091 A 
ATOM     69  F   UNL     1      -2.570  -1.915   7.438  1.00  0.00    -0.205 F 
ATOM     70  C   UNL     1      -6.124  -2.767   7.609  1.00  0.00     0.022 A 
BRANCH  68  71
ATOM     71  S   UNL     1      -4.377  -3.751   5.744  1.00  0.00     0.127 S 
ATOM     72  O   UNL     1      -4.436  -5.100   6.298  1.00  0.00    -0.237 OA
ATOM     73  O   UNL     1      -5.460  -3.416   4.818  1.00  0.00    -0.237 OA
ATOM     74  O   UNL     1      -3.060  -3.301   5.312  1.00  0.00    -0.744 OA
ENDBRANCH  68  71
ENDBRANCH  40  64
BRANCH  52  75
ATOM     75  C   UNL     1      -1.633  -0.610  15.287  1.00  0.00     0.023 A 
ATOM     76  C   UNL     1      -1.110  -1.916  15.370  1.00  0.00     0.012 A 
ATOM     77  C   UNL     1      -2.285  -0.055  16.405  1.00  0.00     0.148 A 
ATOM     78  C   UNL     1      -1.262  -2.668  16.535  1.00  0.00     0.002 A 
ATOM     79  C   UNL     1      -2.389  -0.791  17.580  1.00  0.00     0.091 A 
ATOM     80  F   UNL     1      -2.788   1.184  16.302  1.00  0.00    -0.205 F 
ATOM     81  C   UNL     1      -1.889  -2.102  17.642  1.00  0.00     0.022 A 
BRANCH  79  82
ATOM     82  S   UNL     1      -3.096  -0.116  19.087  1.00  0.00     0.127 S 
ATOM     83  O   UNL     1      -4.334  -0.884  19.205  1.00  0.00    -0.237 OA
ATOM     84  O   UNL     1      -2.076  -0.446  20.082  1.00  0.00    -0.237 OA
ATOM     85  O   UNL     1      -3.269   1.311  18.847  1.00  0.00    -0.744 OA
ENDBRANCH  79  82
ENDBRANCH  52  75
ENDBRANCH  26  27
ENDBRANCH  19  21
ENDBRANCH  18  19
ENDBRANCH  17  18
ENDBRANCH   1  17
TORSDOF 17
