REMARK SMILES O=C(OCCOCCOC(=O)c1ccc(N2C(=O)[C@@H]3CC=CC[C@H]3C2=O)cc1Cl)c1ccc(-c2c3nc(c(-c4cccc(S(=O)(=O)[O-])c4F)c4ccc([nH]4)c(-c4cccc(S(=O)(=O)[O-])c4F)c4nc(c(-c5cccc(S(=O)(=O)[O-])c5F)c5ccc2[nH]5)C=C4)C=C3)cc1
REMARK SMILES IDX 5 1 4 2 3 3 2 4 1 5 30 6 31 7 92 8 32 9 91 10 33 11 34 12
REMARK SMILES IDX 35 13 85 14 36 15 90 16 84 17 86 18 37 19 89 20 83 21 82 22
REMARK SMILES IDX 38 24 70 25 50 26 69 27 51 28 54 29 68 30 87 31 52 32 53 33
REMARK SMILES IDX 67 35 88 36 55 37 39 38 40 39 48 40 41 41 43 42 49 43 42 44
REMARK SMILES IDX 44 45 45 46 46 47 47 48 71 49 72 50 80 51 73 52 75 53 81 54
REMARK SMILES IDX 74 55 76 56 77 57 78 58 79 59 56 60 57 61 65 62 58 63 60 64
REMARK SMILES IDX 66 65 59 66 61 67 62 68 63 69 64 70 6 71 7 72 8 73 9 74
REMARK SMILES IDX 10 75 11 76 12 77 13 78 28 79 14 80 27 81 29 82 15 83 16 84
REMARK SMILES IDX 17 85 25 86 18 87 19 88 24 89 26 90 20 91 23 92 21 93 22 94
REMARK H PARENT 86 23 54 34
REMARK Flexibility Score: inf
ROOT
ATOM      1  C   UNL     1       4.367  -1.313   0.770  1.00  0.00     0.202 C 
ENDROOT
BRANCH   1   2
ATOM      2  C   UNL     1       4.104   0.094   1.312  1.00  0.00     0.261 C 
BRANCH   2   3
ATOM      3  O   UNL     1       2.711   0.414   1.205  1.00  0.00    -0.460 OA
BRANCH   3   4
ATOM      4  C   UNL     1       2.096   1.169   0.268  1.00  0.00     0.338 C 
ATOM      5  O   UNL     1       0.878   1.321   0.354  1.00  0.00    -0.246 OA
BRANCH   4   6
ATOM      6  C   UNL     1       2.810   1.835  -0.865  1.00  0.00     0.060 A 
ATOM      7  C   UNL     1       3.994   1.380  -1.456  1.00  0.00     0.016 A 
ATOM      8  C   UNL     1       2.178   2.950  -1.437  1.00  0.00     0.016 A 
ATOM      9  C   UNL     1       4.556   2.009  -2.553  1.00  0.00     0.010 A 
ATOM     10  C   UNL     1       2.726   3.586  -2.550  1.00  0.00     0.010 A 
ATOM     11  C   UNL     1       3.924   3.116  -3.098  1.00  0.00    -0.014 A 
BRANCH  11  12
ATOM     12  C   UNL     1       4.615   3.844  -4.165  1.00  0.00     0.031 A 
ATOM     13  C   UNL     1       5.339   5.093  -3.792  1.00  0.00     0.074 A 
ATOM     14  C   UNL     1       4.623   3.345  -5.411  1.00  0.00     0.049 A 
ATOM     15  N   UNL     1       5.907   5.976  -4.560  1.00  0.00    -0.248 NA
ATOM     16  C   UNL     1       5.439   5.382  -2.350  1.00  0.00     0.031 C 
ATOM     17  C   UNL     1       4.023   2.071  -5.811  1.00  0.00     0.029 A 
ATOM     18  N   UNL     1       5.135   3.858  -6.570  1.00  0.00    -0.354 N 
ATOM     19  C   UNL     1       6.369   6.965  -3.703  1.00  0.00     0.074 A 
ATOM     20  C   UNL     1       6.047   6.557  -2.355  1.00  0.00     0.031 C 
ATOM     21  C   UNL     1       4.164   1.921  -7.137  1.00  0.00     0.029 A 
ATOM     22  C   UNL     1       4.801   3.116  -7.678  1.00  0.00     0.049 A 
ATOM     23  H   UNL     1       5.684   4.674  -6.608  1.00  0.00     0.167 HD
ATOM     24  C   UNL     1       6.985   8.121  -4.031  1.00  0.00     0.034 A 
ATOM     25  C   UNL     1       4.941   3.415  -8.982  1.00  0.00     0.034 A 
ATOM     26  C   UNL     1       7.275   8.483  -5.389  1.00  0.00     0.049 A 
ATOM     27  C   UNL     1       5.591   4.725  -9.331  1.00  0.00     0.074 A 
ATOM     28  C   UNL     1       7.877   9.628  -5.870  1.00  0.00     0.029 A 
ATOM     29  N   UNL     1       6.957   7.696  -6.490  1.00  0.00    -0.354 N 
ATOM     30  N   UNL     1       6.048   5.655  -8.523  1.00  0.00    -0.248 NA
ATOM     31  C   UNL     1       5.763   5.029 -10.756  1.00  0.00     0.031 C 
ATOM     32  C   UNL     1       7.890   9.548  -7.266  1.00  0.00     0.029 A 
ATOM     33  C   UNL     1       7.338   8.333  -7.653  1.00  0.00     0.049 A 
ATOM     34  H   UNL     1       6.524   6.813  -6.446  1.00  0.00     0.167 HD
ATOM     35  C   UNL     1       6.590   6.640  -9.336  1.00  0.00     0.074 A 
ATOM     36  C   UNL     1       6.408   6.189 -10.704  1.00  0.00     0.031 C 
ATOM     37  C   UNL     1       7.178   7.812  -8.991  1.00  0.00     0.034 A 
BRANCH  24  38
ATOM     38  C   UNL     1       7.302   9.068  -2.906  1.00  0.00     0.023 A 
ATOM     39  C   UNL     1       8.309   8.753  -1.970  1.00  0.00     0.012 A 
ATOM     40  C   UNL     1       6.553  10.248  -2.743  1.00  0.00     0.148 A 
ATOM     41  C   UNL     1       8.524   9.569  -0.859  1.00  0.00     0.002 A 
ATOM     42  C   UNL     1       6.804  11.080  -1.659  1.00  0.00     0.091 A 
ATOM     43  F   UNL     1       5.576  10.514  -3.623  1.00  0.00    -0.205 F 
ATOM     44  C   UNL     1       7.776  10.734  -0.707  1.00  0.00     0.022 A 
BRANCH  42  45
ATOM     45  S   UNL     1       5.933  12.631  -1.415  1.00  0.00     0.127 S 
ATOM     46  O   UNL     1       5.045  12.300  -0.302  1.00  0.00    -0.237 OA
ATOM     47  O   UNL     1       7.024  13.545  -1.073  1.00  0.00    -0.237 OA
ATOM     48  O   UNL     1       5.275  12.924  -2.680  1.00  0.00    -0.744 OA
ENDBRANCH  42  45
ENDBRANCH  24  38
BRANCH  25  49
ATOM     49  C   UNL     1       4.436   2.465 -10.012  1.00  0.00     0.023 A 
ATOM     50  C   UNL     1       5.343   1.747 -10.812  1.00  0.00     0.012 A 
ATOM     51  C   UNL     1       3.054   2.206 -10.140  1.00  0.00     0.148 A 
ATOM     52  C   UNL     1       4.885   0.796 -11.727  1.00  0.00     0.002 A 
ATOM     53  C   UNL     1       2.609   1.220 -11.013  1.00  0.00     0.091 A 
ATOM     54  F   UNL     1       2.205   2.908  -9.377  1.00  0.00    -0.205 F 
ATOM     55  C   UNL     1       3.522   0.523 -11.818  1.00  0.00     0.022 A 
BRANCH  53  56
ATOM     56  S   UNL     1       0.888   0.708 -11.099  1.00  0.00     0.127 S 
ATOM     57  O   UNL     1       0.517   1.136 -12.445  1.00  0.00    -0.237 OA
ATOM     58  O   UNL     1       0.997  -0.740 -10.921  1.00  0.00    -0.237 OA
ATOM     59  O   UNL     1       0.213   1.401 -10.010  1.00  0.00    -0.744 OA
ENDBRANCH  53  56
ENDBRANCH  25  49
BRANCH  37  60
ATOM     60  C   UNL     1       7.721   8.669 -10.099  1.00  0.00     0.023 A 
ATOM     61  C   UNL     1       6.847   9.445 -10.881  1.00  0.00     0.012 A 
ATOM     62  C   UNL     1       9.114   8.811 -10.250  1.00  0.00     0.148 A 
ATOM     63  C   UNL     1       7.356  10.352 -11.809  1.00  0.00     0.002 A 
ATOM     64  C   UNL     1       9.612   9.754 -11.136  1.00  0.00     0.091 A 
ATOM     65  F   UNL     1       9.919   8.044  -9.501  1.00  0.00    -0.205 F 
ATOM     66  C   UNL     1       8.735  10.519 -11.923  1.00  0.00     0.022 A 
BRANCH  64  67
ATOM     67  S   UNL     1      11.365  10.121 -11.261  1.00  0.00     0.127 S 
ATOM     68  O   UNL     1      11.678   9.625 -12.599  1.00  0.00    -0.237 OA
ATOM     69  O   UNL     1      11.384  11.578 -11.129  1.00  0.00    -0.237 OA
ATOM     70  O   UNL     1      12.008   9.405 -10.167  1.00  0.00    -0.744 OA
ENDBRANCH  64  67
ENDBRANCH  37  60
ENDBRANCH  11  12
ENDBRANCH   4   6
ENDBRANCH   3   4
ENDBRANCH   2   3
ENDBRANCH   1   2
BRANCH   1  71
ATOM     71  O   UNL     1       4.082  -1.494  -0.616  1.00  0.00    -0.374 OA
BRANCH  71  72
ATOM     72  C   UNL     1       2.721  -1.795  -0.952  1.00  0.00     0.202 C 
BRANCH  72  73
ATOM     73  C   UNL     1       2.683  -3.065  -1.798  1.00  0.00     0.261 C 
BRANCH  73  74
ATOM     74  O   UNL     1       3.188  -4.127  -0.980  1.00  0.00    -0.460 OA
BRANCH  74  75
ATOM     75  C   UNL     1       4.527  -4.335  -1.070  1.00  0.00     0.339 C 
ATOM     76  O   UNL     1       5.291  -3.962  -1.927  1.00  0.00    -0.246 OA
BRANCH  75  77
ATOM     77  C   UNL     1       4.966  -4.898   0.219  1.00  0.00     0.078 A 
ATOM     78  C   UNL     1       6.053  -4.264   0.855  1.00  0.00     0.019 A 
ATOM     79  C   UNL     1       4.348  -5.994   0.813  1.00  0.00     0.057 A 
ATOM     80  C   UNL     1       6.523  -4.717   2.090  1.00  0.00     0.028 A 
ATOM     81  C   UNL     1       4.855  -6.476   2.014  1.00  0.00     0.048 A 
ATOM     82  Cl  UNL     1       3.035  -6.868   0.111  1.00  0.00    -0.083 Cl
ATOM     83  C   UNL     1       5.956  -5.866   2.635  1.00  0.00     0.053 A 
BRANCH  83  84
ATOM     84  N   UNL     1       6.581  -6.558   3.678  1.00  0.00    -0.250 N 
ATOM     85  C   UNL     1       6.901  -6.065   4.932  1.00  0.00     0.238 C 
ATOM     86  C   UNL     1       6.981  -7.873   3.514  1.00  0.00     0.238 C 
ATOM     87  O   UNL     1       6.865  -4.922   5.351  1.00  0.00    -0.274 OA
ATOM     88  C   UNL     1       7.154  -7.306   5.754  1.00  0.00     0.096 C 
ATOM     89  C   UNL     1       7.806  -8.198   4.711  1.00  0.00     0.096 C 
ATOM     90  O   UNL     1       6.818  -8.616   2.560  1.00  0.00    -0.274 OA
ATOM     91  C   UNL     1       7.997  -7.272   7.011  1.00  0.00     0.041 C 
ATOM     92  C   UNL     1       7.806  -9.647   5.140  1.00  0.00     0.041 C 
ATOM     93  C   UNL     1       8.383  -8.690   7.395  1.00  0.00    -0.030 C 
ATOM     94  C   UNL     1       8.270  -9.750   6.570  1.00  0.00    -0.030 C 
ENDBRANCH  83  84
ENDBRANCH  75  77
ENDBRANCH  74  75
ENDBRANCH  73  74
ENDBRANCH  72  73
ENDBRANCH  71  72
ENDBRANCH   1  71
TORSDOF 18
