REMARK SMILES Cn1ccc(CNC(=O)[C@@H]2[C@@H]3CC[C@@H](C3)[C@@H]2C(=O)OCCOCCOC(=O)c2ccc(-c3c4nc(c(-c5cccc(S(=O)(=O)[O-])c5F)c5ccc([nH]5)c(-c5cccc(S(=O)(=O)[O-])c5F)c5nc(c(-c6cccc(S(=O)(=O)[O-])c6F)c6ccc3[nH]6)C=C5)C=C4)cc2)n1
REMARK SMILES IDX 22 1 21 2 20 3 19 4 17 5 18 6 16 7 10 8 11 9 12 10 15 11
REMARK SMILES IDX 14 12 13 13 8 14 7 15 9 17 6 18 5 19 1 20 2 21 3 22 91 23
REMARK SMILES IDX 4 24 23 25 24 26 25 27 26 28 27 29 28 30 29 31 90 32 30 33
REMARK SMILES IDX 89 34 31 35 32 36 33 37 83 38 34 39 88 40 82 41 84 42 35 43
REMARK SMILES IDX 87 44 81 45 80 46 36 48 68 49 48 50 67 51 49 52 52 53 66 54
REMARK SMILES IDX 85 55 50 56 51 57 65 59 86 60 53 61 37 62 38 63 46 64 39 65
REMARK SMILES IDX 41 66 47 67 40 68 42 69 43 70 44 71 45 72 69 73 70 74 78 75
REMARK SMILES IDX 71 76 73 77 79 78 72 79 74 80 75 81 76 82 77 83 54 84 55 85
REMARK SMILES IDX 63 86 56 87 58 88 64 89 57 90 59 91 60 92 61 93 62 94
REMARK H PARENT 7 16 84 47 52 58
REMARK Flexibility Score: inf
ROOT
ATOM      1  O   UNL     1      -1.497   2.155   2.163  1.00  0.00    -0.374 OA
ENDROOT
BRANCH   1   2
ATOM      2  C   UNL     1      -1.812   2.997   3.270  1.00  0.00     0.202 C 
BRANCH   2   3
ATOM      3  C   UNL     1      -0.763   3.991   3.780  1.00  0.00     0.261 C 
BRANCH   3   4
ATOM      4  O   UNL     1      -0.198   4.769   2.721  1.00  0.00    -0.463 OA
BRANCH   4   5
ATOM      5  C   UNL     1       1.079   4.423   2.386  1.00  0.00     0.310 C 
ATOM      6  O   UNL     1       1.760   3.617   2.998  1.00  0.00    -0.252 OA
BRANCH   5   7
ATOM      7  C   UNL     1       1.469   5.117   1.096  1.00  0.00     0.115 C 
ATOM      8  C   UNL     1       2.776   4.654   0.408  1.00  0.00     0.096 C 
ATOM      9  C   UNL     1       3.605   5.964   0.408  1.00  0.00     0.002 C 
ATOM     10  C   UNL     1       3.971   6.427   1.835  1.00  0.00     0.005 C 
ATOM     11  C   UNL     1       2.521   6.984   0.041  1.00  0.00     0.009 C 
ATOM     12  C   UNL     1       1.663   6.644   1.262  1.00  0.00     0.004 C 
ATOM     13  C   UNL     1       2.644   6.940   2.402  1.00  0.00     0.005 C 
BRANCH   8  14
ATOM     14  C   UNL     1       3.515   3.423   0.926  1.00  0.00     0.224 C 
ATOM     15  N   UNL     1       2.967   2.189   0.762  1.00  0.00    -0.350 N 
ATOM     16  H   UNL     1       3.460   1.459   1.202  1.00  0.00     0.163 HD
ATOM     17  O   UNL     1       4.630   3.489   1.444  1.00  0.00    -0.275 OA
BRANCH  15  18
ATOM     18  C   UNL     1       1.780   1.770   0.047  1.00  0.00     0.174 C 
BRANCH  18  19
ATOM     19  C   UNL     1       2.137   0.681  -0.919  1.00  0.00     0.082 A 
ATOM     20  C   UNL     1       4.327  -0.600  -3.314  1.00  0.00     0.173 C 
ATOM     21  N   UNL     1       3.239  -0.360  -2.399  1.00  0.00    -0.275 N 
ATOM     22  C   UNL     1       2.243  -1.223  -2.052  1.00  0.00     0.108 A 
ATOM     23  N   UNL     1       3.170   0.819  -1.764  1.00  0.00    -0.176 NA
ATOM     24  C   UNL     1       1.506  -0.577  -1.087  1.00  0.00     0.047 A 
ENDBRANCH  18  19
ENDBRANCH  15  18
ENDBRANCH   8  14
ENDBRANCH   5   7
ENDBRANCH   4   5
ENDBRANCH   3   4
ENDBRANCH   2   3
ENDBRANCH   1   2
BRANCH   1  25
ATOM     25  C   UNL     1      -1.454   2.729   0.859  1.00  0.00     0.202 C 
BRANCH  25  26
ATOM     26  C   UNL     1      -2.733   3.219   0.174  1.00  0.00     0.261 C 
BRANCH  26  27
ATOM     27  O   UNL     1      -3.374   4.287   0.871  1.00  0.00    -0.460 OA
BRANCH  27  28
ATOM     28  C   UNL     1      -4.485   3.921   1.552  1.00  0.00     0.338 C 
ATOM     29  O   UNL     1      -4.983   2.806   1.615  1.00  0.00    -0.246 OA
BRANCH  28  30
ATOM     30  C   UNL     1      -4.899   5.042   2.402  1.00  0.00     0.060 A 
ATOM     31  C   UNL     1      -5.001   4.824   3.784  1.00  0.00     0.016 A 
ATOM     32  C   UNL     1      -5.217   6.277   1.839  1.00  0.00     0.016 A 
ATOM     33  C   UNL     1      -5.467   5.838   4.611  1.00  0.00     0.010 A 
ATOM     34  C   UNL     1      -5.700   7.285   2.665  1.00  0.00     0.010 A 
ATOM     35  C   UNL     1      -5.862   7.054   4.044  1.00  0.00    -0.014 A 
BRANCH  35  36
ATOM     36  C   UNL     1      -6.635   8.027   4.840  1.00  0.00     0.031 A 
ATOM     37  C   UNL     1      -8.120   8.078   4.630  1.00  0.00     0.074 A 
ATOM     38  C   UNL     1      -6.016   8.872   5.679  1.00  0.00     0.049 A 
ATOM     39  N   UNL     1      -8.985   8.957   5.054  1.00  0.00    -0.248 NA
ATOM     40  C   UNL     1      -8.706   6.998   3.814  1.00  0.00     0.031 C 
ATOM     41  C   UNL     1      -4.582   8.884   5.963  1.00  0.00     0.029 A 
ATOM     42  N   UNL     1      -6.516   9.920   6.408  1.00  0.00    -0.354 N 
ATOM     43  C   UNL     1     -10.210   8.559   4.531  1.00  0.00     0.074 A 
ATOM     44  C   UNL     1      -9.976   7.369   3.746  1.00  0.00     0.031 C 
ATOM     45  C   UNL     1      -4.307   9.930   6.763  1.00  0.00     0.029 A 
ATOM     46  C   UNL     1      -5.538  10.676   7.009  1.00  0.00     0.049 A 
ATOM     47  H   UNL     1      -7.479  10.111   6.492  1.00  0.00     0.167 HD
ATOM     48  C   UNL     1     -11.422   9.133   4.703  1.00  0.00     0.034 A 
ATOM     49  C   UNL     1      -5.630  11.864   7.638  1.00  0.00     0.034 A 
ATOM     50  C   UNL     1     -11.635  10.313   5.493  1.00  0.00     0.049 A 
ATOM     51  C   UNL     1      -6.986  12.508   7.779  1.00  0.00     0.074 A 
ATOM     52  C   UNL     1     -12.821  10.974   5.750  1.00  0.00     0.029 A 
ATOM     53  N   UNL     1     -10.632  11.011   6.149  1.00  0.00    -0.354 N 
ATOM     54  N   UNL     1      -8.150  12.086   7.345  1.00  0.00    -0.248 NA
ATOM     55  C   UNL     1      -7.049  13.775   8.521  1.00  0.00     0.031 C 
ATOM     56  C   UNL     1     -12.532  12.088   6.543  1.00  0.00     0.029 A 
ATOM     57  C   UNL     1     -11.172  12.095   6.814  1.00  0.00     0.049 A 
ATOM     58  H   UNL     1      -9.678  10.770   6.142  1.00  0.00     0.167 HD
ATOM     59  C   UNL     1      -9.086  13.005   7.804  1.00  0.00     0.074 A 
ATOM     60  C   UNL     1      -8.354  14.004   8.556  1.00  0.00     0.031 C 
ATOM     61  C   UNL     1     -10.428  13.030   7.617  1.00  0.00     0.034 A 
BRANCH  48  62
ATOM     62  C   UNL     1     -12.608   8.479   4.048  1.00  0.00     0.023 A 
ATOM     63  C   UNL     1     -13.088   7.250   4.544  1.00  0.00     0.012 A 
ATOM     64  C   UNL     1     -13.285   9.107   2.985  1.00  0.00     0.148 A 
ATOM     65  C   UNL     1     -14.204   6.641   3.974  1.00  0.00     0.002 A 
ATOM     66  C   UNL     1     -14.425   8.518   2.452  1.00  0.00     0.091 A 
ATOM     67  F   UNL     1     -12.800  10.264   2.513  1.00  0.00    -0.205 F 
ATOM     68  C   UNL     1     -14.879   7.280   2.938  1.00  0.00     0.022 A 
BRANCH  66  69
ATOM     69  S   UNL     1     -15.411   9.294   1.168  1.00  0.00     0.127 S 
ATOM     70  O   UNL     1     -15.218   8.371   0.050  1.00  0.00    -0.237 OA
ATOM     71  O   UNL     1     -16.751   9.269   1.755  1.00  0.00    -0.237 OA
ATOM     72  O   UNL     1     -14.852  10.624   0.977  1.00  0.00    -0.744 OA
ENDBRANCH  66  69
ENDBRANCH  48  62
BRANCH  49  73
ATOM     73  C   UNL     1      -4.409  12.527   8.176  1.00  0.00     0.023 A 
ATOM     74  C   UNL     1      -4.251  12.675   9.568  1.00  0.00     0.012 A 
ATOM     75  C   UNL     1      -3.410  13.022   7.316  1.00  0.00     0.148 A 
ATOM     76  C   UNL     1      -3.144  13.345  10.090  1.00  0.00     0.002 A 
ATOM     77  C   UNL     1      -2.282  13.637   7.845  1.00  0.00     0.091 A 
ATOM     78  F   UNL     1      -3.583  12.883   5.994  1.00  0.00    -0.205 F 
ATOM     79  C   UNL     1      -2.157  13.819   9.230  1.00  0.00     0.022 A 
BRANCH  77  80
ATOM     80  S   UNL     1      -0.904  14.163   6.820  1.00  0.00     0.127 S 
ATOM     81  O   UNL     1      -1.035  15.617   6.867  1.00  0.00    -0.237 OA
ATOM     82  O   UNL     1       0.241  13.623   7.552  1.00  0.00    -0.237 OA
ATOM     83  O   UNL     1      -1.127  13.548   5.518  1.00  0.00    -0.744 OA
ENDBRANCH  77  80
ENDBRANCH  49  73
BRANCH  61  84
ATOM     84  C   UNL     1     -11.215  14.116   8.299  1.00  0.00     0.023 A 
ATOM     85  C   UNL     1     -11.166  15.439   7.819  1.00  0.00     0.012 A 
ATOM     86  C   UNL     1     -12.092  13.790   9.353  1.00  0.00     0.148 A 
ATOM     87  C   UNL     1     -11.963  16.427   8.395  1.00  0.00     0.002 A 
ATOM     88  C   UNL     1     -12.922  14.768   9.885  1.00  0.00     0.091 A 
ATOM     89  F   UNL     1     -12.110  12.527   9.801  1.00  0.00    -0.205 F 
ATOM     90  C   UNL     1     -12.850  16.090   9.416  1.00  0.00     0.022 A 
BRANCH  88  91
ATOM     91  S   UNL     1     -14.168  14.405  11.126  1.00  0.00     0.127 S 
ATOM     92  O   UNL     1     -13.650  15.126  12.287  1.00  0.00    -0.237 OA
ATOM     93  O   UNL     1     -15.371  14.988  10.532  1.00  0.00    -0.237 OA
ATOM     94  O   UNL     1     -14.197  12.954  11.260  1.00  0.00    -0.744 OA
ENDBRANCH  88  91
ENDBRANCH  61  84
ENDBRANCH  35  36
ENDBRANCH  28  30
ENDBRANCH  27  28
ENDBRANCH  26  27
ENDBRANCH  25  26
ENDBRANCH   1  25
TORSDOF 20
