REMARK SMILES Cc1c(NC(=O)[C@@H]2CC=CC[C@@H]2C(=O)OCCOCCOC(=O)c2ccc(-c3c4nc(c(-c5cccc(S(=O)(=O)[O-])c5F)c5ccc([nH]5)c(-c5cccc(S(=O)(=O)[O-])c5F)c5nc(c(-c6cccc(S(=O)(=O)[O-])c6F)c6ccc3[nH]6)C=C5)C=C4)cc2)cccc1C(=O)N1CCOCC1
REMARK SMILES IDX 18 1 17 2 16 3 15 4 13 5 14 6 12 7 7 8 8 9 9 10 11 11 10 12
REMARK SMILES IDX 5 13 4 14 6 16 3 17 1 18 2 19 90 20 87 21 89 22 88 23 91 24
REMARK SMILES IDX 92 25 93 26 94 27 98 28 95 29 97 30 96 31 19 32 20 33 21 34
REMARK SMILES IDX 22 35 23 36 24 37 25 38 86 39 26 40 85 41 27 42 28 43 29 44
REMARK SMILES IDX 79 45 30 46 84 47 78 48 80 49 31 50 83 51 77 52 76 53 32 55
REMARK SMILES IDX 64 56 44 57 63 58 45 59 48 60 62 61 81 62 46 63 47 64 61 66
REMARK SMILES IDX 82 67 49 68 33 69 34 70 42 71 35 72 37 73 43 74 36 75 38 76
REMARK SMILES IDX 39 77 40 78 41 79 65 80 66 81 74 82 67 83 69 84 75 85 68 86
REMARK SMILES IDX 70 87 71 88 72 89 73 90 50 91 51 92 59 93 52 94 54 95 60 96
REMARK SMILES IDX 53 97 55 98 56 99 57 100 58 101
REMARK H PARENT 4 15 80 54 48 65
REMARK Flexibility Score: inf
ROOT
ATOM      1  O   UNL     1      -4.152  -0.792   0.631  1.00  0.00    -0.374 OA
ENDROOT
BRANCH   1   2
ATOM      2  C   UNL     1      -4.201  -1.877   1.530  1.00  0.00     0.202 C 
BRANCH   2   3
ATOM      3  C   UNL     1      -3.999  -3.089   0.678  1.00  0.00     0.261 C 
BRANCH   3   4
ATOM      4  O   UNL     1      -2.727  -3.071  -0.035  1.00  0.00    -0.463 OA
BRANCH   4   5
ATOM      5  C   UNL     1      -2.364  -2.155  -0.986  1.00  0.00     0.310 C 
ATOM      6  O   UNL     1      -3.098  -1.532  -1.714  1.00  0.00    -0.252 OA
BRANCH   5   7
ATOM      7  C   UNL     1      -0.844  -1.986  -1.010  1.00  0.00     0.116 C 
ATOM      8  C   UNL     1      -0.092  -2.911  -0.017  1.00  0.00     0.097 C 
ATOM      9  C   UNL     1      -0.516  -2.604   1.440  1.00  0.00     0.041 C 
ATOM     10  C   UNL     1      -0.488  -1.128   1.717  1.00  0.00    -0.030 C 
ATOM     11  C   UNL     1      -0.492  -0.521  -0.719  1.00  0.00     0.043 C 
ATOM     12  C   UNL     1      -0.431  -0.200   0.750  1.00  0.00    -0.030 C 
BRANCH   8  13
ATOM     13  C   UNL     1      -0.239  -4.345  -0.494  1.00  0.00     0.228 C 
ATOM     14  N   UNL     1       0.076  -5.438   0.233  1.00  0.00    -0.326 N 
ATOM     15  H   UNL     1      -0.502  -6.214   0.048  1.00  0.00     0.169 HD
ATOM     16  O   UNL     1      -0.591  -4.587  -1.653  1.00  0.00    -0.274 OA
BRANCH  14  17
ATOM     17  C   UNL     1       1.063  -5.691   1.200  1.00  0.00     0.044 A 
ATOM     18  C   UNL     1       0.150  -8.028   1.329  1.00  0.00     0.047 C 
ATOM     19  C   UNL     1       1.230  -7.029   1.643  1.00  0.00    -0.015 A 
ATOM     20  C   UNL     1       2.399  -7.361   2.366  1.00  0.00     0.045 A 
ATOM     21  C   UNL     1       1.955  -4.706   1.625  1.00  0.00     0.026 A 
ATOM     22  C   UNL     1       3.251  -6.324   2.796  1.00  0.00     0.014 A 
ATOM     23  C   UNL     1       3.007  -5.003   2.469  1.00  0.00     0.003 A 
BRANCH  20  24
ATOM     24  C   UNL     1       2.799  -8.717   2.860  1.00  0.00     0.254 C 
ATOM     25  O   UNL     1       3.583  -8.785   3.810  1.00  0.00    -0.269 OA
ATOM     26  N   UNL     1       2.220  -9.866   2.354  1.00  0.00    -0.334 N 
ATOM     27  C   UNL     1       2.270 -10.295   0.950  1.00  0.00     0.148 C 
ATOM     28  C   UNL     1       1.986 -10.947   3.299  1.00  0.00     0.148 C 
ATOM     29  C   UNL     1       1.091 -11.228   0.601  1.00  0.00     0.181 C 
ATOM     30  C   UNL     1       0.734 -11.715   2.892  1.00  0.00     0.181 C 
ATOM     31  O   UNL     1       0.910 -12.269   1.578  1.00  0.00    -0.378 OA
ENDBRANCH  20  24
ENDBRANCH  14  17
ENDBRANCH   8  13
ENDBRANCH   5   7
ENDBRANCH   4   5
ENDBRANCH   3   4
ENDBRANCH   2   3
ENDBRANCH   1   2
BRANCH   1  32
ATOM     32  C   UNL     1      -3.959   0.486   1.175  1.00  0.00     0.202 C 
BRANCH  32  33
ATOM     33  C   UNL     1      -5.101   0.894   2.096  1.00  0.00     0.261 C 
BRANCH  33  34
ATOM     34  O   UNL     1      -6.314   1.025   1.331  1.00  0.00    -0.460 OA
BRANCH  34  35
ATOM     35  C   UNL     1      -7.162  -0.040   1.434  1.00  0.00     0.338 C 
ATOM     36  O   UNL     1      -7.624  -0.434   2.493  1.00  0.00    -0.246 OA
BRANCH  35  37
ATOM     37  C   UNL     1      -7.228  -0.772   0.136  1.00  0.00     0.060 A 
ATOM     38  C   UNL     1      -7.748  -2.077   0.105  1.00  0.00     0.016 A 
ATOM     39  C   UNL     1      -6.492  -0.292  -0.947  1.00  0.00     0.016 A 
ATOM     40  C   UNL     1      -7.371  -2.961  -0.911  1.00  0.00     0.010 A 
ATOM     41  C   UNL     1      -6.047  -1.192  -1.892  1.00  0.00     0.010 A 
ATOM     42  C   UNL     1      -6.437  -2.540  -1.844  1.00  0.00    -0.014 A 
BRANCH  42  43
ATOM     43  C   UNL     1      -5.872  -3.376  -2.895  1.00  0.00     0.031 A 
ATOM     44  C   UNL     1      -6.420  -3.144  -4.237  1.00  0.00     0.074 A 
ATOM     45  C   UNL     1      -4.752  -4.119  -2.725  1.00  0.00     0.049 A 
ATOM     46  N   UNL     1      -6.155  -3.888  -5.249  1.00  0.00    -0.248 NA
ATOM     47  C   UNL     1      -7.381  -2.078  -4.548  1.00  0.00     0.031 C 
ATOM     48  C   UNL     1      -3.729  -4.463  -3.712  1.00  0.00     0.029 A 
ATOM     49  N   UNL     1      -4.265  -4.736  -1.569  1.00  0.00    -0.354 N 
ATOM     50  C   UNL     1      -6.491  -3.134  -6.341  1.00  0.00     0.074 A 
ATOM     51  C   UNL     1      -7.470  -2.195  -5.873  1.00  0.00     0.031 C 
ATOM     52  C   UNL     1      -2.921  -5.412  -3.204  1.00  0.00     0.029 A 
ATOM     53  C   UNL     1      -3.503  -5.843  -1.940  1.00  0.00     0.049 A 
ATOM     54  H   UNL     1      -4.432  -4.438  -0.645  1.00  0.00     0.167 HD
ATOM     55  C   UNL     1      -5.696  -3.223  -7.437  1.00  0.00     0.034 A 
ATOM     56  C   UNL     1      -3.869  -7.094  -1.554  1.00  0.00     0.034 A 
ATOM     57  C   UNL     1      -4.762  -4.377  -7.328  1.00  0.00     0.049 A 
ATOM     58  C   UNL     1      -4.196  -7.898  -2.779  1.00  0.00     0.074 A 
ATOM     59  C   UNL     1      -3.386  -4.531  -7.310  1.00  0.00     0.029 A 
ATOM     60  N   UNL     1      -5.268  -5.616  -6.909  1.00  0.00    -0.354 N 
ATOM     61  N   UNL     1      -4.217  -7.372  -3.970  1.00  0.00    -0.248 NA
ATOM     62  C   UNL     1      -4.522  -9.312  -2.801  1.00  0.00     0.031 C 
ATOM     63  C   UNL     1      -3.086  -5.856  -6.837  1.00  0.00     0.029 A 
ATOM     64  C   UNL     1      -4.274  -6.537  -6.612  1.00  0.00     0.049 A 
ATOM     65  H   UNL     1      -6.230  -5.811  -6.832  1.00  0.00     0.167 HD
ATOM     66  C   UNL     1      -4.572  -8.275  -4.908  1.00  0.00     0.074 A 
ATOM     67  C   UNL     1      -4.796  -9.483  -4.110  1.00  0.00     0.031 C 
ATOM     68  C   UNL     1      -4.649  -7.913  -6.229  1.00  0.00     0.034 A 
BRANCH  55  69
ATOM     69  C   UNL     1      -5.659  -2.153  -8.524  1.00  0.00     0.023 A 
ATOM     70  C   UNL     1      -4.957  -2.466  -9.703  1.00  0.00     0.012 A 
ATOM     71  C   UNL     1      -6.220  -0.840  -8.470  1.00  0.00     0.148 A 
ATOM     72  C   UNL     1      -4.846  -1.563 -10.771  1.00  0.00     0.002 A 
ATOM     73  C   UNL     1      -6.193   0.022  -9.572  1.00  0.00     0.091 A 
ATOM     74  F   UNL     1      -6.688  -0.348  -7.319  1.00  0.00    -0.205 F 
ATOM     75  C   UNL     1      -5.491  -0.334 -10.722  1.00  0.00     0.022 A 
BRANCH  73  76
ATOM     76  S   UNL     1      -7.079   1.597  -9.606  1.00  0.00     0.127 S 
ATOM     77  O   UNL     1      -5.986   2.569  -9.611  1.00  0.00    -0.237 OA
ATOM     78  O   UNL     1      -7.819   1.513 -10.866  1.00  0.00    -0.237 OA
ATOM     79  O   UNL     1      -7.924   1.619  -8.418  1.00  0.00    -0.744 OA
ENDBRANCH  73  76
ENDBRANCH  55  69
BRANCH  56  80
ATOM     80  C   UNL     1      -4.518  -7.136  -0.200  1.00  0.00     0.023 A 
ATOM     81  C   UNL     1      -3.697  -6.849   0.921  1.00  0.00     0.012 A 
ATOM     82  C   UNL     1      -5.909  -7.038  -0.034  1.00  0.00     0.148 A 
ATOM     83  C   UNL     1      -4.223  -6.409   2.141  1.00  0.00     0.002 A 
ATOM     84  C   UNL     1      -6.428  -6.533   1.163  1.00  0.00     0.091 A 
ATOM     85  F   UNL     1      -6.698  -7.379  -1.059  1.00  0.00    -0.205 F 
ATOM     86  C   UNL     1      -5.590  -6.201   2.242  1.00  0.00     0.022 A 
BRANCH  84  87
ATOM     87  S   UNL     1      -8.165  -6.107   1.357  1.00  0.00     0.127 S 
ATOM     88  O   UNL     1      -8.631  -7.173   2.240  1.00  0.00    -0.237 OA
ATOM     89  O   UNL     1      -8.084  -4.788   1.985  1.00  0.00    -0.237 OA
ATOM     90  O   UNL     1      -8.720  -6.106   0.013  1.00  0.00    -0.744 OA
ENDBRANCH  84  87
ENDBRANCH  56  80
BRANCH  68  91
ATOM     91  C   UNL     1      -5.178  -8.851  -7.284  1.00  0.00     0.023 A 
ATOM     92  C   UNL     1      -5.122 -10.245  -7.131  1.00  0.00     0.012 A 
ATOM     93  C   UNL     1      -5.768  -8.367  -8.475  1.00  0.00     0.148 A 
ATOM     94  C   UNL     1      -5.832 -11.102  -7.970  1.00  0.00     0.002 A 
ATOM     95  C   UNL     1      -6.423  -9.221  -9.345  1.00  0.00     0.091 A 
ATOM     96  F   UNL     1      -5.677  -7.075  -8.799  1.00  0.00    -0.205 F 
ATOM     97  C   UNL     1      -6.513 -10.585  -9.061  1.00  0.00     0.022 A 
BRANCH  95  98
ATOM     98  S   UNL     1      -7.145  -8.645 -10.883  1.00  0.00     0.127 S 
ATOM     99  O   UNL     1      -6.332  -9.362 -11.865  1.00  0.00    -0.237 OA
ATOM    100  O   UNL     1      -8.522  -9.121 -10.762  1.00  0.00    -0.237 OA
ATOM    101  O   UNL     1      -6.994  -7.197 -10.900  1.00  0.00    -0.744 OA
ENDBRANCH  95  98
ENDBRANCH  68  91
ENDBRANCH  42  43
ENDBRANCH  35  37
ENDBRANCH  34  35
ENDBRANCH  33  34
ENDBRANCH  32  33
ENDBRANCH   1  32
TORSDOF 20
