REMARK SMILES O=C1CC2(CC[NH+](CC(=O)OCCOCCOC(=O)c3ccc(-c4c5nc(c(-c6cccc(S(=O)(=O)[O-])c6F)c6ccc([nH]6)c(-c6cccc(S(=O)(=O)[O-])c6F)c6nc(c(-c7cccc(S(=O)(=O)[O-])c7F)c7ccc4[nH]7)C=C6)C=C5)cc3)CC2)N1
REMARK SMILES IDX 15 1 14 2 13 3 12 4 11 5 9 6 10 7 8 8 7 9 1 10 2 11 3 12
REMARK SMILES IDX 85 13 4 14 5 16 84 17 6 18 83 19 16 21 17 22 18 23 19 24
REMARK SMILES IDX 20 25 21 26 82 27 22 28 81 29 23 30 24 31 25 32 75 33 26 34
REMARK SMILES IDX 80 35 74 36 76 37 27 38 79 39 73 40 72 41 28 43 60 44 40 45
REMARK SMILES IDX 59 46 41 47 44 48 58 49 77 50 42 51 43 52 57 54 78 55 45 56
REMARK SMILES IDX 29 57 30 58 38 59 31 60 33 61 39 62 32 63 34 64 35 65 36 66
REMARK SMILES IDX 37 67 61 68 62 69 70 70 63 71 65 72 71 73 64 74 66 75 67 76
REMARK SMILES IDX 68 77 69 78 46 79 47 80 55 81 48 82 50 83 56 84 49 85 51 86
REMARK SMILES IDX 52 87 53 88 54 89
REMARK H PARENT 85 15 7 20 76 42 44 53
REMARK Flexibility Score: inf
ROOT
ATOM      1  C   UNL     1       3.370  -1.806   2.825  1.00  0.00     0.202 C 
ENDROOT
BRANCH   1   2
ATOM      2  O   UNL     1       3.810  -0.758   3.683  1.00  0.00    -0.374 OA
BRANCH   2   3
ATOM      3  C   UNL     1       4.679   0.195   3.056  1.00  0.00     0.202 C 
BRANCH   3   4
ATOM      4  C   UNL     1       6.159  -0.151   3.242  1.00  0.00     0.261 C 
BRANCH   4   5
ATOM      5  O   UNL     1       6.775  -0.627   2.025  1.00  0.00    -0.459 OA
BRANCH   5   6
ATOM      6  C   UNL     1       7.026  -1.959   1.929  1.00  0.00     0.361 C 
ATOM      7  O   UNL     1       6.577  -2.811   2.689  1.00  0.00    -0.245 OA
BRANCH   6   8
ATOM      8  C   UNL     1       8.022  -2.269   0.817  1.00  0.00     0.386 C 
BRANCH   8   9
ATOM      9  N   UNL     1       7.543  -2.219  -0.572  1.00  0.00    -0.326 N 
ATOM     10  O   UNL     1       2.122  -0.523  -2.875  1.00  0.00    -0.275 OA
ATOM     11  C   UNL     1       3.259  -0.631  -2.482  1.00  0.00     0.222 C 
ATOM     12  C   UNL     1       4.625  -1.112  -3.012  1.00  0.00     0.128 C 
ATOM     13  N   UNL     1       3.776  -0.423  -1.251  1.00  0.00    -0.350 N 
ATOM     14  C   UNL     1       5.056  -1.075  -1.512  1.00  0.00     0.059 C 
ATOM     15  H   UNL     1       3.413   0.019  -0.449  1.00  0.00     0.164 HD
ATOM     16  C   UNL     1       6.207  -0.154  -1.133  1.00  0.00     0.090 C 
ATOM     17  C   UNL     1       5.076  -2.399  -0.759  1.00  0.00     0.090 C 
ATOM     18  C   UNL     1       7.532  -0.911  -1.222  1.00  0.00     0.265 C 
ATOM     19  C   UNL     1       6.423  -3.082  -0.915  1.00  0.00     0.265 C 
ATOM     20  H   UNL     1       8.327  -2.683  -1.030  1.00  0.00     0.348 HD
ENDBRANCH   8   9
ENDBRANCH   6   8
ENDBRANCH   5   6
ENDBRANCH   4   5
ENDBRANCH   3   4
ENDBRANCH   2   3
ENDBRANCH   1   2
BRANCH   1  21
ATOM     21  C   UNL     1       2.051  -1.491   2.105  1.00  0.00     0.261 C 
BRANCH  21  22
ATOM     22  O   UNL     1       2.132  -0.271   1.343  1.00  0.00    -0.460 OA
BRANCH  22  23
ATOM     23  C   UNL     1       1.526   0.804   1.919  1.00  0.00     0.338 C 
ATOM     24  O   UNL     1       0.874   0.813   2.949  1.00  0.00    -0.246 OA
BRANCH  23  25
ATOM     25  C   UNL     1       1.888   2.036   1.181  1.00  0.00     0.060 A 
ATOM     26  C   UNL     1       2.144   3.197   1.916  1.00  0.00     0.016 A 
ATOM     27  C   UNL     1       1.967   2.069  -0.213  1.00  0.00     0.016 A 
ATOM     28  C   UNL     1       2.458   4.388   1.254  1.00  0.00     0.010 A 
ATOM     29  C   UNL     1       2.357   3.241  -0.868  1.00  0.00     0.010 A 
ATOM     30  C   UNL     1       2.556   4.428  -0.147  1.00  0.00    -0.014 A 
BRANCH  30  31
ATOM     31  C   UNL     1       2.752   5.731  -0.843  1.00  0.00     0.031 A 
ATOM     32  C   UNL     1       1.656   6.298  -1.714  1.00  0.00     0.074 A 
ATOM     33  C   UNL     1       3.898   6.427  -0.697  1.00  0.00     0.049 A 
ATOM     34  N   UNL     1       1.588   7.471  -2.291  1.00  0.00    -0.248 NA
ATOM     35  C   UNL     1       0.497   5.433  -1.990  1.00  0.00     0.031 C 
ATOM     36  C   UNL     1       5.083   5.970   0.031  1.00  0.00     0.029 A 
ATOM     37  N   UNL     1       4.252   7.672  -1.159  1.00  0.00    -0.354 N 
ATOM     38  C   UNL     1       0.401   7.471  -3.015  1.00  0.00     0.074 A 
ATOM     39  C   UNL     1      -0.197   6.166  -2.846  1.00  0.00     0.031 C 
ATOM     40  C   UNL     1       6.024   6.929  -0.019  1.00  0.00     0.029 A 
ATOM     41  C   UNL     1       5.510   8.071  -0.773  1.00  0.00     0.049 A 
ATOM     42  H   UNL     1       3.659   8.228  -1.714  1.00  0.00     0.167 HD
ATOM     43  C   UNL     1      -0.176   8.477  -3.715  1.00  0.00     0.034 A 
ATOM     44  C   UNL     1       6.164   9.233  -0.975  1.00  0.00     0.034 A 
ATOM     45  C   UNL     1       0.364   9.803  -3.822  1.00  0.00     0.049 A 
ATOM     46  C   UNL     1       5.468  10.368  -1.682  1.00  0.00     0.074 A 
ATOM     47  C   UNL     1      -0.208  10.920  -4.407  1.00  0.00     0.029 A 
ATOM     48  N   UNL     1       1.598  10.194  -3.333  1.00  0.00    -0.354 N 
ATOM     49  N   UNL     1       4.251  10.416  -2.167  1.00  0.00    -0.248 NA
ATOM     50  C   UNL     1       6.218  11.627  -1.823  1.00  0.00     0.031 C 
ATOM     51  C   UNL     1       0.684  11.989  -4.269  1.00  0.00     0.029 A 
ATOM     52  C   UNL     1       1.809  11.535  -3.601  1.00  0.00     0.049 A 
ATOM     53  H   UNL     1       2.232   9.605  -2.863  1.00  0.00     0.167 HD
ATOM     54  C   UNL     1       4.077  11.716  -2.634  1.00  0.00     0.074 A 
ATOM     55  C   UNL     1       5.306  12.430  -2.356  1.00  0.00     0.031 C 
ATOM     56  C   UNL     1       3.002  12.261  -3.254  1.00  0.00     0.034 A 
BRANCH  43  57
ATOM     57  C   UNL     1      -1.519   8.206  -4.338  1.00  0.00     0.023 A 
ATOM     58  C   UNL     1      -2.656   8.135  -3.507  1.00  0.00     0.012 A 
ATOM     59  C   UNL     1      -1.669   8.072  -5.731  1.00  0.00     0.148 A 
ATOM     60  C   UNL     1      -3.918   7.901  -4.048  1.00  0.00     0.002 A 
ATOM     61  C   UNL     1      -2.937   7.877  -6.267  1.00  0.00     0.091 A 
ATOM     62  F   UNL     1      -0.574   8.117  -6.502  1.00  0.00    -0.205 F 
ATOM     63  C   UNL     1      -4.060   7.782  -5.427  1.00  0.00     0.022 A 
BRANCH  61  64
ATOM     64  S   UNL     1      -3.227   7.787  -8.038  1.00  0.00     0.127 S 
ATOM     65  O   UNL     1      -3.389   6.349  -8.239  1.00  0.00    -0.237 OA
ATOM     66  O   UNL     1      -4.457   8.566  -8.193  1.00  0.00    -0.237 OA
ATOM     67  O   UNL     1      -2.055   8.386  -8.661  1.00  0.00    -0.744 OA
ENDBRANCH  61  64
ENDBRANCH  43  57
BRANCH  44  68
ATOM     68  C   UNL     1       7.523   9.430  -0.396  1.00  0.00     0.023 A 
ATOM     69  C   UNL     1       7.678  10.282   0.715  1.00  0.00     0.012 A 
ATOM     70  C   UNL     1       8.652   8.777  -0.924  1.00  0.00     0.148 A 
ATOM     71  C   UNL     1       8.938  10.505   1.271  1.00  0.00     0.002 A 
ATOM     72  C   UNL     1       9.898   8.967  -0.337  1.00  0.00     0.091 A 
ATOM     73  F   UNL     1       8.488   7.986  -1.994  1.00  0.00    -0.205 F 
ATOM     74  C   UNL     1      10.046   9.841   0.752  1.00  0.00     0.022 A 
BRANCH  72  75
ATOM     75  S   UNL     1      11.352   8.057  -0.871  1.00  0.00     0.127 S 
ATOM     76  O   UNL     1      12.055   9.056  -1.671  1.00  0.00    -0.237 OA
ATOM     77  O   UNL     1      11.993   7.724   0.403  1.00  0.00    -0.237 OA
ATOM     78  O   UNL     1      10.837   6.902  -1.595  1.00  0.00    -0.744 OA
ENDBRANCH  72  75
ENDBRANCH  44  68
BRANCH  56  79
ATOM     79  C   UNL     1       3.076  13.708  -3.663  1.00  0.00     0.023 A 
ATOM     80  C   UNL     1       3.841  14.070  -4.789  1.00  0.00     0.012 A 
ATOM     81  C   UNL     1       2.313  14.690  -3.001  1.00  0.00     0.148 A 
ATOM     82  C   UNL     1       3.861  15.390  -5.238  1.00  0.00     0.002 A 
ATOM     83  C   UNL     1       2.307  15.997  -3.478  1.00  0.00     0.091 A 
ATOM     84  F   UNL     1       1.608  14.333  -1.917  1.00  0.00    -0.205 F 
ATOM     85  C   UNL     1       3.085  16.349  -4.592  1.00  0.00     0.022 A 
BRANCH  83  86
ATOM     86  S   UNL     1       1.264  17.270  -2.756  1.00  0.00     0.127 S 
ATOM     87  O   UNL     1       2.215  17.994  -1.913  1.00  0.00    -0.237 OA
ATOM     88  O   UNL     1       0.807  18.011  -3.932  1.00  0.00    -0.237 OA
ATOM     89  O   UNL     1       0.207  16.559  -2.049  1.00  0.00    -0.744 OA
ENDBRANCH  83  86
ENDBRANCH  56  79
ENDBRANCH  30  31
ENDBRANCH  23  25
ENDBRANCH  22  23
ENDBRANCH  21  22
ENDBRANCH   1  21
TORSDOF 18
