REMARK SMILES O=C(OCCOCCOC(=O)c1ccc(-c2c(F)cccc2F)cn1)c1ccc(-c2c3nc(c(-c4cccc(S(=O)(=O)[O-])c4F)c4ccc([nH]4)c(-c4cccc(S(=O)(=O)[O-])c4F)c4nc(c(-c5cccc(S(=O)(=O)[O-])c5F)c5ccc2[nH]5)C=C4)C=C3)cc1
REMARK SMILES IDX 5 1 4 2 3 3 2 4 1 5 26 6 27 7 88 8 28 9 87 10 29 11 30 12
REMARK SMILES IDX 31 13 81 14 32 15 86 16 80 17 82 18 33 19 85 20 79 21 78 22
REMARK SMILES IDX 34 24 66 25 46 26 65 27 47 28 50 29 64 30 83 31 48 32 49 33
REMARK SMILES IDX 63 35 84 36 51 37 35 38 36 39 44 40 37 41 39 42 45 43 38 44
REMARK SMILES IDX 40 45 41 46 42 47 43 48 67 49 68 50 76 51 69 52 71 53 77 54
REMARK SMILES IDX 70 55 72 56 73 57 74 58 75 59 52 60 53 61 61 62 54 63 56 64
REMARK SMILES IDX 62 65 55 66 57 67 58 68 59 69 60 70 6 71 7 72 8 73 9 74
REMARK SMILES IDX 10 75 11 76 12 77 13 78 25 79 14 80 24 81 15 82 16 83 17 84
REMARK SMILES IDX 22 85 18 86 19 87 21 88 23 89 20 90
REMARK H PARENT 82 23 50 34
REMARK Flexibility Score: inf
ROOT
ATOM      1  C   UNL     1       4.201   0.718  -1.650  1.00  0.00     0.202 C 
ENDROOT
BRANCH   1   2
ATOM      2  C   UNL     1       3.958  -0.723  -1.192  1.00  0.00     0.261 C 
BRANCH   2   3
ATOM      3  O   UNL     1       2.588  -0.895  -0.789  1.00  0.00    -0.460 OA
BRANCH   3   4
ATOM      4  C   UNL     1       2.071  -0.944   0.462  1.00  0.00     0.338 C 
ATOM      5  O   UNL     1       0.862  -1.145   0.576  1.00  0.00    -0.246 OA
BRANCH   4   6
ATOM      6  C   UNL     1       2.876  -0.778   1.714  1.00  0.00     0.060 A 
ATOM      7  C   UNL     1       4.088  -0.092   1.812  1.00  0.00     0.016 A 
ATOM      8  C   UNL     1       2.313  -1.280   2.901  1.00  0.00     0.016 A 
ATOM      9  C   UNL     1       4.755   0.043   3.022  1.00  0.00     0.010 A 
ATOM     10  C   UNL     1       2.957  -1.115   4.132  1.00  0.00     0.010 A 
ATOM     11  C   UNL     1       4.193  -0.466   4.188  1.00  0.00    -0.014 A 
BRANCH  11  12
ATOM     12  C   UNL     1       4.968  -0.353   5.436  1.00  0.00     0.031 A 
ATOM     13  C   UNL     1       5.688  -1.562   5.945  1.00  0.00     0.074 A 
ATOM     14  C   UNL     1       5.096   0.849   6.026  1.00  0.00     0.049 A 
ATOM     15  N   UNL     1       6.446  -1.685   6.999  1.00  0.00    -0.248 NA
ATOM     16  C   UNL     1       5.548  -2.796   5.152  1.00  0.00     0.031 C 
ATOM     17  C   UNL     1       4.482   2.090   5.546  1.00  0.00     0.029 A 
ATOM     18  N   UNL     1       5.792   1.230   7.141  1.00  0.00    -0.354 N 
ATOM     19  C   UNL     1       6.842  -3.015   7.021  1.00  0.00     0.074 A 
ATOM     20  C   UNL     1       6.251  -3.660   5.870  1.00  0.00     0.031 C 
ATOM     21  C   UNL     1       4.833   3.096   6.362  1.00  0.00     0.029 A 
ATOM     22  C   UNL     1       5.657   2.564   7.442  1.00  0.00     0.049 A 
ATOM     23  H   UNL     1       6.338   0.608   7.675  1.00  0.00     0.167 HD
ATOM     24  C   UNL     1       7.631  -3.638   7.926  1.00  0.00     0.034 A 
ATOM     25  C   UNL     1       6.131   3.266   8.490  1.00  0.00     0.034 A 
ATOM     26  C   UNL     1       8.213  -2.971   9.056  1.00  0.00     0.049 A 
ATOM     27  C   UNL     1       6.978   2.538   9.499  1.00  0.00     0.074 A 
ATOM     28  C   UNL     1       9.003  -3.500  10.058  1.00  0.00     0.029 A 
ATOM     29  N   UNL     1       8.058  -1.619   9.334  1.00  0.00    -0.354 N 
ATOM     30  N   UNL     1       7.381   1.289   9.489  1.00  0.00    -0.248 NA
ATOM     31  C   UNL     1       7.450   3.313  10.653  1.00  0.00     0.031 C 
ATOM     32  C   UNL     1       9.309  -2.470  10.954  1.00  0.00     0.029 A 
ATOM     33  C   UNL     1       8.730  -1.295  10.497  1.00  0.00     0.049 A 
ATOM     34  H   UNL     1       7.545  -0.985   8.783  1.00  0.00     0.167 HD
ATOM     35  C   UNL     1       8.168   1.131  10.621  1.00  0.00     0.074 A 
ATOM     36  C   UNL     1       8.209   2.423  11.280  1.00  0.00     0.031 C 
ATOM     37  C   UNL     1       8.784   0.018  11.092  1.00  0.00     0.034 A 
BRANCH  24  38
ATOM     38  C   UNL     1       7.877  -5.107   7.725  1.00  0.00     0.023 A 
ATOM     39  C   UNL     1       8.760  -5.541   6.715  1.00  0.00     0.012 A 
ATOM     40  C   UNL     1       7.220  -6.060   8.527  1.00  0.00     0.148 A 
ATOM     41  C   UNL     1       8.958  -6.902   6.484  1.00  0.00     0.002 A 
ATOM     42  C   UNL     1       7.449  -7.414   8.313  1.00  0.00     0.091 A 
ATOM     43  F   UNL     1       6.361  -5.626   9.460  1.00  0.00    -0.205 F 
ATOM     44  C   UNL     1       8.309  -7.837   7.287  1.00  0.00     0.022 A 
BRANCH  42  45
ATOM     45  S   UNL     1       6.695  -8.694   9.323  1.00  0.00     0.127 S 
ATOM     46  O   UNL     1       5.741  -9.285   8.386  1.00  0.00    -0.237 OA
ATOM     47  O   UNL     1       7.841  -9.545   9.645  1.00  0.00    -0.237 OA
ATOM     48  O   UNL     1       6.107  -8.010  10.466  1.00  0.00    -0.744 OA
ENDBRANCH  42  45
ENDBRANCH  24  38
BRANCH  25  49
ATOM     49  C   UNL     1       5.827   4.720   8.620  1.00  0.00     0.023 A 
ATOM     50  C   UNL     1       6.865   5.665   8.504  1.00  0.00     0.012 A 
ATOM     51  C   UNL     1       4.509   5.176   8.823  1.00  0.00     0.148 A 
ATOM     52  C   UNL     1       6.599   7.032   8.610  1.00  0.00     0.002 A 
ATOM     53  C   UNL     1       4.242   6.540   8.871  1.00  0.00     0.091 A 
ATOM     54  F   UNL     1       3.534   4.266   8.958  1.00  0.00    -0.205 F 
ATOM     55  C   UNL     1       5.288   7.470   8.781  1.00  0.00     0.022 A 
BRANCH  53  56
ATOM     56  S   UNL     1       2.567   7.185   8.957  1.00  0.00     0.127 S 
ATOM     57  O   UNL     1       2.480   7.608  10.352  1.00  0.00    -0.237 OA
ATOM     58  O   UNL     1       2.607   8.277   7.984  1.00  0.00    -0.237 OA
ATOM     59  O   UNL     1       1.704   6.076   8.573  1.00  0.00    -0.744 OA
ENDBRANCH  53  56
ENDBRANCH  25  49
BRANCH  37  60
ATOM     60  C   UNL     1       9.564   0.152  12.370  1.00  0.00     0.023 A 
ATOM     61  C   UNL     1       8.878   0.244  13.597  1.00  0.00     0.012 A 
ATOM     62  C   UNL     1      10.970   0.089  12.361  1.00  0.00     0.148 A 
ATOM     63  C   UNL     1       9.584   0.294  14.797  1.00  0.00     0.002 A 
ATOM     64  C   UNL     1      11.665   0.090  13.563  1.00  0.00     0.091 A 
ATOM     65  F   UNL     1      11.601   0.024  11.179  1.00  0.00    -0.205 F 
ATOM     66  C   UNL     1      10.974   0.203  14.781  1.00  0.00     0.022 A 
BRANCH  64  67
ATOM     67  S   UNL     1      13.445  -0.128  13.638  1.00  0.00     0.127 S 
ATOM     68  O   UNL     1      13.901   1.231  13.924  1.00  0.00    -0.237 OA
ATOM     69  O   UNL     1      13.599  -1.070  14.747  1.00  0.00    -0.237 OA
ATOM     70  O   UNL     1      13.836  -0.661  12.339  1.00  0.00    -0.744 OA
ENDBRANCH  64  67
ENDBRANCH  37  60
ENDBRANCH  11  12
ENDBRANCH   4   6
ENDBRANCH   3   4
ENDBRANCH   2   3
ENDBRANCH   1   2
BRANCH   1  71
ATOM     71  O   UNL     1       3.939   1.694  -0.642  1.00  0.00    -0.374 OA
BRANCH  71  72
ATOM     72  C   UNL     1       2.594   2.178  -0.568  1.00  0.00     0.202 C 
BRANCH  72  73
ATOM     73  C   UNL     1       2.606   3.707  -0.641  1.00  0.00     0.261 C 
BRANCH  73  74
ATOM     74  O   UNL     1       3.099   4.082  -1.938  1.00  0.00    -0.459 OA
BRANCH  74  75
ATOM     75  C   UNL     1       4.455   4.186  -2.008  1.00  0.00     0.356 C 
ATOM     76  O   UNL     1       5.219   4.439  -1.092  1.00  0.00    -0.244 OA
BRANCH  75  77
ATOM     77  C   UNL     1       4.866   3.778  -3.380  1.00  0.00     0.148 A 
ATOM     78  C   UNL     1       4.107   4.142  -4.484  1.00  0.00     0.037 A 
ATOM     79  N   UNL     1       5.981   3.005  -3.464  1.00  0.00    -0.249 NA
ATOM     80  C   UNL     1       4.535   3.727  -5.742  1.00  0.00     0.013 A 
ATOM     81  C   UNL     1       6.363   2.609  -4.697  1.00  0.00     0.121 A 
ATOM     82  C   UNL     1       5.699   2.958  -5.870  1.00  0.00     0.006 A 
BRANCH  82  83
ATOM     83  C   UNL     1       6.245   2.630  -7.183  1.00  0.00     0.055 A 
ATOM     84  C   UNL     1       6.861   3.626  -7.951  1.00  0.00     0.134 A 
ATOM     85  C   UNL     1       6.191   1.342  -7.723  1.00  0.00     0.134 A 
ATOM     86  F   UNL     1       6.950   4.878  -7.476  1.00  0.00    -0.206 F 
ATOM     87  C   UNL     1       7.396   3.360  -9.209  1.00  0.00     0.040 A 
ATOM     88  C   UNL     1       6.717   1.060  -8.985  1.00  0.00     0.040 A 
ATOM     89  F   UNL     1       5.619   0.344  -7.034  1.00  0.00    -0.206 F 
ATOM     90  C   UNL     1       7.321   2.072  -9.732  1.00  0.00     0.006 A 
ENDBRANCH  82  83
ENDBRANCH  75  77
ENDBRANCH  74  75
ENDBRANCH  73  74
ENDBRANCH  72  73
ENDBRANCH  71  72
ENDBRANCH   1  71
TORSDOF 18
