REMARK SMILES O=C(OCCOCCOC(=O)[C@H]1CC[C@@H](CNc2ccccc2C(F)(F)F)O1)c1ccc(-c2c3nc(c(-c4cccc(S(=O)(=O)[O-])c4F)c4ccc([nH]4)c(-c4cccc(S(=O)(=O)[O-])c4F)c4nc(c(-c5cccc(S(=O)(=O)[O-])c5F)c5ccc2[nH]5)C=C4)C=C3)cc1
REMARK SMILES IDX 7 1 6 2 5 3 4 4 3 5 2 6 1 7 29 8 30 9 91 10 31 11 90 12
REMARK SMILES IDX 32 13 33 14 34 15 84 16 35 17 89 18 83 19 85 20 36 21 88 22
REMARK SMILES IDX 82 23 81 24 37 26 69 27 49 28 68 29 50 30 53 31 67 32 86 33
REMARK SMILES IDX 51 34 52 35 66 37 87 38 54 39 38 40 39 41 47 42 40 43 42 44
REMARK SMILES IDX 48 45 41 46 43 47 44 48 45 49 46 50 70 51 71 52 79 53 72 54
REMARK SMILES IDX 74 55 80 56 73 57 75 58 76 59 77 60 78 61 55 62 56 63 64 64
REMARK SMILES IDX 57 65 59 66 65 67 58 68 60 69 61 70 62 71 63 72 8 73 9 74
REMARK SMILES IDX 10 75 11 76 12 77 13 78 28 79 14 80 15 81 16 82 17 83 18 85
REMARK SMILES IDX 19 86 23 87 20 88 22 89 21 90 24 91 25 92 26 93 27 94
REMARK H PARENT 85 25 53 36 17 84
REMARK Flexibility Score: inf
ROOT
ATOM      1  C   UNL     1       7.599   0.778   2.726  1.00  0.00     0.202 C 
ENDROOT
BRANCH   1   2
ATOM      2  O   UNL     1       7.872   1.990   2.029  1.00  0.00    -0.374 OA
BRANCH   2   3
ATOM      3  C   UNL     1       6.896   2.317   1.040  1.00  0.00     0.202 C 
BRANCH   3   4
ATOM      4  C   UNL     1       7.234   1.899  -0.383  1.00  0.00     0.261 C 
BRANCH   4   5
ATOM      5  O   UNL     1       7.806   0.591  -0.424  1.00  0.00    -0.460 OA
BRANCH   5   6
ATOM      6  C   UNL     1       9.073   0.314  -0.808  1.00  0.00     0.338 C 
ATOM      7  O   UNL     1       9.321  -0.805  -1.253  1.00  0.00    -0.246 OA
BRANCH   6   8
ATOM      8  C   UNL     1      10.187   1.304  -0.665  1.00  0.00     0.060 A 
ATOM      9  C   UNL     1      10.104   2.497   0.053  1.00  0.00     0.016 A 
ATOM     10  C   UNL     1      11.425   0.968  -1.232  1.00  0.00     0.016 A 
ATOM     11  C   UNL     1      11.177   3.353   0.183  1.00  0.00     0.010 A 
ATOM     12  C   UNL     1      12.542   1.786  -1.040  1.00  0.00     0.010 A 
ATOM     13  C   UNL     1      12.414   2.976  -0.318  1.00  0.00    -0.014 A 
BRANCH  13  14
ATOM     14  C   UNL     1      13.535   3.885  -0.057  1.00  0.00     0.031 A 
ATOM     15  C   UNL     1      14.069   4.702  -1.183  1.00  0.00     0.074 A 
ATOM     16  C   UNL     1      13.947   4.044   1.215  1.00  0.00     0.049 A 
ATOM     17  N   UNL     1      15.069   5.534  -1.186  1.00  0.00    -0.248 NA
ATOM     18  C   UNL     1      13.375   4.576  -2.477  1.00  0.00     0.031 C 
ATOM     19  C   UNL     1      13.378   3.353   2.379  1.00  0.00     0.029 A 
ATOM     20  N   UNL     1      14.912   4.850   1.752  1.00  0.00    -0.354 N 
ATOM     21  C   UNL     1      15.172   5.982  -2.494  1.00  0.00     0.074 A 
ATOM     22  C   UNL     1      14.112   5.357  -3.252  1.00  0.00     0.031 C 
ATOM     23  C   UNL     1      13.992   3.780   3.492  1.00  0.00     0.029 A 
ATOM     24  C   UNL     1      15.051   4.704   3.112  1.00  0.00     0.049 A 
ATOM     25  H   UNL     1      15.454   5.474   1.217  1.00  0.00     0.167 HD
ATOM     26  C   UNL     1      16.088   6.833  -3.005  1.00  0.00     0.034 A 
ATOM     27  C   UNL     1      15.970   5.228   3.943  1.00  0.00     0.034 A 
ATOM     28  C   UNL     1      17.115   7.441  -2.207  1.00  0.00     0.049 A 
ATOM     29  C   UNL     1      17.005   6.132   3.336  1.00  0.00     0.074 A 
ATOM     30  C   UNL     1      18.137   8.281  -2.604  1.00  0.00     0.029 A 
ATOM     31  N   UNL     1      17.246   7.263  -0.834  1.00  0.00    -0.354 N 
ATOM     32  N   UNL     1      17.107   6.548   2.094  1.00  0.00    -0.248 NA
ATOM     33  C   UNL     1      18.047   6.643   4.231  1.00  0.00     0.031 C 
ATOM     34  C   UNL     1      18.900   8.592  -1.473  1.00  0.00     0.029 A 
ATOM     35  C   UNL     1      18.335   7.972  -0.366  1.00  0.00     0.049 A 
ATOM     36  H   UNL     1      16.649   6.713  -0.277  1.00  0.00     0.167 HD
ATOM     37  C   UNL     1      18.213   7.382   2.060  1.00  0.00     0.074 A 
ATOM     38  C   UNL     1      18.728   7.437   3.416  1.00  0.00     0.031 C 
ATOM     39  C   UNL     1      18.774   8.028   1.007  1.00  0.00     0.034 A 
BRANCH  26  40
ATOM     40  C   UNL     1      16.034   7.091  -4.484  1.00  0.00     0.023 A 
ATOM     41  C   UNL     1      15.016   7.900  -5.028  1.00  0.00     0.012 A 
ATOM     42  C   UNL     1      16.982   6.501  -5.342  1.00  0.00     0.148 A 
ATOM     43  C   UNL     1      14.921   8.087  -6.407  1.00  0.00     0.002 A 
ATOM     44  C   UNL     1      16.905   6.723  -6.710  1.00  0.00     0.091 A 
ATOM     45  F   UNL     1      17.921   5.708  -4.806  1.00  0.00    -0.205 F 
ATOM     46  C   UNL     1      15.868   7.505  -7.246  1.00  0.00     0.022 A 
BRANCH  44  47
ATOM     47  S   UNL     1      18.105   6.059  -7.870  1.00  0.00     0.127 S 
ATOM     48  O   UNL     1      17.293   5.099  -8.617  1.00  0.00    -0.237 OA
ATOM     49  O   UNL     1      18.490   7.251  -8.625  1.00  0.00    -0.237 OA
ATOM     50  O   UNL     1      19.168   5.479  -7.062  1.00  0.00    -0.744 OA
ENDBRANCH  44  47
ENDBRANCH  26  40
BRANCH  27  51
ATOM     51  C   UNL     1      15.962   4.892   5.397  1.00  0.00     0.023 A 
ATOM     52  C   UNL     1      15.722   5.902   6.348  1.00  0.00     0.012 A 
ATOM     53  C   UNL     1      16.172   3.571   5.844  1.00  0.00     0.148 A 
ATOM     54  C   UNL     1      15.718   5.608   7.714  1.00  0.00     0.002 A 
ATOM     55  C   UNL     1      16.109   3.275   7.201  1.00  0.00     0.091 A 
ATOM     56  F   UNL     1      16.424   2.622   4.931  1.00  0.00    -0.205 F 
ATOM     57  C   UNL     1      15.900   4.295   8.140  1.00  0.00     0.022 A 
BRANCH  55  58
ATOM     58  S   UNL     1      16.203   1.590   7.821  1.00  0.00     0.127 S 
ATOM     59  O   UNL     1      17.548   1.553   8.384  1.00  0.00    -0.237 OA
ATOM     60  O   UNL     1      15.121   1.564   8.805  1.00  0.00    -0.237 OA
ATOM     61  O   UNL     1      15.974   0.736   6.661  1.00  0.00    -0.744 OA
ENDBRANCH  55  58
ENDBRANCH  27  51
BRANCH  39  62
ATOM     62  C   UNL     1      19.983   8.870   1.296  1.00  0.00     0.023 A 
ATOM     63  C   UNL     1      21.223   8.250   1.543  1.00  0.00     0.012 A 
ATOM     64  C   UNL     1      19.901  10.273   1.233  1.00  0.00     0.148 A 
ATOM     65  C   UNL     1      22.364   9.021   1.752  1.00  0.00     0.002 A 
ATOM     66  C   UNL     1      21.052  11.031   1.387  1.00  0.00     0.091 A 
ATOM     67  F   UNL     1      18.703  10.836   1.018  1.00  0.00    -0.205 F 
ATOM     68  C   UNL     1      22.282  10.409   1.659  1.00  0.00     0.022 A 
BRANCH  66  69
ATOM     69  S   UNL     1      21.055  12.813   1.174  1.00  0.00     0.127 S 
ATOM     70  O   UNL     1      21.181  13.278   2.554  1.00  0.00    -0.237 OA
ATOM     71  O   UNL     1      22.242  13.025   0.346  1.00  0.00    -0.237 OA
ATOM     72  O   UNL     1      19.797  13.139   0.515  1.00  0.00    -0.744 OA
ENDBRANCH  66  69
ENDBRANCH  39  62
ENDBRANCH  13  14
ENDBRANCH   6   8
ENDBRANCH   5   6
ENDBRANCH   4   5
ENDBRANCH   3   4
ENDBRANCH   2   3
ENDBRANCH   1   2
BRANCH   1  73
ATOM     73  C   UNL     1       6.636   0.993   3.901  1.00  0.00     0.261 C 
BRANCH  73  74
ATOM     74  O   UNL     1       5.421   1.653   3.475  1.00  0.00    -0.461 OA
BRANCH  74  75
ATOM     75  C   UNL     1       5.413   3.016   3.613  1.00  0.00     0.335 C 
ATOM     76  O   UNL     1       6.224   3.653   4.274  1.00  0.00    -0.249 OA
BRANCH  75  77
ATOM     77  C   UNL     1       4.247   3.655   2.810  1.00  0.00     0.228 C 
ATOM     78  C   UNL     1       3.965   5.059   3.348  1.00  0.00     0.047 C 
ATOM     79  O   UNL     1       4.428   3.810   1.375  1.00  0.00    -0.361 OA
ATOM     80  C   UNL     1       4.569   5.945   2.278  1.00  0.00     0.037 C 
ATOM     81  C   UNL     1       4.154   5.187   1.030  1.00  0.00     0.138 C 
BRANCH  81  82
ATOM     82  C   UNL     1       4.719   5.767  -0.305  1.00  0.00     0.145 C 
BRANCH  82  83
ATOM     83  N   UNL     1       5.725   4.957  -0.987  1.00  0.00    -0.382 N 
ATOM     84  H   UNL     1       6.319   4.390  -0.444  1.00  0.00     0.160 HD
BRANCH  83  85
ATOM     85  C   UNL     1       5.882   4.952  -2.377  1.00  0.00     0.046 A 
ATOM     86  C   UNL     1       5.885   3.688  -2.997  1.00  0.00     0.026 A 
ATOM     87  C   UNL     1       6.239   6.053  -3.178  1.00  0.00     0.079 A 
ATOM     88  C   UNL     1       6.279   3.483  -4.321  1.00  0.00     0.002 A 
ATOM     89  C   UNL     1       6.611   5.839  -4.533  1.00  0.00     0.015 A 
ATOM     90  C   UNL     1       6.657   4.565  -5.092  1.00  0.00     0.001 A 
BRANCH  87  91
ATOM     91  C   UNL     1       6.194   7.481  -2.701  1.00  0.00     0.418 C 
ATOM     92  F   UNL     1       6.839   8.351  -3.534  1.00  0.00    -0.166 F 
ATOM     93  F   UNL     1       4.914   7.951  -2.622  1.00  0.00    -0.166 F 
ATOM     94  F   UNL     1       6.746   7.685  -1.474  1.00  0.00    -0.166 F 
ENDBRANCH  87  91
ENDBRANCH  83  85
ENDBRANCH  82  83
ENDBRANCH  81  82
ENDBRANCH  75  77
ENDBRANCH  74  75
ENDBRANCH  73  74
ENDBRANCH   1  73
TORSDOF 21
