REMARK SMILES O=C(C[NH+]1CCC(C(=O)OCCOCCOC(=O)c2ccc(-c3c4nc(c(-c5cccc(S(=O)(=O)[O-])c5F)c5ccc([nH]5)c(-c5cccc(S(=O)(=O)[O-])c5F)c5nc(c(-c6cccc(S(=O)(=O)[O-])c6F)c6ccc3[nH]6)C=C5)C=C4)cc2)CC1)Nc1ccccc1Oc1ccccc1
REMARK SMILES IDX 12 1 11 2 10 3 8 4 9 5 7 6 4 7 5 8 83 9 6 11 82 12 3 13 2 14
REMARK SMILES IDX 1 15 84 16 85 18 86 19 90 20 87 21 89 22 88 23 91 24 92 25
REMARK SMILES IDX 93 26 97 27 94 28 96 29 95 30 13 31 14 32 15 33 16 34 17 35
REMARK SMILES IDX 18 36 19 37 20 38 81 39 21 40 80 41 22 42 23 43 24 44 74 45
REMARK SMILES IDX 25 46 79 47 73 48 75 49 26 50 78 51 72 52 71 53 27 55 59 56
REMARK SMILES IDX 39 57 58 58 40 59 43 60 57 61 76 62 41 63 42 64 56 66 77 67
REMARK SMILES IDX 44 68 28 69 29 70 37 71 30 72 32 73 38 74 31 75 33 76 34 77
REMARK SMILES IDX 35 78 36 79 60 80 61 81 69 82 62 83 64 84 70 85 63 86 65 87
REMARK SMILES IDX 66 88 67 89 68 90 45 91 46 92 54 93 47 94 49 95 55 96 48 97
REMARK SMILES IDX 50 98 51 99 52 100 53 101
REMARK H PARENT 4 10 84 17 75 54 43 65
REMARK Flexibility Score: inf
ROOT
ATOM      1  C   UNL     1       8.161   1.303   6.725  1.00  0.00     0.202 C 
ENDROOT
BRANCH   1   2
ATOM      2  C   UNL     1       7.727   2.653   6.144  1.00  0.00     0.261 C 
BRANCH   2   3
ATOM      3  O   UNL     1       6.873   2.448   5.004  1.00  0.00    -0.463 OA
BRANCH   3   4
ATOM      4  C   UNL     1       7.315   2.899   3.803  1.00  0.00     0.309 C 
ATOM      5  O   UNL     1       8.326   3.565   3.621  1.00  0.00    -0.252 OA
BRANCH   4   6
ATOM      6  C   UNL     1       6.402   2.463   2.674  1.00  0.00     0.110 C 
ATOM      7  N   UNL     1       3.775   1.586   1.717  1.00  0.00    -0.327 N 
ATOM      8  C   UNL     1       4.892   0.645   1.753  1.00  0.00     0.263 C 
ATOM      9  C   UNL     1       4.257   2.962   1.484  1.00  0.00     0.263 C 
ATOM     10  H   UNL     1       3.317   1.508   2.625  1.00  0.00     0.348 HD
ATOM     11  C   UNL     1       5.925   1.016   2.806  1.00  0.00     0.077 C 
ATOM     12  C   UNL     1       5.222   3.418   2.570  1.00  0.00     0.077 C 
BRANCH   7  13
ATOM     13  C   UNL     1       2.798   1.268   0.649  1.00  0.00     0.363 C 
BRANCH  13  14
ATOM     14  C   UNL     1       2.038  -0.050   0.819  1.00  0.00     0.279 C 
ATOM     15  O   UNL     1       0.916  -0.107   1.317  1.00  0.00    -0.268 OA
ATOM     16  N   UNL     1       2.711  -1.139   0.285  1.00  0.00    -0.318 N 
ATOM     17  H   UNL     1       3.673  -1.046   0.096  1.00  0.00     0.170 HD
BRANCH  16  18
ATOM     18  C   UNL     1       2.093  -2.367   0.001  1.00  0.00     0.084 A 
ATOM     19  C   UNL     1       2.666  -3.494   0.611  1.00  0.00     0.030 A 
ATOM     20  C   UNL     1       0.984  -2.521  -0.848  1.00  0.00     0.150 A 
ATOM     21  C   UNL     1       2.089  -4.755   0.461  1.00  0.00     0.002 A 
ATOM     22  C   UNL     1       0.424  -3.801  -0.996  1.00  0.00     0.049 A 
ATOM     23  C   UNL     1       0.963  -4.908  -0.339  1.00  0.00     0.004 A 
BRANCH  20  24
ATOM     24  O   UNL     1       0.317  -1.567  -1.588  1.00  0.00    -0.455 OA
BRANCH  24  25
ATOM     25  C   UNL     1       0.926  -0.413  -2.009  1.00  0.00     0.127 A 
ATOM     26  C   UNL     1       0.224   0.769  -1.757  1.00  0.00     0.047 A 
ATOM     27  C   UNL     1       2.137  -0.370  -2.703  1.00  0.00     0.047 A 
ATOM     28  C   UNL     1       0.763   2.001  -2.123  1.00  0.00     0.004 A 
ATOM     29  C   UNL     1       2.677   0.868  -3.071  1.00  0.00     0.004 A 
ATOM     30  C   UNL     1       1.996   2.052  -2.772  1.00  0.00     0.000 A 
ENDBRANCH  24  25
ENDBRANCH  20  24
ENDBRANCH  16  18
ENDBRANCH  13  14
ENDBRANCH   7  13
ENDBRANCH   4   6
ENDBRANCH   3   4
ENDBRANCH   2   3
ENDBRANCH   1   2
BRANCH   1  31
ATOM     31  O   UNL     1       9.191   0.620   6.002  1.00  0.00    -0.374 OA
BRANCH  31  32
ATOM     32  C   UNL     1       8.784  -0.070   4.823  1.00  0.00     0.202 C 
BRANCH  32  33
ATOM     33  C   UNL     1       8.215  -1.481   5.022  1.00  0.00     0.261 C 
BRANCH  33  34
ATOM     34  O   UNL     1       7.012  -1.478   5.810  1.00  0.00    -0.460 OA
BRANCH  34  35
ATOM     35  C   UNL     1       7.175  -1.920   7.078  1.00  0.00     0.338 C 
ATOM     36  O   UNL     1       8.193  -2.403   7.564  1.00  0.00    -0.246 OA
BRANCH  35  37
ATOM     37  C   UNL     1       5.996  -1.589   7.897  1.00  0.00     0.060 A 
ATOM     38  C   UNL     1       6.227  -0.903   9.098  1.00  0.00     0.016 A 
ATOM     39  C   UNL     1       4.707  -2.002   7.552  1.00  0.00     0.016 A 
ATOM     40  C   UNL     1       5.179  -0.680   9.986  1.00  0.00     0.010 A 
ATOM     41  C   UNL     1       3.657  -1.782   8.451  1.00  0.00     0.010 A 
ATOM     42  C   UNL     1       3.896  -1.159   9.689  1.00  0.00    -0.014 A 
BRANCH  42  43
ATOM     43  C   UNL     1       2.855  -1.138  10.745  1.00  0.00     0.031 A 
ATOM     44  C   UNL     1       2.583  -2.396  11.526  1.00  0.00     0.074 A 
ATOM     45  C   UNL     1       2.184  -0.008  11.030  1.00  0.00     0.049 A 
ATOM     46  N   UNL     1       1.740  -2.597  12.505  1.00  0.00    -0.248 NA
ATOM     47  C   UNL     1       3.367  -3.586  11.154  1.00  0.00     0.031 C 
ATOM     48  C   UNL     1       2.365   1.274  10.352  1.00  0.00     0.029 A 
ATOM     49  N   UNL     1       1.204   0.236  11.959  1.00  0.00    -0.354 N 
ATOM     50  C   UNL     1       1.873  -3.937  12.851  1.00  0.00     0.074 A 
ATOM     51  C   UNL     1       2.867  -4.505  11.967  1.00  0.00     0.031 C 
ATOM     52  C   UNL     1       1.507   2.168  10.874  1.00  0.00     0.029 A 
ATOM     53  C   UNL     1       0.705   1.516  11.909  1.00  0.00     0.049 A 
ATOM     54  H   UNL     1       0.888  -0.441  12.600  1.00  0.00     0.167 HD
ATOM     55  C   UNL     1       1.241  -4.628  13.829  1.00  0.00     0.034 A 
ATOM     56  C   UNL     1      -0.293   2.091  12.609  1.00  0.00     0.034 A 
ATOM     57  C   UNL     1       0.269  -4.058  14.721  1.00  0.00     0.049 A 
ATOM     58  C   UNL     1      -1.003   1.290  13.671  1.00  0.00     0.074 A 
ATOM     59  C   UNL     1      -0.393  -4.664  15.774  1.00  0.00     0.029 A 
ATOM     60  N   UNL     1      -0.191  -2.752  14.658  1.00  0.00    -0.354 N 
ATOM     61  N   UNL     1      -0.776   0.062  14.071  1.00  0.00    -0.248 NA
ATOM     62  C   UNL     1      -2.085   1.967  14.402  1.00  0.00     0.031 C 
ATOM     63  C   UNL     1      -1.272  -3.730  16.333  1.00  0.00     0.029 A 
ATOM     64  C   UNL     1      -1.139  -2.535  15.644  1.00  0.00     0.049 A 
ATOM     65  H   UNL     1       0.111  -2.077  14.008  1.00  0.00     0.167 HD
ATOM     66  C   UNL     1      -1.658  -0.168  15.122  1.00  0.00     0.074 A 
ATOM     67  C   UNL     1      -2.411   1.055  15.309  1.00  0.00     0.031 C 
ATOM     68  C   UNL     1      -1.839  -1.294  15.856  1.00  0.00     0.034 A 
BRANCH  55  69
ATOM     69  C   UNL     1       1.608  -6.079  14.004  1.00  0.00     0.023 A 
ATOM     70  C   UNL     1       2.853  -6.418  14.572  1.00  0.00     0.012 A 
ATOM     71  C   UNL     1       0.707  -7.103  13.652  1.00  0.00     0.148 A 
ATOM     72  C   UNL     1       3.209  -7.753  14.756  1.00  0.00     0.002 A 
ATOM     73  C   UNL     1       1.052  -8.430  13.877  1.00  0.00     0.091 A 
ATOM     74  F   UNL     1      -0.462  -6.762  13.091  1.00  0.00    -0.205 F 
ATOM     75  C   UNL     1       2.306  -8.758  14.418  1.00  0.00     0.022 A 
BRANCH  73  76
ATOM     76  S   UNL     1      -0.072  -9.790  13.542  1.00  0.00     0.127 S 
ATOM     77  O   UNL     1       0.519 -10.373  12.339  1.00  0.00    -0.237 OA
ATOM     78  O   UNL     1       0.066 -10.610  14.747  1.00  0.00    -0.237 OA
ATOM     79  O   UNL     1      -1.387  -9.188  13.368  1.00  0.00    -0.744 OA
ENDBRANCH  73  76
ENDBRANCH  55  69
BRANCH  56  80
ATOM     80  C   UNL     1      -0.652   3.516  12.363  1.00  0.00     0.023 A 
ATOM     81  C   UNL     1      -0.379   4.481  13.352  1.00  0.00     0.012 A 
ATOM     82  C   UNL     1      -1.249   3.923  11.154  1.00  0.00     0.148 A 
ATOM     83  C   UNL     1      -0.717   5.820  13.154  1.00  0.00     0.002 A 
ATOM     84  C   UNL     1      -1.535   5.267  10.941  1.00  0.00     0.091 A 
ATOM     85  F   UNL     1      -1.520   2.988  10.233  1.00  0.00    -0.205 F 
ATOM     86  C   UNL     1      -1.285   6.214  11.945  1.00  0.00     0.022 A 
BRANCH  84  87
ATOM     87  S   UNL     1      -2.152   5.885   9.371  1.00  0.00     0.127 S 
ATOM     88  O   UNL     1      -3.528   6.240   9.709  1.00  0.00    -0.237 OA
ATOM     89  O   UNL     1      -1.264   7.022   9.124  1.00  0.00    -0.237 OA
ATOM     90  O   UNL     1      -1.994   4.786   8.428  1.00  0.00    -0.744 OA
ENDBRANCH  84  87
ENDBRANCH  56  80
BRANCH  68  91
ATOM     91  C   UNL     1      -2.867  -1.255  16.958  1.00  0.00     0.023 A 
ATOM     92  C   UNL     1      -4.239  -1.259  16.637  1.00  0.00     0.012 A 
ATOM     93  C   UNL     1      -2.474  -1.294  18.311  1.00  0.00     0.148 A 
ATOM     94  C   UNL     1      -5.203  -1.272  17.645  1.00  0.00     0.002 A 
ATOM     95  C   UNL     1      -3.440  -1.354  19.309  1.00  0.00     0.091 A 
ATOM     96  F   UNL     1      -1.164  -1.271  18.598  1.00  0.00    -0.205 F 
ATOM     97  C   UNL     1      -4.804  -1.331  18.978  1.00  0.00     0.022 A 
BRANCH  95  98
ATOM     98  S   UNL     1      -3.019  -1.530  21.047  1.00  0.00     0.127 S 
ATOM     99  O   UNL     1      -3.306  -0.192  21.560  1.00  0.00    -0.237 OA
ATOM    100  O   UNL     1      -3.951  -2.567  21.491  1.00  0.00    -0.237 OA
ATOM    101  O   UNL     1      -1.617  -1.926  21.081  1.00  0.00    -0.744 OA
ENDBRANCH  95  98
ENDBRANCH  68  91
ENDBRANCH  42  43
ENDBRANCH  35  37
ENDBRANCH  34  35
ENDBRANCH  33  34
ENDBRANCH  32  33
ENDBRANCH  31  32
ENDBRANCH   1  31
TORSDOF 22
