REMARK SMILES Cc1ccc(N2CCC[C@@H](Cn3cc(C(=O)OCCOCCOC(=O)c4ccc(-c5c6nc(c(-c7cccc(S(=O)(=O)[O-])c7F)c7ccc([nH]7)c(-c7cccc(S(=O)(=O)[O-])c7F)c7nc(c(-c8cccc(S(=O)(=O)[O-])c8F)c8ccc5[nH]8)C=C7)C=C6)cc4)nn3)C2)nn1
REMARK SMILES IDX 20 1 19 2 18 3 17 4 15 5 16 6 14 7 12 8 13 9 90 10 89 11
REMARK SMILES IDX 11 12 10 13 6 14 7 15 91 16 8 17 9 18 5 19 1 20 2 21 3 22
REMARK SMILES IDX 93 23 4 24 92 25 21 26 22 27 23 28 24 29 25 30 26 31 27 32
REMARK SMILES IDX 88 33 28 34 87 35 29 36 30 37 31 38 81 39 32 40 86 41 80 42
REMARK SMILES IDX 82 43 33 44 85 45 79 46 78 47 34 49 66 50 46 51 65 52 47 53
REMARK SMILES IDX 50 54 64 55 83 56 48 57 49 58 63 60 84 61 51 62 35 63 36 64
REMARK SMILES IDX 44 65 37 66 39 67 45 68 38 69 40 70 41 71 42 72 43 73 67 74
REMARK SMILES IDX 68 75 76 76 69 77 71 78 77 79 70 80 72 81 73 82 74 83 75 84
REMARK SMILES IDX 52 85 53 86 61 87 54 88 56 89 62 90 55 91 57 92 58 93 59 94
REMARK SMILES IDX 60 95
REMARK H PARENT 82 48 50 59
REMARK Flexibility Score: inf
ROOT
ATOM      1  O   UNL     1      -7.184  -7.553  -6.886  1.00  0.00    -0.374 OA
ENDROOT
BRANCH   1   2
ATOM      2  C   UNL     1      -7.325  -6.435  -6.010  1.00  0.00     0.202 C 
BRANCH   2   3
ATOM      3  C   UNL     1      -6.613  -6.474  -4.659  1.00  0.00     0.261 C 
BRANCH   3   4
ATOM      4  O   UNL     1      -5.191  -6.533  -4.820  1.00  0.00    -0.458 OA
BRANCH   4   5
ATOM      5  C   UNL     1      -4.630  -7.748  -4.535  1.00  0.00     0.360 C 
ATOM      6  O   UNL     1      -5.217  -8.676  -4.004  1.00  0.00    -0.244 OA
BRANCH   5   7
ATOM      7  C   UNL     1      -3.262  -7.838  -5.017  1.00  0.00     0.190 A 
ATOM      8  N   UNL     1      -1.208  -7.440  -5.506  1.00  0.00    -0.251 N 
ATOM      9  C   UNL     1      -2.425  -6.827  -5.450  1.00  0.00     0.146 A 
ATOM     10  N   UNL     1      -1.340  -8.778  -5.466  1.00  0.00    -0.067 NA
ATOM     11  N   UNL     1      -2.589  -9.033  -5.105  1.00  0.00    -0.123 NA
BRANCH   8  12
ATOM     12  C   UNL     1       0.079  -6.846  -5.203  1.00  0.00     0.151 C 
BRANCH  12  13
ATOM     13  C   UNL     1       0.260  -6.516  -3.703  1.00  0.00     0.030 C 
ATOM     14  N   UNL     1      -0.365  -5.092  -1.858  1.00  0.00    -0.355 N 
ATOM     15  C   UNL     1      -0.813  -6.153  -0.979  1.00  0.00     0.118 C 
ATOM     16  C   UNL     1      -0.558  -5.275  -3.281  1.00  0.00     0.123 C 
ATOM     17  C   UNL     1       0.039  -7.378  -1.283  1.00  0.00     0.022 C 
ATOM     18  C   UNL     1      -0.021  -7.728  -2.773  1.00  0.00     0.009 C 
BRANCH  14  19
ATOM     19  C   UNL     1      -0.080  -3.840  -1.368  1.00  0.00     0.151 A 
ATOM     20  C   UNL     1       0.930   0.051  -0.046  1.00  0.00     0.069 C 
ATOM     21  C   UNL     1       0.606  -1.335  -0.499  1.00  0.00     0.060 A 
ATOM     22  C   UNL     1       1.313  -2.421  -0.018  1.00  0.00     0.029 A 
ATOM     23  N   UNL     1      -0.411  -1.496  -1.368  1.00  0.00    -0.154 NA
ATOM     24  C   UNL     1       0.952  -3.689  -0.452  1.00  0.00     0.051 A 
ATOM     25  N   UNL     1      -0.735  -2.754  -1.822  1.00  0.00    -0.133 NA
ENDBRANCH  14  19
ENDBRANCH  12  13
ENDBRANCH   8  12
ENDBRANCH   5   7
ENDBRANCH   4   5
ENDBRANCH   3   4
ENDBRANCH   2   3
ENDBRANCH   1   2
BRANCH   1  26
ATOM     26  C   UNL     1      -5.942  -7.841  -7.523  1.00  0.00     0.202 C 
BRANCH  26  27
ATOM     27  C   UNL     1      -5.386  -6.892  -8.576  1.00  0.00     0.261 C 
BRANCH  27  28
ATOM     28  O   UNL     1      -5.299  -5.555  -8.117  1.00  0.00    -0.460 OA
BRANCH  28  29
ATOM     29  C   UNL     1      -6.367  -4.819  -8.500  1.00  0.00     0.338 C 
ATOM     30  O   UNL     1      -7.441  -5.235  -8.904  1.00  0.00    -0.246 OA
BRANCH  29  31
ATOM     31  C   UNL     1      -6.002  -3.405  -8.507  1.00  0.00     0.060 A 
ATOM     32  C   UNL     1      -7.028  -2.540  -8.887  1.00  0.00     0.016 A 
ATOM     33  C   UNL     1      -4.645  -3.067  -8.602  1.00  0.00     0.016 A 
ATOM     34  C   UNL     1      -6.686  -1.461  -9.656  1.00  0.00     0.010 A 
ATOM     35  C   UNL     1      -4.306  -1.996  -9.385  1.00  0.00     0.010 A 
ATOM     36  C   UNL     1      -5.336  -1.275  -9.980  1.00  0.00    -0.014 A 
BRANCH  36  37
ATOM     37  C   UNL     1      -5.015  -0.169 -10.845  1.00  0.00     0.031 A 
ATOM     38  C   UNL     1      -5.113   1.096 -10.092  1.00  0.00     0.074 A 
ATOM     39  C   UNL     1      -4.662  -0.322 -12.134  1.00  0.00     0.049 A 
ATOM     40  N   UNL     1      -6.114   1.912 -10.092  1.00  0.00    -0.248 NA
ATOM     41  C   UNL     1      -4.141   1.334  -9.013  1.00  0.00     0.031 C 
ATOM     42  C   UNL     1      -4.303  -1.560 -12.835  1.00  0.00     0.029 A 
ATOM     43  N   UNL     1      -4.443   0.633 -13.075  1.00  0.00    -0.354 N 
ATOM     44  C   UNL     1      -5.721   2.934  -9.238  1.00  0.00     0.074 A 
ATOM     45  C   UNL     1      -4.670   2.402  -8.414  1.00  0.00     0.031 C 
ATOM     46  C   UNL     1      -3.675  -1.247 -13.994  1.00  0.00     0.029 A 
ATOM     47  C   UNL     1      -3.725   0.192 -14.183  1.00  0.00     0.049 A 
ATOM     48  H   UNL     1      -4.764   1.559 -12.980  1.00  0.00     0.167 HD
ATOM     49  C   UNL     1      -5.996   4.224  -9.564  1.00  0.00     0.034 A 
ATOM     50  C   UNL     1      -3.169   0.994 -15.127  1.00  0.00     0.034 A 
ATOM     51  C   UNL     1      -6.994   4.298 -10.597  1.00  0.00     0.049 A 
ATOM     52  C   UNL     1      -3.931   2.263 -15.089  1.00  0.00     0.074 A 
ATOM     53  C   UNL     1      -8.346   4.055 -10.700  1.00  0.00     0.029 A 
ATOM     54  N   UNL     1      -6.462   4.239 -11.859  1.00  0.00    -0.354 N 
ATOM     55  N   UNL     1      -5.193   2.351 -15.407  1.00  0.00    -0.248 NA
ATOM     56  C   UNL     1      -3.385   3.399 -14.355  1.00  0.00     0.031 C 
ATOM     57  C   UNL     1      -8.572   3.666 -12.054  1.00  0.00     0.029 A 
ATOM     58  C   UNL     1      -7.365   3.731 -12.749  1.00  0.00     0.049 A 
ATOM     59  H   UNL     1      -5.550   4.526 -12.092  1.00  0.00     0.167 HD
ATOM     60  C   UNL     1      -5.686   3.304 -14.535  1.00  0.00     0.074 A 
ATOM     61  C   UNL     1      -4.520   4.038 -14.060  1.00  0.00     0.031 C 
ATOM     62  C   UNL     1      -6.942   3.194 -14.023  1.00  0.00     0.034 A 
BRANCH  49  63
ATOM     63  C   UNL     1      -5.008   5.349  -9.363  1.00  0.00     0.023 A 
ATOM     64  C   UNL     1      -5.476   6.669  -9.508  1.00  0.00     0.012 A 
ATOM     65  C   UNL     1      -3.604   5.168  -9.320  1.00  0.00     0.148 A 
ATOM     66  C   UNL     1      -4.591   7.751  -9.588  1.00  0.00     0.002 A 
ATOM     67  C   UNL     1      -2.734   6.248  -9.306  1.00  0.00     0.091 A 
ATOM     68  F   UNL     1      -3.084   3.945  -9.457  1.00  0.00    -0.205 F 
ATOM     69  C   UNL     1      -3.221   7.544  -9.461  1.00  0.00     0.022 A 
BRANCH  67  70
ATOM     70  S   UNL     1      -0.962   6.015  -9.119  1.00  0.00     0.127 S 
ATOM     71  O   UNL     1      -0.487   6.306 -10.468  1.00  0.00    -0.237 OA
ATOM     72  O   UNL     1      -0.636   7.025  -8.112  1.00  0.00    -0.237 OA
ATOM     73  O   UNL     1      -0.798   4.642  -8.659  1.00  0.00    -0.744 OA
ENDBRANCH  67  70
ENDBRANCH  49  63
BRANCH  50  74
ATOM     74  C   UNL     1      -1.867   0.912 -15.842  1.00  0.00     0.023 A 
ATOM     75  C   UNL     1      -1.607   1.841 -16.876  1.00  0.00     0.012 A 
ATOM     76  C   UNL     1      -0.773   0.202 -15.305  1.00  0.00     0.148 A 
ATOM     77  C   UNL     1      -0.300   2.132 -17.283  1.00  0.00     0.002 A 
ATOM     78  C   UNL     1       0.527   0.489 -15.719  1.00  0.00     0.091 A 
ATOM     79  F   UNL     1      -0.992  -0.681 -14.322  1.00  0.00    -0.205 F 
ATOM     80  C   UNL     1       0.769   1.472 -16.689  1.00  0.00     0.022 A 
BRANCH  78  81
ATOM     81  S   UNL     1       1.962  -0.316 -14.994  1.00  0.00     0.127 S 
ATOM     82  O   UNL     1       2.754  -0.652 -16.178  1.00  0.00    -0.237 OA
ATOM     83  O   UNL     1       2.522   0.748 -14.167  1.00  0.00    -0.237 OA
ATOM     84  O   UNL     1       1.445  -1.473 -14.274  1.00  0.00    -0.744 OA
ENDBRANCH  78  81
ENDBRANCH  50  74
BRANCH  62  85
ATOM     85  C   UNL     1      -7.923   2.335 -14.762  1.00  0.00     0.023 A 
ATOM     86  C   UNL     1      -7.906   0.927 -14.720  1.00  0.00     0.012 A 
ATOM     87  C   UNL     1      -8.984   2.997 -15.397  1.00  0.00     0.148 A 
ATOM     88  C   UNL     1      -8.947   0.195 -15.300  1.00  0.00     0.002 A 
ATOM     89  C   UNL     1     -10.032   2.269 -15.937  1.00  0.00     0.091 A 
ATOM     90  F   UNL     1      -8.964   4.338 -15.418  1.00  0.00    -0.205 F 
ATOM     91  C   UNL     1     -10.018   0.866 -15.894  1.00  0.00     0.022 A 
BRANCH  89  92
ATOM     92  S   UNL     1     -11.477   3.077 -16.621  1.00  0.00     0.127 S 
ATOM     93  O   UNL     1     -11.394   2.708 -18.033  1.00  0.00    -0.237 OA
ATOM     94  O   UNL     1     -12.566   2.437 -15.882  1.00  0.00    -0.237 OA
ATOM     95  O   UNL     1     -11.320   4.500 -16.343  1.00  0.00    -0.744 OA
ENDBRANCH  89  92
ENDBRANCH  62  85
ENDBRANCH  36  37
ENDBRANCH  29  31
ENDBRANCH  28  29
ENDBRANCH  27  28
ENDBRANCH  26  27
ENDBRANCH   1  26
TORSDOF 20
