REMARK SMILES C[C@H]1[C@H](C(=O)OCCOCCOC(=O)c2ccc(-c3c4nc(c(-c5cccc(S(=O)(=O)[O-])c5F)c5ccc([nH]5)c(-c5cccc(S(=O)(=O)[O-])c5F)c5nc(c(-c6cccc(S(=O)(=O)[O-])c6F)c6ccc3[nH]6)C=C5)C=C4)cc2)CCN1S(=O)(=O)C(F)(F)F
REMARK SMILES IDX 10 1 9 2 8 3 7 4 6 5 4 6 5 7 3 8 1 9 2 10 80 11 78 12 79 13
REMARK SMILES IDX 81 14 82 15 83 16 84 17 85 18 86 19 87 20 11 21 12 22 13 23
REMARK SMILES IDX 14 24 15 25 16 26 77 27 17 28 76 29 18 30 19 31 20 32 70 33
REMARK SMILES IDX 21 34 75 35 69 36 71 37 22 38 74 39 68 40 67 41 23 43 55 44
REMARK SMILES IDX 35 45 54 46 36 47 39 48 53 49 72 50 37 51 38 52 52 54 73 55
REMARK SMILES IDX 40 56 24 57 25 58 33 59 26 60 28 61 34 62 27 63 29 64 30 65
REMARK SMILES IDX 31 66 32 67 56 68 57 69 65 70 58 71 60 72 66 73 59 74 61 75
REMARK SMILES IDX 62 76 63 77 64 78 41 79 42 80 50 81 43 82 45 83 51 84 44 85
REMARK SMILES IDX 46 86 47 87 48 88 49 89
REMARK H PARENT 71 42 39 53
REMARK Flexibility Score: inf
ROOT
ATOM      1  C   UNL     1       2.180   3.252   1.774  1.00  0.00     0.202 C 
ENDROOT
BRANCH   1   2
ATOM      2  O   UNL     1       1.486   4.259   2.507  1.00  0.00    -0.374 OA
BRANCH   2   3
ATOM      3  C   UNL     1       0.428   3.828   3.367  1.00  0.00     0.202 C 
BRANCH   3   4
ATOM      4  C   UNL     1      -0.891   3.478   2.672  1.00  0.00     0.261 C 
BRANCH   4   5
ATOM      5  O   UNL     1      -0.759   2.279   1.886  1.00  0.00    -0.463 OA
BRANCH   5   6
ATOM      6  C   UNL     1      -0.940   2.397   0.548  1.00  0.00     0.310 C 
ATOM      7  O   UNL     1      -1.269   3.424  -0.033  1.00  0.00    -0.252 OA
BRANCH   6   8
ATOM      8  C   UNL     1      -0.716   1.096  -0.190  1.00  0.00     0.118 C 
ATOM      9  C   UNL     1       1.601   0.069  -0.362  1.00  0.00     0.027 C 
ATOM     10  C   UNL     1       0.297   0.122   0.440  1.00  0.00     0.084 C 
ATOM     11  N   UNL     1      -0.333  -1.244   0.358  1.00  0.00    -0.190 NA
ATOM     12  C   UNL     1      -2.016   0.316  -0.275  1.00  0.00     0.034 C 
ATOM     13  C   UNL     1      -1.550  -1.108  -0.490  1.00  0.00     0.104 C 
BRANCH  11  14
ATOM     14  S   UNL     1      -0.633  -2.016   1.886  1.00  0.00     0.314 S 
ATOM     15  O   UNL     1      -1.316  -1.016   2.687  1.00  0.00    -0.203 OA
ATOM     16  O   UNL     1      -1.306  -3.263   1.559  1.00  0.00    -0.203 OA
BRANCH  14  17
ATOM     17  C   UNL     1       1.070  -2.373   2.568  1.00  0.00     0.511 C 
ATOM     18  F   UNL     1       1.776  -3.216   1.760  1.00  0.00    -0.155 F 
ATOM     19  F   UNL     1       1.823  -1.239   2.684  1.00  0.00    -0.155 F 
ATOM     20  F   UNL     1       1.030  -2.943   3.803  1.00  0.00    -0.155 F 
ENDBRANCH  14  17
ENDBRANCH  11  14
ENDBRANCH   6   8
ENDBRANCH   5   6
ENDBRANCH   4   5
ENDBRANCH   3   4
ENDBRANCH   2   3
ENDBRANCH   1   2
BRANCH   1  21
ATOM     21  C   UNL     1       3.237   2.452   2.543  1.00  0.00     0.261 C 
BRANCH  21  22
ATOM     22  O   UNL     1       2.662   1.675   3.607  1.00  0.00    -0.460 OA
BRANCH  22  23
ATOM     23  C   UNL     1       3.001   2.099   4.848  1.00  0.00     0.338 C 
ATOM     24  O   UNL     1       3.790   2.995   5.124  1.00  0.00    -0.246 OA
BRANCH  23  25
ATOM     25  C   UNL     1       2.173   1.448   5.880  1.00  0.00     0.060 A 
ATOM     26  C   UNL     1       1.591   2.284   6.841  1.00  0.00     0.016 A 
ATOM     27  C   UNL     1       2.059   0.060   5.986  1.00  0.00     0.016 A 
ATOM     28  C   UNL     1       0.970   1.735   7.958  1.00  0.00     0.010 A 
ATOM     29  C   UNL     1       1.430  -0.491   7.111  1.00  0.00     0.010 A 
ATOM     30  C   UNL     1       0.935   0.344   8.129  1.00  0.00    -0.014 A 
BRANCH  30  31
ATOM     31  C   UNL     1       0.544  -0.195   9.455  1.00  0.00     0.031 A 
ATOM     32  C   UNL     1       1.621  -0.604  10.426  1.00  0.00     0.074 A 
ATOM     33  C   UNL     1      -0.749  -0.251   9.824  1.00  0.00     0.049 A 
ATOM     34  N   UNL     1       1.511  -0.998  11.668  1.00  0.00    -0.248 NA
ATOM     35  C   UNL     1       3.008  -0.562   9.932  1.00  0.00     0.031 C 
ATOM     36  C   UNL     1      -1.885   0.109   8.977  1.00  0.00     0.029 A 
ATOM     37  N   UNL     1      -1.321  -0.637  11.010  1.00  0.00    -0.354 N 
ATOM     38  C   UNL     1       2.805  -1.266  12.099  1.00  0.00     0.074 A 
ATOM     39  C   UNL     1       3.685  -1.012  10.978  1.00  0.00     0.031 C 
ATOM     40  C   UNL     1      -3.021  -0.084   9.669  1.00  0.00     0.029 A 
ATOM     41  C   UNL     1      -2.694  -0.585  11.003  1.00  0.00     0.049 A 
ATOM     42  H   UNL     1      -0.797  -0.925  11.792  1.00  0.00     0.167 HD
ATOM     43  C   UNL     1       3.231  -1.660  13.322  1.00  0.00     0.034 A 
ATOM     44  C   UNL     1      -3.584  -0.901  11.964  1.00  0.00     0.034 A 
ATOM     45  C   UNL     1       2.363  -1.885  14.447  1.00  0.00     0.049 A 
ATOM     46  C   UNL     1      -3.085  -1.333  13.319  1.00  0.00     0.074 A 
ATOM     47  C   UNL     1       2.704  -2.242  15.739  1.00  0.00     0.029 A 
ATOM     48  N   UNL     1       0.982  -1.779  14.412  1.00  0.00    -0.354 N 
ATOM     49  N   UNL     1      -1.851  -1.446  13.749  1.00  0.00    -0.248 NA
ATOM     50  C   UNL     1      -4.103  -1.638  14.336  1.00  0.00     0.031 C 
ATOM     51  C   UNL     1       1.525  -2.368  16.483  1.00  0.00     0.029 A 
ATOM     52  C   UNL     1       0.453  -2.071  15.657  1.00  0.00     0.049 A 
ATOM     53  H   UNL     1       0.454  -1.534  13.618  1.00  0.00     0.167 HD
ATOM     54  C   UNL     1      -1.944  -1.800  15.091  1.00  0.00     0.074 A 
ATOM     55  C   UNL     1      -3.356  -1.859  15.410  1.00  0.00     0.031 C 
ATOM     56  C   UNL     1      -0.952  -2.069  15.976  1.00  0.00     0.034 A 
BRANCH  43  57
ATOM     57  C   UNL     1       4.714  -1.833  13.521  1.00  0.00     0.023 A 
ATOM     58  C   UNL     1       5.537  -0.692  13.621  1.00  0.00     0.012 A 
ATOM     59  C   UNL     1       5.285  -3.112  13.659  1.00  0.00     0.148 A 
ATOM     60  C   UNL     1       6.910  -0.822  13.825  1.00  0.00     0.002 A 
ATOM     61  C   UNL     1       6.649  -3.233  13.901  1.00  0.00     0.091 A 
ATOM     62  F   UNL     1       4.491  -4.185  13.535  1.00  0.00    -0.205 F 
ATOM     63  C   UNL     1       7.463  -2.091  13.975  1.00  0.00     0.022 A 
BRANCH  61  64
ATOM     64  S   UNL     1       7.443  -4.820  14.178  1.00  0.00     0.127 S 
ATOM     65  O   UNL     1       8.166  -5.012  12.921  1.00  0.00    -0.237 OA
ATOM     66  O   UNL     1       8.296  -4.544  15.335  1.00  0.00    -0.237 OA
ATOM     67  O   UNL     1       6.366  -5.766  14.433  1.00  0.00    -0.744 OA
ENDBRANCH  61  64
ENDBRANCH  43  57
BRANCH  44  68
ATOM     68  C   UNL     1      -5.044  -0.760  11.700  1.00  0.00     0.023 A 
ATOM     69  C   UNL     1      -5.774   0.255  12.349  1.00  0.00     0.012 A 
ATOM     70  C   UNL     1      -5.708  -1.613  10.798  1.00  0.00     0.148 A 
ATOM     71  C   UNL     1      -7.144   0.399  12.127  1.00  0.00     0.002 A 
ATOM     72  C   UNL     1      -7.062  -1.430  10.540  1.00  0.00     0.091 A 
ATOM     73  F   UNL     1      -5.001  -2.587  10.207  1.00  0.00    -0.205 F 
ATOM     74  C   UNL     1      -7.785  -0.435  11.215  1.00  0.00     0.022 A 
BRANCH  72  75
ATOM     75  S   UNL     1      -7.937  -2.378   9.291  1.00  0.00     0.127 S 
ATOM     76  O   UNL     1      -8.752  -3.272  10.109  1.00  0.00    -0.237 OA
ATOM     77  O   UNL     1      -8.684  -1.335   8.587  1.00  0.00    -0.237 OA
ATOM     78  O   UNL     1      -6.902  -3.016   8.489  1.00  0.00    -0.744 OA
ENDBRANCH  72  75
ENDBRANCH  44  68
BRANCH  56  79
ATOM     79  C   UNL     1      -1.349  -2.425  17.386  1.00  0.00     0.023 A 
ATOM     80  C   UNL     1      -1.921  -3.684  17.653  1.00  0.00     0.012 A 
ATOM     81  C   UNL     1      -1.095  -1.542  18.454  1.00  0.00     0.148 A 
ATOM     82  C   UNL     1      -2.267  -4.046  18.954  1.00  0.00     0.002 A 
ATOM     83  C   UNL     1      -1.401  -1.927  19.755  1.00  0.00     0.091 A 
ATOM     84  F   UNL     1      -0.570  -0.338  18.182  1.00  0.00    -0.205 F 
ATOM     85  C   UNL     1      -1.997  -3.173  20.006  1.00  0.00     0.022 A 
BRANCH  83  86
ATOM     86  S   UNL     1      -0.998  -0.898  21.172  1.00  0.00     0.127 S 
ATOM     87  O   UNL     1      -2.287  -0.278  21.469  1.00  0.00    -0.237 OA
ATOM     88  O   UNL     1      -0.553  -1.882  22.161  1.00  0.00    -0.237 OA
ATOM     89  O   UNL     1       0.050   0.006  20.716  1.00  0.00    -0.744 OA
ENDBRANCH  83  86
ENDBRANCH  56  79
ENDBRANCH  30  31
ENDBRANCH  23  25
ENDBRANCH  22  23
ENDBRANCH  21  22
ENDBRANCH   1  21
TORSDOF 19
