REMARK SMILES C[C@@H](C(=O)OCCOCCOC(=O)c1ccc(-c2c3nc(c(-c4cccc(S(=O)(=O)[O-])c4F)c4ccc([nH]4)c(-c4cccc(S(=O)(=O)[O-])c4F)c4nc(c(-c5cccc(S(=O)(=O)[O-])c5F)c5ccc2[nH]5)C=C4)C=C3)cc1)c1cc(/C=C/S(C)(=O)=O)cc(C(=O)c2ccccc2)c1
REMARK SMILES IDX 8 1 7 2 6 3 5 4 3 5 4 6 2 7 1 8 77 9 78 10 96 11 79 12 87 13
REMARK SMILES IDX 86 14 80 15 81 16 82 17 83 18 84 19 85 20 88 21 89 22 90 23
REMARK SMILES IDX 91 24 95 25 92 26 94 27 93 28 9 29 10 30 11 31 12 32 13 33
REMARK SMILES IDX 14 34 15 35 76 36 16 37 75 38 17 39 18 40 19 41 69 42 20 43
REMARK SMILES IDX 74 44 68 45 70 46 21 47 73 48 67 49 66 50 22 52 54 53 34 54
REMARK SMILES IDX 53 55 35 56 38 57 52 58 71 59 36 60 37 61 51 63 72 64 39 65
REMARK SMILES IDX 23 66 24 67 32 68 25 69 27 70 33 71 26 72 28 73 29 74 30 75
REMARK SMILES IDX 31 76 55 77 56 78 64 79 57 80 59 81 65 82 58 83 60 84 61 85
REMARK SMILES IDX 62 86 63 87 40 88 41 89 49 90 42 91 44 92 50 93 43 94 45 95
REMARK SMILES IDX 46 96 47 97 48 98
REMARK H PARENT 70 51 38 62
REMARK Flexibility Score: inf
ROOT
ATOM      1  O   UNL     1       1.008   1.455   4.456  1.00  0.00    -0.374 OA
ENDROOT
BRANCH   1   2
ATOM      2  C   UNL     1       2.249   0.741   4.465  1.00  0.00     0.202 C 
BRANCH   2   3
ATOM      3  C   UNL     1       2.209  -0.700   3.946  1.00  0.00     0.261 C 
BRANCH   3   4
ATOM      4  O   UNL     1       1.943  -0.718   2.530  1.00  0.00    -0.463 OA
BRANCH   4   5
ATOM      5  C   UNL     1       1.003  -1.609   2.120  1.00  0.00     0.313 C 
ATOM      6  O   UNL     1       0.527  -2.488   2.833  1.00  0.00    -0.252 OA
BRANCH   5   7
ATOM      7  C   UNL     1       0.518  -1.351   0.680  1.00  0.00     0.126 C 
ATOM      8  C   UNL     1       1.269  -0.260  -0.082  1.00  0.00     0.025 C 
BRANCH   7   9
ATOM      9  C   UNL     1      -1.005  -1.181   0.699  1.00  0.00    -0.033 A 
ATOM     10  C   UNL     1      -1.658   0.052   0.868  1.00  0.00     0.012 A 
ATOM     11  C   UNL     1      -1.775  -2.350   0.731  1.00  0.00     0.016 A 
ATOM     12  C   UNL     1      -3.036   0.123   1.150  1.00  0.00    -0.024 A 
ATOM     13  C   UNL     1      -3.140  -2.310   1.026  1.00  0.00     0.023 A 
ATOM     14  C   UNL     1      -3.767  -1.075   1.221  1.00  0.00     0.020 A 
BRANCH  12  15
ATOM     15  C   UNL     1      -3.751   1.385   1.440  1.00  0.00     0.020 C 
ATOM     16  C   UNL     1      -3.193   2.597   1.589  1.00  0.00     0.106 C 
BRANCH  16  17
ATOM     17  S   UNL     1      -4.181   3.970   2.000  1.00  0.00     0.168 S 
ATOM     18  C   UNL     1      -3.356   4.588   3.448  1.00  0.00     0.163 C 
ATOM     19  O   UNL     1      -4.024   4.967   0.960  1.00  0.00    -0.225 OA
ATOM     20  O   UNL     1      -5.505   3.540   2.415  1.00  0.00    -0.225 OA
ENDBRANCH  16  17
ENDBRANCH  12  15
BRANCH  13  21
ATOM     21  C   UNL     1      -3.930  -3.567   1.169  1.00  0.00     0.193 C 
ATOM     22  O   UNL     1      -5.156  -3.545   1.113  1.00  0.00    -0.289 OA
BRANCH  21  23
ATOM     23  C   UNL     1      -3.235  -4.865   1.334  1.00  0.00     0.022 A 
ATOM     24  C   UNL     1      -3.491  -5.879   0.408  1.00  0.00     0.012 A 
ATOM     25  C   UNL     1      -2.282  -5.051   2.344  1.00  0.00     0.012 A 
ATOM     26  C   UNL     1      -2.755  -7.062   0.461  1.00  0.00     0.001 A 
ATOM     27  C   UNL     1      -1.547  -6.235   2.390  1.00  0.00     0.001 A 
ATOM     28  C   UNL     1      -1.778  -7.235   1.444  1.00  0.00     0.000 A 
ENDBRANCH  21  23
ENDBRANCH  13  21
ENDBRANCH   7   9
ENDBRANCH   5   7
ENDBRANCH   4   5
ENDBRANCH   3   4
ENDBRANCH   2   3
ENDBRANCH   1   2
BRANCH   1  29
ATOM     29  C   UNL     1       0.481   1.825   3.186  1.00  0.00     0.202 C 
BRANCH  29  30
ATOM     30  C   UNL     1       1.099   3.048   2.497  1.00  0.00     0.261 C 
BRANCH  30  31
ATOM     31  O   UNL     1       2.502   2.892   2.242  1.00  0.00    -0.460 OA
BRANCH  31  32
ATOM     32  C   UNL     1       3.297   3.656   3.029  1.00  0.00     0.338 C 
ATOM     33  O   UNL     1       2.933   4.500   3.839  1.00  0.00    -0.246 OA
BRANCH  32  34
ATOM     34  C   UNL     1       4.698   3.209   2.931  1.00  0.00     0.060 A 
ATOM     35  C   UNL     1       5.361   2.923   4.131  1.00  0.00     0.016 A 
ATOM     36  C   UNL     1       5.370   3.131   1.710  1.00  0.00     0.016 A 
ATOM     37  C   UNL     1       6.717   2.612   4.122  1.00  0.00     0.010 A 
ATOM     38  C   UNL     1       6.737   2.827   1.704  1.00  0.00     0.010 A 
ATOM     39  C   UNL     1       7.423   2.606   2.912  1.00  0.00    -0.014 A 
BRANCH  39  40
ATOM     40  C   UNL     1       8.902   2.520   2.939  1.00  0.00     0.031 A 
ATOM     41  C   UNL     1       9.707   3.784   2.809  1.00  0.00     0.074 A 
ATOM     42  C   UNL     1       9.519   1.336   3.105  1.00  0.00     0.049 A 
ATOM     43  N   UNL     1      11.005   3.942   2.819  1.00  0.00    -0.248 NA
ATOM     44  C   UNL     1       8.950   5.036   2.647  1.00  0.00     0.031 C 
ATOM     45  C   UNL     1       8.845   0.047   3.247  1.00  0.00     0.029 A 
ATOM     46  N   UNL     1      10.854   1.029   3.162  1.00  0.00    -0.354 N 
ATOM     47  C   UNL     1      11.221   5.303   2.641  1.00  0.00     0.074 A 
ATOM     48  C   UNL     1       9.922   5.926   2.511  1.00  0.00     0.031 C 
ATOM     49  C   UNL     1       9.774  -0.920   3.349  1.00  0.00     0.029 A 
ATOM     50  C   UNL     1      11.104  -0.319   3.261  1.00  0.00     0.049 A 
ATOM     51  H   UNL     1      11.566   1.709   3.135  1.00  0.00     0.167 HD
ATOM     52  C   UNL     1      12.395   5.977   2.608  1.00  0.00     0.034 A 
ATOM     53  C   UNL     1      12.273  -0.991   3.263  1.00  0.00     0.034 A 
ATOM     54  C   UNL     1      13.684   5.360   2.759  1.00  0.00     0.049 A 
ATOM     55  C   UNL     1      13.565  -0.219   3.204  1.00  0.00     0.074 A 
ATOM     56  C   UNL     1      14.929   5.964   2.786  1.00  0.00     0.029 A 
ATOM     57  N   UNL     1      13.897   3.998   2.897  1.00  0.00    -0.354 N 
ATOM     58  N   UNL     1      13.751   1.079   3.161  1.00  0.00    -0.248 NA
ATOM     59  C   UNL     1      14.810  -1.001   3.230  1.00  0.00     0.031 C 
ATOM     60  C   UNL     1      15.896   4.962   2.918  1.00  0.00     0.029 A 
ATOM     61  C   UNL     1      15.252   3.738   2.997  1.00  0.00     0.049 A 
ATOM     62  H   UNL     1      13.188   3.315   2.920  1.00  0.00     0.167 HD
ATOM     63  C   UNL     1      15.129   1.269   3.190  1.00  0.00     0.074 A 
ATOM     64  C   UNL     1      15.730  -0.046   3.274  1.00  0.00     0.031 C 
ATOM     65  C   UNL     1      15.834   2.427   3.136  1.00  0.00     0.034 A 
BRANCH  52  66
ATOM     66  C   UNL     1      12.336   7.471   2.431  1.00  0.00     0.023 A 
ATOM     67  C   UNL     1      11.913   8.283   3.503  1.00  0.00     0.012 A 
ATOM     68  C   UNL     1      12.746   8.073   1.226  1.00  0.00     0.148 A 
ATOM     69  C   UNL     1      11.873   9.670   3.369  1.00  0.00     0.002 A 
ATOM     70  C   UNL     1      12.742   9.459   1.114  1.00  0.00     0.091 A 
ATOM     71  F   UNL     1      13.119   7.282   0.210  1.00  0.00    -0.205 F 
ATOM     72  C   UNL     1      12.297  10.258   2.180  1.00  0.00     0.022 A 
BRANCH  70  73
ATOM     73  S   UNL     1      13.337  10.312  -0.351  1.00  0.00     0.127 S 
ATOM     74  O   UNL     1      12.088  10.797  -0.936  1.00  0.00    -0.237 OA
ATOM     75  O   UNL     1      14.187  11.355   0.223  1.00  0.00    -0.237 OA
ATOM     76  O   UNL     1      14.049   9.312  -1.134  1.00  0.00    -0.744 OA
ENDBRANCH  70  73
ENDBRANCH  52  66
BRANCH  53  77
ATOM     77  C   UNL     1      12.274  -2.478   3.361  1.00  0.00     0.023 A 
ATOM     78  C   UNL     1      12.747  -3.100   4.532  1.00  0.00     0.012 A 
ATOM     79  C   UNL     1      11.787  -3.277   2.308  1.00  0.00     0.148 A 
ATOM     80  C   UNL     1      12.761  -4.491   4.642  1.00  0.00     0.002 A 
ATOM     81  C   UNL     1      11.751  -4.659   2.446  1.00  0.00     0.091 A 
ATOM     82  F   UNL     1      11.360  -2.667   1.193  1.00  0.00    -0.205 F 
ATOM     83  C   UNL     1      12.253  -5.270   3.606  1.00  0.00     0.022 A 
BRANCH  81  84
ATOM     84  S   UNL     1      10.991  -5.727   1.218  1.00  0.00     0.127 S 
ATOM     85  O   UNL     1      12.156  -6.373   0.620  1.00  0.00    -0.237 OA
ATOM     86  O   UNL     1      10.159  -6.599   2.049  1.00  0.00    -0.237 OA
ATOM     87  O   UNL     1      10.236  -4.841   0.342  1.00  0.00    -0.744 OA
ENDBRANCH  81  84
ENDBRANCH  53  77
BRANCH  65  88
ATOM     88  C   UNL     1      17.336   2.337   3.199  1.00  0.00     0.023 A 
ATOM     89  C   UNL     1      18.056   1.867   2.083  1.00  0.00     0.012 A 
ATOM     90  C   UNL     1      18.038   2.793   4.333  1.00  0.00     0.148 A 
ATOM     91  C   UNL     1      19.450   1.826   2.105  1.00  0.00     0.002 A 
ATOM     92  C   UNL     1      19.428   2.793   4.329  1.00  0.00     0.091 A 
ATOM     93  F   UNL     1      17.334   3.219   5.392  1.00  0.00    -0.205 F 
ATOM     94  C   UNL     1      20.135   2.299   3.221  1.00  0.00     0.022 A 
BRANCH  92  95
ATOM     95  S   UNL     1      20.392   3.472   5.685  1.00  0.00     0.127 S 
ATOM     96  O   UNL     1      20.899   2.260   6.326  1.00  0.00    -0.237 OA
ATOM     97  O   UNL     1      21.405   4.260   4.983  1.00  0.00    -0.237 OA
ATOM     98  O   UNL     1      19.461   4.261   6.481  1.00  0.00    -0.744 OA
ENDBRANCH  92  95
ENDBRANCH  65  88
ENDBRANCH  39  40
ENDBRANCH  32  34
ENDBRANCH  31  32
ENDBRANCH  30  31
ENDBRANCH  29  30
ENDBRANCH   1  29
TORSDOF 22
