REMARK SMILES CCN1C(=O)C[C@@H](C(=O)OCCOCCOC(=O)c2ccc(-c3c4nc(c(-c5cccc(S(=O)(=O)[O-])c5F)c5ccc([nH]5)c(-c5cccc(S(=O)(=O)[O-])c5F)c5nc(c(-c6cccc(S(=O)(=O)[O-])c6F)c6ccc3[nH]6)C=C5)C=C4)cc2)[C@H]1c1ccccc1C1CC1
REMARK SMILES IDX 14 1 13 2 12 3 11 4 10 5 8 6 9 7 7 8 3 9 4 10 82 11 5 12
REMARK SMILES IDX 6 13 2 14 1 15 83 16 84 17 88 18 85 19 87 20 86 21 89 22
REMARK SMILES IDX 90 23 91 24 15 25 16 26 17 27 18 28 19 29 20 30 81 31 21 32
REMARK SMILES IDX 80 33 22 34 23 35 24 36 74 37 25 38 79 39 73 40 75 41 26 42
REMARK SMILES IDX 78 43 72 44 71 45 27 47 59 48 39 49 58 50 40 51 43 52 57 53
REMARK SMILES IDX 76 54 41 55 42 56 56 58 77 59 44 60 28 61 29 62 37 63 30 64
REMARK SMILES IDX 32 65 38 66 31 67 33 68 34 69 35 70 36 71 60 72 61 73 69 74
REMARK SMILES IDX 62 75 64 76 70 77 63 78 65 79 66 80 67 81 68 82 45 83 46 84
REMARK SMILES IDX 54 85 47 86 49 87 55 88 48 89 50 90 51 91 52 92 53 93
REMARK H PARENT 75 46 43 57
REMARK Flexibility Score: inf
ROOT
ATOM      1  C   UNL     1       5.141   2.034   3.368  1.00  0.00     0.202 C 
ENDROOT
BRANCH   1   2
ATOM      2  O   UNL     1       5.756   2.829   2.351  1.00  0.00    -0.374 OA
BRANCH   2   3
ATOM      3  C   UNL     1       5.607   4.243   2.439  1.00  0.00     0.202 C 
BRANCH   3   4
ATOM      4  C   UNL     1       4.304   4.928   1.989  1.00  0.00     0.261 C 
BRANCH   4   5
ATOM      5  O   UNL     1       3.090   4.478   2.612  1.00  0.00    -0.463 OA
BRANCH   5   6
ATOM      6  C   UNL     1       2.583   3.368   2.011  1.00  0.00     0.312 C 
ATOM      7  O   UNL     1       3.230   2.688   1.231  1.00  0.00    -0.252 OA
BRANCH   6   8
ATOM      8  C   UNL     1       1.198   3.026   2.521  1.00  0.00     0.135 C 
ATOM      9  N   UNL     1       0.943   0.757   1.952  1.00  0.00    -0.335 N 
ATOM     10  C   UNL     1       1.482   0.793   3.248  1.00  0.00     0.224 C 
ATOM     11  C   UNL     1       0.400   2.068   1.608  1.00  0.00     0.130 C 
ATOM     12  O   UNL     1       1.891  -0.156   3.900  1.00  0.00    -0.275 OA
ATOM     13  C   UNL     1       1.354   2.200   3.789  1.00  0.00     0.118 C 
BRANCH   9  14
ATOM     14  C   UNL     1       0.479  -0.509   1.404  1.00  0.00     0.117 C 
ATOM     15  C   UNL     1       0.865  -0.791  -0.033  1.00  0.00     0.027 C 
ENDBRANCH   9  14
BRANCH  11  16
ATOM     16  C   UNL     1       0.305   2.535   0.159  1.00  0.00    -0.021 A 
ATOM     17  C   UNL     1       1.424   2.336  -0.684  1.00  0.00     0.006 A 
ATOM     18  C   UNL     1      -0.755   3.349  -0.323  1.00  0.00    -0.040 A 
ATOM     19  C   UNL     1       1.639   3.077  -1.841  1.00  0.00     0.000 A 
ATOM     20  C   UNL     1      -0.486   4.106  -1.497  1.00  0.00     0.004 A 
ATOM     21  C   UNL     1       0.699   4.007  -2.224  1.00  0.00     0.000 A 
BRANCH  18  22
ATOM     22  C   UNL     1      -2.184   3.475   0.206  1.00  0.00     0.019 C 
ATOM     23  C   UNL     1      -2.888   2.355   0.926  1.00  0.00     0.009 C 
ATOM     24  C   UNL     1      -2.578   3.646   1.641  1.00  0.00     0.009 C 
ENDBRANCH  18  22
ENDBRANCH  11  16
ENDBRANCH   6   8
ENDBRANCH   5   6
ENDBRANCH   4   5
ENDBRANCH   3   4
ENDBRANCH   2   3
ENDBRANCH   1   2
BRANCH   1  25
ATOM     25  C   UNL     1       5.864   1.943   4.713  1.00  0.00     0.261 C 
BRANCH  25  26
ATOM     26  O   UNL     1       5.877   3.221   5.370  1.00  0.00    -0.460 OA
BRANCH  26  27
ATOM     27  C   UNL     1       7.096   3.807   5.427  1.00  0.00     0.338 C 
ATOM     28  O   UNL     1       8.172   3.297   5.156  1.00  0.00    -0.246 OA
BRANCH  27  29
ATOM     29  C   UNL     1       6.936   5.259   5.643  1.00  0.00     0.060 A 
ATOM     30  C   UNL     1       7.645   6.107   4.780  1.00  0.00     0.016 A 
ATOM     31  C   UNL     1       6.136   5.783   6.661  1.00  0.00     0.016 A 
ATOM     32  C   UNL     1       7.627   7.481   4.984  1.00  0.00     0.010 A 
ATOM     33  C   UNL     1       6.133   7.164   6.877  1.00  0.00     0.010 A 
ATOM     34  C   UNL     1       6.924   8.006   6.074  1.00  0.00    -0.014 A 
BRANCH  34  35
ATOM     35  C   UNL     1       7.223   9.390   6.503  1.00  0.00     0.031 A 
ATOM     36  C   UNL     1       8.254   9.585   7.582  1.00  0.00     0.074 A 
ATOM     37  C   UNL     1       6.632  10.445   5.918  1.00  0.00     0.049 A 
ATOM     38  N   UNL     1       8.701  10.694   8.109  1.00  0.00    -0.248 NA
ATOM     39  C   UNL     1       8.863   8.365   8.141  1.00  0.00     0.031 C 
ATOM     40  C   UNL     1       5.635  10.371   4.852  1.00  0.00     0.029 A 
ATOM     41  N   UNL     1       6.778  11.787   6.156  1.00  0.00    -0.354 N 
ATOM     42  C   UNL     1       9.622  10.305   9.075  1.00  0.00     0.074 A 
ATOM     43  C   UNL     1       9.662   8.861   9.073  1.00  0.00     0.031 C 
ATOM     44  C   UNL     1       5.236  11.618   4.545  1.00  0.00     0.029 A 
ATOM     45  C   UNL     1       5.937  12.572   5.404  1.00  0.00     0.049 A 
ATOM     46  H   UNL     1       7.423  12.153   6.803  1.00  0.00     0.167 HD
ATOM     47  C   UNL     1      10.382  11.083   9.879  1.00  0.00     0.034 A 
ATOM     48  C   UNL     1       5.748  13.906   5.423  1.00  0.00     0.034 A 
ATOM     49  C   UNL     1      10.354  12.519   9.862  1.00  0.00     0.049 A 
ATOM     50  C   UNL     1       6.590  14.750   6.346  1.00  0.00     0.074 A 
ATOM     51  C   UNL     1      11.111  13.403  10.608  1.00  0.00     0.029 A 
ATOM     52  N   UNL     1       9.515  13.280   9.064  1.00  0.00    -0.354 N 
ATOM     53  N   UNL     1       7.540  14.377   7.170  1.00  0.00    -0.248 NA
ATOM     54  C   UNL     1       6.360  16.201   6.315  1.00  0.00     0.031 C 
ATOM     55  C   UNL     1      10.713  14.703  10.276  1.00  0.00     0.029 A 
ATOM     56  C   UNL     1       9.726  14.626   9.306  1.00  0.00     0.049 A 
ATOM     57  H   UNL     1       8.866  12.917   8.419  1.00  0.00     0.167 HD
ATOM     58  C   UNL     1       8.044  15.546   7.730  1.00  0.00     0.074 A 
ATOM     59  C   UNL     1       7.306  16.642   7.134  1.00  0.00     0.031 C 
ATOM     60  C   UNL     1       9.018  15.702   8.661  1.00  0.00     0.034 A 
BRANCH  47  61
ATOM     61  C   UNL     1      11.323  10.392  10.829  1.00  0.00     0.023 A 
ATOM     62  C   UNL     1      12.491   9.780  10.332  1.00  0.00     0.012 A 
ATOM     63  C   UNL     1      11.071  10.382  12.214  1.00  0.00     0.148 A 
ATOM     64  C   UNL     1      13.381   9.142  11.196  1.00  0.00     0.002 A 
ATOM     65  C   UNL     1      11.983   9.781  13.074  1.00  0.00     0.091 A 
ATOM     66  F   UNL     1       9.939  10.943  12.663  1.00  0.00    -0.205 F 
ATOM     67  C   UNL     1      13.132   9.152  12.566  1.00  0.00     0.022 A 
BRANCH  65  68
ATOM     68  S   UNL     1      11.787   9.805  14.859  1.00  0.00     0.127 S 
ATOM     69  O   UNL     1      11.432   8.414  15.136  1.00  0.00    -0.237 OA
ATOM     70  O   UNL     1      13.123  10.194  15.310  1.00  0.00    -0.237 OA
ATOM     71  O   UNL     1      10.745  10.784  15.134  1.00  0.00    -0.744 OA
ENDBRANCH  65  68
ENDBRANCH  47  61
BRANCH  48  72
ATOM     72  C   UNL     1       4.745  14.528   4.514  1.00  0.00     0.023 A 
ATOM     73  C   UNL     1       5.179  15.335   3.445  1.00  0.00     0.012 A 
ATOM     74  C   UNL     1       3.366  14.302   4.688  1.00  0.00     0.148 A 
ATOM     75  C   UNL     1       4.256  15.930   2.583  1.00  0.00     0.002 A 
ATOM     76  C   UNL     1       2.455  14.852   3.793  1.00  0.00     0.091 A 
ATOM     77  F   UNL     1       2.971  13.547   5.723  1.00  0.00    -0.205 F 
ATOM     78  C   UNL     1       2.897  15.679   2.749  1.00  0.00     0.022 A 
BRANCH  76  79
ATOM     79  S   UNL     1       0.700  14.474   3.856  1.00  0.00     0.127 S 
ATOM     80  O   UNL     1       0.139  15.733   4.336  1.00  0.00    -0.237 OA
ATOM     81  O   UNL     1       0.407  14.162   2.456  1.00  0.00    -0.237 OA
ATOM     82  O   UNL     1       0.575  13.338   4.758  1.00  0.00    -0.744 OA
ENDBRANCH  76  79
ENDBRANCH  48  72
BRANCH  60  83
ATOM     83  C   UNL     1       9.371  17.106   9.076  1.00  0.00     0.023 A 
ATOM     84  C   UNL     1       8.492  17.833   9.902  1.00  0.00     0.012 A 
ATOM     85  C   UNL     1      10.611  17.671   8.718  1.00  0.00     0.148 A 
ATOM     86  C   UNL     1       8.828  19.113  10.341  1.00  0.00     0.002 A 
ATOM     87  C   UNL     1      10.960  18.927   9.198  1.00  0.00     0.091 A 
ATOM     88  F   UNL     1      11.427  16.969   7.917  1.00  0.00    -0.205 F 
ATOM     89  C   UNL     1      10.066  19.654  10.000  1.00  0.00     0.022 A 
BRANCH  87  90
ATOM     90  S   UNL     1      12.572  19.659   8.889  1.00  0.00     0.127 S 
ATOM     91  O   UNL     1      12.250  20.677   7.892  1.00  0.00    -0.237 OA
ATOM     92  O   UNL     1      12.932  20.187  10.206  1.00  0.00    -0.237 OA
ATOM     93  O   UNL     1      13.422  18.571   8.424  1.00  0.00    -0.744 OA
ENDBRANCH  87  90
ENDBRANCH  60  83
ENDBRANCH  34  35
ENDBRANCH  27  29
ENDBRANCH  26  27
ENDBRANCH  25  26
ENDBRANCH   1  25
TORSDOF 20
