REMARK SMILES O=C(OCCOCCOC(=O)[C@@H]1CCCN(c2ccc3cc(S(=O)(=O)N4CCCCC4)ccc3n2)C1)c1ccc(-c2c3nc(c(-c4cccc(S(=O)(=O)[O-])c4F)c4ccc([nH]4)c(-c4cccc(S(=O)(=O)[O-])c4F)c4nc(c(-c5cccc(S(=O)(=O)[O-])c5F)c5ccc2[nH]5)C=C4)C=C3)cc1
REMARK SMILES IDX 6 1 5 2 4 3 3 4 2 5 1 6 37 7 38 8 99 9 39 10 98 11 40 12
REMARK SMILES IDX 41 13 42 14 92 15 43 16 97 17 91 18 93 19 44 20 96 21 90 22
REMARK SMILES IDX 89 23 45 25 77 26 57 27 76 28 58 29 61 30 75 31 94 32 59 33
REMARK SMILES IDX 60 34 74 36 95 37 62 38 46 39 47 40 55 41 48 42 50 43 56 44
REMARK SMILES IDX 49 45 51 46 52 47 53 48 54 49 78 50 79 51 87 52 80 53 82 54
REMARK SMILES IDX 88 55 81 56 83 57 84 58 85 59 86 60 63 61 64 62 72 63 65 64
REMARK SMILES IDX 67 65 73 66 66 67 68 68 69 69 70 70 71 71 7 72 8 73 9 74
REMARK SMILES IDX 10 75 11 76 12 77 13 78 36 79 14 80 16 81 15 82 17 83 18 84
REMARK SMILES IDX 35 85 19 86 34 87 20 88 33 89 21 90 32 91 22 92 23 93 24 94
REMARK SMILES IDX 25 95 26 96 27 97 31 98 28 99 30 100 29 101
REMARK H PARENT 93 24 61 35
REMARK Flexibility Score: inf
ROOT
ATOM      1  O   UNL     1       3.004   0.899  -0.561  1.00  0.00    -0.374 OA
ENDROOT
BRANCH   1   2
ATOM      2  C   UNL     1       3.491  -0.080  -1.471  1.00  0.00     0.202 C 
BRANCH   2   3
ATOM      3  C   UNL     1       3.546  -1.452  -0.797  1.00  0.00     0.261 C 
BRANCH   3   4
ATOM      4  O   UNL     1       2.278  -1.780  -0.208  1.00  0.00    -0.460 OA
BRANCH   4   5
ATOM      5  C   UNL     1       1.783  -1.174   0.904  1.00  0.00     0.338 C 
ATOM      6  O   UNL     1       0.567  -1.052   1.034  1.00  0.00    -0.246 OA
BRANCH   5   7
ATOM      7  C   UNL     1       2.670  -0.845   2.062  1.00  0.00     0.060 A 
ATOM      8  C   UNL     1       3.877  -0.139   1.984  1.00  0.00     0.016 A 
ATOM      9  C   UNL     1       2.192  -1.208   3.330  1.00  0.00     0.016 A 
ATOM     10  C   UNL     1       4.622   0.147   3.119  1.00  0.00     0.010 A 
ATOM     11  C   UNL     1       2.922  -0.901   4.480  1.00  0.00     0.010 A 
ATOM     12  C   UNL     1       4.149  -0.237   4.370  1.00  0.00    -0.014 A 
BRANCH  12  13
ATOM     13  C   UNL     1       5.010  -0.009   5.541  1.00  0.00     0.031 A 
ATOM     14  C   UNL     1       5.759  -1.173   6.108  1.00  0.00     0.074 A 
ATOM     15  C   UNL     1       5.161   1.238   6.020  1.00  0.00     0.049 A 
ATOM     16  N   UNL     1       6.524  -1.227   7.161  1.00  0.00    -0.248 NA
ATOM     17  C   UNL     1       5.634  -2.451   5.383  1.00  0.00     0.031 C 
ATOM     18  C   UNL     1       4.524   2.434   5.465  1.00  0.00     0.029 A 
ATOM     19  N   UNL     1       5.897   1.708   7.074  1.00  0.00    -0.354 N 
ATOM     20  C   UNL     1       6.925  -2.552   7.262  1.00  0.00     0.074 A 
ATOM     21  C   UNL     1       6.342  -3.267   6.150  1.00  0.00     0.031 C 
ATOM     22  C   UNL     1       4.894   3.503   6.189  1.00  0.00     0.029 A 
ATOM     23  C   UNL     1       5.745   3.058   7.286  1.00  0.00     0.049 A 
ATOM     24  H   UNL     1       6.477   1.135   7.625  1.00  0.00     0.167 HD
ATOM     25  C   UNL     1       7.705  -3.115   8.211  1.00  0.00     0.034 A 
ATOM     26  C   UNL     1       6.218   3.831   8.282  1.00  0.00     0.034 A 
ATOM     27  C   UNL     1       8.282  -2.371   9.295  1.00  0.00     0.049 A 
ATOM     28  C   UNL     1       7.071   3.175   9.334  1.00  0.00     0.074 A 
ATOM     29  C   UNL     1       9.064  -2.828  10.338  1.00  0.00     0.029 A 
ATOM     30  N   UNL     1       8.130  -1.002   9.471  1.00  0.00    -0.354 N 
ATOM     31  N   UNL     1       7.464   1.925   9.413  1.00  0.00    -0.248 NA
ATOM     32  C   UNL     1       7.555   4.028  10.426  1.00  0.00     0.031 C 
ATOM     33  C   UNL     1       9.370  -1.734  11.156  1.00  0.00     0.029 A 
ATOM     34  C   UNL     1       8.799  -0.593  10.608  1.00  0.00     0.049 A 
ATOM     35  H   UNL     1       7.619  -0.409   8.873  1.00  0.00     0.167 HD
ATOM     36  C   UNL     1       8.253   1.841  10.552  1.00  0.00     0.074 A 
ATOM     37  C   UNL     1       8.306   3.178  11.114  1.00  0.00     0.031 C 
ATOM     38  C   UNL     1       8.861   0.761  11.102  1.00  0.00     0.034 A 
BRANCH  25  39
ATOM     39  C   UNL     1       7.936  -4.598   8.119  1.00  0.00     0.023 A 
ATOM     40  C   UNL     1       8.811  -5.117   7.144  1.00  0.00     0.012 A 
ATOM     41  C   UNL     1       7.262  -5.481   8.986  1.00  0.00     0.148 A 
ATOM     42  C   UNL     1       8.985  -6.495   7.010  1.00  0.00     0.002 A 
ATOM     43  C   UNL     1       7.468  -6.850   8.870  1.00  0.00     0.091 A 
ATOM     44  F   UNL     1       6.411  -4.967   9.885  1.00  0.00    -0.205 F 
ATOM     45  C   UNL     1       8.319  -7.360   7.876  1.00  0.00     0.022 A 
BRANCH  43  46
ATOM     46  S   UNL     1       6.692  -8.043   9.966  1.00  0.00     0.127 S 
ATOM     47  O   UNL     1       5.748  -8.701   9.065  1.00  0.00    -0.237 OA
ATOM     48  O   UNL     1       7.829  -8.872  10.370  1.00  0.00    -0.237 OA
ATOM     49  O   UNL     1       6.091  -7.269  11.043  1.00  0.00    -0.744 OA
ENDBRANCH  43  46
ENDBRANCH  25  39
BRANCH  26  50
ATOM     50  C   UNL     1       5.894   5.287   8.319  1.00  0.00     0.023 A 
ATOM     51  C   UNL     1       6.915   6.236   8.123  1.00  0.00     0.012 A 
ATOM     52  C   UNL     1       4.570   5.736   8.501  1.00  0.00     0.148 A 
ATOM     53  C   UNL     1       6.626   7.603   8.124  1.00  0.00     0.002 A 
ATOM     54  C   UNL     1       4.280   7.095   8.444  1.00  0.00     0.091 A 
ATOM     55  F   UNL     1       3.612   4.822   8.712  1.00  0.00    -0.205 F 
ATOM     56  C   UNL     1       5.309   8.032   8.271  1.00  0.00     0.022 A 
BRANCH  54  57
ATOM     57  S   UNL     1       2.594   7.715   8.490  1.00  0.00     0.127 S 
ATOM     58  O   UNL     1       2.511   8.260   9.842  1.00  0.00    -0.237 OA
ATOM     59  O   UNL     1       2.604   8.716   7.422  1.00  0.00    -0.237 OA
ATOM     60  O   UNL     1       1.747   6.561   8.215  1.00  0.00    -0.744 OA
ENDBRANCH  54  57
ENDBRANCH  26  50
BRANCH  38  61
ATOM     61  C   UNL     1       9.648   0.984  12.362  1.00  0.00     0.023 A 
ATOM     62  C   UNL     1       8.969   1.162  13.583  1.00  0.00     0.012 A 
ATOM     63  C   UNL     1      11.053   0.913  12.349  1.00  0.00     0.148 A 
ATOM     64  C   UNL     1       9.681   1.289  14.773  1.00  0.00     0.002 A 
ATOM     65  C   UNL     1      11.754   0.992  13.544  1.00  0.00     0.091 A 
ATOM     66  F   UNL     1      11.677   0.765  11.170  1.00  0.00    -0.205 F 
ATOM     67  C   UNL     1      11.071   1.190  14.756  1.00  0.00     0.022 A 
BRANCH  65  68
ATOM     68  S   UNL     1      13.534   0.767  13.622  1.00  0.00     0.127 S 
ATOM     69  O   UNL     1      14.001   2.140  13.804  1.00  0.00    -0.237 OA
ATOM     70  O   UNL     1      13.690  -0.092  14.796  1.00  0.00    -0.237 OA
ATOM     71  O   UNL     1      13.911   0.137  12.363  1.00  0.00    -0.744 OA
ENDBRANCH  65  68
ENDBRANCH  38  61
ENDBRANCH  12  13
ENDBRANCH   5   7
ENDBRANCH   4   5
ENDBRANCH   3   4
ENDBRANCH   2   3
ENDBRANCH   1   2
BRANCH   1  72
ATOM     72  C   UNL     1       1.845   1.628  -0.942  1.00  0.00     0.202 C 
BRANCH  72  73
ATOM     73  C   UNL     1       2.223   3.061  -1.304  1.00  0.00     0.261 C 
BRANCH  73  74
ATOM     74  O   UNL     1       3.004   3.079  -2.513  1.00  0.00    -0.463 OA
BRANCH  74  75
ATOM     75  C   UNL     1       4.341   2.868  -2.335  1.00  0.00     0.310 C 
ATOM     76  O   UNL     1       4.896   2.733  -1.255  1.00  0.00    -0.252 OA
BRANCH  75  77
ATOM     77  C   UNL     1       5.041   2.861  -3.671  1.00  0.00     0.118 C 
ATOM     78  C   UNL     1       6.228   1.886  -3.709  1.00  0.00     0.019 C 
ATOM     79  C   UNL     1       5.469   4.287  -3.978  1.00  0.00     0.133 C 
ATOM     80  C   UNL     1       7.445   2.373  -2.914  1.00  0.00     0.022 C 
ATOM     81  N   UNL     1       6.612   4.649  -3.163  1.00  0.00    -0.356 N 
ATOM     82  C   UNL     1       7.810   3.824  -3.242  1.00  0.00     0.118 C 
BRANCH  81  83
ATOM     83  C   UNL     1       6.583   5.685  -2.260  1.00  0.00     0.129 A 
ATOM     84  C   UNL     1       5.492   5.915  -1.425  1.00  0.00     0.047 A 
ATOM     85  N   UNL     1       7.664   6.484  -2.213  1.00  0.00    -0.231 NA
ATOM     86  C   UNL     1       5.516   6.954  -0.501  1.00  0.00     0.014 A 
ATOM     87  C   UNL     1       7.666   7.522  -1.370  1.00  0.00     0.073 A 
ATOM     88  C   UNL     1       6.615   7.801  -0.475  1.00  0.00     0.002 A 
ATOM     89  C   UNL     1       8.740   8.385  -1.411  1.00  0.00     0.030 A 
ATOM     90  C   UNL     1       6.672   8.911   0.381  1.00  0.00     0.032 A 
ATOM     91  C   UNL     1       8.789   9.518  -0.599  1.00  0.00     0.024 A 
ATOM     92  C   UNL     1       7.761   9.781   0.306  1.00  0.00     0.083 A 
BRANCH  92  93
ATOM     93  S   UNL     1       7.703  11.241   1.334  1.00  0.00     0.243 S 
ATOM     94  O   UNL     1       6.447  11.893   1.030  1.00  0.00    -0.207 OA
ATOM     95  O   UNL     1       8.045  10.816   2.674  1.00  0.00    -0.207 OA
BRANCH  93  96
ATOM     96  N   UNL     1       8.952  12.277   0.779  1.00  0.00    -0.198 NA
ATOM     97  C   UNL     1      10.322  11.895   1.203  1.00  0.00     0.102 C 
ATOM     98  C   UNL     1       8.723  12.864  -0.563  1.00  0.00     0.102 C 
ATOM     99  C   UNL     1      11.407  12.797   0.637  1.00  0.00     0.017 C 
ATOM    100  C   UNL     1       9.854  13.773  -1.011  1.00  0.00     0.017 C 
ATOM    101  C   UNL     1      11.199  13.091  -0.838  1.00  0.00     0.003 C 
ENDBRANCH  93  96
ENDBRANCH  92  93
ENDBRANCH  81  83
ENDBRANCH  75  77
ENDBRANCH  74  75
ENDBRANCH  73  74
ENDBRANCH  72  73
ENDBRANCH   1  72
TORSDOF 20
