REMARK SMILES C[C@H]1CN(C(=O)NCCOCC(=O)OCCOCCOC(=O)c2ccc(-c3c4nc(c(-c5cccc(S(=O)(=O)[O-])c5F)c5ccc([nH]5)c(-c5cccc(S(=O)(=O)[O-])c5F)c5nc(c(-c6cccc(S(=O)(=O)[O-])c6F)c6ccc3[nH]6)C=C5)C=C4)cc2)CC[N@@H+]1C
REMARK SMILES IDX 16 1 15 2 14 3 12 4 13 5 11 6 10 7 9 8 8 9 7 10 5 11 6 12
REMARK SMILES IDX 4 14 1 15 2 16 3 17 88 18 87 19 89 20 86 22 17 23 18 24
REMARK SMILES IDX 19 25 20 26 21 27 22 28 23 29 24 30 85 31 25 32 84 33 26 34
REMARK SMILES IDX 27 35 28 36 78 37 29 38 83 39 77 40 79 41 30 42 82 43 76 44
REMARK SMILES IDX 75 45 31 47 63 48 43 49 62 50 44 51 47 52 61 53 80 54 45 55
REMARK SMILES IDX 46 56 60 58 81 59 48 60 32 61 33 62 41 63 34 64 36 65 42 66
REMARK SMILES IDX 35 67 37 68 38 69 39 70 40 71 64 72 65 73 73 74 66 75 68 76
REMARK SMILES IDX 74 77 67 78 69 79 70 80 71 81 72 82 49 83 50 84 58 85 51 86
REMARK SMILES IDX 53 87 59 88 52 89 54 90 55 91 56 92 57 93
REMARK H PARENT 7 13 88 21 79 46 47 57
REMARK Flexibility Score: inf
ROOT
ATOM      1  C   UNL     1      -4.924  -5.510   2.279  1.00  0.00     0.202 C 
ENDROOT
BRANCH   1   2
ATOM      2  C   UNL     1      -4.931  -6.010   0.833  1.00  0.00     0.261 C 
BRANCH   2   3
ATOM      3  O   UNL     1      -3.588  -6.174   0.325  1.00  0.00    -0.462 OA
BRANCH   3   4
ATOM      4  C   UNL     1      -3.332  -5.602  -0.880  1.00  0.00     0.332 C 
ATOM      5  O   UNL     1      -4.125  -4.926  -1.526  1.00  0.00    -0.250 OA
BRANCH   4   6
ATOM      6  C   UNL     1      -1.939  -5.960  -1.417  1.00  0.00     0.282 C 
BRANCH   6   7
ATOM      7  O   UNL     1      -0.793  -6.139  -0.614  1.00  0.00    -0.368 OA
BRANCH   7   8
ATOM      8  C   UNL     1      -0.412  -5.069   0.251  1.00  0.00     0.182 C 
BRANCH   8   9
ATOM      9  C   UNL     1       0.006  -3.764  -0.446  1.00  0.00     0.146 C 
BRANCH   9  10
ATOM     10  N   UNL     1      -1.111  -2.894  -0.798  1.00  0.00    -0.336 N 
ATOM     11  C   UNL     1      -1.711  -1.770  -0.391  1.00  0.00     0.317 C 
ATOM     12  O   UNL     1      -2.629  -1.409  -1.137  1.00  0.00    -0.249 OA
ATOM     13  H   UNL     1      -1.572  -3.249  -1.593  1.00  0.00     0.165 HD
BRANCH  11  14
ATOM     14  N   UNL     1      -1.391  -1.058   0.718  1.00  0.00    -0.313 N 
ATOM     15  C   UNL     1       1.807  -0.149   2.575  1.00  0.00     0.077 C 
ATOM     16  C   UNL     1       0.664   0.047   1.572  1.00  0.00     0.200 C 
ATOM     17  C   UNL     1      -0.288  -1.184   1.667  1.00  0.00     0.186 C 
ATOM     18  N   UNL     1      -0.081   1.316   1.816  1.00  0.00    -0.332 N 
ATOM     19  C   UNL     1      -1.253   1.406   0.908  1.00  0.00     0.284 C 
ATOM     20  C   UNL     1       0.751   2.509   1.648  1.00  0.00     0.333 C 
ATOM     21  H   UNL     1      -0.386   1.289   2.789  1.00  0.00     0.348 HD
ATOM     22  C   UNL     1      -2.163   0.166   0.984  1.00  0.00     0.183 C 
ENDBRANCH  11  14
ENDBRANCH   9  10
ENDBRANCH   8   9
ENDBRANCH   7   8
ENDBRANCH   6   7
ENDBRANCH   4   6
ENDBRANCH   3   4
ENDBRANCH   2   3
ENDBRANCH   1   2
BRANCH   1  23
ATOM     23  O   UNL     1      -4.708  -4.106   2.452  1.00  0.00    -0.374 OA
BRANCH  23  24
ATOM     24  C   UNL     1      -3.398  -3.626   2.165  1.00  0.00     0.202 C 
BRANCH  24  25
ATOM     25  C   UNL     1      -2.376  -3.784   3.299  1.00  0.00     0.261 C 
BRANCH  25  26
ATOM     26  O   UNL     1      -2.302  -5.132   3.785  1.00  0.00    -0.460 OA
BRANCH  26  27
ATOM     27  C   UNL     1      -2.795  -5.288   5.038  1.00  0.00     0.338 C 
ATOM     28  O   UNL     1      -3.091  -4.406   5.826  1.00  0.00    -0.246 OA
BRANCH  27  29
ATOM     29  C   UNL     1      -3.113  -6.703   5.294  1.00  0.00     0.060 A 
ATOM     30  C   UNL     1      -4.422  -6.984   5.701  1.00  0.00     0.016 A 
ATOM     31  C   UNL     1      -2.151  -7.715   5.237  1.00  0.00     0.016 A 
ATOM     32  C   UNL     1      -4.752  -8.259   6.144  1.00  0.00     0.010 A 
ATOM     33  C   UNL     1      -2.487  -8.999   5.683  1.00  0.00     0.010 A 
ATOM     34  C   UNL     1      -3.771  -9.258   6.196  1.00  0.00    -0.014 A 
BRANCH  34  35
ATOM     35  C   UNL     1      -4.071 -10.486   6.971  1.00  0.00     0.031 A 
ATOM     36  C   UNL     1      -3.566 -10.597   8.385  1.00  0.00     0.074 A 
ATOM     37  C   UNL     1      -4.860 -11.448   6.461  1.00  0.00     0.049 A 
ATOM     38  N   UNL     1      -3.831 -11.502   9.290  1.00  0.00    -0.248 NA
ATOM     39  C   UNL     1      -2.641  -9.546   8.841  1.00  0.00     0.031 C 
ATOM     40  C   UNL     1      -5.401 -11.464   5.104  1.00  0.00     0.029 A 
ATOM     41  N   UNL     1      -5.343 -12.598   7.033  1.00  0.00    -0.354 N 
ATOM     42  C   UNL     1      -3.096 -11.143  10.414  1.00  0.00     0.074 A 
ATOM     43  C   UNL     1      -2.353  -9.951  10.069  1.00  0.00     0.031 C 
ATOM     44  C   UNL     1      -6.136 -12.578   4.943  1.00  0.00     0.029 A 
ATOM     45  C   UNL     1      -6.116 -13.351   6.183  1.00  0.00     0.049 A 
ATOM     46  H   UNL     1      -5.153 -12.859   7.963  1.00  0.00     0.167 HD
ATOM     47  C   UNL     1      -3.059 -11.733  11.632  1.00  0.00     0.034 A 
ATOM     48  C   UNL     1      -6.742 -14.528   6.386  1.00  0.00     0.034 A 
ATOM     49  C   UNL     1      -3.816 -12.903  11.984  1.00  0.00     0.049 A 
ATOM     50  C   UNL     1      -6.706 -15.156   7.755  1.00  0.00     0.074 A 
ATOM     51  C   UNL     1      -3.889 -13.547  13.207  1.00  0.00     0.029 A 
ATOM     52  N   UNL     1      -4.624 -13.614  11.109  1.00  0.00    -0.354 N 
ATOM     53  N   UNL     1      -6.123 -14.724   8.847  1.00  0.00    -0.248 NA
ATOM     54  C   UNL     1      -7.456 -16.408   7.931  1.00  0.00     0.031 C 
ATOM     55  C   UNL     1      -4.725 -14.661  13.064  1.00  0.00     0.029 A 
ATOM     56  C   UNL     1      -5.192 -14.695  11.760  1.00  0.00     0.049 A 
ATOM     57  H   UNL     1      -4.772 -13.383  10.164  1.00  0.00     0.167 HD
ATOM     58  C   UNL     1      -6.461 -15.631   9.846  1.00  0.00     0.074 A 
ATOM     59  C   UNL     1      -7.320 -16.623   9.233  1.00  0.00     0.031 C 
ATOM     60  C   UNL     1      -6.083 -15.650  11.150  1.00  0.00     0.034 A 
BRANCH  47  61
ATOM     61  C   UNL     1      -2.185 -11.098  12.681  1.00  0.00     0.023 A 
ATOM     62  C   UNL     1      -2.577  -9.879  13.272  1.00  0.00     0.012 A 
ATOM     63  C   UNL     1      -0.992 -11.716  13.101  1.00  0.00     0.148 A 
ATOM     64  C   UNL     1      -1.776  -9.267  14.236  1.00  0.00     0.002 A 
ATOM     65  C   UNL     1      -0.221 -11.122  14.093  1.00  0.00     0.091 A 
ATOM     66  F   UNL     1      -0.620 -12.860  12.508  1.00  0.00    -0.205 F 
ATOM     67  C   UNL     1      -0.605  -9.892  14.653  1.00  0.00     0.022 A 
BRANCH  65  68
ATOM     68  S   UNL     1       1.266 -11.892  14.744  1.00  0.00     0.127 S 
ATOM     69  O   UNL     1       2.314 -11.104  14.097  1.00  0.00    -0.237 OA
ATOM     70  O   UNL     1       1.131 -11.662  16.183  1.00  0.00    -0.237 OA
ATOM     71  O   UNL     1       1.193 -13.291  14.348  1.00  0.00    -0.744 OA
ENDBRANCH  65  68
ENDBRANCH  47  61
BRANCH  48  72
ATOM     72  C   UNL     1      -7.509 -15.152   5.272  1.00  0.00     0.023 A 
ATOM     73  C   UNL     1      -8.916 -15.187   5.322  1.00  0.00     0.012 A 
ATOM     74  C   UNL     1      -6.848 -15.672   4.143  1.00  0.00     0.148 A 
ATOM     75  C   UNL     1      -9.649 -15.749   4.277  1.00  0.00     0.002 A 
ATOM     76  C   UNL     1      -7.586 -16.179   3.080  1.00  0.00     0.091 A 
ATOM     77  F   UNL     1      -5.508 -15.643   4.124  1.00  0.00    -0.205 F 
ATOM     78  C   UNL     1      -8.986 -16.234   3.152  1.00  0.00     0.022 A 
BRANCH  76  79
ATOM     79  S   UNL     1      -6.823 -16.700   1.540  1.00  0.00     0.127 S 
ATOM     80  O   UNL     1      -7.033 -18.145   1.575  1.00  0.00    -0.237 OA
ATOM     81  O   UNL     1      -7.628 -15.983   0.550  1.00  0.00    -0.237 OA
ATOM     82  O   UNL     1      -5.437 -16.260   1.618  1.00  0.00    -0.744 OA
ENDBRANCH  76  79
ENDBRANCH  48  72
BRANCH  60  83
ATOM     83  C   UNL     1      -6.615 -16.765  12.014  1.00  0.00     0.023 A 
ATOM     84  C   UNL     1      -6.132 -18.077  11.840  1.00  0.00     0.012 A 
ATOM     85  C   UNL     1      -7.550 -16.505  13.035  1.00  0.00     0.148 A 
ATOM     86  C   UNL     1      -6.600 -19.119  12.641  1.00  0.00     0.002 A 
ATOM     87  C   UNL     1      -7.976 -17.539  13.861  1.00  0.00     0.091 A 
ATOM     88  F   UNL     1      -8.016 -15.255  13.176  1.00  0.00    -0.205 F 
ATOM     89  C   UNL     1      -7.513 -18.848  13.657  1.00  0.00     0.022 A 
BRANCH  87  90
ATOM     90  S   UNL     1      -9.076 -17.252  15.253  1.00  0.00     0.127 S 
ATOM     91  O   UNL     1     -10.368 -17.657  14.703  1.00  0.00    -0.237 OA
ATOM     92  O   UNL     1      -8.538 -18.154  16.273  1.00  0.00    -0.237 OA
ATOM     93  O   UNL     1      -8.939 -15.837  15.575  1.00  0.00    -0.744 OA
ENDBRANCH  87  90
ENDBRANCH  60  83
ENDBRANCH  34  35
ENDBRANCH  27  29
ENDBRANCH  26  27
ENDBRANCH  25  26
ENDBRANCH  24  25
ENDBRANCH  23  24
ENDBRANCH   1  23
TORSDOF 22
