REMARK SMILES O=C(OCCOCCOC(=O)[C@H](c1c[nH]c2cc(F)ccc12)[NH+]1CCN(c2ccccc2)CC1)c1ccc(-c2c3nc(c(-c4cccc(S(=O)(=O)[O-])c4F)c4ccc([nH]4)c(-c4cccc(S(=O)(=O)[O-])c4F)c4nc(c(-c5cccc(S(=O)(=O)[O-])c5F)c5ccc2[nH]5)C=C4)C=C3)cc1
REMARK SMILES IDX 5 1 4 2 3 3 2 4 1 5 35 6 36 7 97 8 37 9 96 10 38 11 39 12
REMARK SMILES IDX 40 13 90 14 41 15 95 16 89 17 91 18 42 19 94 20 88 21 87 22
REMARK SMILES IDX 43 24 75 25 55 26 74 27 56 28 59 29 73 30 92 31 57 32 58 33
REMARK SMILES IDX 72 35 93 36 60 37 44 38 45 39 53 40 46 41 48 42 54 43 47 44
REMARK SMILES IDX 49 45 50 46 51 47 52 48 76 49 77 50 85 51 78 52 80 53 86 54
REMARK SMILES IDX 79 55 81 56 82 57 83 58 84 59 61 60 62 61 70 62 63 63 65 64
REMARK SMILES IDX 71 65 64 66 66 67 67 68 68 69 69 70 6 71 7 72 8 73 9 74
REMARK SMILES IDX 10 75 11 76 12 77 23 78 24 79 34 80 25 82 33 83 26 84 27 85
REMARK SMILES IDX 28 86 32 87 29 88 31 89 30 90 13 91 14 92 22 93 15 94 16 95
REMARK SMILES IDX 21 96 17 98 20 99 18 100 19 101
REMARK H PARENT 91 23 59 34 23 81 15 97
REMARK Flexibility Score: inf
ROOT
ATOM      1  C   UNL     1       5.093   1.796   0.923  1.00  0.00     0.202 C 
ENDROOT
BRANCH   1   2
ATOM      2  C   UNL     1       5.305   1.860  -0.585  1.00  0.00     0.261 C 
BRANCH   2   3
ATOM      3  O   UNL     1       6.054   3.031  -0.921  1.00  0.00    -0.460 OA
BRANCH   3   4
ATOM      4  C   UNL     1       5.540   4.210  -1.349  1.00  0.00     0.338 C 
ATOM      5  O   UNL     1       6.306   5.152  -1.541  1.00  0.00    -0.246 OA
BRANCH   4   6
ATOM      6  C   UNL     1       4.087   4.408  -1.627  1.00  0.00     0.060 A 
ATOM      7  C   UNL     1       3.054   3.855  -0.869  1.00  0.00     0.016 A 
ATOM      8  C   UNL     1       3.744   5.301  -2.651  1.00  0.00     0.016 A 
ATOM      9  C   UNL     1       1.731   4.159  -1.091  1.00  0.00     0.010 A 
ATOM     10  C   UNL     1       2.407   5.643  -2.870  1.00  0.00     0.010 A 
ATOM     11  C   UNL     1       1.407   5.082  -2.068  1.00  0.00    -0.014 A 
BRANCH  11  12
ATOM     12  C   UNL     1      -0.017   5.379  -2.225  1.00  0.00     0.031 A 
ATOM     13  C   UNL     1      -0.737   4.772  -3.378  1.00  0.00     0.074 A 
ATOM     14  C   UNL     1      -0.644   6.065  -1.252  1.00  0.00     0.049 A 
ATOM     15  N   UNL     1      -1.969   4.947  -3.753  1.00  0.00    -0.248 NA
ATOM     16  C   UNL     1       0.027   3.825  -4.212  1.00  0.00     0.031 C 
ATOM     17  C   UNL     1      -0.011   6.555  -0.020  1.00  0.00     0.029 A 
ATOM     18  N   UNL     1      -1.947   6.460  -1.133  1.00  0.00    -0.354 N 
ATOM     19  C   UNL     1      -2.109   4.200  -4.912  1.00  0.00     0.074 A 
ATOM     20  C   UNL     1      -0.855   3.524  -5.152  1.00  0.00     0.031 C 
ATOM     21  C   UNL     1      -0.926   7.201   0.719  1.00  0.00     0.029 A 
ATOM     22  C   UNL     1      -2.176   7.243  -0.025  1.00  0.00     0.049 A 
ATOM     23  H   UNL     1      -2.650   6.210  -1.775  1.00  0.00     0.167 HD
ATOM     24  C   UNL     1      -3.194   4.125  -5.709  1.00  0.00     0.034 A 
ATOM     25  C   UNL     1      -3.260   7.970   0.298  1.00  0.00     0.034 A 
ATOM     26  C   UNL     1      -4.421   4.809  -5.419  1.00  0.00     0.049 A 
ATOM     27  C   UNL     1      -4.426   7.916  -0.651  1.00  0.00     0.074 A 
ATOM     28  C   UNL     1      -5.588   4.833  -6.154  1.00  0.00     0.029 A 
ATOM     29  N   UNL     1      -4.624   5.611  -4.303  1.00  0.00    -0.354 N 
ATOM     30  N   UNL     1      -4.570   7.194  -1.739  1.00  0.00    -0.248 NA
ATOM     31  C   UNL     1      -5.578   8.768  -0.336  1.00  0.00     0.031 C 
ATOM     32  C   UNL     1      -6.484   5.687  -5.503  1.00  0.00     0.029 A 
ATOM     33  C   UNL     1      -5.891   6.158  -4.340  1.00  0.00     0.049 A 
ATOM     34  H   UNL     1      -3.962   5.766  -3.590  1.00  0.00     0.167 HD
ATOM     35  C   UNL     1      -5.833   7.490  -2.229  1.00  0.00     0.074 A 
ATOM     36  C   UNL     1      -6.427   8.430  -1.296  1.00  0.00     0.031 C 
ATOM     37  C   UNL     1      -6.446   7.053  -3.357  1.00  0.00     0.034 A 
BRANCH  24  38
ATOM     38  C   UNL     1      -3.065   3.352  -6.987  1.00  0.00     0.023 A 
ATOM     39  C   UNL     1      -3.053   1.944  -6.981  1.00  0.00     0.012 A 
ATOM     40  C   UNL     1      -2.974   4.044  -8.210  1.00  0.00     0.148 A 
ATOM     41  C   UNL     1      -2.933   1.236  -8.176  1.00  0.00     0.002 A 
ATOM     42  C   UNL     1      -2.900   3.333  -9.399  1.00  0.00     0.091 A 
ATOM     43  F   UNL     1      -2.951   5.384  -8.183  1.00  0.00    -0.205 F 
ATOM     44  C   UNL     1      -2.868   1.929  -9.384  1.00  0.00     0.022 A 
BRANCH  42  45
ATOM     45  S   UNL     1      -2.876   4.132 -11.005  1.00  0.00     0.127 S 
ATOM     46  O   UNL     1      -1.583   3.698 -11.533  1.00  0.00    -0.237 OA
ATOM     47  O   UNL     1      -4.036   3.528 -11.659  1.00  0.00    -0.237 OA
ATOM     48  O   UNL     1      -2.988   5.561 -10.750  1.00  0.00    -0.744 OA
ENDBRANCH  42  45
ENDBRANCH  24  38
BRANCH  25  49
ATOM     49  C   UNL     1      -3.271   8.845   1.505  1.00  0.00     0.023 A 
ATOM     50  C   UNL     1      -4.202   8.613   2.535  1.00  0.00     0.012 A 
ATOM     51  C   UNL     1      -2.377   9.931   1.628  1.00  0.00     0.148 A 
ATOM     52  C   UNL     1      -4.277   9.470   3.635  1.00  0.00     0.002 A 
ATOM     53  C   UNL     1      -2.416  10.744   2.754  1.00  0.00     0.091 A 
ATOM     54  F   UNL     1      -1.508  10.158   0.632  1.00  0.00    -0.205 F 
ATOM     55  C   UNL     1      -3.381  10.530   3.749  1.00  0.00     0.022 A 
BRANCH  53  56
ATOM     56  S   UNL     1      -1.217  12.052   3.033  1.00  0.00     0.127 S 
ATOM     57  O   UNL     1      -2.007  13.248   2.751  1.00  0.00    -0.237 OA
ATOM     58  O   UNL     1      -0.875  11.858   4.443  1.00  0.00    -0.237 OA
ATOM     59  O   UNL     1      -0.121  11.780   2.112  1.00  0.00    -0.744 OA
ENDBRANCH  53  56
ENDBRANCH  25  49
BRANCH  37  60
ATOM     60  C   UNL     1      -7.834   7.563  -3.617  1.00  0.00     0.023 A 
ATOM     61  C   UNL     1      -8.024   8.895  -4.034  1.00  0.00     0.012 A 
ATOM     62  C   UNL     1      -8.934   6.690  -3.536  1.00  0.00     0.148 A 
ATOM     63  C   UNL     1      -9.300   9.359  -4.339  1.00  0.00     0.002 A 
ATOM     64  C   UNL     1     -10.193   7.143  -3.900  1.00  0.00     0.091 A 
ATOM     65  F   UNL     1      -8.724   5.433  -3.120  1.00  0.00    -0.205 F 
ATOM     66  C   UNL     1     -10.381   8.480  -4.287  1.00  0.00     0.022 A 
BRANCH  64  67
ATOM     67  S   UNL     1     -11.617   6.054  -3.974  1.00  0.00     0.127 S 
ATOM     68  O   UNL     1     -12.424   6.543  -2.858  1.00  0.00    -0.237 OA
ATOM     69  O   UNL     1     -12.162   6.352  -5.299  1.00  0.00    -0.237 OA
ATOM     70  O   UNL     1     -11.100   4.701  -3.823  1.00  0.00    -0.744 OA
ENDBRANCH  64  67
ENDBRANCH  37  60
ENDBRANCH  11  12
ENDBRANCH   4   6
ENDBRANCH   3   4
ENDBRANCH   2   3
ENDBRANCH   1   2
BRANCH   1  71
ATOM     71  O   UNL     1       4.446   2.929   1.483  1.00  0.00    -0.374 OA
BRANCH  71  72
ATOM     72  C   UNL     1       5.246   4.004   1.964  1.00  0.00     0.202 C 
BRANCH  72  73
ATOM     73  C   UNL     1       4.762   4.311   3.380  1.00  0.00     0.261 C 
BRANCH  73  74
ATOM     74  O   UNL     1       4.945   3.111   4.146  1.00  0.00    -0.459 OA
BRANCH  74  75
ATOM     75  C   UNL     1       3.934   2.171   4.031  1.00  0.00     0.370 C 
ATOM     76  O   UNL     1       2.772   2.420   3.763  1.00  0.00    -0.245 OA
BRANCH  75  77
ATOM     77  C   UNL     1       4.562   0.786   4.325  1.00  0.00     0.328 C 
BRANCH  77  78
ATOM     78  N   UNL     1       4.365   0.441   5.764  1.00  0.00    -0.316 N 
ATOM     79  C   UNL     1       4.957  -0.872   6.119  1.00  0.00     0.284 C 
ATOM     80  C   UNL     1       5.034   1.454   6.635  1.00  0.00     0.284 C 
ATOM     81  H   UNL     1       3.356   0.415   5.911  1.00  0.00     0.349 HD
ATOM     82  C   UNL     1       6.495  -0.954   5.982  1.00  0.00     0.178 C 
ATOM     83  C   UNL     1       6.576   1.501   6.485  1.00  0.00     0.178 C 
ATOM     84  N   UNL     1       7.153   0.164   6.680  1.00  0.00    -0.360 N 
BRANCH  84  85
ATOM     85  C   UNL     1       7.828  -0.150   7.847  1.00  0.00     0.037 A 
ATOM     86  C   UNL     1       8.877  -1.079   7.814  1.00  0.00     0.026 A 
ATOM     87  C   UNL     1       7.487   0.410   9.083  1.00  0.00     0.026 A 
ATOM     88  C   UNL     1       9.553  -1.450   8.976  1.00  0.00     0.002 A 
ATOM     89  C   UNL     1       8.154   0.040  10.250  1.00  0.00     0.002 A 
ATOM     90  C   UNL     1       9.185  -0.893  10.197  1.00  0.00     0.000 A 
ENDBRANCH  84  85
ENDBRANCH  77  78
BRANCH  77  91
ATOM     91  C   UNL     1       4.071  -0.310   3.391  1.00  0.00     0.046 A 
ATOM     92  C   UNL     1       2.767  -0.685   3.122  1.00  0.00     0.094 A 
ATOM     93  C   UNL     1       4.908  -1.173   2.581  1.00  0.00     0.009 A 
ATOM     94  N   UNL     1       2.778  -1.725   2.232  1.00  0.00    -0.361 N 
ATOM     95  C   UNL     1       4.071  -2.068   1.911  1.00  0.00     0.049 A 
ATOM     96  C   UNL     1       6.302  -1.266   2.343  1.00  0.00     0.014 A 
ATOM     97  H   UNL     1       1.974  -2.165   1.872  1.00  0.00     0.166 HD
ATOM     98  C   UNL     1       4.560  -3.083   1.076  1.00  0.00     0.065 A 
ATOM     99  C   UNL     1       6.808  -2.278   1.520  1.00  0.00     0.040 A 
ATOM    100  C   UNL     1       5.942  -3.174   0.914  1.00  0.00     0.125 A 
ATOM    101  F   UNL     1       6.448  -4.147   0.144  1.00  0.00    -0.207 F 
ENDBRANCH  77  91
ENDBRANCH  75  77
ENDBRANCH  74  75
ENDBRANCH  73  74
ENDBRANCH  72  73
ENDBRANCH  71  72
ENDBRANCH   1  71
TORSDOF 20
