REMARK SMILES Cc1ncccc1C(=O)N1CC[C@@H](C(=O)OCCOCCOC(=O)c2ccc(-c3c4nc(c(-c5cccc(S(=O)(=O)[O-])c5F)c5ccc([nH]5)c(-c5cccc(S(=O)(=O)[O-])c5F)c5nc(c(-c6cccc(S(=O)(=O)[O-])c6F)c6ccc3[nH]6)C=C5)C=C4)cc2)C1
REMARK SMILES IDX 20 1 19 2 18 3 17 4 16 5 14 6 15 7 13 8 10 9 11 10 88 11
REMARK SMILES IDX 12 12 8 13 9 14 7 15 1 16 2 17 3 18 4 19 6 20 5 21 21 22
REMARK SMILES IDX 22 23 23 24 24 25 25 26 26 27 87 28 27 29 86 30 28 31 29 32
REMARK SMILES IDX 30 33 80 34 31 35 85 36 79 37 81 38 32 39 84 40 78 41 77 42
REMARK SMILES IDX 33 44 65 45 45 46 64 47 46 48 49 49 63 50 82 51 47 52 48 53
REMARK SMILES IDX 62 55 83 56 50 57 34 58 35 59 43 60 36 61 38 62 44 63 37 64
REMARK SMILES IDX 39 65 40 66 41 67 42 68 66 69 67 70 75 71 68 72 70 73 76 74
REMARK SMILES IDX 69 75 71 76 72 77 73 78 74 79 51 80 52 81 60 82 53 83 55 84
REMARK SMILES IDX 61 85 54 86 56 87 57 88 58 89 59 90
REMARK H PARENT 81 43 49 54
REMARK Flexibility Score: inf
ROOT
ATOM      1  C   UNL     1       4.859  -6.189   0.476  1.00  0.00     0.202 C 
ENDROOT
BRANCH   1   2
ATOM      2  O   UNL     1       6.218  -6.611   0.567  1.00  0.00    -0.374 OA
BRANCH   2   3
ATOM      3  C   UNL     1       7.107  -5.738   1.269  1.00  0.00     0.202 C 
BRANCH   3   4
ATOM      4  C   UNL     1       7.568  -4.498   0.497  1.00  0.00     0.261 C 
BRANCH   4   5
ATOM      5  O   UNL     1       6.526  -3.506   0.448  1.00  0.00    -0.463 OA
BRANCH   5   6
ATOM      6  C   UNL     1       5.997  -3.223  -0.767  1.00  0.00     0.310 C 
ATOM      7  O   UNL     1       6.329  -3.755  -1.820  1.00  0.00    -0.252 OA
BRANCH   6   8
ATOM      8  C   UNL     1       4.875  -2.217  -0.691  1.00  0.00     0.120 C 
ATOM      9  N   UNL     1       2.594  -2.250  -0.134  1.00  0.00    -0.338 N 
ATOM     10  C   UNL     1       3.249  -1.853   1.096  1.00  0.00     0.121 C 
ATOM     11  C   UNL     1       3.543  -2.887  -1.018  1.00  0.00     0.135 C 
ATOM     12  C   UNL     1       4.656  -1.481   0.647  1.00  0.00     0.039 C 
BRANCH   9  13
ATOM     13  C   UNL     1       1.251  -2.244  -0.436  1.00  0.00     0.255 C 
ATOM     14  O   UNL     1       0.740  -3.141  -1.108  1.00  0.00    -0.269 OA
BRANCH  13  15
ATOM     15  C   UNL     1       0.405  -1.075  -0.078  1.00  0.00     0.061 A 
ATOM     16  C   UNL     1       2.178   0.699  -0.622  1.00  0.00     0.067 C 
ATOM     17  C   UNL     1       0.798   0.260  -0.239  1.00  0.00     0.050 A 
ATOM     18  N   UNL     1      -0.072   1.298  -0.082  1.00  0.00    -0.261 NA
ATOM     19  C   UNL     1      -1.362   1.015   0.186  1.00  0.00     0.111 A 
ATOM     20  C   UNL     1      -0.948  -1.326   0.196  1.00  0.00     0.017 A 
ATOM     21  C   UNL     1      -1.846  -0.270   0.328  1.00  0.00     0.021 A 
ENDBRANCH  13  15
ENDBRANCH   9  13
ENDBRANCH   6   8
ENDBRANCH   5   6
ENDBRANCH   4   5
ENDBRANCH   3   4
ENDBRANCH   2   3
ENDBRANCH   1   2
BRANCH   1  22
ATOM     22  C   UNL     1       3.957  -6.547   1.661  1.00  0.00     0.261 C 
BRANCH  22  23
ATOM     23  O   UNL     1       4.354  -5.859   2.860  1.00  0.00    -0.460 OA
BRANCH  23  24
ATOM     24  C   UNL     1       4.999  -6.628   3.768  1.00  0.00     0.338 C 
ATOM     25  O   UNL     1       5.206  -7.834   3.702  1.00  0.00    -0.246 OA
BRANCH  24  26
ATOM     26  C   UNL     1       5.602  -5.775   4.805  1.00  0.00     0.060 A 
ATOM     27  C   UNL     1       6.977  -5.913   5.038  1.00  0.00     0.016 A 
ATOM     28  C   UNL     1       4.837  -4.891   5.568  1.00  0.00     0.016 A 
ATOM     29  C   UNL     1       7.588  -5.188   6.058  1.00  0.00     0.010 A 
ATOM     30  C   UNL     1       5.451  -4.171   6.598  1.00  0.00     0.010 A 
ATOM     31  C   UNL     1       6.823  -4.334   6.863  1.00  0.00    -0.014 A 
BRANCH  31  32
ATOM     32  C   UNL     1       7.445  -3.672   8.035  1.00  0.00     0.031 A 
ATOM     33  C   UNL     1       7.197  -4.217   9.413  1.00  0.00     0.074 A 
ATOM     34  C   UNL     1       8.213  -2.580   7.867  1.00  0.00     0.049 A 
ATOM     35  N   UNL     1       7.608  -3.762  10.567  1.00  0.00    -0.248 NA
ATOM     36  C   UNL     1       6.375  -5.435   9.503  1.00  0.00     0.031 C 
ATOM     37  C   UNL     1       8.524  -1.960   6.580  1.00  0.00     0.029 A 
ATOM     38  N   UNL     1       8.843  -1.782   8.788  1.00  0.00    -0.354 N 
ATOM     39  C   UNL     1       7.072  -4.615  11.524  1.00  0.00     0.074 A 
ATOM     40  C   UNL     1       6.301  -5.614  10.814  1.00  0.00     0.031 C 
ATOM     41  C   UNL     1       9.257  -0.856   6.795  1.00  0.00     0.029 A 
ATOM     42  C   UNL     1       9.441  -0.676   8.234  1.00  0.00     0.049 A 
ATOM     43  H   UNL     1       8.865  -1.983   9.751  1.00  0.00     0.167 HD
ATOM     44  C   UNL     1       7.219  -4.577  12.870  1.00  0.00     0.034 A 
ATOM     45  C   UNL     1      10.040   0.380   8.821  1.00  0.00     0.034 A 
ATOM     46  C   UNL     1       8.000  -3.591  13.569  1.00  0.00     0.049 A 
ATOM     47  C   UNL     1      10.162   0.416  10.322  1.00  0.00     0.074 A 
ATOM     48  C   UNL     1       8.264  -3.509  14.925  1.00  0.00     0.029 A 
ATOM     49  N   UNL     1       8.622  -2.505  12.974  1.00  0.00    -0.354 N 
ATOM     50  N   UNL     1       9.768  -0.471  11.204  1.00  0.00    -0.248 NA
ATOM     51  C   UNL     1      10.835   1.585  10.907  1.00  0.00     0.031 C 
ATOM     52  C   UNL     1       9.015  -2.351  15.154  1.00  0.00     0.029 A 
ATOM     53  C   UNL     1       9.247  -1.730  13.937  1.00  0.00     0.049 A 
ATOM     54  H   UNL     1       8.621  -2.312  12.009  1.00  0.00     0.167 HD
ATOM     55  C   UNL     1      10.167   0.019  12.443  1.00  0.00     0.074 A 
ATOM     56  C   UNL     1      10.857   1.268  12.195  1.00  0.00     0.031 C 
ATOM     57  C   UNL     1       9.966  -0.509  13.676  1.00  0.00     0.034 A 
BRANCH  44  58
ATOM     58  C   UNL     1       6.533  -5.644  13.681  1.00  0.00     0.023 A 
ATOM     59  C   UNL     1       7.030  -6.963  13.668  1.00  0.00     0.012 A 
ATOM     60  C   UNL     1       5.434  -5.328  14.504  1.00  0.00     0.148 A 
ATOM     61  C   UNL     1       6.428  -7.956  14.439  1.00  0.00     0.002 A 
ATOM     62  C   UNL     1       4.866  -6.313  15.302  1.00  0.00     0.091 A 
ATOM     63  F   UNL     1       4.962  -4.073  14.485  1.00  0.00    -0.205 F 
ATOM     64  C   UNL     1       5.354  -7.630  15.263  1.00  0.00     0.022 A 
BRANCH  62  65
ATOM     65  S   UNL     1       3.530  -5.975  16.454  1.00  0.00     0.127 S 
ATOM     66  O   UNL     1       2.407  -6.654  15.809  1.00  0.00    -0.237 OA
ATOM     67  O   UNL     1       4.009  -6.618  17.678  1.00  0.00    -0.237 OA
ATOM     68  O   UNL     1       3.423  -4.525  16.531  1.00  0.00    -0.744 OA
ENDBRANCH  62  65
ENDBRANCH  44  58
BRANCH  45  69
ATOM     69  C   UNL     1      10.581   1.485   7.982  1.00  0.00     0.023 A 
ATOM     70  C   UNL     1      11.972   1.679   7.894  1.00  0.00     0.012 A 
ATOM     71  C   UNL     1       9.721   2.328   7.249  1.00  0.00     0.148 A 
ATOM     72  C   UNL     1      12.497   2.709   7.112  1.00  0.00     0.002 A 
ATOM     73  C   UNL     1      10.253   3.312   6.426  1.00  0.00     0.091 A 
ATOM     74  F   UNL     1       8.399   2.138   7.361  1.00  0.00    -0.205 F 
ATOM     75  C   UNL     1      11.640   3.517   6.370  1.00  0.00     0.022 A 
BRANCH  73  76
ATOM     76  S   UNL     1       9.231   4.303   5.329  1.00  0.00     0.127 S 
ATOM     77  O   UNL     1       9.316   5.622   5.951  1.00  0.00    -0.237 OA
ATOM     78  O   UNL     1       9.942   4.172   4.057  1.00  0.00    -0.237 OA
ATOM     79  O   UNL     1       7.915   3.678   5.346  1.00  0.00    -0.744 OA
ENDBRANCH  73  76
ENDBRANCH  45  69
BRANCH  57  80
ATOM     80  C   UNL     1      10.512   0.248  14.860  1.00  0.00     0.023 A 
ATOM     81  C   UNL     1       9.893   1.446  15.269  1.00  0.00     0.012 A 
ATOM     82  C   UNL     1      11.588  -0.265  15.611  1.00  0.00     0.148 A 
ATOM     83  C   UNL     1      10.357   2.138  16.388  1.00  0.00     0.002 A 
ATOM     84  C   UNL     1      12.013   0.404  16.753  1.00  0.00     0.091 A 
ATOM     85  F   UNL     1      12.174  -1.398  15.196  1.00  0.00    -0.205 F 
ATOM     86  C   UNL     1      11.407   1.611  17.135  1.00  0.00     0.022 A 
BRANCH  84  87
ATOM     87  S   UNL     1      13.296  -0.244  17.831  1.00  0.00     0.127 S 
ATOM     88  O   UNL     1      14.391   0.694  17.588  1.00  0.00    -0.237 OA
ATOM     89  O   UNL     1      12.677  -0.129  19.152  1.00  0.00    -0.237 OA
ATOM     90  O   UNL     1      13.538  -1.612  17.393  1.00  0.00    -0.744 OA
ENDBRANCH  84  87
ENDBRANCH  57  80
ENDBRANCH  31  32
ENDBRANCH  24  26
ENDBRANCH  23  24
ENDBRANCH  22  23
ENDBRANCH   1  22
TORSDOF 19
