REMARK SMILES Cc1cc(C(=O)OCCOCCOC(=O)c2ccc(-c3c4nc(c(-c5cccc(S(=O)(=O)[O-])c5F)c5ccc([nH]5)c(-c5cccc(S(=O)(=O)[O-])c5F)c5nc(c(-c6cccc(S(=O)(=O)[O-])c6F)c6ccc3[nH]6)C=C5)C=C4)cc2)ccc1NS(=O)(=O)c1ccc(C#N)cc1C
REMARK SMILES IDX 9 1 8 2 7 3 5 4 6 5 4 6 1 7 2 8 3 9 81 10 80 11 79 12 82 13
REMARK SMILES IDX 83 15 84 16 85 17 86 18 87 19 93 20 88 21 92 22 94 23 89 24
REMARK SMILES IDX 90 25 91 26 10 27 11 28 12 29 13 30 14 31 15 32 16 33 17 34
REMARK SMILES IDX 78 35 18 36 77 37 19 38 20 39 21 40 71 41 22 42 76 43 70 44
REMARK SMILES IDX 72 45 23 46 75 47 69 48 68 49 24 51 56 52 36 53 55 54 37 55
REMARK SMILES IDX 40 56 54 57 73 58 38 59 39 60 53 62 74 63 41 64 25 65 26 66
REMARK SMILES IDX 34 67 27 68 29 69 35 70 28 71 30 72 31 73 32 74 33 75 57 76
REMARK SMILES IDX 58 77 66 78 59 79 61 80 67 81 60 82 62 83 63 84 64 85 65 86
REMARK SMILES IDX 42 87 43 88 51 89 44 90 46 91 52 92 45 93 47 94 48 95 49 96
REMARK SMILES IDX 50 97
REMARK H PARENT 82 14 72 50 40 61
REMARK Flexibility Score: inf
ROOT
ATOM      1  C   UNL     1      -1.151  -4.085  -1.813  1.00  0.00     0.202 C 
ENDROOT
BRANCH   1   2
ATOM      2  C   UNL     1      -2.313  -3.423  -1.060  1.00  0.00     0.261 C 
BRANCH   2   3
ATOM      3  O   UNL     1      -1.976  -2.242  -0.405  1.00  0.00    -0.460 OA
BRANCH   3   4
ATOM      4  C   UNL     1      -0.897  -2.301   0.385  1.00  0.00     0.338 C 
ATOM      5  O   UNL     1      -0.318  -3.265   0.841  1.00  0.00    -0.246 OA
BRANCH   4   6
ATOM      6  C   UNL     1      -0.384  -0.939   0.263  1.00  0.00     0.060 A 
ATOM      7  C   UNL     1       3.018   0.539   0.243  1.00  0.00     0.046 C 
ATOM      8  C   UNL     1       1.516   0.507   0.253  1.00  0.00    -0.026 A 
ATOM      9  C   UNL     1       0.953  -0.736   0.538  1.00  0.00     0.021 A 
ATOM     10  C   UNL     1       0.680   1.547  -0.210  1.00  0.00     0.052 A 
ATOM     11  C   UNL     1      -0.546   1.234  -0.752  1.00  0.00     0.028 A 
ATOM     12  C   UNL     1      -1.132   0.044  -0.402  1.00  0.00     0.018 A 
BRANCH  10  13
ATOM     13  N   UNL     1       1.119   2.893  -0.279  1.00  0.00    -0.279 N 
ATOM     14  H   UNL     1       2.028   3.063  -0.617  1.00  0.00     0.180 HD
BRANCH  13  15
ATOM     15  S   UNL     1       0.176   4.240   0.185  1.00  0.00     0.262 S 
ATOM     16  O   UNL     1       0.635   4.591   1.513  1.00  0.00    -0.201 OA
ATOM     17  O   UNL     1       0.398   5.152  -0.923  1.00  0.00    -0.201 OA
BRANCH  15  18
ATOM     18  C   UNL     1      -1.620   4.058   0.328  1.00  0.00     0.090 A 
ATOM     19  C   UNL     1      -2.233   2.900   0.814  1.00  0.00     0.024 A 
ATOM     20  C   UNL     1      -2.465   5.126  -0.053  1.00  0.00    -0.029 A 
ATOM     21  C   UNL     1      -3.610   2.674   0.621  1.00  0.00     0.021 A 
ATOM     22  C   UNL     1      -3.853   4.904  -0.206  1.00  0.00     0.024 A 
ATOM     23  C   UNL     1      -2.028   6.564  -0.150  1.00  0.00     0.046 C 
ATOM     24  C   UNL     1      -4.420   3.664   0.071  1.00  0.00     0.052 A 
BRANCH  24  25
ATOM     25  C   UNL     1      -5.821   3.462  -0.167  1.00  0.00     0.099 C 
ATOM     26  N   UNL     1      -6.954   3.344  -0.386  1.00  0.00    -0.192 NA
ENDBRANCH  24  25
ENDBRANCH  15  18
ENDBRANCH  13  15
ENDBRANCH  10  13
ENDBRANCH   4   6
ENDBRANCH   3   4
ENDBRANCH   2   3
ENDBRANCH   1   2
BRANCH   1  27
ATOM     27  O   UNL     1      -0.387  -3.239  -2.633  1.00  0.00    -0.374 OA
BRANCH  27  28
ATOM     28  C   UNL     1      -1.180  -2.410  -3.442  1.00  0.00     0.202 C 
BRANCH  28  29
ATOM     29  C   UNL     1      -2.583  -2.824  -4.006  1.00  0.00     0.261 C 
BRANCH  29  30
ATOM     30  O   UNL     1      -3.421  -4.086  -3.780  1.00  0.00    -0.460 OA
BRANCH  30  31
ATOM     31  C   UNL     1      -4.140  -5.187  -3.481  1.00  0.00     0.338 C 
ATOM     32  O   UNL     1      -4.984  -5.580  -4.277  1.00  0.00    -0.246 OA
BRANCH  31  33
ATOM     33  C   UNL     1      -4.043  -5.908  -2.160  1.00  0.00     0.060 A 
ATOM     34  C   UNL     1      -5.152  -6.028  -1.322  1.00  0.00     0.016 A 
ATOM     35  C   UNL     1      -2.873  -6.435  -1.665  1.00  0.00     0.016 A 
ATOM     36  C   UNL     1      -4.994  -6.021   0.074  1.00  0.00     0.010 A 
ATOM     37  C   UNL     1      -2.679  -6.371  -0.284  1.00  0.00     0.010 A 
ATOM     38  C   UNL     1      -3.717  -5.955   0.578  1.00  0.00    -0.014 A 
BRANCH  38  39
ATOM     39  C   UNL     1      -3.325  -5.299   1.851  1.00  0.00     0.031 A 
ATOM     40  C   UNL     1      -2.499  -6.110   2.788  1.00  0.00     0.074 A 
ATOM     41  C   UNL     1      -3.437  -3.946   2.068  1.00  0.00     0.049 A 
ATOM     42  N   UNL     1      -2.145  -5.729   3.963  1.00  0.00    -0.248 NA
ATOM     43  C   UNL     1      -2.036  -7.465   2.482  1.00  0.00     0.031 C 
ATOM     44  C   UNL     1      -2.568  -3.154   2.962  1.00  0.00     0.029 A 
ATOM     45  N   UNL     1      -4.233  -2.934   1.510  1.00  0.00    -0.354 N 
ATOM     46  C   UNL     1      -1.188  -6.607   4.418  1.00  0.00     0.074 A 
ATOM     47  C   UNL     1      -1.245  -7.728   3.524  1.00  0.00     0.031 C 
ATOM     48  C   UNL     1      -2.985  -1.881   3.023  1.00  0.00     0.029 A 
ATOM     49  C   UNL     1      -4.269  -1.820   2.365  1.00  0.00     0.049 A 
ATOM     50  H   UNL     1      -4.699  -2.996   0.645  1.00  0.00     0.167 HD
ATOM     51  C   UNL     1      -0.385  -6.227   5.445  1.00  0.00     0.034 A 
ATOM     52  C   UNL     1      -5.387  -1.314   2.975  1.00  0.00     0.034 A 
ATOM     53  C   UNL     1      -0.878  -4.972   6.039  1.00  0.00     0.049 A 
ATOM     54  C   UNL     1      -5.395  -1.601   4.477  1.00  0.00     0.074 A 
ATOM     55  C   UNL     1      -0.455  -3.657   5.989  1.00  0.00     0.029 A 
ATOM     56  N   UNL     1      -2.177  -4.941   6.549  1.00  0.00    -0.354 N 
ATOM     57  N   UNL     1      -4.385  -2.129   5.119  1.00  0.00    -0.248 NA
ATOM     58  C   UNL     1      -6.517  -1.340   5.378  1.00  0.00     0.031 C 
ATOM     59  C   UNL     1      -1.565  -2.832   6.350  1.00  0.00     0.029 A 
ATOM     60  C   UNL     1      -2.643  -3.640   6.683  1.00  0.00     0.049 A 
ATOM     61  H   UNL     1      -2.698  -5.743   6.785  1.00  0.00     0.167 HD
ATOM     62  C   UNL     1      -4.765  -2.512   6.374  1.00  0.00     0.074 A 
ATOM     63  C   UNL     1      -6.068  -1.883   6.527  1.00  0.00     0.031 C 
ATOM     64  C   UNL     1      -4.019  -3.380   7.133  1.00  0.00     0.034 A 
BRANCH  51  65
ATOM     65  C   UNL     1       0.906  -6.913   5.859  1.00  0.00     0.023 A 
ATOM     66  C   UNL     1       1.496  -6.479   7.065  1.00  0.00     0.012 A 
ATOM     67  C   UNL     1       1.634  -7.894   5.129  1.00  0.00     0.148 A 
ATOM     68  C   UNL     1       2.719  -6.982   7.527  1.00  0.00     0.002 A 
ATOM     69  C   UNL     1       2.819  -8.449   5.627  1.00  0.00     0.091 A 
ATOM     70  F   UNL     1       1.248  -8.239   3.897  1.00  0.00    -0.205 F 
ATOM     71  C   UNL     1       3.372  -7.982   6.821  1.00  0.00     0.022 A 
BRANCH  69  72
ATOM     72  S   UNL     1       3.702  -9.791   4.800  1.00  0.00     0.127 S 
ATOM     73  O   UNL     1       4.951  -9.141   4.403  1.00  0.00    -0.237 OA
ATOM     74  O   UNL     1       3.846 -10.779   5.870  1.00  0.00    -0.237 OA
ATOM     75  O   UNL     1       2.852 -10.222   3.696  1.00  0.00    -0.744 OA
ENDBRANCH  69  72
ENDBRANCH  51  65
BRANCH  52  76
ATOM     76  C   UNL     1      -6.558  -1.197   2.064  1.00  0.00     0.023 A 
ATOM     77  C   UNL     1      -6.481  -0.153   1.110  1.00  0.00     0.012 A 
ATOM     78  C   UNL     1      -7.333  -2.325   1.777  1.00  0.00     0.148 A 
ATOM     79  C   UNL     1      -6.965  -0.321  -0.186  1.00  0.00     0.002 A 
ATOM     80  C   UNL     1      -7.780  -2.501   0.473  1.00  0.00     0.091 A 
ATOM     81  F   UNL     1      -7.471  -3.263   2.722  1.00  0.00    -0.205 F 
ATOM     82  C   UNL     1      -7.568  -1.520  -0.515  1.00  0.00     0.022 A 
BRANCH  80  83
ATOM     83  S   UNL     1      -8.227  -4.109  -0.164  1.00  0.00     0.127 S 
ATOM     84  O   UNL     1      -9.602  -3.921  -0.607  1.00  0.00    -0.237 OA
ATOM     85  O   UNL     1      -7.250  -4.204  -1.244  1.00  0.00    -0.237 OA
ATOM     86  O   UNL     1      -8.036  -5.040   0.936  1.00  0.00    -0.744 OA
ENDBRANCH  80  83
ENDBRANCH  52  76
BRANCH  64  87
ATOM     87  C   UNL     1      -4.553  -4.079   8.378  1.00  0.00     0.023 A 
ATOM     88  C   UNL     1      -5.934  -4.214   8.629  1.00  0.00     0.012 A 
ATOM     89  C   UNL     1      -3.686  -4.744   9.282  1.00  0.00     0.148 A 
ATOM     90  C   UNL     1      -6.427  -4.860   9.768  1.00  0.00     0.002 A 
ATOM     91  C   UNL     1      -4.187  -5.511  10.330  1.00  0.00     0.091 A 
ATOM     92  F   UNL     1      -2.357  -4.622   9.150  1.00  0.00    -0.205 F 
ATOM     93  C   UNL     1      -5.553  -5.527  10.611  1.00  0.00     0.022 A 
BRANCH  91  94
ATOM     94  S   UNL     1      -3.131  -6.641  11.248  1.00  0.00     0.127 S 
ATOM     95  O   UNL     1      -2.832  -5.866  12.449  1.00  0.00    -0.237 OA
ATOM     96  O   UNL     1      -4.018  -7.786  11.464  1.00  0.00    -0.237 OA
ATOM     97  O   UNL     1      -2.009  -6.918  10.362  1.00  0.00    -0.744 OA
ENDBRANCH  91  94
ENDBRANCH  64  87
ENDBRANCH  38  39
ENDBRANCH  31  33
ENDBRANCH  30  31
ENDBRANCH  29  30
ENDBRANCH  28  29
ENDBRANCH  27  28
ENDBRANCH   1  27
TORSDOF 21
