REMARK SMILES CCC[C@H](NC(=O)c1cc2ccccc2[nH]1)C(=O)OCCOCCOC(=O)c1ccc(-c2c3nc(c(-c4cccc(S(=O)(=O)[O-])c4F)c4ccc([nH]4)c(-c4cccc(S(=O)(=O)[O-])c4F)c4nc(c(-c5cccc(S(=O)(=O)[O-])c5F)c5ccc2[nH]5)C=C4)C=C3)cc1
REMARK SMILES IDX 23 1 22 2 21 3 20 4 19 5 17 6 18 7 4 8 3 9 2 10 1 11 5 12
REMARK SMILES IDX 6 13 7 15 8 16 9 17 16 18 10 19 15 20 11 22 14 23 12 24
REMARK SMILES IDX 13 25 24 26 25 27 26 28 27 29 28 30 29 31 90 32 30 33 89 34
REMARK SMILES IDX 31 35 32 36 33 37 83 38 34 39 88 40 82 41 84 42 35 43 87 44
REMARK SMILES IDX 81 45 80 46 36 48 68 49 48 50 67 51 49 52 52 53 66 54 85 55
REMARK SMILES IDX 50 56 51 57 65 59 86 60 53 61 37 62 38 63 46 64 39 65 41 66
REMARK SMILES IDX 47 67 40 68 42 69 43 70 44 71 45 72 69 73 70 74 78 75 71 76
REMARK SMILES IDX 73 77 79 78 72 79 74 80 75 81 76 82 77 83 54 84 55 85 63 86
REMARK SMILES IDX 56 87 58 88 64 89 57 90 59 91 60 92 61 93 62 94
REMARK H PARENT 5 14 16 21 84 47 52 58
REMARK Flexibility Score: inf
ROOT
ATOM      1  C   UNL     1       3.510   2.786  -4.562  1.00  0.00     0.202 C 
ENDROOT
BRANCH   1   2
ATOM      2  O   UNL     1       3.049   3.529  -5.683  1.00  0.00    -0.374 OA
BRANCH   2   3
ATOM      3  C   UNL     1       1.790   4.200  -5.567  1.00  0.00     0.202 C 
BRANCH   3   4
ATOM      4  C   UNL     1       0.550   3.335  -5.327  1.00  0.00     0.261 C 
BRANCH   4   5
ATOM      5  O   UNL     1       0.523   2.822  -3.977  1.00  0.00    -0.462 OA
BRANCH   5   6
ATOM      6  C   UNL     1       0.414   1.471  -3.853  1.00  0.00     0.328 C 
ATOM      7  O   UNL     1       0.347   0.680  -4.787  1.00  0.00    -0.250 OA
BRANCH   6   8
ATOM      8  C   UNL     1       0.280   1.021  -2.393  1.00  0.00     0.192 C 
BRANCH   8   9
ATOM      9  C   UNL     1      -1.226   1.149  -2.050  1.00  0.00     0.037 C 
BRANCH   9  10
ATOM     10  C   UNL     1      -1.630   1.686  -0.674  1.00  0.00    -0.001 C 
ATOM     11  C   UNL     1      -1.651   3.209  -0.585  1.00  0.00     0.004 C 
ENDBRANCH   9  10
ENDBRANCH   8   9
BRANCH   8  12
ATOM     12  N   UNL     1       1.175   1.683  -1.444  1.00  0.00    -0.337 N 
ATOM     13  C   UNL     1       2.249   1.171  -0.756  1.00  0.00     0.268 C 
ATOM     14  H   UNL     1       0.979   2.632  -1.272  1.00  0.00     0.164 HD
ATOM     15  O   UNL     1       2.437   1.602   0.380  1.00  0.00    -0.268 OA
BRANCH  13  16
ATOM     16  C   UNL     1       3.177   0.254  -1.388  1.00  0.00     0.105 A 
ATOM     17  C   UNL     1       4.218  -0.443  -0.782  1.00  0.00     0.042 A 
ATOM     18  N   UNL     1       3.313   0.006  -2.732  1.00  0.00    -0.351 N 
ATOM     19  C   UNL     1       5.078  -0.958  -1.794  1.00  0.00     0.000 A 
ATOM     20  C   UNL     1       4.522  -0.584  -3.011  1.00  0.00     0.046 A 
ATOM     21  H   UNL     1       2.632   0.224  -3.409  1.00  0.00     0.167 HD
ATOM     22  C   UNL     1       6.301  -1.657  -1.799  1.00  0.00     0.010 A 
ATOM     23  C   UNL     1       5.152  -0.807  -4.240  1.00  0.00     0.026 A 
ATOM     24  C   UNL     1       6.938  -1.912  -3.022  1.00  0.00     0.001 A 
ATOM     25  C   UNL     1       6.379  -1.474  -4.222  1.00  0.00     0.002 A 
ENDBRANCH  13  16
ENDBRANCH   8  12
ENDBRANCH   6   8
ENDBRANCH   5   6
ENDBRANCH   4   5
ENDBRANCH   3   4
ENDBRANCH   2   3
ENDBRANCH   1   2
BRANCH   1  26
ATOM     26  C   UNL     1       4.145   3.521  -3.375  1.00  0.00     0.261 C 
BRANCH  26  27
ATOM     27  O   UNL     1       3.569   4.795  -3.130  1.00  0.00    -0.460 OA
BRANCH  27  28
ATOM     28  C   UNL     1       4.187   5.784  -3.823  1.00  0.00     0.338 C 
ATOM     29  O   UNL     1       5.191   5.705  -4.502  1.00  0.00    -0.246 OA
BRANCH  28  30
ATOM     30  C   UNL     1       3.316   6.963  -3.784  1.00  0.00     0.060 A 
ATOM     31  C   UNL     1       2.989   7.548  -5.011  1.00  0.00     0.016 A 
ATOM     32  C   UNL     1       2.827   7.466  -2.576  1.00  0.00     0.016 A 
ATOM     33  C   UNL     1       2.214   8.694  -5.031  1.00  0.00     0.010 A 
ATOM     34  C   UNL     1       2.049   8.617  -2.597  1.00  0.00     0.010 A 
ATOM     35  C   UNL     1       1.786   9.255  -3.821  1.00  0.00    -0.014 A 
BRANCH  35  36
ATOM     36  C   UNL     1       1.219  10.613  -3.838  1.00  0.00     0.031 A 
ATOM     37  C   UNL     1       2.112  11.756  -3.457  1.00  0.00     0.074 A 
ATOM     38  C   UNL     1      -0.053  10.800  -4.223  1.00  0.00     0.049 A 
ATOM     39  N   UNL     1       1.845  13.032  -3.416  1.00  0.00    -0.248 NA
ATOM     40  C   UNL     1       3.492  11.416  -3.063  1.00  0.00     0.031 C 
ATOM     41  C   UNL     1      -0.981   9.737  -4.610  1.00  0.00     0.029 A 
ATOM     42  N   UNL     1      -0.785  11.949  -4.336  1.00  0.00    -0.354 N 
ATOM     43  C   UNL     1       3.007  13.643  -2.965  1.00  0.00     0.074 A 
ATOM     44  C   UNL     1       3.979  12.601  -2.728  1.00  0.00     0.031 C 
ATOM     45  C   UNL     1      -2.172  10.285  -4.902  1.00  0.00     0.029 A 
ATOM     46  C   UNL     1      -2.093  11.728  -4.693  1.00  0.00     0.049 A 
ATOM     47  H   UNL     1      -0.412  12.846  -4.177  1.00  0.00     0.167 HD
ATOM     48  C   UNL     1       3.242  14.962  -2.779  1.00  0.00     0.034 A 
ATOM     49  C   UNL     1      -3.110  12.601  -4.813  1.00  0.00     0.034 A 
ATOM     50  C   UNL     1       2.258  15.977  -3.032  1.00  0.00     0.049 A 
ATOM     51  C   UNL     1      -2.827  14.061  -4.586  1.00  0.00     0.074 A 
ATOM     52  C   UNL     1       2.388  17.349  -2.924  1.00  0.00     0.029 A 
ATOM     53  N   UNL     1       0.952  15.725  -3.427  1.00  0.00    -0.354 N 
ATOM     54  N   UNL     1      -1.694  14.640  -4.264  1.00  0.00    -0.248 NA
ATOM     55  C   UNL     1      -3.946  14.991  -4.774  1.00  0.00     0.031 C 
ATOM     56  C   UNL     1       1.147  17.923  -3.213  1.00  0.00     0.029 A 
ATOM     57  C   UNL     1       0.258  16.913  -3.551  1.00  0.00     0.049 A 
ATOM     58  H   UNL     1       0.576  14.831  -3.594  1.00  0.00     0.167 HD
ATOM     59  C   UNL     1      -1.953  16.005  -4.247  1.00  0.00     0.074 A 
ATOM     60  C   UNL     1      -3.349  16.164  -4.609  1.00  0.00     0.031 C 
ATOM     61  C   UNL     1      -1.121  17.035  -3.954  1.00  0.00     0.034 A 
BRANCH  48  62
ATOM     62  C   UNL     1       4.602  15.370  -2.279  1.00  0.00     0.023 A 
ATOM     63  C   UNL     1       5.731  15.246  -3.116  1.00  0.00     0.012 A 
ATOM     64  C   UNL     1       4.757  15.908  -0.987  1.00  0.00     0.148 A 
ATOM     65  C   UNL     1       6.996  15.619  -2.662  1.00  0.00     0.002 A 
ATOM     66  C   UNL     1       6.012  16.324  -0.560  1.00  0.00     0.091 A 
ATOM     67  F   UNL     1       3.678  15.991  -0.196  1.00  0.00    -0.205 F 
ATOM     68  C   UNL     1       7.135  16.167  -1.390  1.00  0.00     0.022 A 
BRANCH  66  69
ATOM     69  S   UNL     1       6.282  17.115   1.029  1.00  0.00     0.127 S 
ATOM     70  O   UNL     1       7.073  16.106   1.732  1.00  0.00    -0.237 OA
ATOM     71  O   UNL     1       7.025  18.317   0.649  1.00  0.00    -0.237 OA
ATOM     72  O   UNL     1       4.959  17.366   1.585  1.00  0.00    -0.744 OA
ENDBRANCH  66  69
ENDBRANCH  48  62
BRANCH  49  73
ATOM     73  C   UNL     1      -4.466  12.114  -5.188  1.00  0.00     0.023 A 
ATOM     74  C   UNL     1      -5.007  12.442  -6.445  1.00  0.00     0.012 A 
ATOM     75  C   UNL     1      -5.206  11.293  -4.314  1.00  0.00     0.148 A 
ATOM     76  C   UNL     1      -6.274  11.986  -6.814  1.00  0.00     0.002 A 
ATOM     77  C   UNL     1      -6.440  10.794  -4.710  1.00  0.00     0.091 A 
ATOM     78  F   UNL     1      -4.676  10.999  -3.118  1.00  0.00    -0.205 F 
ATOM     79  C   UNL     1      -6.985  11.154  -5.952  1.00  0.00     0.022 A 
BRANCH  77  80
ATOM     80  S   UNL     1      -7.362   9.610  -3.723  1.00  0.00     0.127 S 
ATOM     81  O   UNL     1      -8.514  10.403  -3.303  1.00  0.00    -0.237 OA
ATOM     82  O   UNL     1      -7.656   8.565  -4.705  1.00  0.00    -0.237 OA
ATOM     83  O   UNL     1      -6.458   9.195  -2.659  1.00  0.00    -0.744 OA
ENDBRANCH  77  80
ENDBRANCH  49  73
BRANCH  61  84
ATOM     84  C   UNL     1      -1.681  18.427  -4.060  1.00  0.00     0.023 A 
ATOM     85  C   UNL     1      -2.604  18.894  -3.103  1.00  0.00     0.012 A 
ATOM     86  C   UNL     1      -1.225  19.298  -5.069  1.00  0.00     0.148 A 
ATOM     87  C   UNL     1      -3.092  20.198  -3.173  1.00  0.00     0.002 A 
ATOM     88  C   UNL     1      -1.672  20.611  -5.097  1.00  0.00     0.091 A 
ATOM     89  F   UNL     1      -0.359  18.826  -5.977  1.00  0.00    -0.205 F 
ATOM     90  C   UNL     1      -2.617  21.059  -4.160  1.00  0.00     0.022 A 
BRANCH  88  91
ATOM     91  S   UNL     1      -1.035  21.818  -6.264  1.00  0.00     0.127 S 
ATOM     92  O   UNL     1      -2.192  22.029  -7.133  1.00  0.00    -0.237 OA
ATOM     93  O   UNL     1      -0.712  22.948  -5.392  1.00  0.00    -0.237 OA
ATOM     94  O   UNL     1       0.117  21.196  -6.901  1.00  0.00    -0.744 OA
ENDBRANCH  88  91
ENDBRANCH  61  84
ENDBRANCH  35  36
ENDBRANCH  28  30
ENDBRANCH  27  28
ENDBRANCH  26  27
ENDBRANCH   1  26
TORSDOF 21
