REMARK SMILES O=C(C[C@H]1C[C@H]2CC[C@@H](C1)N2C(=O)c1c[nH]c(=O)[nH]1)OCCOCCOC(=O)c1ccc(-c2c3nc(c(-c4cccc(S(=O)(=O)[O-])c4F)c4ccc([nH]4)c(-c4cccc(S(=O)(=O)[O-])c4F)c4nc(c(-c5cccc(S(=O)(=O)[O-])c5F)c5ccc2[nH]5)C=C4)C=C3)cc1
REMARK SMILES IDX 23 1 22 2 21 3 20 4 2 5 1 6 3 7 4 8 5 9 10 10 6 11 9 12 7 13
REMARK SMILES IDX 11 14 8 15 12 16 13 17 14 18 15 19 19 20 16 21 17 22 18 25
REMARK SMILES IDX 24 26 25 27 26 28 27 29 28 30 29 31 30 32 91 33 31 34 90 35
REMARK SMILES IDX 32 36 33 37 34 38 84 39 35 40 89 41 83 42 85 43 36 44 88 45
REMARK SMILES IDX 82 46 81 47 37 49 69 50 49 51 68 52 50 53 53 54 67 55 86 56
REMARK SMILES IDX 51 57 52 58 66 60 87 61 54 62 38 63 39 64 47 65 40 66 42 67
REMARK SMILES IDX 48 68 41 69 43 70 44 71 45 72 46 73 70 74 71 75 79 76 72 77
REMARK SMILES IDX 74 78 80 79 73 80 75 81 76 82 77 83 78 84 55 85 56 86 64 87
REMARK SMILES IDX 57 88 59 89 65 90 58 91 60 92 61 93 62 94 63 95
REMARK H PARENT 19 23 16 24 85 48 53 59
REMARK Flexibility Score: inf
ROOT
ATOM      1  O   UNL     1       3.434  -0.215   1.191  1.00  0.00    -0.374 OA
ENDROOT
BRANCH   1   2
ATOM      2  C   UNL     1       3.713   1.185   1.261  1.00  0.00     0.202 C 
BRANCH   2   3
ATOM      3  C   UNL     1       3.233   2.011   0.051  1.00  0.00     0.261 C 
BRANCH   3   4
ATOM      4  O   UNL     1       3.253   1.274  -1.177  1.00  0.00    -0.463 OA
BRANCH   4   5
ATOM      5  C   UNL     1       2.361   0.260  -1.223  1.00  0.00     0.306 C 
ATOM      6  O   UNL     1       1.206   0.336  -0.817  1.00  0.00    -0.252 OA
BRANCH   5   7
ATOM      7  C   UNL     1       2.997  -1.047  -1.660  1.00  0.00     0.126 C 
BRANCH   7   8
ATOM      8  C   UNL     1       4.397  -1.015  -2.316  1.00  0.00     0.004 C 
ATOM      9  C   UNL     1       5.548  -0.301  -1.543  1.00  0.00     0.029 C 
ATOM     10  C   UNL     1       4.799  -2.449  -2.775  1.00  0.00     0.029 C 
ATOM     11  C   UNL     1       6.572  -1.185  -0.828  1.00  0.00     0.086 C 
ATOM     12  C   UNL     1       5.906  -3.107  -1.928  1.00  0.00     0.086 C 
ATOM     13  C   UNL     1       6.018  -2.081   0.271  1.00  0.00     0.027 C 
ATOM     14  N   UNL     1       7.000  -2.157  -1.797  1.00  0.00    -0.331 N 
ATOM     15  C   UNL     1       5.455  -3.299  -0.469  1.00  0.00     0.027 C 
BRANCH  14  16
ATOM     16  C   UNL     1       8.265  -2.136  -2.313  1.00  0.00     0.272 C 
ATOM     17  O   UNL     1       9.138  -1.350  -1.950  1.00  0.00    -0.267 OA
BRANCH  16  18
ATOM     18  C   UNL     1       8.603  -3.161  -3.312  1.00  0.00     0.125 A 
ATOM     19  C   UNL     1       7.981  -3.452  -4.463  1.00  0.00     0.119 A 
ATOM     20  N   UNL     1       9.735  -3.932  -3.211  1.00  0.00    -0.302 N 
ATOM     21  N   UNL     1       8.689  -4.443  -5.094  1.00  0.00    -0.312 N 
ATOM     22  C   UNL     1       9.818  -4.770  -4.323  1.00  0.00     0.323 A 
ATOM     23  H   UNL     1      10.384  -3.898  -2.471  1.00  0.00     0.172 HD
ATOM     24  H   UNL     1       8.445  -4.859  -5.952  1.00  0.00     0.171 HD
ATOM     25  O   UNL     1      10.668  -5.596  -4.577  1.00  0.00    -0.248 OA
ENDBRANCH  16  18
ENDBRANCH  14  16
ENDBRANCH   7   8
ENDBRANCH   5   7
ENDBRANCH   4   5
ENDBRANCH   3   4
ENDBRANCH   2   3
ENDBRANCH   1   2
BRANCH   1  26
ATOM     26  C   UNL     1       2.313  -0.676   1.945  1.00  0.00     0.202 C 
BRANCH  26  27
ATOM     27  C   UNL     1       2.697  -1.126   3.357  1.00  0.00     0.261 C 
BRANCH  27  28
ATOM     28  O   UNL     1       3.266  -0.028   4.079  1.00  0.00    -0.460 OA
BRANCH  28  29
ATOM     29  C   UNL     1       4.622   0.014   4.082  1.00  0.00     0.338 C 
ATOM     30  O   UNL     1       5.384  -0.886   3.770  1.00  0.00    -0.246 OA
BRANCH  29  31
ATOM     31  C   UNL     1       5.055   1.406   4.346  1.00  0.00     0.060 A 
ATOM     32  C   UNL     1       6.296   1.811   3.836  1.00  0.00     0.016 A 
ATOM     33  C   UNL     1       4.244   2.317   5.034  1.00  0.00     0.016 A 
ATOM     34  C   UNL     1       6.766   3.097   4.087  1.00  0.00     0.010 A 
ATOM     35  C   UNL     1       4.707   3.611   5.269  1.00  0.00     0.010 A 
ATOM     36  C   UNL     1       5.996   3.980   4.853  1.00  0.00    -0.014 A 
BRANCH  36  37
ATOM     37  C   UNL     1       6.630   5.184   5.434  1.00  0.00     0.031 A 
ATOM     38  C   UNL     1       7.063   5.120   6.874  1.00  0.00     0.074 A 
ATOM     39  C   UNL     1       6.821   6.296   4.706  1.00  0.00     0.049 A 
ATOM     40  N   UNL     1       7.639   6.032   7.609  1.00  0.00    -0.248 NA
ATOM     41  C   UNL     1       6.798   3.856   7.586  1.00  0.00     0.031 C 
ATOM     42  C   UNL     1       6.440   6.469   3.305  1.00  0.00     0.029 A 
ATOM     43  N   UNL     1       7.374   7.500   5.058  1.00  0.00    -0.354 N 
ATOM     44  C   UNL     1       7.769   5.469   8.874  1.00  0.00     0.074 A 
ATOM     45  C   UNL     1       7.192   4.146   8.815  1.00  0.00     0.031 C 
ATOM     46  C   UNL     1       6.763   7.716   2.918  1.00  0.00     0.029 A 
ATOM     47  C   UNL     1       7.352   8.431   4.048  1.00  0.00     0.049 A 
ATOM     48  H   UNL     1       7.750   7.680   5.950  1.00  0.00     0.167 HD
ATOM     49  C   UNL     1       8.333   5.999   9.983  1.00  0.00     0.034 A 
ATOM     50  C   UNL     1       7.759   9.716   4.046  1.00  0.00     0.034 A 
ATOM     51  C   UNL     1       8.923   7.307  10.027  1.00  0.00     0.049 A 
ATOM     52  C   UNL     1       8.382  10.285   5.296  1.00  0.00     0.074 A 
ATOM     53  C   UNL     1       9.574   7.924  11.079  1.00  0.00     0.029 A 
ATOM     54  N   UNL     1       8.920   8.208   8.972  1.00  0.00    -0.354 N 
ATOM     55  N   UNL     1       8.604   9.703   6.450  1.00  0.00    -0.248 NA
ATOM     56  C   UNL     1       8.848  11.678   5.228  1.00  0.00     0.031 C 
ATOM     57  C   UNL     1       9.927   9.215  10.673  1.00  0.00     0.029 A 
ATOM     58  C   UNL     1       9.544   9.382   9.351  1.00  0.00     0.049 A 
ATOM     59  H   UNL     1       8.530   8.036   8.084  1.00  0.00     0.167 HD
ATOM     60  C   UNL     1       9.284  10.637   7.226  1.00  0.00     0.074 A 
ATOM     61  C   UNL     1       9.441  11.821   6.405  1.00  0.00     0.031 C 
ATOM     62  C   UNL     1       9.737  10.528   8.500  1.00  0.00     0.034 A 
BRANCH  49  63
ATOM     63  C   UNL     1       8.331   5.160  11.234  1.00  0.00     0.023 A 
ATOM     64  C   UNL     1       9.134   4.002  11.313  1.00  0.00     0.012 A 
ATOM     65  C   UNL     1       7.543   5.529  12.341  1.00  0.00     0.148 A 
ATOM     66  C   UNL     1       9.117   3.202  12.455  1.00  0.00     0.002 A 
ATOM     67  C   UNL     1       7.572   4.756  13.495  1.00  0.00     0.091 A 
ATOM     68  F   UNL     1       6.764   6.615  12.237  1.00  0.00    -0.205 F 
ATOM     69  C   UNL     1       8.345   3.585  13.549  1.00  0.00     0.022 A 
BRANCH  67  70
ATOM     70  S   UNL     1       6.677   5.213  14.983  1.00  0.00     0.127 S 
ATOM     71  O   UNL     1       5.622   4.200  15.015  1.00  0.00    -0.237 OA
ATOM     72  O   UNL     1       7.701   5.058  16.016  1.00  0.00    -0.237 OA
ATOM     73  O   UNL     1       6.224   6.581  14.777  1.00  0.00    -0.744 OA
ENDBRANCH  67  70
ENDBRANCH  49  63
BRANCH  50  74
ATOM     74  C   UNL     1       7.650  10.533   2.805  1.00  0.00     0.023 A 
ATOM     75  C   UNL     1       8.820  10.913   2.120  1.00  0.00     0.012 A 
ATOM     76  C   UNL     1       6.397  10.922   2.293  1.00  0.00     0.148 A 
ATOM     77  C   UNL     1       8.748  11.694   0.966  1.00  0.00     0.002 A 
ATOM     78  C   UNL     1       6.329  11.655   1.114  1.00  0.00     0.091 A 
ATOM     79  F   UNL     1       5.296  10.558   2.966  1.00  0.00    -0.205 F 
ATOM     80  C   UNL     1       7.503  12.057   0.458  1.00  0.00     0.022 A 
BRANCH  78  81
ATOM     81  S   UNL     1       4.772  12.066   0.319  1.00  0.00     0.127 S 
ATOM     82  O   UNL     1       4.748  13.521   0.442  1.00  0.00    -0.237 OA
ATOM     83  O   UNL     1       4.988  11.564  -1.038  1.00  0.00    -0.237 OA
ATOM     84  O   UNL     1       3.745  11.355   1.069  1.00  0.00    -0.744 OA
ENDBRANCH  78  81
ENDBRANCH  50  74
BRANCH  62  85
ATOM     85  C   UNL     1      10.511  11.689   9.069  1.00  0.00     0.023 A 
ATOM     86  C   UNL     1       9.860  12.897   9.386  1.00  0.00     0.012 A 
ATOM     87  C   UNL     1      11.886  11.550   9.352  1.00  0.00     0.148 A 
ATOM     88  C   UNL     1      10.573  13.963   9.934  1.00  0.00     0.002 A 
ATOM     89  C   UNL     1      12.576  12.596   9.951  1.00  0.00     0.091 A 
ATOM     90  F   UNL     1      12.493  10.400   9.027  1.00  0.00    -0.205 F 
ATOM     91  C   UNL     1      11.926  13.809  10.227  1.00  0.00     0.022 A 
BRANCH  89  92
ATOM     92  S   UNL     1      14.291  12.442  10.461  1.00  0.00     0.127 S 
ATOM     93  O   UNL     1      14.976  13.246   9.450  1.00  0.00    -0.237 OA
ATOM     94  O   UNL     1      14.271  13.033  11.800  1.00  0.00    -0.237 OA
ATOM     95  O   UNL     1      14.591  11.017  10.437  1.00  0.00    -0.744 OA
ENDBRANCH  89  92
ENDBRANCH  62  85
ENDBRANCH  36  37
ENDBRANCH  29  31
ENDBRANCH  28  29
ENDBRANCH  27  28
ENDBRANCH  26  27
ENDBRANCH   1  26
TORSDOF 20
