REMARK SMILES Cc1c(CC(=O)OCCOCCOC(=O)c2ccc(-c3c4nc(c(-c5cccc(S(=O)(=O)[O-])c5F)c5ccc([nH]5)c(-c5cccc(S(=O)(=O)[O-])c5F)c5nc(c(-c6cccc(S(=O)(=O)[O-])c6F)c6ccc3[nH]6)C=C5)C=C4)cc2)c2cc(O)ccc2n1C(=O)c1ccc(Cl)cc1
REMARK SMILES IDX 10 1 9 2 8 3 7 4 5 5 6 6 4 7 3 8 1 9 2 10 86 11 79 12 85 13
REMARK SMILES IDX 80 14 84 15 81 16 83 17 87 18 88 19 89 20 90 21 95 22 91 23
REMARK SMILES IDX 94 24 92 25 93 26 82 27 11 29 12 30 13 31 14 32 15 33 16 34
REMARK SMILES IDX 17 35 78 36 18 37 77 38 19 39 20 40 21 41 71 42 22 43 76 44
REMARK SMILES IDX 70 45 72 46 23 47 75 48 69 49 68 50 24 52 56 53 36 54 55 55
REMARK SMILES IDX 37 56 40 57 54 58 73 59 38 60 39 61 53 63 74 64 41 65 25 66
REMARK SMILES IDX 26 67 34 68 27 69 29 70 35 71 28 72 30 73 31 74 32 75 33 76
REMARK SMILES IDX 57 77 58 78 66 79 59 80 61 81 67 82 60 83 62 84 63 85 64 86
REMARK SMILES IDX 65 87 42 88 43 89 51 90 44 91 46 92 52 93 45 94 47 95 48 96
REMARK SMILES IDX 49 97 50 98
REMARK H PARENT 82 28 72 51 40 62
REMARK Flexibility Score: inf
ROOT
ATOM      1  O   UNL     1       4.159  -5.709   0.733  1.00  0.00    -0.374 OA
ENDROOT
BRANCH   1   2
ATOM      2  C   UNL     1       5.120  -4.662   0.703  1.00  0.00     0.202 C 
BRANCH   2   3
ATOM      3  C   UNL     1       4.835  -3.357  -0.063  1.00  0.00     0.261 C 
BRANCH   3   4
ATOM      4  O   UNL     1       3.481  -2.876   0.022  1.00  0.00    -0.463 OA
BRANCH   4   5
ATOM      5  C   UNL     1       2.752  -3.045  -1.112  1.00  0.00     0.310 C 
ATOM      6  O   UNL     1       3.200  -3.515  -2.157  1.00  0.00    -0.252 OA
BRANCH   5   7
ATOM      7  C   UNL     1       1.301  -2.625  -1.038  1.00  0.00     0.160 C 
BRANCH   7   8
ATOM      8  C   UNL     1       0.679  -2.243   0.282  1.00  0.00    -0.008 A 
ATOM      9  C   UNL     1       1.104   0.284   0.151  1.00  0.00     0.065 C 
ATOM     10  C   UNL     1       0.550  -0.955   0.788  1.00  0.00     0.028 A 
ATOM     11  N   UNL     1      -0.208  -0.992   1.971  1.00  0.00    -0.280 N 
ATOM     12  C   UNL     1       0.008  -3.115   1.189  1.00  0.00     0.008 A 
ATOM     13  C   UNL     1      -0.462  -2.348   2.264  1.00  0.00     0.057 A 
ATOM     14  C   UNL     1      -0.226  -4.513   1.189  1.00  0.00     0.056 A 
ATOM     15  C   UNL     1      -1.111  -2.990   3.345  1.00  0.00     0.031 A 
ATOM     16  C   UNL     1      -0.751  -5.128   2.321  1.00  0.00     0.116 A 
ATOM     17  C   UNL     1      -1.196  -4.383   3.391  1.00  0.00     0.048 A 
BRANCH  11  18
ATOM     18  C   UNL     1      -0.697   0.134   2.703  1.00  0.00     0.262 C 
ATOM     19  O   UNL     1      -0.633   1.254   2.198  1.00  0.00    -0.268 OA
BRANCH  18  20
ATOM     20  C   UNL     1      -1.386   0.079   4.005  1.00  0.00     0.040 A 
ATOM     21  C   UNL     1      -0.711  -0.322   5.163  1.00  0.00     0.015 A 
ATOM     22  C   UNL     1      -2.745   0.413   4.049  1.00  0.00     0.015 A 
ATOM     23  C   UNL     1      -1.432  -0.489   6.350  1.00  0.00     0.021 A 
ATOM     24  C   UNL     1      -3.456   0.259   5.240  1.00  0.00     0.021 A 
ATOM     25  C   UNL     1      -2.802  -0.215   6.378  1.00  0.00     0.041 A 
ATOM     26  Cl  UNL     1      -3.700  -0.489   7.820  1.00  0.00    -0.084 Cl
ENDBRANCH  18  20
ENDBRANCH  11  18
BRANCH  16  27
ATOM     27  O   UNL     1      -0.743  -6.491   2.373  1.00  0.00    -0.508 OA
ATOM     28  H   UNL     1      -0.437  -6.986   1.638  1.00  0.00     0.293 HD
ENDBRANCH  16  27
ENDBRANCH   7   8
ENDBRANCH   5   7
ENDBRANCH   4   5
ENDBRANCH   3   4
ENDBRANCH   2   3
ENDBRANCH   1   2
BRANCH   1  29
ATOM     29  C   UNL     1       2.898  -5.438   1.335  1.00  0.00     0.202 C 
BRANCH  29  30
ATOM     30  C   UNL     1       2.820  -5.013   2.814  1.00  0.00     0.261 C 
BRANCH  30  31
ATOM     31  O   UNL     1       3.630  -3.882   3.116  1.00  0.00    -0.460 OA
BRANCH  31  32
ATOM     32  C   UNL     1       4.290  -3.977   4.307  1.00  0.00     0.338 C 
ATOM     33  O   UNL     1       3.984  -4.624   5.278  1.00  0.00    -0.246 OA
BRANCH  32  34
ATOM     34  C   UNL     1       5.629  -3.447   4.000  1.00  0.00     0.060 A 
ATOM     35  C   UNL     1       5.757  -2.180   3.424  1.00  0.00     0.016 A 
ATOM     36  C   UNL     1       6.666  -4.391   3.959  1.00  0.00     0.016 A 
ATOM     37  C   UNL     1       6.918  -1.888   2.728  1.00  0.00     0.010 A 
ATOM     38  C   UNL     1       7.812  -4.104   3.233  1.00  0.00     0.010 A 
ATOM     39  C   UNL     1       7.921  -2.866   2.596  1.00  0.00    -0.014 A 
BRANCH  39  40
ATOM     40  C   UNL     1       9.204  -2.439   2.046  1.00  0.00     0.031 A 
ATOM     41  C   UNL     1       9.876  -1.474   2.962  1.00  0.00     0.074 A 
ATOM     42  C   UNL     1       9.808  -2.937   0.948  1.00  0.00     0.049 A 
ATOM     43  N   UNL     1      10.130  -0.225   2.748  1.00  0.00    -0.248 NA
ATOM     44  C   UNL     1      10.101  -1.906   4.354  1.00  0.00     0.031 C 
ATOM     45  C   UNL     1       9.402  -4.077   0.125  1.00  0.00     0.029 A 
ATOM     46  N   UNL     1      11.016  -2.593   0.410  1.00  0.00    -0.354 N 
ATOM     47  C   UNL     1      10.756   0.221   3.909  1.00  0.00     0.074 A 
ATOM     48  C   UNL     1      10.530  -0.778   4.918  1.00  0.00     0.031 C 
ATOM     49  C   UNL     1      10.455  -4.481  -0.626  1.00  0.00     0.029 A 
ATOM     50  C   UNL     1      11.566  -3.566  -0.427  1.00  0.00     0.049 A 
ATOM     51  H   UNL     1      11.459  -1.734   0.596  1.00  0.00     0.167 HD
ATOM     52  C   UNL     1      11.639   1.254   3.899  1.00  0.00     0.034 A 
ATOM     53  C   UNL     1      12.864  -3.643  -0.828  1.00  0.00     0.034 A 
ATOM     54  C   UNL     1      11.548   2.034   2.700  1.00  0.00     0.049 A 
ATOM     55  C   UNL     1      13.447  -2.293  -0.651  1.00  0.00     0.074 A 
ATOM     56  C   UNL     1      10.556   2.777   2.091  1.00  0.00     0.029 A 
ATOM     57  N   UNL     1      12.490   1.789   1.732  1.00  0.00    -0.354 N 
ATOM     58  N   UNL     1      13.083  -1.251  -1.341  1.00  0.00    -0.248 NA
ATOM     59  C   UNL     1      14.154  -2.017   0.589  1.00  0.00     0.031 C 
ATOM     60  C   UNL     1      10.717   2.528   0.698  1.00  0.00     0.029 A 
ATOM     61  C   UNL     1      11.831   1.703   0.536  1.00  0.00     0.049 A 
ATOM     62  H   UNL     1      13.459   1.692   1.873  1.00  0.00     0.167 HD
ATOM     63  C   UNL     1      13.095  -0.216  -0.418  1.00  0.00     0.074 A 
ATOM     64  C   UNL     1      13.853  -0.724   0.723  1.00  0.00     0.031 C 
ATOM     65  C   UNL     1      12.245   0.841  -0.545  1.00  0.00     0.034 A 
BRANCH  52  66
ATOM     66  C   UNL     1      12.836   1.320   4.807  1.00  0.00     0.023 A 
ATOM     67  C   UNL     1      13.499   2.555   4.945  1.00  0.00     0.012 A 
ATOM     68  C   UNL     1      13.487   0.171   5.314  1.00  0.00     0.148 A 
ATOM     69  C   UNL     1      14.754   2.640   5.558  1.00  0.00     0.002 A 
ATOM     70  C   UNL     1      14.694   0.271   5.990  1.00  0.00     0.091 A 
ATOM     71  F   UNL     1      13.009  -1.044   5.025  1.00  0.00    -0.205 F 
ATOM     72  C   UNL     1      15.345   1.501   6.096  1.00  0.00     0.022 A 
BRANCH  70  73
ATOM     73  S   UNL     1      15.481  -1.167   6.724  1.00  0.00     0.127 S 
ATOM     74  O   UNL     1      16.598  -1.387   5.810  1.00  0.00    -0.237 OA
ATOM     75  O   UNL     1      15.850  -0.662   8.047  1.00  0.00    -0.237 OA
ATOM     76  O   UNL     1      14.455  -2.202   6.746  1.00  0.00    -0.744 OA
ENDBRANCH  70  73
ENDBRANCH  52  66
BRANCH  53  77
ATOM     77  C   UNL     1      13.756  -4.820  -1.037  1.00  0.00     0.023 A 
ATOM     78  C   UNL     1      15.044  -4.612  -1.587  1.00  0.00     0.012 A 
ATOM     79  C   UNL     1      13.508  -6.058  -0.408  1.00  0.00     0.148 A 
ATOM     80  C   UNL     1      16.064  -5.562  -1.441  1.00  0.00     0.002 A 
ATOM     81  C   UNL     1      14.524  -7.003  -0.272  1.00  0.00     0.091 A 
ATOM     82  F   UNL     1      12.312  -6.274   0.151  1.00  0.00    -0.205 F 
ATOM     83  C   UNL     1      15.809  -6.751  -0.768  1.00  0.00     0.022 A 
BRANCH  81  84
ATOM     84  S   UNL     1      14.265  -8.554   0.601  1.00  0.00     0.127 S 
ATOM     85  O   UNL     1      14.928  -9.517  -0.279  1.00  0.00    -0.237 OA
ATOM     86  O   UNL     1      14.951  -8.307   1.866  1.00  0.00    -0.237 OA
ATOM     87  O   UNL     1      12.819  -8.721   0.685  1.00  0.00    -0.744 OA
ENDBRANCH  81  84
ENDBRANCH  53  77
BRANCH  65  88
ATOM     88  C   UNL     1      11.495   0.993  -1.841  1.00  0.00     0.023 A 
ATOM     89  C   UNL     1      10.480   0.100  -2.246  1.00  0.00     0.012 A 
ATOM     90  C   UNL     1      11.703   2.173  -2.570  1.00  0.00     0.148 A 
ATOM     91  C   UNL     1       9.688   0.387  -3.362  1.00  0.00     0.002 A 
ATOM     92  C   UNL     1      10.890   2.472  -3.653  1.00  0.00     0.091 A 
ATOM     93  F   UNL     1      12.673   3.004  -2.159  1.00  0.00    -0.205 F 
ATOM     94  C   UNL     1       9.882   1.581  -4.056  1.00  0.00     0.022 A 
BRANCH  92  95
ATOM     95  S   UNL     1      11.023   4.035  -4.520  1.00  0.00     0.127 S 
ATOM     96  O   UNL     1      11.546   3.619  -5.820  1.00  0.00    -0.237 OA
ATOM     97  O   UNL     1       9.635   4.499  -4.538  1.00  0.00    -0.237 OA
ATOM     98  O   UNL     1      11.921   4.865  -3.726  1.00  0.00    -0.744 OA
ENDBRANCH  92  95
ENDBRANCH  65  88
ENDBRANCH  39  40
ENDBRANCH  32  34
ENDBRANCH  31  32
ENDBRANCH  30  31
ENDBRANCH  29  30
ENDBRANCH   1  29
TORSDOF 21
