REMARK SMILES O=C(C[C@H](NC(=O)[C@]12C[C@H]3C[C@H](C[C@H](C3)C1)C2)c1cccc([N+](=O)[O-])c1)OCCOCCOC(=O)c1ccc(-c2c3nc(c(-c4cccc(S(=O)(=O)[O-])c4F)c4ccc([nH]4)c(-c4cccc(S(=O)(=O)[O-])c4F)c4nc(c(-c5cccc(S(=O)(=O)[O-])c5F)c5ccc2[nH]5)C=C4)C=C3)cc1
REMARK SMILES IDX 30 1 29 2 28 3 27 4 2 5 1 6 3 7 4 8 18 9 19 10 26 11 20 12
REMARK SMILES IDX 22 13 21 14 23 15 24 16 25 17 5 18 6 19 7 21 8 22 9 23 16 24
REMARK SMILES IDX 17 25 10 26 14 27 12 28 11 29 15 30 13 31 31 32 32 33 33 34
REMARK SMILES IDX 34 35 35 36 36 37 37 38 98 39 38 40 97 41 39 42 40 43 41 44
REMARK SMILES IDX 91 45 42 46 96 47 90 48 92 49 43 50 95 51 89 52 88 53 44 55
REMARK SMILES IDX 76 56 56 57 75 58 57 59 60 60 74 61 93 62 58 63 59 64 73 66
REMARK SMILES IDX 94 67 61 68 45 69 46 70 54 71 47 72 49 73 55 74 48 75 50 76
REMARK SMILES IDX 51 77 52 78 53 79 77 80 78 81 86 82 79 83 81 84 87 85 80 86
REMARK SMILES IDX 82 87 83 88 84 89 85 90 62 91 63 92 71 93 64 94 66 95 72 96
REMARK SMILES IDX 65 97 67 98 68 99 69 100 70 101
REMARK H PARENT 5 20 92 54 60 65
REMARK Flexibility Score: inf
ROOT
ATOM      1  O   UNL     1       5.246   3.228   1.511  1.00  0.00    -0.374 OA
ENDROOT
BRANCH   1   2
ATOM      2  C   UNL     1       4.074   3.845   2.051  1.00  0.00     0.202 C 
BRANCH   2   3
ATOM      3  C   UNL     1       2.724   3.498   1.423  1.00  0.00     0.261 C 
BRANCH   3   4
ATOM      4  O   UNL     1       2.434   2.094   1.523  1.00  0.00    -0.463 OA
BRANCH   4   5
ATOM      5  C   UNL     1       3.026   1.167   0.738  1.00  0.00     0.308 C 
ATOM      6  O   UNL     1       2.930  -0.024   1.016  1.00  0.00    -0.252 OA
BRANCH   5   7
ATOM      7  C   UNL     1       3.852   1.651  -0.419  1.00  0.00     0.152 C 
BRANCH   7   8
ATOM      8  C   UNL     1       3.409   1.165  -1.787  1.00  0.00     0.123 C 
BRANCH   8   9
ATOM      9  C   UNL     1       4.304   1.809  -2.849  1.00  0.00    -0.018 A 
ATOM     10  C   UNL     1       5.182   1.083  -3.657  1.00  0.00     0.006 A 
ATOM     11  C   UNL     1       4.340   3.221  -2.939  1.00  0.00     0.091 A 
ATOM     12  C   UNL     1       6.124   1.731  -4.465  1.00  0.00     0.007 A 
ATOM     13  C   UNL     1       5.291   3.869  -3.739  1.00  0.00     0.269 A 
ATOM     14  C   UNL     1       6.195   3.125  -4.497  1.00  0.00     0.085 A 
BRANCH  13  15
ATOM     15  N   UNL     1       5.362   5.336  -3.743  1.00  0.00     0.062 N 
ATOM     16  O   UNL     1       6.127   5.873  -4.556  1.00  0.00    -0.258 OA
ATOM     17  O   UNL     1       4.651   5.949  -2.933  1.00  0.00    -0.258 OA
ENDBRANCH  13  15
ENDBRANCH   8   9
BRANCH   8  18
ATOM     18  N   UNL     1       3.112  -0.259  -1.947  1.00  0.00    -0.348 N 
ATOM     19  C   UNL     1       3.542  -1.462  -1.501  1.00  0.00     0.226 C 
ATOM     20  H   UNL     1       2.364  -0.380  -2.576  1.00  0.00     0.164 HD
ATOM     21  O   UNL     1       2.712  -2.370  -1.682  1.00  0.00    -0.274 OA
BRANCH  19  22
ATOM     22  C   UNL     1       4.949  -1.849  -0.993  1.00  0.00     0.050 C 
ATOM     23  C   UNL     1       4.817  -2.831   0.214  1.00  0.00     0.020 C 
ATOM     24  C   UNL     1       5.905  -0.742  -0.542  1.00  0.00     0.020 C 
ATOM     25  C   UNL     1       5.605  -2.644  -2.155  1.00  0.00     0.020 C 
ATOM     26  C   UNL     1       6.197  -3.386   0.631  1.00  0.00    -0.010 C 
ATOM     27  C   UNL     1       7.293  -1.276  -0.166  1.00  0.00    -0.010 C 
ATOM     28  C   UNL     1       6.981  -3.191  -1.755  1.00  0.00    -0.010 C 
ATOM     29  C   UNL     1       6.819  -4.138  -0.556  1.00  0.00     0.007 C 
ATOM     30  C   UNL     1       7.133  -2.232   1.023  1.00  0.00     0.007 C 
ATOM     31  C   UNL     1       7.890  -2.017  -1.368  1.00  0.00     0.007 C 
ENDBRANCH  19  22
ENDBRANCH   8  18
ENDBRANCH   7   8
ENDBRANCH   5   7
ENDBRANCH   4   5
ENDBRANCH   3   4
ENDBRANCH   2   3
ENDBRANCH   1   2
BRANCH   1  32
ATOM     32  C   UNL     1       5.794   2.150   2.288  1.00  0.00     0.202 C 
BRANCH  32  33
ATOM     33  C   UNL     1       6.604   2.531   3.538  1.00  0.00     0.261 C 
BRANCH  33  34
ATOM     34  O   UNL     1       5.784   3.170   4.525  1.00  0.00    -0.460 OA
BRANCH  34  35
ATOM     35  C   UNL     1       5.857   4.524   4.535  1.00  0.00     0.338 C 
ATOM     36  O   UNL     1       6.675   5.217   3.951  1.00  0.00    -0.246 OA
BRANCH  35  37
ATOM     37  C   UNL     1       4.609   5.057   5.120  1.00  0.00     0.060 A 
ATOM     38  C   UNL     1       3.983   6.107   4.431  1.00  0.00     0.016 A 
ATOM     39  C   UNL     1       4.017   4.503   6.258  1.00  0.00     0.016 A 
ATOM     40  C   UNL     1       2.785   6.631   4.893  1.00  0.00     0.010 A 
ATOM     41  C   UNL     1       2.832   5.056   6.747  1.00  0.00     0.010 A 
ATOM     42  C   UNL     1       2.241   6.148   6.088  1.00  0.00    -0.014 A 
BRANCH  42  43
ATOM     43  C   UNL     1       1.220   6.975   6.761  1.00  0.00     0.031 A 
ATOM     44  C   UNL     1       1.693   7.940   7.813  1.00  0.00     0.074 A 
ATOM     45  C   UNL     1      -0.071   6.923   6.393  1.00  0.00     0.049 A 
ATOM     46  N   UNL     1       1.008   8.796   8.520  1.00  0.00    -0.248 NA
ATOM     47  C   UNL     1       3.139   7.941   8.102  1.00  0.00     0.031 C 
ATOM     48  C   UNL     1      -0.625   6.035   5.373  1.00  0.00     0.029 A 
ATOM     49  N   UNL     1      -1.151   7.630   6.852  1.00  0.00    -0.354 N 
ATOM     50  C   UNL     1       1.932   9.425   9.345  1.00  0.00     0.074 A 
ATOM     51  C   UNL     1       3.223   8.836   9.073  1.00  0.00     0.031 C 
ATOM     52  C   UNL     1      -1.955   6.228   5.306  1.00  0.00     0.029 A 
ATOM     53  C   UNL     1      -2.341   7.237   6.290  1.00  0.00     0.049 A 
ATOM     54  H   UNL     1      -1.081   8.350   7.520  1.00  0.00     0.167 HD
ATOM     55  C   UNL     1       1.728  10.422  10.236  1.00  0.00     0.034 A 
ATOM     56  C   UNL     1      -3.599   7.635   6.565  1.00  0.00     0.034 A 
ATOM     57  C   UNL     1       0.440  11.000  10.497  1.00  0.00     0.049 A 
ATOM     58  C   UNL     1      -3.805   8.722   7.589  1.00  0.00     0.074 A 
ATOM     59  C   UNL     1       0.114  12.019  11.373  1.00  0.00     0.029 A 
ATOM     60  N   UNL     1      -0.741  10.599   9.888  1.00  0.00    -0.354 N 
ATOM     61  N   UNL     1      -2.912   9.370   8.299  1.00  0.00    -0.248 NA
ATOM     62  C   UNL     1      -5.188   9.161   7.819  1.00  0.00     0.031 C 
ATOM     63  C   UNL     1      -1.270  12.215  11.313  1.00  0.00     0.029 A 
ATOM     64  C   UNL     1      -1.799  11.347  10.370  1.00  0.00     0.049 A 
ATOM     65  H   UNL     1      -0.814   9.887   9.213  1.00  0.00     0.167 HD
ATOM     66  C   UNL     1      -3.620  10.315   9.033  1.00  0.00     0.074 A 
ATOM     67  C   UNL     1      -5.013  10.172   8.657  1.00  0.00     0.031 C 
ATOM     68  C   UNL     1      -3.169  11.212   9.946  1.00  0.00     0.034 A 
BRANCH  55  69
ATOM     69  C   UNL     1       2.928  10.956  10.972  1.00  0.00     0.023 A 
ATOM     70  C   UNL     1       3.889  11.722  10.280  1.00  0.00     0.012 A 
ATOM     71  C   UNL     1       3.088  10.731  12.352  1.00  0.00     0.148 A 
ATOM     72  C   UNL     1       5.005  12.231  10.943  1.00  0.00     0.002 A 
ATOM     73  C   UNL     1       4.178  11.281  13.016  1.00  0.00     0.091 A 
ATOM     74  F   UNL     1       2.179   9.977  12.986  1.00  0.00    -0.205 F 
ATOM     75  C   UNL     1       5.143  12.020  12.312  1.00  0.00     0.022 A 
BRANCH  73  76
ATOM     76  S   UNL     1       4.409  11.133  14.791  1.00  0.00     0.127 S 
ATOM     77  O   UNL     1       5.613  10.306  14.863  1.00  0.00    -0.237 OA
ATOM     78  O   UNL     1       4.602  12.527  15.191  1.00  0.00    -0.237 OA
ATOM     79  O   UNL     1       3.197  10.511  15.306  1.00  0.00    -0.744 OA
ENDBRANCH  73  76
ENDBRANCH  55  69
BRANCH  56  80
ATOM     80  C   UNL     1      -4.754   7.011   5.860  1.00  0.00     0.023 A 
ATOM     81  C   UNL     1      -5.537   7.773   4.972  1.00  0.00     0.012 A 
ATOM     82  C   UNL     1      -5.080   5.657   6.072  1.00  0.00     0.148 A 
ATOM     83  C   UNL     1      -6.646   7.209   4.339  1.00  0.00     0.002 A 
ATOM     84  C   UNL     1      -6.149   5.086   5.393  1.00  0.00     0.091 A 
ATOM     85  F   UNL     1      -4.334   4.952   6.935  1.00  0.00    -0.205 F 
ATOM     86  C   UNL     1      -6.946   5.865   4.542  1.00  0.00     0.022 A 
BRANCH  84  87
ATOM     87  S   UNL     1      -6.522   3.332   5.494  1.00  0.00     0.127 S 
ATOM     88  O   UNL     1      -7.760   3.334   6.268  1.00  0.00    -0.237 OA
ATOM     89  O   UNL     1      -6.676   2.977   4.082  1.00  0.00    -0.237 OA
ATOM     90  O   UNL     1      -5.369   2.723   6.142  1.00  0.00    -0.744 OA
ENDBRANCH  84  87
ENDBRANCH  56  80
BRANCH  68  91
ATOM     91  C   UNL     1      -4.183  12.138  10.565  1.00  0.00     0.023 A 
ATOM     92  C   UNL     1      -5.135  11.636  11.475  1.00  0.00     0.012 A 
ATOM     93  C   UNL     1      -4.159  13.517  10.279  1.00  0.00     0.148 A 
ATOM     94  C   UNL     1      -6.079  12.485  12.051  1.00  0.00     0.002 A 
ATOM     95  C   UNL     1      -5.066  14.366  10.901  1.00  0.00     0.091 A 
ATOM     96  F   UNL     1      -3.254  13.973   9.400  1.00  0.00    -0.205 F 
ATOM     97  C   UNL     1      -6.038  13.849  11.772  1.00  0.00     0.022 A 
BRANCH  95  98
ATOM     98  S   UNL     1      -5.021  16.147  10.680  1.00  0.00     0.127 S 
ATOM     99  O   UNL     1      -6.199  16.373   9.845  1.00  0.00    -0.237 OA
ATOM    100  O   UNL     1      -5.145  16.632  12.055  1.00  0.00    -0.237 OA
ATOM    101  O   UNL     1      -3.741  16.442  10.050  1.00  0.00    -0.744 OA
ENDBRANCH  95  98
ENDBRANCH  68  91
ENDBRANCH  42  43
ENDBRANCH  35  37
ENDBRANCH  34  35
ENDBRANCH  33  34
ENDBRANCH  32  33
ENDBRANCH   1  32
TORSDOF 22
