REMARK SMILES Cc1c(C(=O)Nc2ccc(C(=O)Nc3ccccc3C(=O)OCCOCCOC(=O)c3ccc(-c4c5nc(c(-c6cccc(S(=O)(=O)[O-])c6F)c6ccc([nH]6)c(-c6cccc(S(=O)(=O)[O-])c6F)c6nc(c(-c7cccc(S(=O)(=O)[O-])c7F)c7ccc4[nH]7)C=C6)C=C5)cc3)cc2)cccc1[N+](=O)[O-]
REMARK SMILES IDX 24 1 23 2 22 3 20 4 21 5 19 6 14 7 15 8 16 9 18 10 17 11
REMARK SMILES IDX 13 12 11 13 12 14 10 16 7 17 8 18 95 19 9 20 94 21 6 22 4 23
REMARK SMILES IDX 5 24 3 26 1 27 2 28 99 29 96 30 98 31 97 32 100 33 101 34
REMARK SMILES IDX 102 35 25 36 26 37 27 38 28 39 29 40 30 41 31 42 32 43 93 44
REMARK SMILES IDX 33 45 92 46 34 47 35 48 36 49 86 50 37 51 91 52 85 53 87 54
REMARK SMILES IDX 38 55 90 56 84 57 83 58 39 60 71 61 51 62 70 63 52 64 55 65
REMARK SMILES IDX 69 66 88 67 53 68 54 69 68 71 89 72 56 73 40 74 41 75 49 76
REMARK SMILES IDX 42 77 44 78 50 79 43 80 45 81 46 82 47 83 48 84 72 85 73 86
REMARK SMILES IDX 81 87 74 88 76 89 82 90 75 91 77 92 78 93 79 94 80 95 57 96
REMARK SMILES IDX 58 97 66 98 59 99 61 100 67 101 60 102 62 103 63 104 64 105
REMARK SMILES IDX 65 106
REMARK H PARENT 13 15 6 25 87 59 55 70
REMARK Flexibility Score: inf
ROOT
ATOM      1  C   UNL     1       7.163  -0.082   0.574  1.00  0.00     0.202 C 
ENDROOT
BRANCH   1   2
ATOM      2  C   UNL     1       6.652   0.357   1.948  1.00  0.00     0.261 C 
BRANCH   2   3
ATOM      3  O   UNL     1       5.332   0.888   2.111  1.00  0.00    -0.460 OA
BRANCH   3   4
ATOM      4  C   UNL     1       5.332   2.231   2.304  1.00  0.00     0.340 C 
ATOM      5  O   UNL     1       6.269   2.982   2.233  1.00  0.00    -0.246 OA
BRANCH   4   6
ATOM      6  C   UNL     1       3.967   2.754   2.480  1.00  0.00     0.083 A 
ATOM      7  C   UNL     1       3.563   3.740   1.574  1.00  0.00     0.056 A 
ATOM      8  C   UNL     1       2.429   4.510   1.828  1.00  0.00     0.027 A 
ATOM      9  C   UNL     1       1.627   4.217   2.927  1.00  0.00     0.002 A 
ATOM     10  C   UNL     1       3.128   2.407   3.547  1.00  0.00     0.018 A 
ATOM     11  C   UNL     1       1.948   3.138   3.757  1.00  0.00     0.001 A 
BRANCH   7  12
ATOM     12  N   UNL     1       4.190   3.912   0.336  1.00  0.00    -0.321 N 
ATOM     13  C   UNL     1       3.807   3.382  -0.888  1.00  0.00     0.255 C 
ATOM     14  O   UNL     1       4.322   3.823  -1.916  1.00  0.00    -0.269 OA
ATOM     15  H   UNL     1       4.998   4.476   0.332  1.00  0.00     0.170 HD
BRANCH  13  16
ATOM     16  C   UNL     1       2.921   2.163  -1.000  1.00  0.00     0.040 A 
ATOM     17  C   UNL     1       1.862  -0.465  -1.068  1.00  0.00     0.041 A 
ATOM     18  C   UNL     1       1.556   0.394  -0.016  1.00  0.00     0.027 A 
ATOM     19  C   UNL     1       2.659  -0.003  -2.115  1.00  0.00     0.027 A 
ATOM     20  C   UNL     1       2.040   1.706  -0.016  1.00  0.00     0.016 A 
ATOM     21  C   UNL     1       3.166   1.311  -2.092  1.00  0.00     0.016 A 
BRANCH  17  22
ATOM     22  N   UNL     1       1.310  -1.754  -1.155  1.00  0.00    -0.322 N 
ATOM     23  C   UNL     1      -0.026  -2.092  -1.008  1.00  0.00     0.256 C 
ATOM     24  O   UNL     1      -0.388  -3.265  -0.984  1.00  0.00    -0.269 OA
ATOM     25  H   UNL     1       1.936  -2.491  -1.338  1.00  0.00     0.170 HD
BRANCH  23  26
ATOM     26  C   UNL     1      -1.049  -1.004  -0.891  1.00  0.00     0.049 A 
ATOM     27  C   UNL     1      -0.322   0.256  -2.983  1.00  0.00     0.053 C 
ATOM     28  C   UNL     1      -0.979   0.200  -1.628  1.00  0.00     0.039 A 
ATOM     29  C   UNL     1      -1.565   1.330  -1.029  1.00  0.00     0.273 A 
ATOM     30  C   UNL     1      -1.977  -1.153   0.150  1.00  0.00     0.014 A 
ATOM     31  C   UNL     1      -2.460   1.197   0.045  1.00  0.00     0.086 A 
ATOM     32  C   UNL     1      -2.729  -0.062   0.575  1.00  0.00     0.008 A 
BRANCH  29  33
ATOM     33  N   UNL     1      -1.088   2.690  -1.331  1.00  0.00     0.063 N 
ATOM     34  O   UNL     1      -0.983   3.470  -0.370  1.00  0.00    -0.258 OA
ATOM     35  O   UNL     1      -0.819   2.980  -2.502  1.00  0.00    -0.258 OA
ENDBRANCH  29  33
ENDBRANCH  23  26
ENDBRANCH  17  22
ENDBRANCH  13  16
ENDBRANCH   7  12
ENDBRANCH   4   6
ENDBRANCH   3   4
ENDBRANCH   2   3
ENDBRANCH   1   2
BRANCH   1  36
ATOM     36  O   UNL     1       6.349   0.144  -0.523  1.00  0.00    -0.374 OA
BRANCH  36  37
ATOM     37  C   UNL     1       5.060  -0.366  -0.310  1.00  0.00     0.202 C 
BRANCH  37  38
ATOM     38  C   UNL     1       4.688  -1.693   0.423  1.00  0.00     0.261 C 
BRANCH  38  39
ATOM     39  O   UNL     1       5.608  -2.232   1.392  1.00  0.00    -0.460 OA
BRANCH  39  40
ATOM     40  C   UNL     1       6.176  -3.465   1.187  1.00  0.00     0.338 C 
ATOM     41  O   UNL     1       5.860  -4.260   0.323  1.00  0.00    -0.246 OA
BRANCH  40  42
ATOM     42  C   UNL     1       7.441  -3.506   2.006  1.00  0.00     0.060 A 
ATOM     43  C   UNL     1       7.391  -3.679   3.378  1.00  0.00     0.016 A 
ATOM     44  C   UNL     1       8.544  -2.839   1.500  1.00  0.00     0.016 A 
ATOM     45  C   UNL     1       8.058  -2.790   4.224  1.00  0.00     0.010 A 
ATOM     46  C   UNL     1       9.215  -1.948   2.344  1.00  0.00     0.010 A 
ATOM     47  C   UNL     1       8.758  -1.741   3.658  1.00  0.00    -0.014 A 
BRANCH  47  48
ATOM     48  C   UNL     1       8.701  -0.362   4.240  1.00  0.00     0.031 A 
ATOM     49  C   UNL     1       9.750   0.624   3.908  1.00  0.00     0.074 A 
ATOM     50  C   UNL     1       7.569   0.189   4.769  1.00  0.00     0.049 A 
ATOM     51  N   UNL     1      10.558   1.185   4.748  1.00  0.00    -0.248 NA
ATOM     52  C   UNL     1       9.948   1.048   2.529  1.00  0.00     0.031 C 
ATOM     53  C   UNL     1       7.318   1.625   4.942  1.00  0.00     0.029 A 
ATOM     54  N   UNL     1       6.353  -0.378   5.149  1.00  0.00    -0.354 N 
ATOM     55  C   UNL     1      11.201   2.171   4.010  1.00  0.00     0.074 A 
ATOM     56  C   UNL     1      11.027   1.808   2.626  1.00  0.00     0.031 C 
ATOM     57  C   UNL     1       6.131   1.811   5.538  1.00  0.00     0.029 A 
ATOM     58  C   UNL     1       5.612   0.516   5.923  1.00  0.00     0.049 A 
ATOM     59  H   UNL     1       6.057  -1.285   4.904  1.00  0.00     0.167 HD
ATOM     60  C   UNL     1      11.308   3.462   4.442  1.00  0.00     0.034 A 
ATOM     61  C   UNL     1       5.111   0.218   7.154  1.00  0.00     0.034 A 
ATOM     62  C   UNL     1      10.361   3.746   5.548  1.00  0.00     0.049 A 
ATOM     63  C   UNL     1       6.021   0.824   8.209  1.00  0.00     0.074 A 
ATOM     64  C   UNL     1       9.263   4.588   5.658  1.00  0.00     0.029 A 
ATOM     65  N   UNL     1      10.319   2.936   6.679  1.00  0.00    -0.354 N 
ATOM     66  N   UNL     1       6.795   1.857   7.990  1.00  0.00    -0.248 NA
ATOM     67  C   UNL     1       6.200   0.296   9.559  1.00  0.00     0.031 C 
ATOM     68  C   UNL     1       8.546   4.245   6.844  1.00  0.00     0.029 A 
ATOM     69  C   UNL     1       9.208   3.205   7.475  1.00  0.00     0.049 A 
ATOM     70  H   UNL     1      10.995   2.253   6.892  1.00  0.00     0.167 HD
ATOM     71  C   UNL     1       7.786   1.873   8.935  1.00  0.00     0.074 A 
ATOM     72  C   UNL     1       7.256   1.014   9.984  1.00  0.00     0.031 C 
ATOM     73  C   UNL     1       9.010   2.458   8.724  1.00  0.00     0.034 A 
BRANCH  60  74
ATOM     74  C   UNL     1      12.028   4.561   3.646  1.00  0.00     0.023 A 
ATOM     75  C   UNL     1      12.052   5.849   4.219  1.00  0.00     0.012 A 
ATOM     76  C   UNL     1      12.783   4.421   2.445  1.00  0.00     0.148 A 
ATOM     77  C   UNL     1      12.713   6.930   3.617  1.00  0.00     0.002 A 
ATOM     78  C   UNL     1      13.367   5.514   1.798  1.00  0.00     0.091 A 
ATOM     79  F   UNL     1      13.074   3.209   1.965  1.00  0.00    -0.205 F 
ATOM     80  C   UNL     1      13.345   6.774   2.391  1.00  0.00     0.022 A 
BRANCH  78  81
ATOM     81  S   UNL     1      14.195   5.365   0.198  1.00  0.00     0.127 S 
ATOM     82  O   UNL     1      13.569   6.437  -0.578  1.00  0.00    -0.237 OA
ATOM     83  O   UNL     1      15.594   5.604   0.546  1.00  0.00    -0.237 OA
ATOM     84  O   UNL     1      13.894   4.025  -0.294  1.00  0.00    -0.744 OA
ENDBRANCH  78  81
ENDBRANCH  60  74
BRANCH  61  85
ATOM     85  C   UNL     1       4.342  -1.059   7.156  1.00  0.00     0.023 A 
ATOM     86  C   UNL     1       3.033  -0.952   6.620  1.00  0.00     0.012 A 
ATOM     87  C   UNL     1       4.965  -2.320   7.158  1.00  0.00     0.148 A 
ATOM     88  C   UNL     1       2.434  -2.019   5.950  1.00  0.00     0.002 A 
ATOM     89  C   UNL     1       4.365  -3.379   6.471  1.00  0.00     0.091 A 
ATOM     90  F   UNL     1       6.195  -2.417   7.681  1.00  0.00    -0.205 F 
ATOM     91  C   UNL     1       3.124  -3.216   5.836  1.00  0.00     0.022 A 
BRANCH  89  92
ATOM     92  S   UNL     1       5.218  -4.919   6.115  1.00  0.00     0.127 S 
ATOM     93  O   UNL     1       4.536  -5.866   6.987  1.00  0.00    -0.237 OA
ATOM     94  O   UNL     1       4.928  -5.089   4.692  1.00  0.00    -0.237 OA
ATOM     95  O   UNL     1       6.614  -4.655   6.429  1.00  0.00    -0.744 OA
ENDBRANCH  89  92
ENDBRANCH  61  85
BRANCH  73  96
ATOM     96  C   UNL     1      10.187   2.327   9.675  1.00  0.00     0.023 A 
ATOM     97  C   UNL     1      10.368   1.209  10.510  1.00  0.00     0.012 A 
ATOM     98  C   UNL     1      11.234   3.286   9.655  1.00  0.00     0.148 A 
ATOM     99  C   UNL     1      11.479   1.088  11.351  1.00  0.00     0.002 A 
ATOM    100  C   UNL     1      12.395   3.097  10.397  1.00  0.00     0.091 A 
ATOM    101  F   UNL     1      11.098   4.404   8.925  1.00  0.00    -0.205 F 
ATOM    102  C   UNL     1      12.503   2.022  11.280  1.00  0.00     0.022 A 
BRANCH 100 103
ATOM    103  S   UNL     1      13.843   4.131  10.136  1.00  0.00     0.127 S 
ATOM    104  O   UNL     1      13.681   5.146  11.173  1.00  0.00    -0.237 OA
ATOM    105  O   UNL     1      14.944   3.193  10.366  1.00  0.00    -0.237 OA
ATOM    106  O   UNL     1      13.734   4.593   8.759  1.00  0.00    -0.744 OA
ENDBRANCH 100 103
ENDBRANCH  73  96
ENDBRANCH  47  48
ENDBRANCH  40  42
ENDBRANCH  39  40
ENDBRANCH  38  39
ENDBRANCH  37  38
ENDBRANCH  36  37
ENDBRANCH   1  36
TORSDOF 22
