REMARK SMILES CC[C@@H](C)[C@H](NC(=O)[C@@H](C)N1C(=O)N2CCC3=c4cc(OC)ccc4=N[C@@H]3[C@@]2(C)C1=O)C(=O)OCCOCCOC(=O)c1ccc(-c2c3nc(c(-c4cccc(S(=O)(=O)[O-])c4F)c4ccc([nH]4)c(-c4cccc(S(=O)(=O)[O-])c4F)c4nc(c(-c5cccc(S(=O)(=O)[O-])c5F)c5ccc2[nH]5)C=C4)C=C3)cc1
REMARK SMILES IDX 36 1 35 2 34 3 32 4 33 5 5 6 3 7 4 8 2 9 1 10 6 11 7 12 8 14
REMARK SMILES IDX 9 15 10 16 11 17 12 18 30 19 14 20 13 21 28 22 31 23 15 24
REMARK SMILES IDX 27 25 29 26 16 27 17 28 26 29 18 30 25 31 19 32 24 33 20 34
REMARK SMILES IDX 23 35 21 36 22 37 37 38 38 39 39 40 40 41 41 42 42 43 43 44
REMARK SMILES IDX 44 45 105 46 45 47 104 48 46 49 47 50 48 51 98 52 49 53
REMARK SMILES IDX 103 54 97 55 99 56 50 57 102 58 96 59 95 60 51 62 83 63
REMARK SMILES IDX 63 64 82 65 64 66 67 67 81 68 100 69 65 70 66 71 80 73
REMARK SMILES IDX 101 74 68 75 52 76 53 77 61 78 54 79 56 80 62 81 55 82 57 83
REMARK SMILES IDX 58 84 59 85 60 86 84 87 85 88 93 89 86 90 88 91 94 92 87 93
REMARK SMILES IDX 89 94 90 95 91 96 92 97 69 98 70 99 78 100 71 101 73 102
REMARK SMILES IDX 79 103 72 104 74 105 75 106 76 107 77 108
REMARK H PARENT 6 13 99 61 67 72
REMARK Flexibility Score: inf
ROOT
ATOM      1  C   UNL     1       1.597  -4.240   6.116  1.00  0.00     0.202 C 
ENDROOT
BRANCH   1   2
ATOM      2  C   UNL     1       1.406  -2.456   7.407  1.00  0.00     0.261 C 
BRANCH   2   3
ATOM      3  O   UNL     1       1.767  -0.815   6.719  1.00  0.00    -0.462 OA
BRANCH   3   4
ATOM      4  C   UNL     1       3.041  -0.353   6.340  1.00  0.00     0.328 C 
ATOM      5  O   UNL     1       3.992  -0.448   7.125  1.00  0.00    -0.250 OA
BRANCH   4   6
ATOM      6  C   UNL     1       3.350   0.145   4.695  1.00  0.00     0.195 C 
BRANCH   6   7
ATOM      7  C   UNL     1       3.774   1.667   4.619  1.00  0.00     0.019 C 
ATOM      8  C   UNL     1       5.170   1.829   3.959  1.00  0.00     0.010 C 
BRANCH   7   9
ATOM      9  C   UNL     1       3.737   2.300   6.011  1.00  0.00     0.002 C 
ATOM     10  C   UNL     1       3.985   3.789   6.073  1.00  0.00     0.004 C 
ENDBRANCH   7   9
ENDBRANCH   6   7
BRANCH   6  11
ATOM     11  N   UNL     1       2.674  -0.196   3.301  1.00  0.00    -0.341 N 
ATOM     12  C   UNL     1       2.120  -1.343   2.665  1.00  0.00     0.243 C 
ATOM     13  H   UNL     1       2.625   0.598   2.720  1.00  0.00     0.164 HD
ATOM     14  O   UNL     1       2.350  -1.372   1.450  1.00  0.00    -0.273 OA
BRANCH  12  15
ATOM     15  C   UNL     1       0.902  -2.290   3.427  1.00  0.00     0.181 C 
ATOM     16  C   UNL     1       0.197  -0.694   4.046  1.00  0.00     0.042 C 
BRANCH  15  17
ATOM     17  N   UNL     1       0.170  -4.080   3.684  1.00  0.00    -0.250 N 
ATOM     18  C   UNL     1       0.200  -5.684   4.223  1.00  0.00     0.328 C 
ATOM     19  C   UNL     1      -0.739  -4.648   2.979  1.00  0.00     0.259 C 
ATOM     20  N   UNL     1      -1.379  -6.327   4.183  1.00  0.00    -0.307 N 
ATOM     21  O   UNL     1       1.077  -6.479   4.543  1.00  0.00    -0.248 OA
ATOM     22  C   UNL     1      -1.670  -5.058   4.046  1.00  0.00     0.147 C 
ATOM     23  O   UNL     1      -0.604  -5.202   1.889  1.00  0.00    -0.271 OA
ATOM     24  C   UNL     1      -2.870  -6.397   5.091  1.00  0.00     0.127 C 
ATOM     25  C   UNL     1      -1.290  -5.132   5.989  1.00  0.00     0.168 C 
ATOM     26  C   UNL     1      -2.950  -5.273   2.924  1.00  0.00     0.048 C 
ATOM     27  C   UNL     1      -3.219  -4.608   5.757  1.00  0.00     0.055 C 
ATOM     28  C   UNL     1      -1.825  -3.935   6.438  1.00  0.00    -0.032 C 
ATOM     29  N   UNL     1      -0.141  -5.605   7.041  1.00  0.00    -0.274 NA
ATOM     30  C   UNL     1      -0.642  -3.260   6.741  1.00  0.00     0.005 A 
ATOM     31  C   UNL     1       0.239  -4.488   7.705  1.00  0.00     0.066 A 
ATOM     32  C   UNL     1       0.616  -2.529   5.640  1.00  0.00     0.056 A 
ATOM     33  C   UNL     1       2.098  -4.272   8.180  1.00  0.00     0.032 A 
ATOM     34  C   UNL     1       2.341  -2.564   5.675  1.00  0.00     0.119 A 
ATOM     35  C   UNL     1       3.116  -3.483   7.188  1.00  0.00     0.048 A 
BRANCH  34  36
ATOM     36  O   UNL     1       3.205  -2.276   4.654  1.00  0.00    -0.497 OA
ATOM     37  C   UNL     1       4.561  -2.685   4.474  1.00  0.00     0.278 C 
ENDBRANCH  34  36
ENDBRANCH  15  17
ENDBRANCH  12  15
ENDBRANCH   6  11
ENDBRANCH   4   6
ENDBRANCH   3   4
ENDBRANCH   2   3
ENDBRANCH   1   2
BRANCH   1  38
ATOM     38  O   UNL     1       2.597  -4.426   4.649  1.00  0.00    -0.374 OA
BRANCH  38  39
ATOM     39  C   UNL     1       2.437  -4.806   3.146  1.00  0.00     0.202 C 
BRANCH  39  40
ATOM     40  C   UNL     1       1.769  -4.117   1.587  1.00  0.00     0.261 C 
BRANCH  40  41
ATOM     41  O   UNL     1       0.393  -3.148   1.397  1.00  0.00    -0.460 OA
BRANCH  41  42
ATOM     42  C   UNL     1      -0.891  -2.863   0.864  1.00  0.00     0.338 C 
ATOM     43  O   UNL     1      -1.251  -3.272  -0.232  1.00  0.00    -0.246 OA
BRANCH  42  44
ATOM     44  C   UNL     1      -2.062  -2.028   1.820  1.00  0.00     0.060 A 
ATOM     45  C   UNL     1      -3.155  -1.380   1.243  1.00  0.00     0.016 A 
ATOM     46  C   UNL     1      -2.224  -2.000   3.234  1.00  0.00     0.016 A 
ATOM     47  C   UNL     1      -4.210  -0.729   2.023  1.00  0.00     0.010 A 
ATOM     48  C   UNL     1      -3.210  -1.322   4.040  1.00  0.00     0.010 A 
ATOM     49  C   UNL     1      -4.253  -0.670   3.440  1.00  0.00    -0.014 A 
BRANCH  49  50
ATOM     50  C   UNL     1      -5.448  -0.147   4.211  1.00  0.00     0.031 A 
ATOM     51  C   UNL     1      -5.423   1.034   5.168  1.00  0.00     0.074 A 
ATOM     52  C   UNL     1      -6.639  -0.744   3.980  1.00  0.00     0.049 A 
ATOM     53  N   UNL     1      -6.396   1.869   5.451  1.00  0.00    -0.248 NA
ATOM     54  C   UNL     1      -4.189   1.311   5.924  1.00  0.00     0.031 C 
ATOM     55  C   UNL     1      -6.796  -2.024   3.288  1.00  0.00     0.029 A 
ATOM     56  N   UNL     1      -7.933  -0.326   4.196  1.00  0.00    -0.354 N 
ATOM     57  C   UNL     1      -5.878   2.799   6.353  1.00  0.00     0.074 A 
ATOM     58  C   UNL     1      -4.521   2.389   6.633  1.00  0.00     0.031 C 
ATOM     59  C   UNL     1      -8.085  -2.193   2.962  1.00  0.00     0.029 A 
ATOM     60  C   UNL     1      -8.848  -1.053   3.459  1.00  0.00     0.049 A 
ATOM     61  H   UNL     1      -8.178   0.407   4.806  1.00  0.00     0.167 HD
ATOM     62  C   UNL     1      -6.474   3.908   6.859  1.00  0.00     0.034 A 
ATOM     63  C   UNL     1     -10.134  -0.795   3.142  1.00  0.00     0.034 A 
ATOM     64  C   UNL     1      -7.832   4.282   6.564  1.00  0.00     0.049 A 
ATOM     65  C   UNL     1     -10.755   0.481   3.629  1.00  0.00     0.074 A 
ATOM     66  C   UNL     1      -8.514   5.427   6.939  1.00  0.00     0.029 A 
ATOM     67  N   UNL     1      -8.720   3.501   5.845  1.00  0.00    -0.354 N 
ATOM     68  N   UNL     1     -10.189   1.464   4.287  1.00  0.00    -0.248 NA
ATOM     69  C   UNL     1     -12.176   0.697   3.321  1.00  0.00     0.031 C 
ATOM     70  C   UNL     1      -9.828   5.318   6.479  1.00  0.00     0.029 A 
ATOM     71  C   UNL     1      -9.949   4.126   5.782  1.00  0.00     0.049 A 
ATOM     72  H   UNL     1      -8.508   2.630   5.439  1.00  0.00     0.167 HD
ATOM     73  C   UNL     1     -11.180   2.420   4.463  1.00  0.00     0.074 A 
ATOM     74  C   UNL     1     -12.375   1.910   3.822  1.00  0.00     0.031 C 
ATOM     75  C   UNL     1     -11.110   3.606   5.111  1.00  0.00     0.034 A 
BRANCH  62  76
ATOM     76  C   UNL     1      -5.683   4.867   7.716  1.00  0.00     0.023 A 
ATOM     77  C   UNL     1      -4.801   5.774   7.093  1.00  0.00     0.012 A 
ATOM     78  C   UNL     1      -5.961   5.014   9.091  1.00  0.00     0.148 A 
ATOM     79  C   UNL     1      -4.217   6.814   7.819  1.00  0.00     0.002 A 
ATOM     80  C   UNL     1      -5.388   6.063   9.805  1.00  0.00     0.091 A 
ATOM     81  F   UNL     1      -6.811   4.150   9.662  1.00  0.00    -0.205 F 
ATOM     82  C   UNL     1      -4.520   6.966   9.170  1.00  0.00     0.022 A 
BRANCH  80  83
ATOM     83  S   UNL     1      -5.727   6.361  11.545  1.00  0.00     0.127 S 
ATOM     84  O   UNL     1      -4.388   6.252  12.127  1.00  0.00    -0.237 OA
ATOM     85  O   UNL     1      -6.275   7.716  11.525  1.00  0.00    -0.237 OA
ATOM     86  O   UNL     1      -6.658   5.321  11.959  1.00  0.00    -0.744 OA
ENDBRANCH  80  83
ENDBRANCH  62  76
BRANCH  63  87
ATOM     87  C   UNL     1     -10.879  -1.724   2.243  1.00  0.00     0.023 A 
ATOM     88  C   UNL     1     -11.205  -1.338   0.928  1.00  0.00     0.012 A 
ATOM     89  C   UNL     1     -11.218  -3.016   2.683  1.00  0.00     0.148 A 
ATOM     90  C   UNL     1     -11.861  -2.226   0.070  1.00  0.00     0.002 A 
ATOM     91  C   UNL     1     -11.841  -3.905   1.817  1.00  0.00     0.091 A 
ATOM     92  F   UNL     1     -10.893  -3.358   3.938  1.00  0.00    -0.205 F 
ATOM     93  C   UNL     1     -12.169  -3.511   0.510  1.00  0.00     0.022 A 
BRANCH  91  94
ATOM     94  S   UNL     1     -12.217  -5.596   2.288  1.00  0.00     0.127 S 
ATOM     95  O   UNL     1     -13.678  -5.581   2.296  1.00  0.00    -0.237 OA
ATOM     96  O   UNL     1     -11.611  -6.355   1.195  1.00  0.00    -0.237 OA
ATOM     97  O   UNL     1     -11.585  -5.794   3.585  1.00  0.00    -0.744 OA
ENDBRANCH  91  94
ENDBRANCH  63  87
BRANCH  75  98
ATOM     98  C   UNL     1     -12.347   4.452   5.165  1.00  0.00     0.023 A 
ATOM     99  C   UNL     1     -13.373   4.123   6.070  1.00  0.00     0.012 A 
ATOM    100  C   UNL     1     -12.414   5.651   4.430  1.00  0.00     0.148 A 
ATOM    101  C   UNL     1     -14.455   4.982   6.244  1.00  0.00     0.002 A 
ATOM    102  C   UNL     1     -13.479   6.516   4.631  1.00  0.00     0.091 A 
ATOM    103  F   UNL     1     -11.415   5.934   3.581  1.00  0.00    -0.205 F 
ATOM    104  C   UNL     1     -14.500   6.183   5.537  1.00  0.00     0.022 A 
BRANCH 102 105
ATOM    105  S   UNL     1     -13.599   8.104   3.804  1.00  0.00     0.127 S 
ATOM    106  O   UNL     1     -14.799   7.920   2.988  1.00  0.00    -0.237 OA
ATOM    107  O   UNL     1     -13.759   9.025   4.929  1.00  0.00    -0.237 OA
ATOM    108  O   UNL     1     -12.362   8.266   3.052  1.00  0.00    -0.744 OA
ENDBRANCH 102 105
ENDBRANCH  75  98
ENDBRANCH  49  50
ENDBRANCH  42  44
ENDBRANCH  41  42
ENDBRANCH  40  41
ENDBRANCH  39  40
ENDBRANCH  38  39
ENDBRANCH   1  38
TORSDOF 23
