REMARK SMILES O=C(OCCOCCOC(=O)[C@@H](c1ccsc1)[NH+]1CCC(Oc2cccnc2)CC1)c1ccc(-c2c3nc(c(-c4cccc(S(=O)(=O)[O-])c4F)c4ccc([nH]4)c(-c4cccc(S(=O)(=O)[O-])c4F)c4nc(c(-c5cccc(S(=O)(=O)[O-])c5F)c5ccc2[nH]5)C=C4)C=C3)cc1
REMARK SMILES IDX 6 1 5 2 4 3 3 4 2 5 1 6 31 7 32 8 93 9 33 10 92 11 34 12
REMARK SMILES IDX 35 13 36 14 86 15 37 16 91 17 85 18 87 19 38 20 90 21 84 22
REMARK SMILES IDX 83 23 39 25 71 26 51 27 70 28 52 29 55 30 69 31 88 32 53 33
REMARK SMILES IDX 54 34 68 36 89 37 56 38 40 39 41 40 49 41 42 42 44 43 50 44
REMARK SMILES IDX 43 45 45 46 46 47 47 48 48 49 72 50 73 51 81 52 74 53 76 54
REMARK SMILES IDX 82 55 75 56 77 57 78 58 79 59 80 60 57 61 58 62 66 63 59 64
REMARK SMILES IDX 61 65 67 66 60 67 62 68 63 69 64 70 65 71 7 72 8 73 9 74
REMARK SMILES IDX 10 75 11 76 12 77 13 78 14 79 17 80 15 81 16 82 18 83 19 84
REMARK SMILES IDX 30 85 20 87 29 88 21 89 22 90 23 91 24 92 28 93 25 94 27 95
REMARK SMILES IDX 26 96
REMARK H PARENT 87 24 55 35 18 86
REMARK Flexibility Score: inf
ROOT
ATOM      1  O   UNL     1       3.858   0.986  -0.783  1.00  0.00    -0.374 OA
ENDROOT
BRANCH   1   2
ATOM      2  C   UNL     1       4.238  -0.300  -1.262  1.00  0.00     0.202 C 
BRANCH   2   3
ATOM      3  C   UNL     1       4.027  -1.438  -0.265  1.00  0.00     0.261 C 
BRANCH   3   4
ATOM      4  O   UNL     1       2.640  -1.504   0.107  1.00  0.00    -0.460 OA
BRANCH   4   5
ATOM      5  C   UNL     1       2.044  -0.850   1.134  1.00  0.00     0.338 C 
ATOM      6  O   UNL     1       0.818  -0.850   1.210  1.00  0.00    -0.246 OA
BRANCH   5   7
ATOM      7  C   UNL     1       2.825  -0.190   2.218  1.00  0.00     0.060 A 
ATOM      8  C   UNL     1       4.024   0.491   2.016  1.00  0.00     0.016 A 
ATOM      9  C   UNL     1       2.291  -0.215   3.513  1.00  0.00     0.016 A 
ATOM     10  C   UNL     1       4.724   1.064   3.046  1.00  0.00     0.010 A 
ATOM     11  C   UNL     1       2.976   0.391   4.571  1.00  0.00     0.010 A 
ATOM     12  C   UNL     1       4.206   1.012   4.327  1.00  0.00    -0.014 A 
BRANCH  12  13
ATOM     13  C   UNL     1       5.114   1.480   5.375  1.00  0.00     0.031 A 
ATOM     14  C   UNL     1       5.856   0.444   6.152  1.00  0.00     0.074 A 
ATOM     15  C   UNL     1       5.421   2.788   5.421  1.00  0.00     0.049 A 
ATOM     16  N   UNL     1       6.721   0.599   7.110  1.00  0.00    -0.248 NA
ATOM     17  C   UNL     1       5.611  -0.964   5.779  1.00  0.00     0.031 C 
ATOM     18  C   UNL     1       4.862   3.817   4.535  1.00  0.00     0.029 A 
ATOM     19  N   UNL     1       6.310   3.468   6.200  1.00  0.00    -0.354 N 
ATOM     20  C   UNL     1       7.058  -0.684   7.514  1.00  0.00     0.074 A 
ATOM     21  C   UNL     1       6.346  -1.612   6.668  1.00  0.00     0.031 C 
ATOM     22  C   UNL     1       5.440   4.995   4.811  1.00  0.00     0.029 A 
ATOM     23  C   UNL     1       6.334   4.819   5.945  1.00  0.00     0.049 A 
ATOM     24  H   UNL     1       6.878   3.035   6.878  1.00  0.00     0.167 HD
ATOM     25  C   UNL     1       7.877  -1.039   8.528  1.00  0.00     0.034 A 
ATOM     26  C   UNL     1       6.979   5.797   6.603  1.00  0.00     0.034 A 
ATOM     27  C   UNL     1       8.574  -0.071   9.325  1.00  0.00     0.049 A 
ATOM     28  C   UNL     1       7.822   5.381   7.777  1.00  0.00     0.074 A 
ATOM     29  C   UNL     1       9.380  -0.271  10.426  1.00  0.00     0.029 A 
ATOM     30  N   UNL     1       8.534   1.300   9.093  1.00  0.00    -0.354 N 
ATOM     31  N   UNL     1       8.102   4.168   8.199  1.00  0.00    -0.248 NA
ATOM     32  C   UNL     1       8.435   6.453   8.565  1.00  0.00     0.031 C 
ATOM     33  C   UNL     1       9.801   0.984  10.880  1.00  0.00     0.029 A 
ATOM     34  C   UNL     1       9.290   1.964  10.037  1.00  0.00     0.049 A 
ATOM     35  H   UNL     1       8.037   1.734   8.362  1.00  0.00     0.167 HD
ATOM     36  C   UNL     1       8.944   4.328   9.289  1.00  0.00     0.074 A 
ATOM     37  C   UNL     1       9.146   5.758   9.443  1.00  0.00     0.031 C 
ATOM     38  C   UNL     1       9.489   3.391  10.105  1.00  0.00     0.034 A 
BRANCH  25  39
ATOM     39  C   UNL     1       7.961  -2.503   8.856  1.00  0.00     0.023 A 
ATOM     40  C   UNL     1       8.651  -3.394   8.009  1.00  0.00     0.012 A 
ATOM     41  C   UNL     1       7.289  -3.006   9.987  1.00  0.00     0.148 A 
ATOM     42  C   UNL     1       8.633  -4.767   8.260  1.00  0.00     0.002 A 
ATOM     43  C   UNL     1       7.311  -4.369  10.254  1.00  0.00     0.091 A 
ATOM     44  F   UNL     1       6.605  -2.147  10.757  1.00  0.00    -0.205 F 
ATOM     45  C   UNL     1       7.969  -5.253   9.384  1.00  0.00     0.022 A 
BRANCH  43  46
ATOM     46  S   UNL     1       6.529  -5.080  11.705  1.00  0.00     0.127 S 
ATOM     47  O   UNL     1       5.416  -5.819  11.108  1.00  0.00    -0.237 OA
ATOM     48  O   UNL     1       7.598  -5.921  12.246  1.00  0.00    -0.237 OA
ATOM     49  O   UNL     1       6.151  -3.959  12.551  1.00  0.00    -0.744 OA
ENDBRANCH  43  46
ENDBRANCH  25  39
BRANCH  26  50
ATOM     50  C   UNL     1       6.826   7.223   6.195  1.00  0.00     0.023 A 
ATOM     51  C   UNL     1       7.944   7.943   5.734  1.00  0.00     0.012 A 
ATOM     52  C   UNL     1       5.572   7.868   6.242  1.00  0.00     0.148 A 
ATOM     53  C   UNL     1       7.822   9.282   5.354  1.00  0.00     0.002 A 
ATOM     54  C   UNL     1       5.446   9.183   5.809  1.00  0.00     0.091 A 
ATOM     55  F   UNL     1       4.518   7.178   6.703  1.00  0.00    -0.205 F 
ATOM     56  C   UNL     1       6.574   9.898   5.382  1.00  0.00     0.022 A 
BRANCH  54  57
ATOM     57  S   UNL     1       3.855  10.010   5.695  1.00  0.00     0.127 S 
ATOM     58  O   UNL     1       3.938  10.968   6.795  1.00  0.00    -0.237 OA
ATOM     59  O   UNL     1       3.916  10.603   4.358  1.00  0.00    -0.237 OA
ATOM     60  O   UNL     1       2.855   8.963   5.840  1.00  0.00    -0.744 OA
ENDBRANCH  54  57
ENDBRANCH  26  50
BRANCH  38  61
ATOM     61  C   UNL     1      10.389   3.891  11.197  1.00  0.00     0.023 A 
ATOM     62  C   UNL     1       9.838   4.525  12.327  1.00  0.00     0.012 A 
ATOM     63  C   UNL     1      11.773   3.650  11.133  1.00  0.00     0.148 A 
ATOM     64  C   UNL     1      10.663   4.941  13.368  1.00  0.00     0.002 A 
ATOM     65  C   UNL     1      12.580   4.014  12.199  1.00  0.00     0.091 A 
ATOM     66  F   UNL     1      12.271   3.065  10.033  1.00  0.00    -0.205 F 
ATOM     67  C   UNL     1      12.030   4.673  13.312  1.00  0.00     0.022 A 
BRANCH  65  68
ATOM     68  S   UNL     1      14.324   3.599  12.256  1.00  0.00     0.127 S 
ATOM     69  O   UNL     1      14.947   4.894  11.989  1.00  0.00    -0.237 OA
ATOM     70  O   UNL     1      14.483   3.114  13.627  1.00  0.00    -0.237 OA
ATOM     71  O   UNL     1      14.527   2.583  11.232  1.00  0.00    -0.744 OA
ENDBRANCH  65  68
ENDBRANCH  38  61
ENDBRANCH  12  13
ENDBRANCH   5   7
ENDBRANCH   4   5
ENDBRANCH   3   4
ENDBRANCH   2   3
ENDBRANCH   1   2
BRANCH   1  72
ATOM     72  C   UNL     1       2.540   1.437  -1.089  1.00  0.00     0.202 C 
BRANCH  72  73
ATOM     73  C   UNL     1       2.643   2.682  -1.962  1.00  0.00     0.261 C 
BRANCH  73  74
ATOM     74  O   UNL     1       3.287   2.316  -3.190  1.00  0.00    -0.459 OA
BRANCH  74  75
ATOM     75  C   UNL     1       4.654   2.243  -3.144  1.00  0.00     0.370 C 
ATOM     76  O   UNL     1       5.364   2.736  -2.272  1.00  0.00    -0.245 OA
BRANCH  75  77
ATOM     77  C   UNL     1       5.228   1.558  -4.404  1.00  0.00     0.327 C 
BRANCH  77  78
ATOM     78  C   UNL     1       4.648   0.155  -4.573  1.00  0.00     0.032 A 
ATOM     79  C   UNL     1       3.263  -0.176  -4.817  1.00  0.00     0.022 A 
ATOM     80  C   UNL     1       5.398  -1.008  -4.474  1.00  0.00     0.075 A 
ATOM     81  C   UNL     1       3.023  -1.533  -4.812  1.00  0.00     0.065 A 
ATOM     82  S   UNL     1       4.460  -2.433  -4.610  1.00  0.00    -0.152 S 
ENDBRANCH  77  78
BRANCH  77  83
ATOM     83  N   UNL     1       4.939   2.413  -5.573  1.00  0.00    -0.319 N 
ATOM     84  C   UNL     1       5.470   3.775  -5.372  1.00  0.00     0.267 C 
ATOM     85  C   UNL     1       5.422   1.884  -6.849  1.00  0.00     0.267 C 
ATOM     86  H   UNL     1       3.921   2.434  -5.637  1.00  0.00     0.349 HD
ATOM     87  C   UNL     1       4.779   4.684  -6.365  1.00  0.00     0.107 C 
ATOM     88  C   UNL     1       4.787   2.703  -7.974  1.00  0.00     0.107 C 
ATOM     89  C   UNL     1       5.023   4.212  -7.797  1.00  0.00     0.184 C 
BRANCH  89  90
ATOM     90  O   UNL     1       4.362   5.043  -8.774  1.00  0.00    -0.488 OA
BRANCH  90  91
ATOM     91  C   UNL     1       3.009   4.886  -8.853  1.00  0.00     0.138 A 
ATOM     92  C   UNL     1       2.136   5.507  -7.967  1.00  0.00     0.050 A 
ATOM     93  C   UNL     1       2.464   4.154  -9.898  1.00  0.00     0.157 A 
ATOM     94  C   UNL     1       0.767   5.290  -8.094  1.00  0.00     0.024 A 
ATOM     95  N   UNL     1       1.137   3.940 -10.063  1.00  0.00    -0.261 NA
ATOM     96  C   UNL     1       0.321   4.504  -9.144  1.00  0.00     0.111 A 
ENDBRANCH  90  91
ENDBRANCH  89  90
ENDBRANCH  77  83
ENDBRANCH  75  77
ENDBRANCH  74  75
ENDBRANCH  73  74
ENDBRANCH  72  73
ENDBRANCH   1  72
TORSDOF 21
