REMARK SMILES COc1ccc(CC(=O)Nc2ccc(N3CC[NH+](C)CC3)cc2C(=O)OCCOCCOC(=O)c2ccc(-c3c4nc(c(-c5cccc(S(=O)(=O)[O-])c5F)c5ccc([nH]5)c(-c5cccc(S(=O)(=O)[O-])c5F)c5nc(c(-c6cccc(S(=O)(=O)[O-])c6F)c6ccc3[nH]6)C=C5)C=C4)cc2)cc1
REMARK SMILES IDX 28 1 27 2 26 3 24 4 25 5 23 6 11 7 12 8 13 9 22 10 14 11
REMARK SMILES IDX 10 12 8 13 9 14 7 16 6 17 3 18 4 19 99 20 5 21 98 22 2 23
REMARK SMILES IDX 1 24 15 25 16 26 21 27 17 28 20 29 18 30 19 31 29 33 30 34
REMARK SMILES IDX 31 35 32 36 33 37 34 38 35 39 36 40 97 41 37 42 96 43 38 44
REMARK SMILES IDX 39 45 40 46 90 47 41 48 95 49 89 50 91 51 42 52 94 53 88 54
REMARK SMILES IDX 87 55 43 57 75 58 55 59 74 60 56 61 59 62 73 63 92 64 57 65
REMARK SMILES IDX 58 66 72 68 93 69 60 70 44 71 45 72 53 73 46 74 48 75 54 76
REMARK SMILES IDX 47 77 49 78 50 79 51 80 52 81 76 82 77 83 85 84 78 85 80 86
REMARK SMILES IDX 86 87 79 88 81 89 82 90 83 91 84 92 61 93 62 94 70 95 63 96
REMARK SMILES IDX 65 97 71 98 64 99 66 100 67 101 68 102 69 103
REMARK H PARENT 10 15 18 32 91 56 59 67
REMARK Flexibility Score: inf
ROOT
ATOM      1  C   UNL     1      -1.146  -1.379  -4.120  1.00  0.00     0.202 C 
ENDROOT
BRANCH   1   2
ATOM      2  C   UNL     1      -0.271  -1.778  -5.321  1.00  0.00     0.261 C 
BRANCH   2   3
ATOM      3  O   UNL     1       0.981  -2.477  -5.157  1.00  0.00    -0.460 OA
BRANCH   3   4
ATOM      4  C   UNL     1       1.817  -2.154  -4.155  1.00  0.00     0.340 C 
ATOM      5  O   UNL     1       1.505  -1.741  -3.057  1.00  0.00    -0.246 OA
BRANCH   4   6
ATOM      6  C   UNL     1       3.227  -2.459  -4.479  1.00  0.00     0.085 A 
ATOM      7  C   UNL     1       3.773  -2.420  -5.764  1.00  0.00     0.055 A 
ATOM      8  C   UNL     1       5.022  -3.004  -5.965  1.00  0.00     0.029 A 
ATOM      9  C   UNL     1       5.814  -3.351  -4.860  1.00  0.00     0.028 A 
ATOM     10  C   UNL     1       4.040  -2.797  -3.382  1.00  0.00     0.043 A 
ATOM     11  C   UNL     1       5.375  -3.160  -3.542  1.00  0.00     0.038 A 
BRANCH   7  12
ATOM     12  N   UNL     1       3.145  -1.822  -6.870  1.00  0.00    -0.325 N 
ATOM     13  C   UNL     1       2.519  -0.596  -6.932  1.00  0.00     0.228 C 
ATOM     14  O   UNL     1       1.608  -0.440  -7.749  1.00  0.00    -0.274 OA
ATOM     15  H   UNL     1       3.154  -2.344  -7.704  1.00  0.00     0.169 HD
BRANCH  13  16
ATOM     16  C   UNL     1       3.092   0.606  -6.166  1.00  0.00     0.135 C 
BRANCH  16  17
ATOM     17  C   UNL     1       2.630   0.864  -4.749  1.00  0.00    -0.038 A 
ATOM     18  C   UNL     1       1.675   0.956  -2.093  1.00  0.00     0.118 A 
ATOM     19  C   UNL     1       0.859   1.334  -3.162  1.00  0.00     0.047 A 
ATOM     20  C   UNL     1       3.020   0.687  -2.335  1.00  0.00     0.047 A 
ATOM     21  C   UNL     1       1.324   1.282  -4.480  1.00  0.00     0.008 A 
ATOM     22  C   UNL     1       3.497   0.664  -3.659  1.00  0.00     0.008 A 
BRANCH  18  23
ATOM     23  O   UNL     1       0.980   0.681  -0.950  1.00  0.00    -0.497 OA
ATOM     24  C   UNL     1       1.616   0.813   0.305  1.00  0.00     0.278 C 
ENDBRANCH  18  23
ENDBRANCH  16  17
ENDBRANCH  13  16
ENDBRANCH   7  12
BRANCH  11  25
ATOM     25  N   UNL     1       6.228  -3.281  -2.468  1.00  0.00    -0.360 N 
ATOM     26  C   UNL     1       5.813  -3.765  -1.143  1.00  0.00     0.178 C 
ATOM     27  C   UNL     1       7.589  -2.723  -2.540  1.00  0.00     0.178 C 
ATOM     28  C   UNL     1       6.121  -2.725  -0.039  1.00  0.00     0.283 C 
ATOM     29  C   UNL     1       7.840  -1.722  -1.382  1.00  0.00     0.283 C 
ATOM     30  N   UNL     1       7.539  -2.299  -0.054  1.00  0.00    -0.334 N 
ATOM     31  C   UNL     1       7.813  -1.340   1.012  1.00  0.00     0.332 C 
ATOM     32  H   UNL     1       8.141  -3.105   0.114  1.00  0.00     0.347 HD
ENDBRANCH  11  25
ENDBRANCH   4   6
ENDBRANCH   3   4
ENDBRANCH   2   3
ENDBRANCH   1   2
BRANCH   1  33
ATOM     33  O   UNL     1      -1.858  -2.385  -3.413  1.00  0.00    -0.374 OA
BRANCH  33  34
ATOM     34  C   UNL     1      -1.085  -3.348  -2.714  1.00  0.00     0.202 C 
BRANCH  34  35
ATOM     35  C   UNL     1      -1.089  -4.716  -3.402  1.00  0.00     0.261 C 
BRANCH  35  36
ATOM     36  O   UNL     1      -1.435  -4.629  -4.787  1.00  0.00    -0.460 OA
BRANCH  36  37
ATOM     37  C   UNL     1      -2.757  -4.398  -4.999  1.00  0.00     0.338 C 
ATOM     38  O   UNL     1      -3.663  -4.454  -4.185  1.00  0.00    -0.246 OA
BRANCH  37  39
ATOM     39  C   UNL     1      -2.936  -3.939  -6.385  1.00  0.00     0.060 A 
ATOM     40  C   UNL     1      -3.653  -2.758  -6.619  1.00  0.00     0.016 A 
ATOM     41  C   UNL     1      -2.434  -4.702  -7.442  1.00  0.00     0.016 A 
ATOM     42  C   UNL     1      -3.956  -2.387  -7.925  1.00  0.00     0.010 A 
ATOM     43  C   UNL     1      -2.751  -4.339  -8.746  1.00  0.00     0.010 A 
ATOM     44  C   UNL     1      -3.567  -3.219  -8.982  1.00  0.00    -0.014 A 
BRANCH  44  45
ATOM     45  C   UNL     1      -4.236  -3.085 -10.292  1.00  0.00     0.031 A 
ATOM     46  C   UNL     1      -5.427  -3.964 -10.557  1.00  0.00     0.074 A 
ATOM     47  C   UNL     1      -3.784  -2.225 -11.218  1.00  0.00     0.049 A 
ATOM     48  N   UNL     1      -6.144  -4.088 -11.640  1.00  0.00    -0.248 NA
ATOM     49  C   UNL     1      -5.865  -4.829  -9.445  1.00  0.00     0.031 C 
ATOM     50  C   UNL     1      -2.644  -1.326 -11.050  1.00  0.00     0.029 A 
ATOM     51  N   UNL     1      -4.217  -1.994 -12.497  1.00  0.00    -0.354 N 
ATOM     52  C   UNL     1      -7.089  -5.066 -11.356  1.00  0.00     0.074 A 
ATOM     53  C   UNL     1      -6.856  -5.508 -10.000  1.00  0.00     0.031 C 
ATOM     54  C   UNL     1      -2.442  -0.666 -12.203  1.00  0.00     0.029 A 
ATOM     55  C   UNL     1      -3.417  -1.121 -13.193  1.00  0.00     0.049 A 
ATOM     56  H   UNL     1      -5.022  -2.413 -12.880  1.00  0.00     0.167 HD
ATOM     57  C   UNL     1      -8.067  -5.551 -12.155  1.00  0.00     0.034 A 
ATOM     58  C   UNL     1      -3.454  -0.762 -14.491  1.00  0.00     0.034 A 
ATOM     59  C   UNL     1      -8.288  -5.095 -13.499  1.00  0.00     0.049 A 
ATOM     60  C   UNL     1      -4.542  -1.327 -15.367  1.00  0.00     0.074 A 
ATOM     61  C   UNL     1      -9.277  -5.476 -14.386  1.00  0.00     0.029 A 
ATOM     62  N   UNL     1      -7.490  -4.170 -14.157  1.00  0.00    -0.354 N 
ATOM     63  N   UNL     1      -5.500  -2.169 -15.058  1.00  0.00    -0.248 NA
ATOM     64  C   UNL     1      -4.575  -0.869 -16.763  1.00  0.00     0.031 C 
ATOM     65  C   UNL     1      -9.050  -4.813 -15.597  1.00  0.00     0.029 A 
ATOM     66  C   UNL     1      -7.950  -3.982 -15.447  1.00  0.00     0.049 A 
ATOM     67  H   UNL     1      -6.711  -3.715 -13.763  1.00  0.00     0.167 HD
ATOM     68  C   UNL     1      -6.269  -2.316 -16.206  1.00  0.00     0.074 A 
ATOM     69  C   UNL     1      -5.674  -1.460 -17.214  1.00  0.00     0.031 C 
ATOM     70  C   UNL     1      -7.362  -3.092 -16.416  1.00  0.00     0.034 A 
BRANCH  57  71
ATOM     71  C   UNL     1      -8.956  -6.632 -11.598  1.00  0.00     0.023 A 
ATOM     72  C   UNL     1      -9.892  -6.329 -10.588  1.00  0.00     0.012 A 
ATOM     73  C   UNL     1      -8.882  -7.946 -12.099  1.00  0.00     0.148 A 
ATOM     74  C   UNL     1     -10.714  -7.325 -10.060  1.00  0.00     0.002 A 
ATOM     75  C   UNL     1      -9.737  -8.922 -11.603  1.00  0.00     0.091 A 
ATOM     76  F   UNL     1      -7.967  -8.221 -13.040  1.00  0.00    -0.205 F 
ATOM     77  C   UNL     1     -10.644  -8.617 -10.575  1.00  0.00     0.022 A 
BRANCH  75  78
ATOM     78  S   UNL     1      -9.779 -10.595 -12.255  1.00  0.00     0.127 S 
ATOM     79  O   UNL     1      -9.233 -11.362 -11.136  1.00  0.00    -0.237 OA
ATOM     80  O   UNL     1     -11.209 -10.796 -12.492  1.00  0.00    -0.237 OA
ATOM     81  O   UNL     1      -8.959 -10.580 -13.458  1.00  0.00    -0.744 OA
ENDBRANCH  75  78
ENDBRANCH  57  71
BRANCH  58  82
ATOM     82  C   UNL     1      -2.437   0.185 -15.027  1.00  0.00     0.023 A 
ATOM     83  C   UNL     1      -2.822   1.483 -15.411  1.00  0.00     0.012 A 
ATOM     84  C   UNL     1      -1.081  -0.187 -15.125  1.00  0.00     0.148 A 
ATOM     85  C   UNL     1      -1.881   2.386 -15.908  1.00  0.00     0.002 A 
ATOM     86  C   UNL     1      -0.140   0.735 -15.569  1.00  0.00     0.091 A 
ATOM     87  F   UNL     1      -0.737  -1.432 -14.769  1.00  0.00    -0.205 F 
ATOM     88  C   UNL     1      -0.540   2.016 -15.976  1.00  0.00     0.022 A 
BRANCH  86  89
ATOM     89  S   UNL     1       1.623   0.389 -15.574  1.00  0.00     0.127 S 
ATOM     90  O   UNL     1       1.918   0.360 -17.004  1.00  0.00    -0.237 OA
ATOM     91  O   UNL     1       2.160   1.547 -14.858  1.00  0.00    -0.237 OA
ATOM     92  O   UNL     1       1.782  -0.878 -14.873  1.00  0.00    -0.744 OA
ENDBRANCH  86  89
ENDBRANCH  58  82
BRANCH  70  93
ATOM     93  C   UNL     1      -8.015  -3.025 -17.772  1.00  0.00     0.023 A 
ATOM     94  C   UNL     1      -7.385  -3.608 -18.889  1.00  0.00     0.012 A 
ATOM     95  C   UNL     1      -9.296  -2.456 -17.917  1.00  0.00     0.148 A 
ATOM     96  C   UNL     1      -8.005  -3.593 -20.138  1.00  0.00     0.002 A 
ATOM     97  C   UNL     1      -9.931  -2.494 -19.152  1.00  0.00     0.091 A 
ATOM     98  F   UNL     1      -9.872  -1.894 -16.844  1.00  0.00    -0.205 F 
ATOM     99  C   UNL     1      -9.281  -3.049 -20.267  1.00  0.00     0.022 A 
BRANCH  97 100
ATOM    100  S   UNL     1     -11.613  -1.912 -19.388  1.00  0.00     0.127 S 
ATOM    101  O   UNL     1     -11.401  -0.700 -20.177  1.00  0.00    -0.237 OA
ATOM    102  O   UNL     1     -12.223  -3.020 -20.123  1.00  0.00    -0.237 OA
ATOM    103  O   UNL     1     -12.157  -1.699 -18.053  1.00  0.00    -0.744 OA
ENDBRANCH  97 100
ENDBRANCH  70  93
ENDBRANCH  44  45
ENDBRANCH  37  39
ENDBRANCH  36  37
ENDBRANCH  35  36
ENDBRANCH  34  35
ENDBRANCH  33  34
ENDBRANCH   1  33
TORSDOF 22
