REMARK SMILES Cc1cscc1-c1ncc(C(=O)OCCOCCOC(=O)c2ccc(-c3c4nc(c(-c5cccc(S(=O)(=O)[O-])c5F)c5ccc([nH]5)c(-c5cccc(S(=O)(=O)[O-])c5F)c5nc(c(-c6cccc(S(=O)(=O)[O-])c6F)c6ccc3[nH]6)C=C5)C=C4)cc2)c(=O)[nH]1
REMARK SMILES IDX 17 1 16 2 15 3 14 4 13 5 11 6 12 7 10 8 7 9 8 10 87 11 9 12
REMARK SMILES IDX 85 13 86 15 6 16 1 17 2 18 3 19 4 20 5 21 18 22 19 23 20 24
REMARK SMILES IDX 21 25 22 26 23 27 84 28 24 29 83 30 25 31 26 32 27 33 77 34
REMARK SMILES IDX 28 35 82 36 76 37 78 38 29 39 81 40 75 41 74 42 30 44 62 45
REMARK SMILES IDX 42 46 61 47 43 48 46 49 60 50 79 51 44 52 45 53 59 55 80 56
REMARK SMILES IDX 47 57 31 58 32 59 40 60 33 61 35 62 41 63 34 64 36 65 37 66
REMARK SMILES IDX 38 67 39 68 63 69 64 70 72 71 65 72 67 73 73 74 66 75 68 76
REMARK SMILES IDX 69 77 70 78 71 79 48 80 49 81 57 82 50 83 52 84 58 85 51 86
REMARK SMILES IDX 53 87 54 88 55 89 56 90
REMARK H PARENT 87 14 78 43 46 54
REMARK Flexibility Score: inf
ROOT
ATOM      1  C   UNL     1       5.655   5.963   0.082  1.00  0.00     0.202 C 
ENDROOT
BRANCH   1   2
ATOM      2  O   UNL     1       5.765   7.301  -0.405  1.00  0.00    -0.374 OA
BRANCH   2   3
ATOM      3  C   UNL     1       4.979   8.295   0.260  1.00  0.00     0.202 C 
BRANCH   3   4
ATOM      4  C   UNL     1       3.518   8.386  -0.188  1.00  0.00     0.261 C 
BRANCH   4   5
ATOM      5  O   UNL     1       2.810   7.180   0.141  1.00  0.00    -0.459 OA
BRANCH   5   6
ATOM      6  C   UNL     1       2.408   6.426  -0.907  1.00  0.00     0.345 C 
ATOM      7  O   UNL     1       2.499   6.734  -2.089  1.00  0.00    -0.246 OA
BRANCH   6   8
ATOM      8  C   UNL     1       1.969   5.092  -0.469  1.00  0.00     0.143 A 
ATOM      9  C   UNL     1       1.130   2.532  -0.040  1.00  0.00     0.141 A 
ATOM     10  N   UNL     1       1.867   2.756  -1.078  1.00  0.00    -0.237 NA
ATOM     11  N   UNL     1       0.827   3.483   0.894  1.00  0.00    -0.306 N 
ATOM     12  C   UNL     1       2.256   4.058  -1.275  1.00  0.00     0.135 A 
ATOM     13  C   UNL     1       1.248   4.782   0.777  1.00  0.00     0.265 A 
ATOM     14  H   UNL     1       0.287   3.227   1.676  1.00  0.00     0.171 HD
ATOM     15  O   UNL     1       1.004   5.604   1.649  1.00  0.00    -0.269 OA
BRANCH   9  16
ATOM     16  C   UNL     1       0.531   1.220   0.127  1.00  0.00     0.031 A 
ATOM     17  C   UNL     1       2.673  -0.256  -0.067  1.00  0.00     0.046 C 
ATOM     18  C   UNL     1       1.197  -0.062   0.071  1.00  0.00    -0.029 A 
ATOM     19  C   UNL     1       0.289  -1.101   0.165  1.00  0.00     0.069 A 
ATOM     20  S   UNL     1      -1.321  -0.567   0.341  1.00  0.00    -0.151 S 
ATOM     21  C   UNL     1      -0.836   1.066   0.289  1.00  0.00     0.077 A 
ENDBRANCH   9  16
ENDBRANCH   6   8
ENDBRANCH   5   6
ENDBRANCH   4   5
ENDBRANCH   3   4
ENDBRANCH   2   3
ENDBRANCH   1   2
BRANCH   1  22
ATOM     22  C   UNL     1       6.479   5.622   1.328  1.00  0.00     0.261 C 
BRANCH  22  23
ATOM     23  O   UNL     1       6.030   6.350   2.483  1.00  0.00    -0.460 OA
BRANCH  23  24
ATOM     24  C   UNL     1       6.871   7.328   2.891  1.00  0.00     0.338 C 
ATOM     25  O   UNL     1       7.986   7.569   2.443  1.00  0.00    -0.246 OA
BRANCH  24  26
ATOM     26  C   UNL     1       6.208   8.214   3.866  1.00  0.00     0.060 A 
ATOM     27  C   UNL     1       6.349   9.594   3.668  1.00  0.00     0.016 A 
ATOM     28  C   UNL     1       5.533   7.726   4.988  1.00  0.00     0.016 A 
ATOM     29  C   UNL     1       5.888  10.487   4.630  1.00  0.00     0.010 A 
ATOM     30  C   UNL     1       5.070   8.627   5.955  1.00  0.00     0.010 A 
ATOM     31  C   UNL     1       5.291  10.007   5.803  1.00  0.00    -0.014 A 
BRANCH  31  32
ATOM     32  C   UNL     1       5.051  10.954   6.920  1.00  0.00     0.031 A 
ATOM     33  C   UNL     1       6.031  11.005   8.062  1.00  0.00     0.074 A 
ATOM     34  C   UNL     1       4.004  11.798   6.891  1.00  0.00     0.049 A 
ATOM     35  N   UNL     1       6.062  11.812   9.090  1.00  0.00    -0.248 NA
ATOM     36  C   UNL     1       7.123  10.017   8.041  1.00  0.00     0.031 C 
ATOM     37  C   UNL     1       2.983  11.841   5.846  1.00  0.00     0.029 A 
ATOM     38  N   UNL     1       3.625  12.779   7.774  1.00  0.00    -0.354 N 
ATOM     39  C   UNL     1       7.160  11.422   9.847  1.00  0.00     0.074 A 
ATOM     40  C   UNL     1       7.758  10.290   9.172  1.00  0.00     0.031 C 
ATOM     41  C   UNL     1       2.086  12.793   6.153  1.00  0.00     0.029 A 
ATOM     42  C   UNL     1       2.463  13.421   7.418  1.00  0.00     0.049 A 
ATOM     43  H   UNL     1       4.138  13.002   8.584  1.00  0.00     0.167 HD
ATOM     44  C   UNL     1       7.646  11.970  10.986  1.00  0.00     0.034 A 
ATOM     45  C   UNL     1       1.784  14.403   8.043  1.00  0.00     0.034 A 
ATOM     46  C   UNL     1       7.066  13.109  11.645  1.00  0.00     0.049 A 
ATOM     47  C   UNL     1       2.343  14.995   9.310  1.00  0.00     0.074 A 
ATOM     48  C   UNL     1       7.507  13.764  12.780  1.00  0.00     0.029 A 
ATOM     49  N   UNL     1       5.913  13.758  11.231  1.00  0.00    -0.354 N 
ATOM     50  N   UNL     1       3.455  14.700   9.939  1.00  0.00    -0.248 NA
ATOM     51  C   UNL     1       1.577  16.087   9.929  1.00  0.00     0.031 C 
ATOM     52  C   UNL     1       6.610  14.800  13.064  1.00  0.00     0.029 A 
ATOM     53  C   UNL     1       5.624  14.804  12.091  1.00  0.00     0.049 A 
ATOM     54  H   UNL     1       5.379  13.512  10.441  1.00  0.00     0.167 HD
ATOM     55  C   UNL     1       3.543  15.594  11.002  1.00  0.00     0.074 A 
ATOM     56  C   UNL     1       2.379  16.452  10.921  1.00  0.00     0.031 C 
ATOM     57  C   UNL     1       4.494  15.689  11.964  1.00  0.00     0.034 A 
BRANCH  44  58
ATOM     58  C   UNL     1       8.893  11.364  11.575  1.00  0.00     0.023 A 
ATOM     59  C   UNL     1      10.134  11.580  10.942  1.00  0.00     0.012 A 
ATOM     60  C   UNL     1       8.848  10.627  12.774  1.00  0.00     0.148 A 
ATOM     61  C   UNL     1      11.307  11.046  11.476  1.00  0.00     0.002 A 
ATOM     62  C   UNL     1      10.026  10.133  13.322  1.00  0.00     0.091 A 
ATOM     63  F   UNL     1       7.656  10.411  13.348  1.00  0.00    -0.205 F 
ATOM     64  C   UNL     1      11.254  10.333  12.670  1.00  0.00     0.022 A 
BRANCH  62  65
ATOM     65  S   UNL     1      10.069   9.266  14.895  1.00  0.00     0.127 S 
ATOM     66  O   UNL     1      10.290   7.886  14.465  1.00  0.00    -0.237 OA
ATOM     67  O   UNL     1      11.214   9.887  15.561  1.00  0.00    -0.237 OA
ATOM     68  O   UNL     1       8.785   9.527  15.530  1.00  0.00    -0.744 OA
ENDBRANCH  62  65
ENDBRANCH  44  58
BRANCH  45  69
ATOM     69  C   UNL     1       0.529  14.935   7.440  1.00  0.00     0.023 A 
ATOM     70  C   UNL     1       0.515  16.235   6.897  1.00  0.00     0.012 A 
ATOM     71  C   UNL     1      -0.641  14.152   7.379  1.00  0.00     0.148 A 
ATOM     72  C   UNL     1      -0.649  16.756   6.330  1.00  0.00     0.002 A 
ATOM     73  C   UNL     1      -1.781  14.658   6.766  1.00  0.00     0.091 A 
ATOM     74  F   UNL     1      -0.612  12.925   7.918  1.00  0.00    -0.205 F 
ATOM     75  C   UNL     1      -1.792  15.965   6.255  1.00  0.00     0.022 A 
BRANCH  73  76
ATOM     76  S   UNL     1      -3.256  13.665   6.512  1.00  0.00     0.127 S 
ATOM     77  O   UNL     1      -4.188  14.264   7.464  1.00  0.00    -0.237 OA
ATOM     78  O   UNL     1      -3.559  13.928   5.104  1.00  0.00    -0.237 OA
ATOM     79  O   UNL     1      -2.858  12.292   6.793  1.00  0.00    -0.744 OA
ENDBRANCH  73  76
ENDBRANCH  45  69
BRANCH  57  80
ATOM     80  C   UNL     1       4.349  16.783  12.989  1.00  0.00     0.023 A 
ATOM     81  C   UNL     1       3.364  16.680  13.991  1.00  0.00     0.012 A 
ATOM     82  C   UNL     1       5.238  17.876  13.005  1.00  0.00     0.148 A 
ATOM     83  C   UNL     1       3.244  17.664  14.973  1.00  0.00     0.002 A 
ATOM     84  C   UNL     1       5.143  18.828  14.014  1.00  0.00     0.091 A 
ATOM     85  F   UNL     1       6.157  17.969  12.033  1.00  0.00    -0.205 F 
ATOM     86  C   UNL     1       4.140  18.730  14.991  1.00  0.00     0.022 A 
BRANCH  84  87
ATOM     87  S   UNL     1       6.316  20.181  14.167  1.00  0.00     0.127 S 
ATOM     88  O   UNL     1       5.540  21.309  13.658  1.00  0.00    -0.237 OA
ATOM     89  O   UNL     1       6.568  20.216  15.609  1.00  0.00    -0.237 OA
ATOM     90  O   UNL     1       7.471  19.798  13.365  1.00  0.00    -0.744 OA
ENDBRANCH  84  87
ENDBRANCH  57  80
ENDBRANCH  31  32
ENDBRANCH  24  26
ENDBRANCH  23  24
ENDBRANCH  22  23
ENDBRANCH   1  22
TORSDOF 18
