REMARK SMILES COc1ccccc1[C@@H]1CN(C(=O)Cc2csc(C)n2)C[C@H]1C(=O)OCCOCCOC(=O)c1ccc(-c2c3nc(c(-c4cccc(S(=O)(=O)[O-])c4F)c4ccc([nH]4)c(-c4cccc(S(=O)(=O)[O-])c4F)c4nc(c(-c5cccc(S(=O)(=O)[O-])c5F)c5ccc2[nH]5)C=C4)C=C3)cc1
REMARK SMILES IDX 28 1 27 2 26 3 25 4 23 5 24 6 22 7 9 8 10 9 11 10 21 11 8 12
REMARK SMILES IDX 3 13 4 14 5 15 7 16 6 17 2 18 1 19 12 20 13 21 14 22 15 23
REMARK SMILES IDX 16 24 20 25 17 26 18 27 19 28 29 29 30 30 31 31 32 32 33 33
REMARK SMILES IDX 34 34 35 35 96 36 36 37 95 38 37 39 38 40 39 41 89 42 40 43
REMARK SMILES IDX 94 44 88 45 90 46 41 47 93 48 87 49 86 50 42 52 74 53 54 54
REMARK SMILES IDX 73 55 55 56 58 57 72 58 91 59 56 60 57 61 71 63 92 64 59 65
REMARK SMILES IDX 43 66 44 67 52 68 45 69 47 70 53 71 46 72 48 73 49 74 50 75
REMARK SMILES IDX 51 76 75 77 76 78 84 79 77 80 79 81 85 82 78 83 80 84 81 85
REMARK SMILES IDX 82 86 83 87 60 88 61 89 69 90 62 91 64 92 70 93 63 94 65 95
REMARK SMILES IDX 66 96 67 97 68 98
REMARK H PARENT 90 51 58 62
REMARK Flexibility Score: inf
ROOT
ATOM      1  O   UNL     1       2.303   4.771   1.934  1.00  0.00    -0.374 OA
ENDROOT
BRANCH   1   2
ATOM      2  C   UNL     1       3.678   4.769   2.311  1.00  0.00     0.202 C 
BRANCH   2   3
ATOM      3  C   UNL     1       4.337   3.400   2.514  1.00  0.00     0.261 C 
BRANCH   3   4
ATOM      4  O   UNL     1       4.107   2.472   1.439  1.00  0.00    -0.463 OA
BRANCH   4   5
ATOM      5  C   UNL     1       3.219   1.484   1.717  1.00  0.00     0.311 C 
ATOM      6  O   UNL     1       2.625   1.357   2.784  1.00  0.00    -0.252 OA
BRANCH   5   7
ATOM      7  C   UNL     1       3.025   0.491   0.598  1.00  0.00     0.128 C 
ATOM      8  C   UNL     1       3.460   0.857  -0.837  1.00  0.00     0.058 C 
ATOM      9  C   UNL     1       3.907  -0.481  -1.432  1.00  0.00     0.129 C 
ATOM     10  N   UNL     1       4.242  -1.336  -0.318  1.00  0.00    -0.341 N 
ATOM     11  C   UNL     1       3.811  -0.767   0.943  1.00  0.00     0.135 C 
BRANCH   8  12
ATOM     12  C   UNL     1       2.416   1.481  -1.758  1.00  0.00    -0.000 A 
ATOM     13  C   UNL     1       1.107   0.981  -1.905  1.00  0.00     0.122 A 
ATOM     14  C   UNL     1       0.199   1.579  -2.786  1.00  0.00     0.047 A 
ATOM     15  C   UNL     1       0.595   2.667  -3.562  1.00  0.00     0.004 A 
ATOM     16  C   UNL     1       2.802   2.553  -2.582  1.00  0.00     0.008 A 
ATOM     17  C   UNL     1       1.901   3.139  -3.476  1.00  0.00     0.001 A 
BRANCH  13  18
ATOM     18  O   UNL     1       0.793  -0.214  -1.313  1.00  0.00    -0.496 OA
ATOM     19  C   UNL     1      -0.333  -0.149  -0.442  1.00  0.00     0.278 C 
ENDBRANCH  13  18
ENDBRANCH   8  12
BRANCH  10  20
ATOM     20  C   UNL     1       4.769  -2.612  -0.382  1.00  0.00     0.228 C 
ATOM     21  O   UNL     1       4.848  -3.313   0.629  1.00  0.00    -0.274 OA
BRANCH  20  22
ATOM     22  C   UNL     1       5.293  -3.100  -1.724  1.00  0.00     0.157 C 
BRANCH  22  23
ATOM     23  C   UNL     1       4.237  -3.723  -2.582  1.00  0.00     0.061 A 
ATOM     24  C   UNL     1       3.506  -3.109  -3.584  1.00  0.00     0.091 A 
ATOM     25  N   UNL     1       3.990  -5.083  -2.459  1.00  0.00    -0.246 NA
ATOM     26  S   UNL     1       2.437  -4.224  -4.321  1.00  0.00    -0.127 S 
ATOM     27  C   UNL     1       3.076  -5.465  -3.323  1.00  0.00     0.090 A 
ATOM     28  C   UNL     1       2.601  -6.865  -3.477  1.00  0.00     0.079 C 
ENDBRANCH  22  23
ENDBRANCH  20  22
ENDBRANCH  10  20
ENDBRANCH   5   7
ENDBRANCH   4   5
ENDBRANCH   3   4
ENDBRANCH   2   3
ENDBRANCH   1   2
BRANCH   1  29
ATOM     29  C   UNL     1       1.996   4.463   0.570  1.00  0.00     0.202 C 
BRANCH  29  30
ATOM     30  C   UNL     1       2.658   5.359  -0.480  1.00  0.00     0.261 C 
BRANCH  30  31
ATOM     31  O   UNL     1       4.056   5.029  -0.620  1.00  0.00    -0.460 OA
BRANCH  31  32
ATOM     32  C   UNL     1       4.835   6.087  -0.939  1.00  0.00     0.338 C 
ATOM     33  O   UNL     1       4.455   7.197  -1.290  1.00  0.00    -0.246 OA
BRANCH  32  34
ATOM     34  C   UNL     1       6.242   5.791  -0.631  1.00  0.00     0.060 A 
ATOM     35  C   UNL     1       6.803   6.393   0.502  1.00  0.00     0.016 A 
ATOM     36  C   UNL     1       7.037   5.063  -1.518  1.00  0.00     0.016 A 
ATOM     37  C   UNL     1       8.178   6.317   0.721  1.00  0.00     0.010 A 
ATOM     38  C   UNL     1       8.418   4.990  -1.295  1.00  0.00     0.010 A 
ATOM     39  C   UNL     1       9.001   5.655  -0.200  1.00  0.00    -0.014 A 
BRANCH  39  40
ATOM     40  C   UNL     1      10.476   5.792  -0.089  1.00  0.00     0.031 A 
ATOM     41  C   UNL     1      11.193   6.786  -0.965  1.00  0.00     0.074 A 
ATOM     42  C   UNL     1      11.171   5.060   0.800  1.00  0.00     0.049 A 
ATOM     43  N   UNL     1      12.467   7.076  -1.017  1.00  0.00    -0.248 NA
ATOM     44  C   UNL     1      10.363   7.558  -1.905  1.00  0.00     0.031 C 
ATOM     45  C   UNL     1      10.598   4.062   1.702  1.00  0.00     0.029 A 
ATOM     46  N   UNL     1      12.516   5.031   1.075  1.00  0.00    -0.354 N 
ATOM     47  C   UNL     1      12.597   8.050  -2.001  1.00  0.00     0.074 A 
ATOM     48  C   UNL     1      11.273   8.288  -2.535  1.00  0.00     0.031 C 
ATOM     49  C   UNL     1      11.590   3.497   2.411  1.00  0.00     0.029 A 
ATOM     50  C   UNL     1      12.867   4.082   2.004  1.00  0.00     0.049 A 
ATOM     51  H   UNL     1      13.166   5.633   0.646  1.00  0.00     0.167 HD
ATOM     52  C   UNL     1      13.710   8.705  -2.408  1.00  0.00     0.034 A 
ATOM     53  C   UNL     1      14.081   3.715   2.463  1.00  0.00     0.034 A 
ATOM     54  C   UNL     1      15.024   8.485  -1.867  1.00  0.00     0.049 A 
ATOM     55  C   UNL     1      15.307   4.445   1.981  1.00  0.00     0.074 A 
ATOM     56  C   UNL     1      16.207   9.125  -2.194  1.00  0.00     0.029 A 
ATOM     57  N   UNL     1      15.333   7.549  -0.893  1.00  0.00    -0.354 N 
ATOM     58  N   UNL     1      15.394   5.447   1.140  1.00  0.00    -0.248 NA
ATOM     59  C   UNL     1      16.600   4.019   2.540  1.00  0.00     0.031 C 
ATOM     60  C   UNL     1      17.235   8.564  -1.427  1.00  0.00     0.029 A 
ATOM     61  C   UNL     1      16.687   7.588  -0.610  1.00  0.00     0.049 A 
ATOM     62  H   UNL     1      14.684   6.945  -0.465  1.00  0.00     0.167 HD
ATOM     63  C   UNL     1      16.741   5.790   1.092  1.00  0.00     0.074 A 
ATOM     64  C   UNL     1      17.431   4.905   2.007  1.00  0.00     0.031 C 
ATOM     65  C   UNL     1      17.355   6.741   0.344  1.00  0.00     0.034 A 
BRANCH  52  66
ATOM     66  C   UNL     1      13.547   9.763  -3.467  1.00  0.00     0.023 A 
ATOM     67  C   UNL     1      12.973  11.003  -3.122  1.00  0.00     0.012 A 
ATOM     68  C   UNL     1      14.012   9.557  -4.781  1.00  0.00     0.148 A 
ATOM     69  C   UNL     1      12.840  12.014  -4.073  1.00  0.00     0.002 A 
ATOM     70  C   UNL     1      13.909  10.583  -5.714  1.00  0.00     0.091 A 
ATOM     71  F   UNL     1      14.533   8.363  -5.096  1.00  0.00    -0.205 F 
ATOM     72  C   UNL     1      13.316  11.807  -5.364  1.00  0.00     0.022 A 
BRANCH  70  73
ATOM     73  S   UNL     1      14.554  10.438  -7.385  1.00  0.00     0.127 S 
ATOM     74  O   UNL     1      13.325  10.310  -8.165  1.00  0.00    -0.237 OA
ATOM     75  O   UNL     1      15.257  11.710  -7.557  1.00  0.00    -0.237 OA
ATOM     76  O   UNL     1      15.418   9.265  -7.379  1.00  0.00    -0.744 OA
ENDBRANCH  70  73
ENDBRANCH  52  66
BRANCH  53  77
ATOM     77  C   UNL     1      14.192   2.615   3.462  1.00  0.00     0.023 A 
ATOM     78  C   UNL     1      14.572   2.907   4.786  1.00  0.00     0.012 A 
ATOM     79  C   UNL     1      13.900   1.284   3.109  1.00  0.00     0.148 A 
ATOM     80  C   UNL     1      14.685   1.889   5.733  1.00  0.00     0.002 A 
ATOM     81  C   UNL     1      13.961   0.282   4.071  1.00  0.00     0.091 A 
ATOM     82  F   UNL     1      13.564   1.022   1.837  1.00  0.00    -0.205 F 
ATOM     83  C   UNL     1      14.368   0.580   5.380  1.00  0.00     0.022 A 
BRANCH  81  84
ATOM     84  S   UNL     1      13.441  -1.402   3.728  1.00  0.00     0.127 S 
ATOM     85  O   UNL     1      14.722  -2.097   3.636  1.00  0.00    -0.237 OA
ATOM     86  O   UNL     1      12.648  -1.723   4.915  1.00  0.00    -0.237 OA
ATOM     87  O   UNL     1      12.668  -1.324   2.496  1.00  0.00    -0.744 OA
ENDBRANCH  81  84
ENDBRANCH  53  77
BRANCH  65  88
ATOM     88  C   UNL     1      18.845   6.900   0.495  1.00  0.00     0.023 A 
ATOM     89  C   UNL     1      19.709   5.938  -0.064  1.00  0.00     0.012 A 
ATOM     90  C   UNL     1      19.391   8.039   1.120  1.00  0.00     0.148 A 
ATOM     91  C   UNL     1      21.093   6.092   0.020  1.00  0.00     0.002 A 
ATOM     92  C   UNL     1      20.771   8.208   1.161  1.00  0.00     0.091 A 
ATOM     93  F   UNL     1      18.554   8.934   1.663  1.00  0.00    -0.205 F 
ATOM     94  C   UNL     1      21.623   7.231   0.621  1.00  0.00     0.022 A 
BRANCH  92  95
ATOM     95  S   UNL     1      21.537   9.687   1.835  1.00  0.00     0.127 S 
ATOM     96  O   UNL     1      22.046   9.203   3.117  1.00  0.00    -0.237 OA
ATOM     97  O   UNL     1      22.570   9.985   0.842  1.00  0.00    -0.237 OA
ATOM     98  O   UNL     1      20.477  10.683   1.917  1.00  0.00    -0.744 OA
ENDBRANCH  92  95
ENDBRANCH  65  88
ENDBRANCH  39  40
ENDBRANCH  32  34
ENDBRANCH  31  32
ENDBRANCH  30  31
ENDBRANCH  29  30
ENDBRANCH   1  29
TORSDOF 22
