REMARK SMILES COc1c(Cl)cc(C(=O)OCCOCCOC(=O)c2ccc(-c3c4nc(c(-c5cccc(S(=O)(=O)[O-])c5F)c5ccc([nH]5)c(-c5cccc(S(=O)(=O)[O-])c5F)c5nc(c(-c6cccc(S(=O)(=O)[O-])c6F)c6ccc3[nH]6)C=C5)C=C4)cc2)cc1NC(=O)C(C)(C)Oc1ccc(Br)cc1
REMARK SMILES IDX 12 1 11 2 10 3 8 4 9 5 7 6 3 7 4 8 83 9 5 10 6 11 82 12 2 13
REMARK SMILES IDX 1 14 84 15 85 16 86 18 87 19 88 20 89 21 90 22 91 23 92 24
REMARK SMILES IDX 97 25 93 26 96 27 94 28 95 29 13 30 14 31 15 32 16 33 17 34
REMARK SMILES IDX 18 35 19 36 20 37 81 38 21 39 80 40 22 41 23 42 24 43 74 44
REMARK SMILES IDX 25 45 79 46 73 47 75 48 26 49 78 50 72 51 71 52 27 54 59 55
REMARK SMILES IDX 39 56 58 57 40 58 43 59 57 60 76 61 41 62 42 63 56 65 77 66
REMARK SMILES IDX 44 67 28 68 29 69 37 70 30 71 32 72 38 73 31 74 33 75 34 76
REMARK SMILES IDX 35 77 36 78 60 79 61 80 69 81 62 82 64 83 70 84 63 85 65 86
REMARK SMILES IDX 66 87 67 88 68 89 45 90 46 91 54 92 47 93 49 94 55 95 48 96
REMARK SMILES IDX 50 97 51 98 52 99 53 100
REMARK H PARENT 84 17 75 53 43 64
REMARK Flexibility Score: inf
ROOT
ATOM      1  C   UNL     1       2.158   0.094   8.930  1.00  0.00     0.202 C 
ENDROOT
BRANCH   1   2
ATOM      2  C   UNL     1       2.119   1.491   8.296  1.00  0.00     0.261 C 
BRANCH   2   3
ATOM      3  O   UNL     1       1.701   1.443   6.923  1.00  0.00    -0.460 OA
BRANCH   3   4
ATOM      4  C   UNL     1       2.666   1.600   5.983  1.00  0.00     0.338 C 
ATOM      5  O   UNL     1       3.832   1.913   6.181  1.00  0.00    -0.246 OA
BRANCH   4   6
ATOM      6  C   UNL     1       2.134   1.266   4.627  1.00  0.00     0.063 A 
ATOM      7  C   UNL     1       1.088   0.918   2.046  1.00  0.00     0.160 A 
ATOM      8  C   UNL     1       2.481   1.034   2.258  1.00  0.00     0.086 A 
ATOM      9  C   UNL     1       0.197   0.942   3.139  1.00  0.00     0.086 A 
ATOM     10  Cl  UNL     1       3.627   1.074   0.965  1.00  0.00    -0.080 Cl
ATOM     11  C   UNL     1       2.998   1.213   3.544  1.00  0.00     0.040 A 
ATOM     12  C   UNL     1       0.769   1.043   4.413  1.00  0.00     0.045 A 
BRANCH   7  13
ATOM     13  O   UNL     1       0.529   1.008   0.790  1.00  0.00    -0.493 OA
ATOM     14  C   UNL     1       0.715  -0.163   0.003  1.00  0.00     0.278 C 
ENDBRANCH   7  13
BRANCH   9  15
ATOM     15  N   UNL     1      -1.214   0.960   2.867  1.00  0.00    -0.319 N 
ATOM     16  C   UNL     1      -2.369   1.297   3.584  1.00  0.00     0.268 C 
ATOM     17  H   UNL     1      -1.419   0.663   1.952  1.00  0.00     0.170 HD
ATOM     18  O   UNL     1      -3.443   1.208   2.982  1.00  0.00    -0.270 OA
BRANCH  16  19
ATOM     19  C   UNL     1      -2.292   1.789   5.074  1.00  0.00     0.181 C 
ATOM     20  C   UNL     1      -1.972   0.459   5.822  1.00  0.00     0.067 C 
ATOM     21  C   UNL     1      -1.316   2.990   4.946  1.00  0.00     0.067 C 
BRANCH  19  22
ATOM     22  O   UNL     1      -3.479   2.325   5.750  1.00  0.00    -0.478 OA
BRANCH  22  23
ATOM     23  C   UNL     1      -3.226   2.663   7.079  1.00  0.00     0.120 A 
ATOM     24  C   UNL     1      -3.686   1.838   8.099  1.00  0.00     0.047 A 
ATOM     25  C   UNL     1      -2.428   3.758   7.422  1.00  0.00     0.047 A 
ATOM     26  C   UNL     1      -3.151   1.978   9.390  1.00  0.00     0.019 A 
ATOM     27  C   UNL     1      -1.844   3.859   8.678  1.00  0.00     0.019 A 
ATOM     28  C   UNL     1      -2.171   2.940   9.653  1.00  0.00     0.018 A 
ATOM     29  Br  UNL     1      -1.174   3.064  11.256  1.00  0.00    -0.051 Br
ENDBRANCH  22  23
ENDBRANCH  19  22
ENDBRANCH  16  19
ENDBRANCH   9  15
ENDBRANCH   4   6
ENDBRANCH   3   4
ENDBRANCH   2   3
ENDBRANCH   1   2
BRANCH   1  30
ATOM     30  O   UNL     1       2.995  -0.876   8.298  1.00  0.00    -0.374 OA
BRANCH  30  31
ATOM     31  C   UNL     1       2.507  -1.494   7.110  1.00  0.00     0.202 C 
BRANCH  31  32
ATOM     32  C   UNL     1       1.458  -2.603   7.246  1.00  0.00     0.261 C 
BRANCH  32  33
ATOM     33  O   UNL     1       0.263  -2.186   7.927  1.00  0.00    -0.460 OA
BRANCH  33  34
ATOM     34  C   UNL     1       0.193  -2.617   9.213  1.00  0.00     0.338 C 
ATOM     35  O   UNL     1       1.017  -3.307   9.792  1.00  0.00    -0.246 OA
BRANCH  34  36
ATOM     36  C   UNL     1      -0.969  -2.039   9.918  1.00  0.00     0.060 A 
ATOM     37  C   UNL     1      -0.735  -1.477  11.179  1.00  0.00     0.016 A 
ATOM     38  C   UNL     1      -2.271  -2.165   9.436  1.00  0.00     0.016 A 
ATOM     39  C   UNL     1      -1.804  -1.109  11.998  1.00  0.00     0.010 A 
ATOM     40  C   UNL     1      -3.341  -1.777  10.256  1.00  0.00     0.010 A 
ATOM     41  C   UNL     1      -3.121  -1.284  11.561  1.00  0.00    -0.014 A 
BRANCH  41  42
ATOM     42  C   UNL     1      -4.282  -1.036  12.468  1.00  0.00     0.031 A 
ATOM     43  C   UNL     1      -5.097  -2.188  12.955  1.00  0.00     0.074 A 
ATOM     44  C   UNL     1      -4.645   0.204  12.849  1.00  0.00     0.049 A 
ATOM     45  N   UNL     1      -6.167  -2.157  13.702  1.00  0.00    -0.248 NA
ATOM     46  C   UNL     1      -4.621  -3.538  12.623  1.00  0.00     0.031 C 
ATOM     47  C   UNL     1      -3.846   1.387  12.626  1.00  0.00     0.029 A 
ATOM     48  N   UNL     1      -5.783   0.703  13.430  1.00  0.00    -0.354 N 
ATOM     49  C   UNL     1      -6.474  -3.478  13.967  1.00  0.00     0.074 A 
ATOM     50  C   UNL     1      -5.519  -4.292  13.242  1.00  0.00     0.031 C 
ATOM     51  C   UNL     1      -4.574   2.490  12.838  1.00  0.00     0.029 A 
ATOM     52  C   UNL     1      -5.878   2.077  13.325  1.00  0.00     0.049 A 
ATOM     53  H   UNL     1      -6.459   0.142  13.875  1.00  0.00     0.167 HD
ATOM     54  C   UNL     1      -7.434  -3.956  14.789  1.00  0.00     0.034 A 
ATOM     55  C   UNL     1      -6.890   2.921  13.597  1.00  0.00     0.034 A 
ATOM     56  C   UNL     1      -8.382  -3.128  15.486  1.00  0.00     0.049 A 
ATOM     57  C   UNL     1      -8.049   2.362  14.360  1.00  0.00     0.074 A 
ATOM     58  C   UNL     1      -9.379  -3.514  16.363  1.00  0.00     0.029 A 
ATOM     59  N   UNL     1      -8.478  -1.748  15.359  1.00  0.00    -0.354 N 
ATOM     60  N   UNL     1      -8.266   1.116  14.702  1.00  0.00    -0.248 NA
ATOM     61  C   UNL     1      -9.028   3.319  14.886  1.00  0.00     0.031 C 
ATOM     62  C   UNL     1     -10.111  -2.376  16.721  1.00  0.00     0.029 A 
ATOM     63  C   UNL     1      -9.541  -1.271  16.109  1.00  0.00     0.049 A 
ATOM     64  H   UNL     1      -7.877  -1.189  14.814  1.00  0.00     0.167 HD
ATOM     65  C   UNL     1      -9.356   1.144  15.554  1.00  0.00     0.074 A 
ATOM     66  C   UNL     1      -9.765   2.533  15.660  1.00  0.00     0.031 C 
ATOM     67  C   UNL     1      -9.941   0.112  16.210  1.00  0.00     0.034 A 
BRANCH  54  68
ATOM     68  C   UNL     1      -7.487  -5.446  14.967  1.00  0.00     0.023 A 
ATOM     69  C   UNL     1      -6.469  -6.107  15.686  1.00  0.00     0.012 A 
ATOM     70  C   UNL     1      -8.544  -6.190  14.416  1.00  0.00     0.148 A 
ATOM     71  C   UNL     1      -6.483  -7.495  15.818  1.00  0.00     0.002 A 
ATOM     72  C   UNL     1      -8.576  -7.566  14.591  1.00  0.00     0.091 A 
ATOM     73  F   UNL     1      -9.483  -5.542  13.712  1.00  0.00    -0.205 F 
ATOM     74  C   UNL     1      -7.540  -8.222  15.277  1.00  0.00     0.022 A 
BRANCH  72  75
ATOM     75  S   UNL     1      -9.926  -8.582  13.989  1.00  0.00     0.127 S 
ATOM     76  O   UNL     1      -9.265  -9.359  12.941  1.00  0.00    -0.237 OA
ATOM     77  O   UNL     1     -10.285  -9.349  15.182  1.00  0.00    -0.237 OA
ATOM     78  O   UNL     1     -10.951  -7.658  13.526  1.00  0.00    -0.744 OA
ENDBRANCH  72  75
ENDBRANCH  54  68
BRANCH  55  79
ATOM     79  C   UNL     1      -6.780   4.370  13.267  1.00  0.00     0.023 A 
ATOM     80  C   UNL     1      -6.530   5.306  14.288  1.00  0.00     0.012 A 
ATOM     81  C   UNL     1      -6.896   4.822  11.935  1.00  0.00     0.148 A 
ATOM     82  C   UNL     1      -6.436   6.668  13.998  1.00  0.00     0.002 A 
ATOM     83  C   UNL     1      -6.772   6.178  11.648  1.00  0.00     0.091 A 
ATOM     84  F   UNL     1      -7.126   3.914  10.976  1.00  0.00    -0.205 F 
ATOM     85  C   UNL     1      -6.554   7.104  12.681  1.00  0.00     0.022 A 
BRANCH  83  86
ATOM     86  S   UNL     1      -6.841   6.839   9.977  1.00  0.00     0.127 S 
ATOM     87  O   UNL     1      -8.067   7.633  10.021  1.00  0.00    -0.237 OA
ATOM     88  O   UNL     1      -5.605   7.621   9.912  1.00  0.00    -0.237 OA
ATOM     89  O   UNL     1      -6.875   5.682   9.095  1.00  0.00    -0.744 OA
ENDBRANCH  83  86
ENDBRANCH  55  79
BRANCH  67  90
ATOM     90  C   UNL     1     -11.087   0.451  17.121  1.00  0.00     0.023 A 
ATOM     91  C   UNL     1     -12.316   0.877  16.580  1.00  0.00     0.012 A 
ATOM     92  C   UNL     1     -10.955   0.305  18.516  1.00  0.00     0.148 A 
ATOM     93  C   UNL     1     -13.384   1.194  17.417  1.00  0.00     0.002 A 
ATOM     94  C   UNL     1     -12.041   0.564  19.339  1.00  0.00     0.091 A 
ATOM     95  F   UNL     1      -9.768  -0.078  19.010  1.00  0.00    -0.205 F 
ATOM     96  C   UNL     1     -13.251   1.025  18.793  1.00  0.00     0.022 A 
BRANCH  94  97
ATOM     97  S   UNL     1     -11.998   0.278  21.110  1.00  0.00     0.127 S 
ATOM     98  O   UNL     1     -12.063   1.642  21.634  1.00  0.00    -0.237 OA
ATOM     99  O   UNL     1     -13.208  -0.516  21.322  1.00  0.00    -0.237 OA
ATOM    100  O   UNL     1     -10.754  -0.431  21.375  1.00  0.00    -0.744 OA
ENDBRANCH  94  97
ENDBRANCH  67  90
ENDBRANCH  41  42
ENDBRANCH  34  36
ENDBRANCH  33  34
ENDBRANCH  32  33
ENDBRANCH  31  32
ENDBRANCH  30  31
ENDBRANCH   1  30
TORSDOF 22
