REMARK SMILES Cc1ccc(Cl)c(Nc2ccccc2C(=O)NCC(=O)OCCOCCOC(=O)c2ccc(-c3c4nc(c(-c5cccc(S(=O)(=O)[O-])c5F)c5ccc([nH]5)c(-c5cccc(S(=O)(=O)[O-])c5F)c5nc(c(-c6cccc(S(=O)(=O)[O-])c6F)c6ccc3[nH]6)C=C5)C=C4)cc2)c1Cl
REMARK SMILES IDX 23 1 22 2 21 3 19 4 20 5 18 6 17 7 15 8 16 9 14 11 9 12
REMARK SMILES IDX 10 13 11 14 13 15 12 16 8 17 7 19 1 20 2 21 3 22 93 23 4 24
REMARK SMILES IDX 94 25 5 26 6 27 24 28 25 29 26 30 27 31 28 32 29 33 30 34
REMARK SMILES IDX 31 35 92 36 32 37 91 38 33 39 34 40 35 41 85 42 36 43 90 44
REMARK SMILES IDX 84 45 86 46 37 47 89 48 83 49 82 50 38 52 70 53 50 54 69 55
REMARK SMILES IDX 51 56 54 57 68 58 87 59 52 60 53 61 67 63 88 64 55 65 39 66
REMARK SMILES IDX 40 67 48 68 41 69 43 70 49 71 42 72 44 73 45 74 46 75 47 76
REMARK SMILES IDX 71 77 72 78 80 79 73 80 75 81 81 82 74 83 76 84 77 85 78 86
REMARK SMILES IDX 79 87 56 88 57 89 65 90 58 91 60 92 66 93 59 94 61 95 62 96
REMARK SMILES IDX 63 97 64 98
REMARK H PARENT 17 10 8 18 86 51 54 62
REMARK Flexibility Score: inf
ROOT
ATOM      1  C   UNL     1      -4.959  -1.213   3.234  1.00  0.00     0.202 C 
ENDROOT
BRANCH   1   2
ATOM      2  C   UNL     1      -4.258  -2.293   2.394  1.00  0.00     0.261 C 
BRANCH   2   3
ATOM      3  O   UNL     1      -2.831  -2.219   2.531  1.00  0.00    -0.462 OA
BRANCH   3   4
ATOM      4  C   UNL     1      -2.131  -2.060   1.374  1.00  0.00     0.325 C 
ATOM      5  O   UNL     1      -2.584  -2.215   0.247  1.00  0.00    -0.250 OA
BRANCH   4   6
ATOM      6  C   UNL     1      -0.788  -1.409   1.663  1.00  0.00     0.239 C 
BRANCH   6   7
ATOM      7  N   UNL     1       0.288  -2.165   2.238  1.00  0.00    -0.341 N 
ATOM      8  C   UNL     1       1.498  -2.273   1.591  1.00  0.00     0.253 C 
ATOM      9  O   UNL     1       2.505  -1.821   2.130  1.00  0.00    -0.269 OA
ATOM     10  H   UNL     1       0.160  -2.611   3.106  1.00  0.00     0.164 HD
BRANCH   8  11
ATOM     11  C   UNL     1       1.607  -3.233   0.462  1.00  0.00     0.063 A 
ATOM     12  C   UNL     1       1.031  -3.153  -0.822  1.00  0.00     0.051 A 
ATOM     13  C   UNL     1       1.155  -4.296  -1.647  1.00  0.00     0.027 A 
ATOM     14  C   UNL     1       1.859  -5.438  -1.252  1.00  0.00     0.002 A 
ATOM     15  C   UNL     1       2.342  -4.381   0.839  1.00  0.00     0.016 A 
ATOM     16  C   UNL     1       2.474  -5.472  -0.013  1.00  0.00     0.001 A 
BRANCH  12  17
ATOM     17  N   UNL     1       0.411  -2.049  -1.448  1.00  0.00    -0.352 N 
ATOM     18  H   UNL     1      -0.283  -2.328  -2.088  1.00  0.00     0.167 HD
BRANCH  17  19
ATOM     19  C   UNL     1       0.542  -0.639  -1.385  1.00  0.00     0.077 A 
ATOM     20  C   UNL     1       2.779   2.132   0.052  1.00  0.00     0.046 C 
ATOM     21  C   UNL     1       1.603   1.411  -0.549  1.00  0.00    -0.030 A 
ATOM     22  C   UNL     1       0.402   2.111  -0.731  1.00  0.00     0.006 A 
ATOM     23  C   UNL     1       1.680   0.047  -0.918  1.00  0.00     0.069 A 
ATOM     24  C   UNL     1      -0.686   1.491  -1.331  1.00  0.00     0.023 A 
ATOM     25  Cl  UNL     1       3.239  -0.721  -0.934  1.00  0.00    -0.082 Cl
ATOM     26  C   UNL     1      -0.607   0.141  -1.673  1.00  0.00     0.066 A 
ATOM     27  Cl  UNL     1      -1.988  -0.562  -2.450  1.00  0.00    -0.082 Cl
ENDBRANCH  17  19
ENDBRANCH  12  17
ENDBRANCH   8  11
ENDBRANCH   6   7
ENDBRANCH   4   6
ENDBRANCH   3   4
ENDBRANCH   2   3
ENDBRANCH   1   2
BRANCH   1  28
ATOM     28  O   UNL     1      -4.739   0.155   2.891  1.00  0.00    -0.374 OA
BRANCH  28  29
ATOM     29  C   UNL     1      -3.417   0.678   2.984  1.00  0.00     0.202 C 
BRANCH  29  30
ATOM     30  C   UNL     1      -2.688   0.609   4.341  1.00  0.00     0.261 C 
BRANCH  30  31
ATOM     31  O   UNL     1      -2.474  -0.735   4.813  1.00  0.00    -0.460 OA
BRANCH  31  32
ATOM     32  C   UNL     1      -2.938  -0.984   6.062  1.00  0.00     0.338 C 
ATOM     33  O   UNL     1      -3.404  -0.167   6.847  1.00  0.00    -0.246 OA
BRANCH  32  34
ATOM     34  C   UNL     1      -3.003  -2.433   6.319  1.00  0.00     0.060 A 
ATOM     35  C   UNL     1      -4.273  -3.018   6.410  1.00  0.00     0.016 A 
ATOM     36  C   UNL     1      -1.859  -3.177   6.615  1.00  0.00     0.016 A 
ATOM     37  C   UNL     1      -4.408  -4.337   6.832  1.00  0.00     0.010 A 
ATOM     38  C   UNL     1      -1.999  -4.500   7.058  1.00  0.00     0.010 A 
ATOM     39  C   UNL     1      -3.276  -5.070   7.206  1.00  0.00    -0.014 A 
BRANCH  39  40
ATOM     40  C   UNL     1      -3.476  -6.362   7.907  1.00  0.00     0.031 A 
ATOM     41  C   UNL     1      -3.463  -6.389   9.412  1.00  0.00     0.074 A 
ATOM     42  C   UNL     1      -3.737  -7.485   7.216  1.00  0.00     0.049 A 
ATOM     43  N   UNL     1      -3.711  -7.382  10.225  1.00  0.00    -0.248 NA
ATOM     44  C   UNL     1      -3.132  -5.124  10.089  1.00  0.00     0.031 C 
ATOM     45  C   UNL     1      -3.776  -7.587   5.759  1.00  0.00     0.029 A 
ATOM     46  N   UNL     1      -4.010  -8.757   7.653  1.00  0.00    -0.354 N 
ATOM     47  C   UNL     1      -3.559  -6.870  11.507  1.00  0.00     0.074 A 
ATOM     48  C   UNL     1      -3.174  -5.482  11.364  1.00  0.00     0.031 C 
ATOM     49  C   UNL     1      -4.034  -8.862   5.420  1.00  0.00     0.029 A 
ATOM     50  C   UNL     1      -4.172  -9.664   6.635  1.00  0.00     0.049 A 
ATOM     51  H   UNL     1      -4.083  -8.995   8.605  1.00  0.00     0.167 HD
ATOM     52  C   UNL     1      -3.746  -7.488  12.698  1.00  0.00     0.034 A 
ATOM     53  C   UNL     1      -4.400 -10.992   6.679  1.00  0.00     0.034 A 
ATOM     54  C   UNL     1      -4.133  -8.866  12.841  1.00  0.00     0.049 A 
ATOM     55  C   UNL     1      -4.595 -11.662   8.013  1.00  0.00     0.074 A 
ATOM     56  C   UNL     1      -4.371  -9.579  14.003  1.00  0.00     0.029 A 
ATOM     57  N   UNL     1      -4.327  -9.745  11.787  1.00  0.00    -0.354 N 
ATOM     58  N   UNL     1      -4.573 -11.135   9.214  1.00  0.00    -0.248 NA
ATOM     59  C   UNL     1      -4.892 -13.102   7.997  1.00  0.00     0.031 C 
ATOM     60  C   UNL     1      -4.693 -10.895  13.650  1.00  0.00     0.029 A 
ATOM     61  C   UNL     1      -4.675 -10.996  12.268  1.00  0.00     0.049 A 
ATOM     62  H   UNL     1      -4.230  -9.515  10.835  1.00  0.00     0.167 HD
ATOM     63  C   UNL     1      -4.878 -12.169  10.093  1.00  0.00     0.074 A 
ATOM     64  C   UNL     1      -5.109 -13.348   9.283  1.00  0.00     0.031 C 
ATOM     65  C   UNL     1      -4.944 -12.151  11.448  1.00  0.00     0.034 A 
BRANCH  52  66
ATOM     66  C   UNL     1      -3.564  -6.657  13.941  1.00  0.00     0.023 A 
ATOM     67  C   UNL     1      -4.537  -5.694  14.279  1.00  0.00     0.012 A 
ATOM     68  C   UNL     1      -2.451  -6.838  14.784  1.00  0.00     0.148 A 
ATOM     69  C   UNL     1      -4.388  -4.899  15.415  1.00  0.00     0.002 A 
ATOM     70  C   UNL     1      -2.329  -6.069  15.937  1.00  0.00     0.091 A 
ATOM     71  F   UNL     1      -1.520  -7.737  14.433  1.00  0.00    -0.205 F 
ATOM     72  C   UNL     1      -3.289  -5.093  16.247  1.00  0.00     0.022 A 
BRANCH  70  73
ATOM     73  S   UNL     1      -0.983  -6.295  17.105  1.00  0.00     0.127 S 
ATOM     74  O   UNL     1      -0.130  -5.147  16.799  1.00  0.00    -0.237 OA
ATOM     75  O   UNL     1      -1.672  -6.215  18.393  1.00  0.00    -0.237 OA
ATOM     76  O   UNL     1      -0.413  -7.601  16.806  1.00  0.00    -0.744 OA
ENDBRANCH  70  73
ENDBRANCH  52  66
BRANCH  53  77
ATOM     77  C   UNL     1      -4.503 -11.761   5.407  1.00  0.00     0.023 A 
ATOM     78  C   UNL     1      -5.749 -12.267   4.992  1.00  0.00     0.012 A 
ATOM     79  C   UNL     1      -3.374 -11.956   4.587  1.00  0.00     0.148 A 
ATOM     80  C   UNL     1      -5.866 -12.970   3.792  1.00  0.00     0.002 A 
ATOM     81  C   UNL     1      -3.508 -12.608   3.367  1.00  0.00     0.091 A 
ATOM     82  F   UNL     1      -2.193 -11.482   5.010  1.00  0.00    -0.205 F 
ATOM     83  C   UNL     1      -4.750 -13.130   2.975  1.00  0.00     0.022 A 
BRANCH  81  84
ATOM     84  S   UNL     1      -2.155 -12.742   2.193  1.00  0.00     0.127 S 
ATOM     85  O   UNL     1      -1.855 -14.170   2.243  1.00  0.00    -0.237 OA
ATOM     86  O   UNL     1      -2.787 -12.288   0.953  1.00  0.00    -0.237 OA
ATOM     87  O   UNL     1      -1.111 -11.858   2.692  1.00  0.00    -0.744 OA
ENDBRANCH  81  84
ENDBRANCH  53  77
BRANCH  65  88
ATOM     88  C   UNL     1      -5.294 -13.441  12.145  1.00  0.00     0.023 A 
ATOM     89  C   UNL     1      -4.347 -14.484  12.198  1.00  0.00     0.012 A 
ATOM     90  C   UNL     1      -6.534 -13.602  12.794  1.00  0.00     0.148 A 
ATOM     91  C   UNL     1      -4.644 -15.680  12.852  1.00  0.00     0.002 A 
ATOM     92  C   UNL     1      -6.805 -14.780  13.483  1.00  0.00     0.091 A 
ATOM     93  F   UNL     1      -7.433 -12.610  12.717  1.00  0.00    -0.205 F 
ATOM     94  C   UNL     1      -5.866 -15.824  13.503  1.00  0.00     0.022 A 
BRANCH  92  95
ATOM     95  S   UNL     1      -8.320 -15.005  14.423  1.00  0.00     0.127 S 
ATOM     96  O   UNL     1      -9.127 -15.804  13.503  1.00  0.00    -0.237 OA
ATOM     97  O   UNL     1      -7.853 -15.727  15.608  1.00  0.00    -0.237 OA
ATOM     98  O   UNL     1      -8.815 -13.663  14.698  1.00  0.00    -0.744 OA
ENDBRANCH  92  95
ENDBRANCH  65  88
ENDBRANCH  39  40
ENDBRANCH  32  34
ENDBRANCH  31  32
ENDBRANCH  30  31
ENDBRANCH  29  30
ENDBRANCH  28  29
ENDBRANCH   1  28
TORSDOF 21
