REMARK SMILES C=CC[N@H+](CC(=O)OCCOCCOC(=O)c1ccc(-c2c3nc(c(-c4cccc(S(=O)(=O)[O-])c4F)c4ccc([nH]4)c(-c4cccc(S(=O)(=O)[O-])c4F)c4nc(c(-c5cccc(S(=O)(=O)[O-])c5F)c5ccc2[nH]5)C=C4)C=C3)cc1)[C@H](C)c1ccc(F)cc1O
REMARK SMILES IDX 10 1 9 2 8 3 6 4 7 5 5 6 4 7 3 9 2 10 1 11 80 12 81 13 82 14
REMARK SMILES IDX 83 15 88 16 84 17 87 18 85 19 86 20 89 21 11 23 12 24 13 25
REMARK SMILES IDX 14 26 15 27 16 28 17 29 18 30 79 31 19 32 78 33 20 34 21 35
REMARK SMILES IDX 22 36 72 37 23 38 77 39 71 40 73 41 24 42 76 43 70 44 69 45
REMARK SMILES IDX 25 47 57 48 37 49 56 50 38 51 41 52 55 53 74 54 39 55 40 56
REMARK SMILES IDX 54 58 75 59 42 60 26 61 27 62 35 63 28 64 30 65 36 66 29 67
REMARK SMILES IDX 31 68 32 69 33 70 34 71 58 72 59 73 67 74 60 75 62 76 68 77
REMARK SMILES IDX 61 78 63 79 64 80 65 81 66 82 43 83 44 84 52 85 45 86 47 87
REMARK SMILES IDX 53 88 46 89 48 90 49 91 50 92 51 93
REMARK H PARENT 4 8 89 22 73 46 41 57
REMARK Flexibility Score: inf
ROOT
ATOM      1  C   UNL     1      -4.067   4.765  -1.442  1.00  0.00     0.202 C 
ENDROOT
BRANCH   1   2
ATOM      2  C   UNL     1      -4.764   3.567  -0.798  1.00  0.00     0.261 C 
BRANCH   2   3
ATOM      3  O   UNL     1      -3.946   2.387  -0.893  1.00  0.00    -0.459 OA
BRANCH   3   4
ATOM      4  C   UNL     1      -4.329   1.458  -1.799  1.00  0.00     0.361 C 
ATOM      5  O   UNL     1      -5.354   1.527  -2.473  1.00  0.00    -0.245 OA
BRANCH   4   6
ATOM      6  C   UNL     1      -3.427   0.232  -1.851  1.00  0.00     0.387 C 
BRANCH   6   7
ATOM      7  N   UNL     1      -1.923   0.413  -1.780  1.00  0.00    -0.316 N 
ATOM      8  H   UNL     1      -1.583   1.200  -2.332  1.00  0.00     0.349 HD
BRANCH   7   9
ATOM      9  C   UNL     1      -1.553   0.705  -0.369  1.00  0.00     0.291 C 
BRANCH   9  10
ATOM     10  C   UNL     1      -0.090   0.718  -0.035  1.00  0.00     0.025 C 
ATOM     11  C   UNL     1       0.686   1.810  -0.049  1.00  0.00     0.010 C 
ENDBRANCH   9  10
ENDBRANCH   7   9
BRANCH   7  12
ATOM     12  C   UNL     1      -1.289  -0.842  -2.350  1.00  0.00     0.216 C 
ATOM     13  C   UNL     1      -1.721  -2.131  -1.617  1.00  0.00     0.081 C 
BRANCH  12  14
ATOM     14  C   UNL     1       0.230  -0.749  -2.606  1.00  0.00     0.051 A 
ATOM     15  C   UNL     1       1.088  -1.842  -2.354  1.00  0.00     0.017 A 
ATOM     16  C   UNL     1       0.826   0.413  -3.136  1.00  0.00     0.127 A 
ATOM     17  C   UNL     1       2.467  -1.754  -2.563  1.00  0.00     0.040 A 
ATOM     18  C   UNL     1       2.203   0.511  -3.343  1.00  0.00     0.085 A 
ATOM     19  C   UNL     1       3.013  -0.573  -3.042  1.00  0.00     0.126 A 
ATOM     20  F   UNL     1       4.339  -0.485  -3.210  1.00  0.00    -0.207 F 
BRANCH  16  21
ATOM     21  O   UNL     1       0.081   1.526  -3.417  1.00  0.00    -0.507 OA
ATOM     22  H   UNL     1      -0.848   1.512  -3.294  1.00  0.00     0.293 HD
ENDBRANCH  16  21
ENDBRANCH  12  14
ENDBRANCH   7  12
ENDBRANCH   6   7
ENDBRANCH   4   6
ENDBRANCH   3   4
ENDBRANCH   2   3
ENDBRANCH   1   2
BRANCH   1  23
ATOM     23  O   UNL     1      -3.997   4.726  -2.868  1.00  0.00    -0.374 OA
BRANCH  23  24
ATOM     24  C   UNL     1      -2.927   3.967  -3.437  1.00  0.00     0.202 C 
BRANCH  24  25
ATOM     25  C   UNL     1      -1.577   4.686  -3.502  1.00  0.00     0.261 C 
BRANCH  25  26
ATOM     26  O   UNL     1      -1.010   4.850  -2.188  1.00  0.00    -0.460 OA
BRANCH  26  27
ATOM     27  C   UNL     1      -0.952   6.127  -1.748  1.00  0.00     0.338 C 
ATOM     28  O   UNL     1      -1.239   7.139  -2.378  1.00  0.00    -0.246 OA
BRANCH  27  29
ATOM     29  C   UNL     1      -0.661   6.156  -0.304  1.00  0.00     0.060 A 
ATOM     30  C   UNL     1      -1.508   6.919   0.507  1.00  0.00     0.016 A 
ATOM     31  C   UNL     1       0.455   5.520   0.242  1.00  0.00     0.016 A 
ATOM     32  C   UNL     1      -1.200   7.110   1.852  1.00  0.00     0.010 A 
ATOM     33  C   UNL     1       0.747   5.689   1.601  1.00  0.00     0.010 A 
ATOM     34  C   UNL     1      -0.044   6.535   2.398  1.00  0.00    -0.014 A 
BRANCH  34  35
ATOM     35  C   UNL     1       0.422   6.982   3.738  1.00  0.00     0.031 A 
ATOM     36  C   UNL     1       1.611   7.906   3.826  1.00  0.00     0.074 A 
ATOM     37  C   UNL     1      -0.224   6.613   4.859  1.00  0.00     0.049 A 
ATOM     38  N   UNL     1       2.159   8.453   4.881  1.00  0.00    -0.248 NA
ATOM     39  C   UNL     1       2.278   8.255   2.560  1.00  0.00     0.031 C 
ATOM     40  C   UNL     1      -1.372   5.709   4.917  1.00  0.00     0.029 A 
ATOM     41  N   UNL     1       0.005   6.949   6.171  1.00  0.00    -0.354 N 
ATOM     42  C   UNL     1       3.251   9.174   4.412  1.00  0.00     0.074 A 
ATOM     43  C   UNL     1       3.304   8.980   2.981  1.00  0.00     0.031 C 
ATOM     44  C   UNL     1      -1.739   5.551   6.201  1.00  0.00     0.029 A 
ATOM     45  C   UNL     1      -0.847   6.332   7.057  1.00  0.00     0.049 A 
ATOM     46  H   UNL     1       0.714   7.572   6.452  1.00  0.00     0.167 HD
ATOM     47  C   UNL     1       4.119   9.951   5.102  1.00  0.00     0.034 A 
ATOM     48  C   UNL     1      -0.900   6.389   8.403  1.00  0.00     0.034 A 
ATOM     49  C   UNL     1       4.038  10.194   6.516  1.00  0.00     0.049 A 
ATOM     50  C   UNL     1       0.052   7.295   9.142  1.00  0.00     0.074 A 
ATOM     51  C   UNL     1       4.829  11.021   7.293  1.00  0.00     0.029 A 
ATOM     52  N   UNL     1       3.112   9.611   7.366  1.00  0.00    -0.354 N 
ATOM     53  N   UNL     1       0.988   8.078   8.664  1.00  0.00    -0.248 NA
ATOM     54  C   UNL     1      -0.091   7.360  10.605  1.00  0.00     0.031 C 
ATOM     55  C   UNL     1       4.392  10.926   8.618  1.00  0.00     0.029 A 
ATOM     56  C   UNL     1       3.313  10.058   8.661  1.00  0.00     0.049 A 
ATOM     57  H   UNL     1       2.415   8.973   7.090  1.00  0.00     0.167 HD
ATOM     58  C   UNL     1       1.516   8.756   9.758  1.00  0.00     0.074 A 
ATOM     59  C   UNL     1       0.779   8.308  10.922  1.00  0.00     0.031 C 
ATOM     60  C   UNL     1       2.530   9.655   9.800  1.00  0.00     0.034 A 
BRANCH  47  61
ATOM     61  C   UNL     1       5.215  10.635   4.328  1.00  0.00     0.023 A 
ATOM     62  C   UNL     1       4.904  11.731   3.498  1.00  0.00     0.012 A 
ATOM     63  C   UNL     1       6.557  10.233   4.470  1.00  0.00     0.148 A 
ATOM     64  C   UNL     1       5.908  12.397   2.797  1.00  0.00     0.002 A 
ATOM     65  C   UNL     1       7.558  10.930   3.804  1.00  0.00     0.091 A 
ATOM     66  F   UNL     1       6.828   9.174   5.246  1.00  0.00    -0.205 F 
ATOM     67  C   UNL     1       7.234  12.005   2.960  1.00  0.00     0.022 A 
BRANCH  65  68
ATOM     68  S   UNL     1       9.302  10.555   4.012  1.00  0.00     0.127 S 
ATOM     69  O   UNL     1       9.636   9.977   2.711  1.00  0.00    -0.237 OA
ATOM     70  O   UNL     1       9.874  11.879   4.257  1.00  0.00    -0.237 OA
ATOM     71  O   UNL     1       9.384   9.639   5.141  1.00  0.00    -0.744 OA
ENDBRANCH  65  68
ENDBRANCH  47  61
BRANCH  48  72
ATOM     72  C   UNL     1      -1.928   5.603   9.144  1.00  0.00     0.023 A 
ATOM     73  C   UNL     1      -2.979   6.271   9.801  1.00  0.00     0.012 A 
ATOM     74  C   UNL     1      -1.871   4.197   9.196  1.00  0.00     0.148 A 
ATOM     75  C   UNL     1      -3.932   5.557  10.528  1.00  0.00     0.002 A 
ATOM     76  C   UNL     1      -2.856   3.487   9.873  1.00  0.00     0.091 A 
ATOM     77  F   UNL     1      -0.853   3.578   8.581  1.00  0.00    -0.205 F 
ATOM     78  C   UNL     1      -3.877   4.166  10.556  1.00  0.00     0.022 A 
BRANCH  76  79
ATOM     79  S   UNL     1      -2.934   1.693   9.845  1.00  0.00     0.127 S 
ATOM     80  O   UNL     1      -2.483   1.351  11.190  1.00  0.00    -0.237 OA
ATOM     81  O   UNL     1      -4.356   1.455   9.592  1.00  0.00    -0.237 OA
ATOM     82  O   UNL     1      -2.059   1.283   8.755  1.00  0.00    -0.744 OA
ENDBRANCH  76  79
ENDBRANCH  48  72
BRANCH  60  83
ATOM     83  C   UNL     1       2.881  10.258  11.136  1.00  0.00     0.023 A 
ATOM     84  C   UNL     1       3.533   9.476  12.110  1.00  0.00     0.012 A 
ATOM     85  C   UNL     1       2.626  11.618  11.401  1.00  0.00     0.148 A 
ATOM     86  C   UNL     1       3.890  10.027  13.340  1.00  0.00     0.002 A 
ATOM     87  C   UNL     1       3.028  12.173  12.611  1.00  0.00     0.091 A 
ATOM     88  F   UNL     1       1.987  12.344  10.472  1.00  0.00    -0.205 F 
ATOM     89  C   UNL     1       3.649  11.377  13.586  1.00  0.00     0.022 A 
BRANCH  87  90
ATOM     90  S   UNL     1       2.841  13.925  12.964  1.00  0.00     0.127 S 
ATOM     91  O   UNL     1       1.657  13.932  13.821  1.00  0.00    -0.237 OA
ATOM     92  O   UNL     1       4.093  14.243  13.653  1.00  0.00    -0.237 OA
ATOM     93  O   UNL     1       2.688  14.575  11.669  1.00  0.00    -0.744 OA
ENDBRANCH  87  90
ENDBRANCH  60  83
ENDBRANCH  34  35
ENDBRANCH  27  29
ENDBRANCH  26  27
ENDBRANCH  25  26
ENDBRANCH  24  25
ENDBRANCH  23  24
ENDBRANCH   1  23
TORSDOF 23
