REMARK SMILES O=C(OCCOCCOC(=O)c1cc(-c2cc(Cl)ccc2Cl)cc([N+](=O)[O-])c1)c1ccc(-c2c3nc(c(-c4cccc(S(=O)(=O)[O-])c4F)c4ccc([nH]4)c(-c4cccc(S(=O)(=O)[O-])c4F)c4nc(c(-c5cccc(S(=O)(=O)[O-])c5F)c5ccc2[nH]5)C=C4)C=C3)cc1
REMARK SMILES IDX 5 1 4 2 3 3 2 4 1 5 29 6 30 7 91 8 31 9 90 10 32 11 33 12
REMARK SMILES IDX 34 13 84 14 35 15 89 16 83 17 85 18 36 19 88 20 82 21 81 22
REMARK SMILES IDX 37 24 69 25 49 26 68 27 50 28 53 29 67 30 86 31 51 32 52 33
REMARK SMILES IDX 66 35 87 36 54 37 38 38 39 39 47 40 40 41 42 42 48 43 41 44
REMARK SMILES IDX 43 45 44 46 45 47 46 48 70 49 71 50 79 51 72 52 74 53 80 54
REMARK SMILES IDX 73 55 75 56 76 57 77 58 78 59 55 60 56 61 64 62 57 63 59 64
REMARK SMILES IDX 65 65 58 66 60 67 61 68 62 69 63 70 6 71 7 72 8 73 9 74
REMARK SMILES IDX 10 75 11 76 12 77 13 78 28 79 14 80 24 81 23 82 15 83 16 84
REMARK SMILES IDX 21 85 17 86 20 87 22 88 18 89 19 90 25 91 26 92 27 93
REMARK H PARENT 85 23 53 34
REMARK Flexibility Score: inf
ROOT
ATOM      1  C   UNL     1       4.425  -1.564   0.615  1.00  0.00     0.202 C 
ENDROOT
BRANCH   1   2
ATOM      2  C   UNL     1       4.176  -0.240   1.343  1.00  0.00     0.261 C 
BRANCH   2   3
ATOM      3  O   UNL     1       2.780   0.086   1.320  1.00  0.00    -0.460 OA
BRANCH   3   4
ATOM      4  C   UNL     1       2.136   0.916   0.468  1.00  0.00     0.338 C 
ATOM      5  O   UNL     1       0.914   1.017   0.565  1.00  0.00    -0.246 OA
BRANCH   4   6
ATOM      6  C   UNL     1       2.828   1.727  -0.579  1.00  0.00     0.060 A 
ATOM      7  C   UNL     1       3.999   1.350  -1.244  1.00  0.00     0.016 A 
ATOM      8  C   UNL     1       2.189   2.907  -0.988  1.00  0.00     0.016 A 
ATOM      9  C   UNL     1       4.543   2.110  -2.261  1.00  0.00     0.010 A 
ATOM     10  C   UNL     1       2.720   3.679  -2.020  1.00  0.00     0.010 A 
ATOM     11  C   UNL     1       3.905   3.277  -2.647  1.00  0.00    -0.014 A 
BRANCH  11  12
ATOM     12  C   UNL     1       4.595   4.137  -3.610  1.00  0.00     0.031 A 
ATOM     13  C   UNL     1       5.319   5.323  -3.073  1.00  0.00     0.074 A 
ATOM     14  C   UNL     1       4.619   3.795  -4.907  1.00  0.00     0.049 A 
ATOM     15  N   UNL     1       5.879   6.306  -3.713  1.00  0.00    -0.248 NA
ATOM     16  C   UNL     1       5.426   5.410  -1.605  1.00  0.00     0.031 C 
ATOM     17  C   UNL     1       4.037   2.573  -5.467  1.00  0.00     0.029 A 
ATOM     18  N   UNL     1       5.136   4.451  -5.988  1.00  0.00    -0.354 N 
ATOM     19  C   UNL     1       6.336   7.171  -2.730  1.00  0.00     0.074 A 
ATOM     20  C   UNL     1       6.021   6.581  -1.450  1.00  0.00     0.031 C 
ATOM     21  C   UNL     1       4.192   2.589  -6.800  1.00  0.00     0.029 A 
ATOM     22  C   UNL     1       4.813   3.852  -7.181  1.00  0.00     0.049 A 
ATOM     23  H   UNL     1       5.683   5.267  -5.919  1.00  0.00     0.167 HD
ATOM     24  C   UNL     1       6.939   8.367  -2.901  1.00  0.00     0.034 A 
ATOM     25  C   UNL     1       4.943   4.321  -8.435  1.00  0.00     0.034 A 
ATOM     26  C   UNL     1       7.215   8.909  -4.200  1.00  0.00     0.049 A 
ATOM     27  C   UNL     1       5.563   5.679  -8.607  1.00  0.00     0.074 A 
ATOM     28  C   UNL     1       7.801  10.114  -4.529  1.00  0.00     0.029 A 
ATOM     29  N   UNL     1       6.894   8.272  -5.394  1.00  0.00    -0.354 N 
ATOM     30  N   UNL     1       6.000   6.503  -7.682  1.00  0.00    -0.248 NA
ATOM     31  C   UNL     1       5.727   6.171  -9.979  1.00  0.00     0.031 C 
ATOM     32  C   UNL     1       7.791  10.225  -5.923  1.00  0.00     0.029 A 
ATOM     33  C   UNL     1       7.255   9.063  -6.465  1.00  0.00     0.049 A 
ATOM     34  H   UNL     1       6.471   7.386  -5.465  1.00  0.00     0.167 HD
ATOM     35  C   UNL     1       6.525   7.596  -8.356  1.00  0.00     0.074 A 
ATOM     36  C   UNL     1       6.350   7.326  -9.772  1.00  0.00     0.031 C 
ATOM     37  C   UNL     1       7.100   8.719  -7.859  1.00  0.00     0.034 A 
BRANCH  24  38
ATOM     38  C   UNL     1       7.238   9.164  -1.661  1.00  0.00     0.023 A 
ATOM     39  C   UNL     1       8.219   8.730  -0.745  1.00  0.00     0.012 A 
ATOM     40  C   UNL     1       6.488  10.319  -1.371  1.00  0.00     0.148 A 
ATOM     41  C   UNL     1       8.404   9.397   0.466  1.00  0.00     0.002 A 
ATOM     42  C   UNL     1       6.714  11.009  -0.186  1.00  0.00     0.091 A 
ATOM     43  F   UNL     1       5.535  10.698  -2.235  1.00  0.00    -0.205 F 
ATOM     44  C   UNL     1       7.655  10.538   0.742  1.00  0.00     0.022 A 
BRANCH  42  45
ATOM     45  S   UNL     1       5.848  12.527   0.224  1.00  0.00     0.127 S 
ATOM     46  O   UNL     1       4.972  12.083   1.307  1.00  0.00    -0.237 OA
ATOM     47  O   UNL     1       6.945  13.399   0.645  1.00  0.00    -0.237 OA
ATOM     48  O   UNL     1       5.173  12.947  -0.995  1.00  0.00    -0.744 OA
ENDBRANCH  42  45
ENDBRANCH  24  38
BRANCH  25  49
ATOM     49  C   UNL     1       4.447   3.509  -9.581  1.00  0.00     0.023 A 
ATOM     50  C   UNL     1       5.361   2.924 -10.475  1.00  0.00     0.012 A 
ATOM     51  C   UNL     1       3.069   3.248  -9.738  1.00  0.00     0.148 A 
ATOM     52  C   UNL     1       4.912   2.103 -11.512  1.00  0.00     0.002 A 
ATOM     53  C   UNL     1       2.633   2.388 -10.738  1.00  0.00     0.091 A 
ATOM     54  F   UNL     1       2.215   3.821  -8.878  1.00  0.00    -0.205 F 
ATOM     55  C   UNL     1       3.552   1.825 -11.636  1.00  0.00     0.022 A 
BRANCH  53  56
ATOM     56  S   UNL     1       0.919   1.871 -10.893  1.00  0.00     0.127 S 
ATOM     57  O   UNL     1       0.551   2.443 -12.185  1.00  0.00    -0.237 OA
ATOM     58  O   UNL     1       1.045   0.413 -10.878  1.00  0.00    -0.237 OA
ATOM     59  O   UNL     1       0.229   2.430  -9.739  1.00  0.00    -0.744 OA
ENDBRANCH  53  56
ENDBRANCH  25  49
BRANCH  37  60
ATOM     60  C   UNL     1       7.651   9.710  -8.843  1.00  0.00     0.023 A 
ATOM     61  C   UNL     1       6.786  10.567  -9.548  1.00  0.00     0.012 A 
ATOM     62  C   UNL     1       9.045   9.882  -8.942  1.00  0.00     0.148 A 
ATOM     63  C   UNL     1       7.307  11.581 -10.348  1.00  0.00     0.002 A 
ATOM     64  C   UNL     1       9.553  10.930  -9.693  1.00  0.00     0.091 A 
ATOM     65  F   UNL     1       9.841   9.036  -8.271  1.00  0.00    -0.205 F 
ATOM     66  C   UNL     1       8.687  11.774 -10.405  1.00  0.00     0.022 A 
BRANCH  64  67
ATOM     67  S   UNL     1      11.303  11.327  -9.720  1.00  0.00     0.127 S 
ATOM     68  O   UNL     1      11.655  11.022 -11.107  1.00  0.00    -0.237 OA
ATOM     69  O   UNL     1      11.299  12.752  -9.390  1.00  0.00    -0.237 OA
ATOM     70  O   UNL     1      11.930  10.473  -8.720  1.00  0.00    -0.744 OA
ENDBRANCH  64  67
ENDBRANCH  37  60
ENDBRANCH  11  12
ENDBRANCH   4   6
ENDBRANCH   3   4
ENDBRANCH   2   3
ENDBRANCH   1   2
BRANCH   1  71
ATOM     71  O   UNL     1       4.066  -1.571  -0.766  1.00  0.00    -0.374 OA
BRANCH  71  72
ATOM     72  C   UNL     1       2.699  -1.867  -1.076  1.00  0.00     0.202 C 
BRANCH  72  73
ATOM     73  C   UNL     1       2.643  -3.057  -2.035  1.00  0.00     0.261 C 
BRANCH  73  74
ATOM     74  O   UNL     1       3.213  -4.193  -1.366  1.00  0.00    -0.460 OA
BRANCH  74  75
ATOM     75  C   UNL     1       4.562  -4.281  -1.478  1.00  0.00     0.338 C 
ATOM     76  O   UNL     1       5.288  -3.750  -2.293  1.00  0.00    -0.246 OA
BRANCH  75  77
ATOM     77  C   UNL     1       5.068  -4.998  -0.290  1.00  0.00     0.067 A 
ATOM     78  C   UNL     1       6.268  -4.556   0.284  1.00  0.00     0.025 A 
ATOM     79  C   UNL     1       4.391  -6.097   0.235  1.00  0.00     0.101 A 
ATOM     80  C   UNL     1       6.821  -5.211   1.393  1.00  0.00    -0.009 A 
ATOM     81  C   UNL     1       4.946  -6.764   1.329  1.00  0.00     0.270 A 
ATOM     82  C   UNL     1       6.140  -6.318   1.923  1.00  0.00     0.094 A 
BRANCH  80  83
ATOM     83  C   UNL     1       8.156  -4.829   1.873  1.00  0.00     0.002 A 
ATOM     84  C   UNL     1       8.318  -3.775   2.791  1.00  0.00     0.030 A 
ATOM     85  C   UNL     1       9.314  -5.472   1.385  1.00  0.00     0.048 A 
ATOM     86  C   UNL     1       9.598  -3.379   3.194  1.00  0.00     0.041 A 
ATOM     87  C   UNL     1      10.588  -5.068   1.791  1.00  0.00     0.023 A 
ATOM     88  Cl  UNL     1       9.217  -6.778   0.251  1.00  0.00    -0.084 Cl
ATOM     89  Cl  UNL     1       9.782  -2.084   4.313  1.00  0.00    -0.084 Cl
ATOM     90  C   UNL     1      10.731  -4.018   2.695  1.00  0.00     0.022 A 
ENDBRANCH  80  83
BRANCH  81  91
ATOM     91  N   UNL     1       4.312  -7.996   1.808  1.00  0.00     0.062 N 
ATOM     92  O   UNL     1       4.942  -8.688   2.620  1.00  0.00    -0.258 OA
ATOM     93  O   UNL     1       3.192  -8.279   1.363  1.00  0.00    -0.258 OA
ENDBRANCH  81  91
ENDBRANCH  75  77
ENDBRANCH  74  75
ENDBRANCH  73  74
ENDBRANCH  72  73
ENDBRANCH  71  72
ENDBRANCH   1  71
TORSDOF 19
