REMARK SMILES Cc1ccc(C(=O)OCCOCCOC(=O)c2ccc(-c3c4nc(c(-c5cccc(S(=O)(=O)[O-])c5F)c5ccc([nH]5)c(-c5cccc(S(=O)(=O)[O-])c5F)c5nc(c(-c6cccc(S(=O)(=O)[O-])c6F)c6ccc3[nH]6)C=C5)C=C4)cc2)cc1NC(=O)c1ccc(Br)o1
REMARK SMILES IDX 12 1 11 2 10 3 9 4 8 5 6 6 7 7 5 8 1 9 2 10 3 11 81 12 4 13
REMARK SMILES IDX 80 14 82 15 83 16 84 18 85 19 86 20 90 21 87 22 88 23 89 24
REMARK SMILES IDX 13 25 14 26 15 27 16 28 17 29 18 30 79 31 19 32 78 33 20 34
REMARK SMILES IDX 21 35 22 36 72 37 23 38 77 39 71 40 73 41 24 42 76 43 70 44
REMARK SMILES IDX 69 45 25 47 57 48 37 49 56 50 38 51 41 52 55 53 74 54 39 55
REMARK SMILES IDX 40 56 54 58 75 59 42 60 26 61 27 62 35 63 28 64 30 65 36 66
REMARK SMILES IDX 29 67 31 68 32 69 33 70 34 71 58 72 59 73 67 74 60 75 62 76
REMARK SMILES IDX 68 77 61 78 63 79 64 80 65 81 66 82 43 83 44 84 52 85 45 86
REMARK SMILES IDX 47 87 53 88 46 89 48 90 49 91 50 92 51 93
REMARK H PARENT 82 17 73 46 41 57
REMARK Flexibility Score: inf
ROOT
ATOM      1  C   UNL     1      -2.626  -0.531  -3.424  1.00  0.00     0.202 C 
ENDROOT
BRANCH   1   2
ATOM      2  O   UNL     1      -3.027  -1.661  -2.666  1.00  0.00    -0.374 OA
BRANCH   2   3
ATOM      3  C   UNL     1      -4.171  -1.429  -1.886  1.00  0.00     0.202 C 
BRANCH   3   4
ATOM      4  C   UNL     1      -4.166  -0.168  -0.997  1.00  0.00     0.261 C 
BRANCH   4   5
ATOM      5  O   UNL     1      -2.869   0.202  -0.619  1.00  0.00    -0.460 OA
BRANCH   5   6
ATOM      6  C   UNL     1      -2.382  -0.673   0.278  1.00  0.00     0.338 C 
ATOM      7  O   UNL     1      -2.961  -1.583   0.847  1.00  0.00    -0.246 OA
BRANCH   6   8
ATOM      8  C   UNL     1      -0.942  -0.486   0.263  1.00  0.00     0.062 A 
ATOM      9  C   UNL     1       3.283  -0.262   0.059  1.00  0.00     0.046 C 
ATOM     10  C   UNL     1       1.789  -0.219   0.184  1.00  0.00    -0.027 A 
ATOM     11  C   UNL     1       1.187  -1.478   0.427  1.00  0.00     0.006 A 
ATOM     12  C   UNL     1       0.999   0.938  -0.005  1.00  0.00     0.045 A 
ATOM     13  C   UNL     1      -0.178  -1.602   0.527  1.00  0.00     0.016 A 
ATOM     14  C   UNL     1      -0.363   0.744  -0.081  1.00  0.00     0.042 A 
BRANCH  12  15
ATOM     15  N   UNL     1       1.601   2.215  -0.051  1.00  0.00    -0.319 N 
ATOM     16  C   UNL     1       1.180   3.532  -0.168  1.00  0.00     0.291 C 
ATOM     17  H   UNL     1       2.581   2.155   0.018  1.00  0.00     0.170 HD
ATOM     18  O   UNL     1       2.084   4.373  -0.093  1.00  0.00    -0.265 OA
BRANCH  16  19
ATOM     19  C   UNL     1      -0.182   3.918  -0.448  1.00  0.00     0.193 A 
ATOM     20  C   UNL     1      -1.409   3.670   0.141  1.00  0.00     0.057 A 
ATOM     21  O   UNL     1      -0.378   4.746  -1.527  1.00  0.00    -0.444 OA
ATOM     22  C   UNL     1      -2.389   4.107  -0.786  1.00  0.00     0.059 A 
ATOM     23  C   UNL     1      -1.716   4.839  -1.732  1.00  0.00     0.170 A 
ATOM     24  Br  UNL     1      -2.502   5.789  -3.130  1.00  0.00    -0.008 Br
ENDBRANCH  16  19
ENDBRANCH  12  15
ENDBRANCH   6   8
ENDBRANCH   5   6
ENDBRANCH   4   5
ENDBRANCH   3   4
ENDBRANCH   2   3
ENDBRANCH   1   2
BRANCH   1  25
ATOM     25  C   UNL     1      -3.677   0.591  -3.915  1.00  0.00     0.261 C 
BRANCH  25  26
ATOM     26  O   UNL     1      -5.145   0.274  -3.634  1.00  0.00    -0.460 OA
BRANCH  26  27
ATOM     27  C   UNL     1      -6.364   0.943  -3.499  1.00  0.00     0.338 C 
ATOM     28  O   UNL     1      -6.703   1.926  -4.087  1.00  0.00    -0.246 OA
BRANCH  27  29
ATOM     29  C   UNL     1      -7.235   0.293  -2.373  1.00  0.00     0.060 A 
ATOM     30  C   UNL     1      -8.079   1.048  -1.566  1.00  0.00     0.016 A 
ATOM     31  C   UNL     1      -7.055  -0.988  -1.900  1.00  0.00     0.016 A 
ATOM     32  C   UNL     1      -8.145   0.798  -0.174  1.00  0.00     0.010 A 
ATOM     33  C   UNL     1      -6.945  -1.153  -0.518  1.00  0.00     0.010 A 
ATOM     34  C   UNL     1      -7.261  -0.101   0.343  1.00  0.00    -0.014 A 
BRANCH  34  35
ATOM     35  C   UNL     1      -6.571  -0.010   1.651  1.00  0.00     0.031 A 
ATOM     36  C   UNL     1      -6.821  -1.145   2.587  1.00  0.00     0.074 A 
ATOM     37  C   UNL     1      -5.528   0.861   1.870  1.00  0.00     0.049 A 
ATOM     38  N   UNL     1      -6.410  -1.226   3.804  1.00  0.00    -0.248 NA
ATOM     39  C   UNL     1      -7.650  -2.295   2.210  1.00  0.00     0.031 C 
ATOM     40  C   UNL     1      -4.381   0.594   2.762  1.00  0.00     0.029 A 
ATOM     41  N   UNL     1      -5.173   2.122   1.329  1.00  0.00    -0.354 N 
ATOM     42  C   UNL     1      -6.595  -2.538   4.205  1.00  0.00     0.074 A 
ATOM     43  C   UNL     1      -7.524  -3.092   3.269  1.00  0.00     0.031 C 
ATOM     44  C   UNL     1      -3.607   1.688   2.863  1.00  0.00     0.029 A 
ATOM     45  C   UNL     1      -4.344   2.784   2.260  1.00  0.00     0.049 A 
ATOM     46  H   UNL     1      -5.456   2.475   0.455  1.00  0.00     0.167 HD
ATOM     47  C   UNL     1      -5.793  -3.051   5.176  1.00  0.00     0.034 A 
ATOM     48  C   UNL     1      -4.579   3.964   2.925  1.00  0.00     0.034 A 
ATOM     49  C   UNL     1      -4.981  -1.973   5.767  1.00  0.00     0.049 A 
ATOM     50  C   UNL     1      -4.710   3.732   4.436  1.00  0.00     0.074 A 
ATOM     51  C   UNL     1      -3.650  -1.618   5.645  1.00  0.00     0.029 A 
ATOM     52  N   UNL     1      -5.625  -0.877   6.342  1.00  0.00    -0.354 N 
ATOM     53  N   UNL     1      -4.680   2.543   4.976  1.00  0.00    -0.248 NA
ATOM     54  C   UNL     1      -4.901   4.770   5.452  1.00  0.00     0.031 C 
ATOM     55  C   UNL     1      -3.524  -0.258   6.054  1.00  0.00     0.029 A 
ATOM     56  C   UNL     1      -4.764   0.202   6.473  1.00  0.00     0.049 A 
ATOM     57  H   UNL     1      -6.570  -0.871   6.619  1.00  0.00     0.167 HD
ATOM     58  C   UNL     1      -4.991   2.602   6.298  1.00  0.00     0.074 A 
ATOM     59  C   UNL     1      -5.055   4.029   6.567  1.00  0.00     0.031 C 
ATOM     60  C   UNL     1      -5.241   1.472   7.027  1.00  0.00     0.034 A 
BRANCH  47  61
ATOM     61  C   UNL     1      -5.555  -4.535   5.471  1.00  0.00     0.023 A 
ATOM     62  C   UNL     1      -4.634  -4.825   6.505  1.00  0.00     0.012 A 
ATOM     63  C   UNL     1      -6.077  -5.670   4.790  1.00  0.00     0.148 A 
ATOM     64  C   UNL     1      -4.242  -6.130   6.831  1.00  0.00     0.002 A 
ATOM     65  C   UNL     1      -5.724  -6.980   5.149  1.00  0.00     0.091 A 
ATOM     66  F   UNL     1      -6.883  -5.522   3.740  1.00  0.00    -0.205 F 
ATOM     67  C   UNL     1      -4.794  -7.210   6.161  1.00  0.00     0.022 A 
BRANCH  65  68
ATOM     68  S   UNL     1      -6.420  -8.446   4.350  1.00  0.00     0.127 S 
ATOM     69  O   UNL     1      -5.226  -9.105   3.817  1.00  0.00    -0.237 OA
ATOM     70  O   UNL     1      -7.044  -9.145   5.474  1.00  0.00    -0.237 OA
ATOM     71  O   UNL     1      -7.354  -7.969   3.338  1.00  0.00    -0.744 OA
ENDBRANCH  65  68
ENDBRANCH  47  61
BRANCH  48  72
ATOM     72  C   UNL     1      -5.299   5.025   2.167  1.00  0.00     0.023 A 
ATOM     73  C   UNL     1      -4.598   5.683   1.129  1.00  0.00     0.012 A 
ATOM     74  C   UNL     1      -6.691   5.014   2.138  1.00  0.00     0.148 A 
ATOM     75  C   UNL     1      -5.254   6.120  -0.026  1.00  0.00     0.002 A 
ATOM     76  C   UNL     1      -7.326   5.359   0.949  1.00  0.00     0.091 A 
ATOM     77  F   UNL     1      -7.355   4.465   3.163  1.00  0.00    -0.205 F 
ATOM     78  C   UNL     1      -6.616   5.915  -0.136  1.00  0.00     0.022 A 
BRANCH  76  79
ATOM     79  S   UNL     1      -8.598   4.233   0.386  1.00  0.00     0.127 S 
ATOM     80  O   UNL     1      -9.484   5.059  -0.424  1.00  0.00    -0.237 OA
ATOM     81  O   UNL     1      -7.680   3.389  -0.370  1.00  0.00    -0.237 OA
ATOM     82  O   UNL     1      -9.196   3.643   1.572  1.00  0.00    -0.744 OA
ENDBRANCH  76  79
ENDBRANCH  48  72
BRANCH  60  83
ATOM     83  C   UNL     1      -5.979   1.487   8.347  1.00  0.00     0.023 A 
ATOM     84  C   UNL     1      -6.842   2.545   8.699  1.00  0.00     0.012 A 
ATOM     85  C   UNL     1      -5.962   0.362   9.207  1.00  0.00     0.148 A 
ATOM     86  C   UNL     1      -7.567   2.540   9.893  1.00  0.00     0.002 A 
ATOM     87  C   UNL     1      -6.791   0.304  10.320  1.00  0.00     0.091 A 
ATOM     88  F   UNL     1      -5.127  -0.657   8.960  1.00  0.00    -0.205 F 
ATOM     89  C   UNL     1      -7.556   1.410  10.695  1.00  0.00     0.022 A 
BRANCH  87  90
ATOM     90  S   UNL     1      -7.035  -1.230  11.224  1.00  0.00     0.127 S 
ATOM     91  O   UNL     1      -6.181  -1.027  12.391  1.00  0.00    -0.237 OA
ATOM     92  O   UNL     1      -8.472  -1.195  11.504  1.00  0.00    -0.237 OA
ATOM     93  O   UNL     1      -6.631  -2.289  10.311  1.00  0.00    -0.744 OA
ENDBRANCH  87  90
ENDBRANCH  60  83
ENDBRANCH  34  35
ENDBRANCH  27  29
ENDBRANCH  26  27
ENDBRANCH  25  26
ENDBRANCH   1  25
TORSDOF 19
