REMARK SMILES NC(=O)C[C@@H](C(=O)OCCOCCOC(=O)c1ccc(-c2c3nc(c(-c4cccc(S(=O)(=O)[O-])c4F)c4ccc([nH]4)c(-c4cccc(S(=O)(=O)[O-])c4F)c4nc(c(-c5cccc(S(=O)(=O)[O-])c5F)c5ccc2[nH]5)C=C4)C=C3)cc1)N1C(=O)/C(=C/c2ccccc2)SC1=S
REMARK SMILES IDX 12 1 11 2 10 3 9 4 8 5 6 6 7 7 5 8 4 9 2 10 1 11 3 14 80 15
REMARK SMILES IDX 81 16 92 17 82 18 83 19 91 20 93 21 84 22 85 23 86 24 90 25
REMARK SMILES IDX 87 26 89 27 88 28 13 29 14 30 15 31 16 32 17 33 18 34 79 35
REMARK SMILES IDX 19 36 78 37 20 38 21 39 22 40 72 41 23 42 77 43 71 44 73 45
REMARK SMILES IDX 24 46 76 47 70 48 69 49 25 51 57 52 37 53 56 54 38 55 41 56
REMARK SMILES IDX 55 57 74 58 39 59 40 60 54 62 75 63 42 64 26 65 27 66 35 67
REMARK SMILES IDX 28 68 30 69 36 70 29 71 31 72 32 73 33 74 34 75 58 76 59 77
REMARK SMILES IDX 67 78 60 79 62 80 68 81 61 82 63 83 64 84 65 85 66 86 43 87
REMARK SMILES IDX 44 88 52 89 45 90 47 91 53 92 46 93 48 94 49 95 50 96 51 97
REMARK H PARENT 1 12 1 13 73 50 41 61
REMARK Flexibility Score: inf
ROOT
ATOM      1  C   UNL     1       4.386  -0.987  -1.051  1.00  0.00     0.202 C 
ENDROOT
BRANCH   1   2
ATOM      2  O   UNL     1       5.105  -0.007  -0.307  1.00  0.00    -0.374 OA
BRANCH   2   3
ATOM      3  C   UNL     1       4.353   0.876   0.525  1.00  0.00     0.202 C 
BRANCH   3   4
ATOM      4  C   UNL     1       3.684   2.067  -0.168  1.00  0.00     0.261 C 
BRANCH   4   5
ATOM      5  O   UNL     1       2.583   1.644  -0.996  1.00  0.00    -0.462 OA
BRANCH   5   6
ATOM      6  C   UNL     1       2.841   1.578  -2.327  1.00  0.00     0.329 C 
ATOM      7  O   UNL     1       3.921   1.884  -2.823  1.00  0.00    -0.250 OA
BRANCH   6   8
ATOM      8  C   UNL     1       1.637   1.050  -3.144  1.00  0.00     0.211 C 
BRANCH   8   9
ATOM      9  C   UNL     1       0.794   0.012  -2.394  1.00  0.00     0.137 C 
BRANCH   9  10
ATOM     10  C   UNL     1      -0.136   0.627  -1.381  1.00  0.00     0.220 C 
ATOM     11  N   UNL     1       0.139   0.332  -0.078  1.00  0.00    -0.370 N 
ATOM     12  H   UNL     1      -0.427   0.699   0.640  1.00  0.00     0.159 HD
ATOM     13  H   UNL     1       0.902  -0.248   0.145  1.00  0.00     0.159 HD
ATOM     14  O   UNL     1      -1.091   1.321  -1.704  1.00  0.00    -0.275 OA
ENDBRANCH   9  10
ENDBRANCH   8   9
BRANCH   8  15
ATOM     15  N   UNL     1       2.261   0.570  -4.428  1.00  0.00    -0.278 N 
ATOM     16  C   UNL     1       2.650   1.581  -5.311  1.00  0.00     0.267 C 
ATOM     17  C   UNL     1       2.676  -0.703  -4.776  1.00  0.00     0.149 C 
ATOM     18  O   UNL     1       2.338   2.762  -5.235  1.00  0.00    -0.268 OA
ATOM     19  C   UNL     1       3.521   1.042  -6.386  1.00  0.00     0.081 C 
ATOM     20  S   UNL     1       3.605  -0.662  -6.268  1.00  0.00    -0.054 SA
ATOM     21  S   UNL     1       2.423  -2.184  -4.053  1.00  0.00    -0.052 S 
ATOM     22  C   UNL     1       4.146   1.817  -7.283  1.00  0.00     0.029 C 
BRANCH  22  23
ATOM     23  C   UNL     1       4.924   1.298  -8.414  1.00  0.00    -0.024 A 
ATOM     24  C   UNL     1       6.309   1.472  -8.486  1.00  0.00     0.008 A 
ATOM     25  C   UNL     1       4.266   0.599  -9.435  1.00  0.00     0.008 A 
ATOM     26  C   UNL     1       7.025   0.940  -9.564  1.00  0.00     0.001 A 
ATOM     27  C   UNL     1       4.982   0.062 -10.504  1.00  0.00     0.001 A 
ATOM     28  C   UNL     1       6.362   0.233 -10.568  1.00  0.00     0.000 A 
ENDBRANCH  22  23
ENDBRANCH   8  15
ENDBRANCH   6   8
ENDBRANCH   5   6
ENDBRANCH   4   5
ENDBRANCH   3   4
ENDBRANCH   2   3
ENDBRANCH   1   2
BRANCH   1  29
ATOM     29  C   UNL     1       3.940  -2.243  -0.297  1.00  0.00     0.261 C 
BRANCH  29  30
ATOM     30  O   UNL     1       2.986  -1.929   0.732  1.00  0.00    -0.460 OA
BRANCH  30  31
ATOM     31  C   UNL     1       3.478  -2.042   1.987  1.00  0.00     0.338 C 
ATOM     32  O   UNL     1       4.589  -2.451   2.309  1.00  0.00    -0.246 OA
BRANCH  31  33
ATOM     33  C   UNL     1       2.563  -1.413   2.953  1.00  0.00     0.060 A 
ATOM     34  C   UNL     1       3.127  -0.515   3.867  1.00  0.00     0.016 A 
ATOM     35  C   UNL     1       1.205  -1.736   3.014  1.00  0.00     0.016 A 
ATOM     36  C   UNL     1       2.353   0.002   4.900  1.00  0.00     0.010 A 
ATOM     37  C   UNL     1       0.429  -1.212   4.054  1.00  0.00     0.010 A 
ATOM     38  C   UNL     1       1.013  -0.383   5.029  1.00  0.00    -0.014 A 
BRANCH  38  39
ATOM     39  C   UNL     1       0.287  -0.043   6.276  1.00  0.00     0.031 A 
ATOM     40  C   UNL     1       0.122  -1.099   7.336  1.00  0.00     0.074 A 
ATOM     41  C   UNL     1      -0.177   1.202   6.482  1.00  0.00     0.049 A 
ATOM     42  N   UNL     1      -0.430  -1.006   8.517  1.00  0.00    -0.248 NA
ATOM     43  C   UNL     1       0.649  -2.438   7.023  1.00  0.00     0.031 C 
ATOM     44  C   UNL     1      -0.066   2.312   5.538  1.00  0.00     0.029 A 
ATOM     45  N   UNL     1      -0.842   1.736   7.556  1.00  0.00    -0.354 N 
ATOM     46  C   UNL     1      -0.344  -2.275   9.077  1.00  0.00     0.074 A 
ATOM     47  C   UNL     1       0.298  -3.126   8.099  1.00  0.00     0.031 C 
ATOM     48  C   UNL     1      -0.652   3.397   6.071  1.00  0.00     0.029 A 
ATOM     49  C   UNL     1      -1.196   3.053   7.383  1.00  0.00     0.049 A 
ATOM     50  H   UNL     1      -1.047   1.226   8.372  1.00  0.00     0.167 HD
ATOM     51  C   UNL     1      -0.744  -2.693  10.302  1.00  0.00     0.034 A 
ATOM     52  C   UNL     1      -1.887   3.881   8.191  1.00  0.00     0.034 A 
ATOM     53  C   UNL     1      -1.360  -1.841  11.282  1.00  0.00     0.049 A 
ATOM     54  C   UNL     1      -2.350   3.382   9.535  1.00  0.00     0.074 A 
ATOM     55  C   UNL     1      -1.750  -2.154  12.572  1.00  0.00     0.029 A 
ATOM     56  N   UNL     1      -1.693  -0.511  11.076  1.00  0.00    -0.354 N 
ATOM     57  N   UNL     1      -2.146   2.217  10.100  1.00  0.00    -0.248 NA
ATOM     58  C   UNL     1      -3.111   4.327  10.366  1.00  0.00     0.031 C 
ATOM     59  C   UNL     1      -2.348  -1.021  13.135  1.00  0.00     0.029 A 
ATOM     60  C   UNL     1      -2.302   0.007  12.207  1.00  0.00     0.049 A 
ATOM     61  H   UNL     1      -1.522  -0.008  10.247  1.00  0.00     0.167 HD
ATOM     62  C   UNL     1      -2.716   2.301  11.366  1.00  0.00     0.074 A 
ATOM     63  C   UNL     1      -3.258   3.639  11.490  1.00  0.00     0.031 C 
ATOM     64  C   UNL     1      -2.793   1.355  12.336  1.00  0.00     0.034 A 
BRANCH  51  65
ATOM     65  C   UNL     1      -0.509  -4.139  10.654  1.00  0.00     0.023 A 
ATOM     66  C   UNL     1       0.800  -4.597  10.906  1.00  0.00     0.012 A 
ATOM     67  C   UNL     1      -1.589  -5.037  10.770  1.00  0.00     0.148 A 
ATOM     68  C   UNL     1       1.036  -5.933  11.228  1.00  0.00     0.002 A 
ATOM     69  C   UNL     1      -1.350  -6.356  11.136  1.00  0.00     0.091 A 
ATOM     70  F   UNL     1      -2.824  -4.591  10.501  1.00  0.00    -0.205 F 
ATOM     71  C   UNL     1      -0.038  -6.809  11.353  1.00  0.00     0.022 A 
BRANCH  69  72
ATOM     72  S   UNL     1      -2.677  -7.538  11.396  1.00  0.00     0.127 S 
ATOM     73  O   UNL     1      -2.566  -8.374  10.202  1.00  0.00    -0.237 OA
ATOM     74  O   UNL     1      -2.268  -8.194  12.639  1.00  0.00    -0.237 OA
ATOM     75  O   UNL     1      -3.897  -6.750  11.502  1.00  0.00    -0.744 OA
ENDBRANCH  69  72
ENDBRANCH  51  65
BRANCH  52  76
ATOM     76  C   UNL     1      -2.139   5.290   7.774  1.00  0.00     0.023 A 
ATOM     77  C   UNL     1      -1.493   6.339   8.456  1.00  0.00     0.012 A 
ATOM     78  C   UNL     1      -2.997   5.592   6.700  1.00  0.00     0.148 A 
ATOM     79  C   UNL     1      -1.721   7.668   8.094  1.00  0.00     0.002 A 
ATOM     80  C   UNL     1      -3.177   6.914   6.310  1.00  0.00     0.091 A 
ATOM     81  F   UNL     1      -3.613   4.579   6.074  1.00  0.00    -0.205 F 
ATOM     82  C   UNL     1      -2.553   7.954   7.016  1.00  0.00     0.022 A 
BRANCH  80  83
ATOM     83  S   UNL     1      -4.130   7.370   4.858  1.00  0.00     0.127 S 
ATOM     84  O   UNL     1      -5.281   8.043   5.455  1.00  0.00    -0.237 OA
ATOM     85  O   UNL     1      -3.198   8.250   4.152  1.00  0.00    -0.237 OA
ATOM     86  O   UNL     1      -4.418   6.120   4.168  1.00  0.00    -0.744 OA
ENDBRANCH  80  83
ENDBRANCH  52  76
BRANCH  64  87
ATOM     87  C   UNL     1      -3.454   1.738  13.636  1.00  0.00     0.023 A 
ATOM     88  C   UNL     1      -4.851   1.918  13.688  1.00  0.00     0.012 A 
ATOM     89  C   UNL     1      -2.699   1.853  14.819  1.00  0.00     0.148 A 
ATOM     90  C   UNL     1      -5.479   2.244  14.890  1.00  0.00     0.002 A 
ATOM     91  C   UNL     1      -3.338   2.127  16.023  1.00  0.00     0.091 A 
ATOM     92  F   UNL     1      -1.369   1.697  14.748  1.00  0.00    -0.205 F 
ATOM     93  C   UNL     1      -4.726   2.336  16.058  1.00  0.00     0.022 A 
BRANCH  91  94
ATOM     94  S   UNL     1      -2.461   2.167  17.590  1.00  0.00     0.127 S 
ATOM     95  O   UNL     1      -2.425   3.600  17.875  1.00  0.00    -0.237 OA
ATOM     96  O   UNL     1      -3.346   1.394  18.462  1.00  0.00    -0.237 OA
ATOM     97  O   UNL     1      -1.168   1.544  17.341  1.00  0.00    -0.744 OA
ENDBRANCH  91  94
ENDBRANCH  64  87
ENDBRANCH  38  39
ENDBRANCH  31  33
ENDBRANCH  30  31
ENDBRANCH  29  30
ENDBRANCH   1  29
TORSDOF 21
