REMARK SMILES O=C(CC1(NC(=O)C2(c3ccccc3)CC2)CCC1)OCCOCCOC(=O)c1ccc(-c2c3nc(c(-c4cccc(S(=O)(=O)[O-])c4F)c4ccc([nH]4)c(-c4cccc(S(=O)(=O)[O-])c4F)c4nc(c(-c5cccc(S(=O)(=O)[O-])c5F)c5ccc2[nH]5)C=C4)C=C3)cc1
REMARK SMILES IDX 22 1 21 2 20 3 2 4 1 5 3 6 4 7 17 8 19 9 18 10 5 11 6 12
REMARK SMILES IDX 7 14 8 15 15 16 16 17 9 18 10 19 14 20 11 21 13 22 12 23
REMARK SMILES IDX 23 24 24 25 25 26 26 27 27 28 28 29 29 30 30 31 91 32 31 33
REMARK SMILES IDX 90 34 32 35 33 36 34 37 84 38 35 39 89 40 83 41 85 42 36 43
REMARK SMILES IDX 88 44 82 45 81 46 37 48 69 49 49 50 68 51 50 52 53 53 67 54
REMARK SMILES IDX 86 55 51 56 52 57 66 59 87 60 54 61 38 62 39 63 47 64 40 65
REMARK SMILES IDX 42 66 48 67 41 68 43 69 44 70 45 71 46 72 70 73 71 74 79 75
REMARK SMILES IDX 72 76 74 77 80 78 73 79 75 80 76 81 77 82 78 83 55 84 56 85
REMARK SMILES IDX 64 86 57 87 59 88 65 89 58 90 60 91 61 92 62 93 63 94
REMARK H PARENT 5 13 85 47 53 58
REMARK Flexibility Score: inf
ROOT
ATOM      1  C   UNL     1       2.780  -1.050  -2.205  1.00  0.00     0.202 C 
ENDROOT
BRANCH   1   2
ATOM      2  C   UNL     1       1.998  -1.675  -1.044  1.00  0.00     0.261 C 
BRANCH   2   3
ATOM      3  O   UNL     1       1.132  -0.724  -0.409  1.00  0.00    -0.463 OA
BRANCH   3   4
ATOM      4  C   UNL     1       1.205  -0.680   0.965  1.00  0.00     0.308 C 
ATOM      5  O   UNL     1       0.335  -1.222   1.640  1.00  0.00    -0.252 OA
BRANCH   4   6
ATOM      6  C   UNL     1       2.302   0.512   1.476  1.00  0.00     0.151 C 
BRANCH   6   7
ATOM      7  C   UNL     1       3.943   0.560   2.907  1.00  0.00     0.051 C 
ATOM      8  C   UNL     1       3.987   0.321   4.752  1.00  0.00     0.029 C 
ATOM      9  C   UNL     1       5.348  -0.609   3.245  1.00  0.00     0.029 C 
ATOM     10  C   UNL     1       4.767  -0.986   4.607  1.00  0.00     0.005 C 
BRANCH   7  11
ATOM     11  N   UNL     1       5.149   1.956   3.058  1.00  0.00    -0.349 N 
ATOM     12  C   UNL     1       5.826   2.636   2.048  1.00  0.00     0.231 C 
ATOM     13  H   UNL     1       5.337   2.259   3.976  1.00  0.00     0.164 HD
ATOM     14  O   UNL     1       6.841   3.295   2.228  1.00  0.00    -0.274 OA
BRANCH  12  15
ATOM     15  C   UNL     1       5.093   2.570   0.781  1.00  0.00     0.074 C 
ATOM     16  C   UNL     1       4.856   3.820  -0.029  1.00  0.00     0.023 C 
ATOM     17  C   UNL     1       5.684   2.693  -0.586  1.00  0.00     0.023 C 
BRANCH  15  18
ATOM     18  C   UNL     1       3.981   1.675   1.111  1.00  0.00    -0.032 A 
ATOM     19  C   UNL     1       2.854   2.312   2.387  1.00  0.00     0.005 A 
ATOM     20  C   UNL     1       4.218  -0.107   0.937  1.00  0.00     0.005 A 
ATOM     21  C   UNL     1       1.975   1.185   3.452  1.00  0.00     0.000 A 
ATOM     22  C   UNL     1       3.309  -1.231   2.003  1.00  0.00     0.000 A 
ATOM     23  C   UNL     1       2.197  -0.579   3.256  1.00  0.00     0.000 A 
ENDBRANCH  15  18
ENDBRANCH  12  15
ENDBRANCH   7  11
ENDBRANCH   6   7
ENDBRANCH   4   6
ENDBRANCH   3   4
ENDBRANCH   2   3
ENDBRANCH   1   2
BRANCH   1  24
ATOM     24  O   UNL     1       3.011   0.353  -2.043  1.00  0.00    -0.374 OA
BRANCH  24  25
ATOM     25  C   UNL     1       1.939   1.155  -2.563  1.00  0.00     0.202 C 
BRANCH  25  26
ATOM     26  C   UNL     1       2.459   2.064  -3.678  1.00  0.00     0.261 C 
BRANCH  26  27
ATOM     27  O   UNL     1       3.107   1.245  -4.662  1.00  0.00    -0.460 OA
BRANCH  27  28
ATOM     28  C   UNL     1       4.459   1.188  -4.550  1.00  0.00     0.338 C 
ATOM     29  O   UNL     1       5.182   2.007  -4.007  1.00  0.00    -0.246 OA
BRANCH  28  30
ATOM     30  C   UNL     1       4.936  -0.122  -5.053  1.00  0.00     0.060 A 
ATOM     31  C   UNL     1       6.153  -0.618  -4.560  1.00  0.00     0.016 A 
ATOM     32  C   UNL     1       4.184  -0.882  -5.954  1.00  0.00     0.016 A 
ATOM     33  C   UNL     1       6.625  -1.865  -4.977  1.00  0.00     0.010 A 
ATOM     34  C   UNL     1       4.654  -2.126  -6.367  1.00  0.00     0.010 A 
ATOM     35  C   UNL     1       5.882  -2.615  -5.894  1.00  0.00    -0.014 A 
BRANCH  35  36
ATOM     36  C   UNL     1       6.397  -3.876  -6.468  1.00  0.00     0.031 A 
ATOM     37  C   UNL     1       7.053  -3.833  -7.816  1.00  0.00     0.074 A 
ATOM     38  C   UNL     1       6.147  -5.048  -5.858  1.00  0.00     0.049 A 
ATOM     39  N   UNL     1       7.393  -4.820  -8.600  1.00  0.00    -0.248 NA
ATOM     40  C   UNL     1       7.345  -2.496  -8.362  1.00  0.00     0.031 C 
ATOM     41  C   UNL     1       5.493  -5.202  -4.559  1.00  0.00     0.029 A 
ATOM     42  N   UNL     1       6.359  -6.335  -6.284  1.00  0.00    -0.354 N 
ATOM     43  C   UNL     1       7.899  -4.227  -9.748  1.00  0.00     0.074 A 
ATOM     44  C   UNL     1       7.833  -2.794  -9.557  1.00  0.00     0.031 C 
ATOM     45  C   UNL     1       5.303  -6.511  -4.320  1.00  0.00     0.029 A 
ATOM     46  C   UNL     1       5.800  -7.281  -5.458  1.00  0.00     0.049 A 
ATOM     47  H   UNL     1       6.862  -6.559  -7.100  1.00  0.00     0.167 HD
ATOM     48  C   UNL     1       8.385  -4.825 -10.860  1.00  0.00     0.034 A 
ATOM     49  C   UNL     1       5.668  -8.612  -5.625  1.00  0.00     0.034 A 
ATOM     50  C   UNL     1       8.483  -6.247 -11.028  1.00  0.00     0.049 A 
ATOM     51  C   UNL     1       6.207  -9.252  -6.877  1.00  0.00     0.074 A 
ATOM     52  C   UNL     1       9.056  -6.954 -12.069  1.00  0.00     0.029 A 
ATOM     53  N   UNL     1       7.980  -7.179 -10.135  1.00  0.00    -0.354 N 
ATOM     54  N   UNL     1       6.836  -8.692  -7.883  1.00  0.00    -0.248 NA
ATOM     55  C   UNL     1       6.033 -10.706  -7.013  1.00  0.00     0.031 C 
ATOM     56  C   UNL     1       8.892  -8.319 -11.808  1.00  0.00     0.029 A 
ATOM     57  C   UNL     1       8.210  -8.457 -10.609  1.00  0.00     0.049 A 
ATOM     58  H   UNL     1       7.527  -6.964  -9.289  1.00  0.00     0.167 HD
ATOM     59  C   UNL     1       7.149  -9.725  -8.760  1.00  0.00     0.074 A 
ATOM     60  C   UNL     1       6.660 -10.948  -8.157  1.00  0.00     0.031 C 
ATOM     61  C   UNL     1       7.764  -9.665  -9.966  1.00  0.00     0.034 A 
BRANCH  48  62
ATOM     62  C   UNL     1       8.890  -3.937 -11.958  1.00  0.00     0.023 A 
ATOM     63  C   UNL     1      10.179  -3.378 -11.849  1.00  0.00     0.012 A 
ATOM     64  C   UNL     1       8.114  -3.680 -13.103  1.00  0.00     0.148 A 
ATOM     65  C   UNL     1      10.684  -2.564 -12.860  1.00  0.00     0.002 A 
ATOM     66  C   UNL     1       8.633  -2.885 -14.117  1.00  0.00     0.091 A 
ATOM     67  F   UNL     1       6.879  -4.198 -13.167  1.00  0.00    -0.205 F 
ATOM     68  C   UNL     1       9.915  -2.324 -13.996  1.00  0.00     0.022 A 
BRANCH  66  69
ATOM     69  S   UNL     1       7.735  -2.545 -15.636  1.00  0.00     0.127 S 
ATOM     70  O   UNL     1       7.368  -1.141 -15.452  1.00  0.00    -0.237 OA
ATOM     71  O   UNL     1       8.756  -2.780 -16.658  1.00  0.00    -0.237 OA
ATOM     72  O   UNL     1       6.623  -3.484 -15.662  1.00  0.00    -0.744 OA
ENDBRANCH  66  69
ENDBRANCH  48  62
BRANCH  49  73
ATOM     73  C   UNL     1       5.013  -9.433  -4.569  1.00  0.00     0.023 A 
ATOM     74  C   UNL     1       5.798 -10.295  -3.781  1.00  0.00     0.012 A 
ATOM     75  C   UNL     1       3.630  -9.349  -4.321  1.00  0.00     0.148 A 
ATOM     76  C   UNL     1       5.215 -11.073  -2.779  1.00  0.00     0.002 A 
ATOM     77  C   UNL     1       3.063 -10.090  -3.289  1.00  0.00     0.091 A 
ATOM     78  F   UNL     1       2.885  -8.544  -5.093  1.00  0.00    -0.205 F 
ATOM     79  C   UNL     1       3.850 -10.963  -2.525  1.00  0.00     0.022 A 
BRANCH  77  80
ATOM     80  S   UNL     1       1.337  -9.867  -2.846  1.00  0.00     0.127 S 
ATOM     81  O   UNL     1       0.664 -10.787  -3.759  1.00  0.00    -0.237 OA
ATOM     82  O   UNL     1       1.309 -10.268  -1.438  1.00  0.00    -0.237 OA
ATOM     83  O   UNL     1       1.096  -8.444  -3.058  1.00  0.00    -0.744 OA
ENDBRANCH  77  80
ENDBRANCH  49  73
BRANCH  61  84
ATOM     84  C   UNL     1       7.948 -10.951 -10.721  1.00  0.00     0.023 A 
ATOM     85  C   UNL     1       6.861 -11.484 -11.440  1.00  0.00     0.012 A 
ATOM     86  C   UNL     1       9.208 -11.572 -10.805  1.00  0.00     0.148 A 
ATOM     87  C   UNL     1       7.024 -12.623 -12.226  1.00  0.00     0.002 A 
ATOM     88  C   UNL     1       9.372 -12.688 -11.618  1.00  0.00     0.091 A 
ATOM     89  F   UNL     1      10.224 -11.064 -10.091  1.00  0.00    -0.205 F 
ATOM     90  C   UNL     1       8.281 -13.217 -12.326  1.00  0.00     0.022 A 
BRANCH  88  91
ATOM     91  S   UNL     1      10.981 -13.450 -11.860  1.00  0.00     0.127 S 
ATOM     92  O   UNL     1      10.941 -14.548 -10.897  1.00  0.00    -0.237 OA
ATOM     93  O   UNL     1      10.930 -13.867 -13.263  1.00  0.00    -0.237 OA
ATOM     94  O   UNL     1      11.953 -12.399 -11.586  1.00  0.00    -0.744 OA
ENDBRANCH  88  91
ENDBRANCH  61  84
ENDBRANCH  35  36
ENDBRANCH  28  30
ENDBRANCH  27  28
ENDBRANCH  26  27
ENDBRANCH  25  26
ENDBRANCH  24  25
ENDBRANCH   1  24
TORSDOF 21
