REMARK SMILES O=C(CCC(=O)N1Cc2[nH]cnc2C[C@H]1C(=O)NCc1ccccc1)OCCOCCOC(=O)c1ccc(-c2c3nc(c(-c4cccc(S(=O)(=O)[O-])c4F)c4ccc([nH]4)c(-c4cccc(S(=O)(=O)[O-])c4F)c4nc(c(-c5cccc(S(=O)(=O)[O-])c5F)c5ccc2[nH]5)C=C4)C=C3)cc1
REMARK SMILES IDX 27 1 26 2 2 3 1 4 3 5 4 6 5 7 6 8 7 9 8 10 15 11 9 12 14 13
REMARK SMILES IDX 10 14 13 15 11 16 12 18 16 19 17 20 18 21 19 23 20 24 21 25
REMARK SMILES IDX 25 26 22 27 24 28 23 29 28 30 29 31 30 32 31 33 32 34 33 35
REMARK SMILES IDX 34 36 35 37 36 38 97 39 37 40 96 41 38 42 39 43 40 44 90 45
REMARK SMILES IDX 41 46 95 47 89 48 91 49 42 50 94 51 88 52 87 53 43 55 75 56
REMARK SMILES IDX 55 57 74 58 56 59 59 60 73 61 92 62 57 63 58 64 72 66 93 67
REMARK SMILES IDX 60 68 44 69 45 70 53 71 46 72 48 73 54 74 47 75 49 76 50 77
REMARK SMILES IDX 51 78 52 79 76 80 77 81 85 82 78 83 80 84 86 85 79 86 81 87
REMARK SMILES IDX 82 88 83 89 84 90 61 91 62 92 70 93 63 94 65 95 71 96 64 97
REMARK SMILES IDX 66 98 67 99 68 100 69 101
REMARK H PARENT 10 17 18 22 91 54 59 65
REMARK Flexibility Score: inf
ROOT
ATOM      1  C   UNL     1       4.893   0.382  -0.846  1.00  0.00     0.261 C 
ENDROOT
BRANCH   1   2
ATOM      2  O   UNL     1       3.470   0.213  -0.787  1.00  0.00    -0.463 OA
BRANCH   2   3
ATOM      3  C   UNL     1       2.671   0.831   0.111  1.00  0.00     0.306 C 
ATOM      4  O   UNL     1       1.451   0.826  -0.027  1.00  0.00    -0.252 OA
BRANCH   3   5
ATOM      5  C   UNL     1       3.299   1.443   1.326  1.00  0.00     0.132 C 
BRANCH   5   6
ATOM      6  C   UNL     1       3.249   0.444   2.469  1.00  0.00     0.112 C 
BRANCH   6   7
ATOM      7  C   UNL     1       4.521  -0.370   2.586  1.00  0.00     0.224 C 
ATOM      8  O   UNL     1       5.539   0.196   3.003  1.00  0.00    -0.275 OA
BRANCH   7   9
ATOM      9  N   UNL     1       4.531  -1.724   2.255  1.00  0.00    -0.324 N 
ATOM     10  C   UNL     1       5.796  -2.400   2.594  1.00  0.00     0.176 C 
ATOM     11  C   UNL     1       3.485  -2.398   1.394  1.00  0.00     0.180 C 
ATOM     12  C   UNL     1       5.763  -3.816   2.225  1.00  0.00     0.058 A 
ATOM     13  C   UNL     1       3.924  -3.635   0.568  1.00  0.00     0.093 C 
ATOM     14  N   UNL     1       6.525  -4.830   2.726  1.00  0.00    -0.347 N 
ATOM     15  C   UNL     1       4.936  -4.401   1.307  1.00  0.00     0.066 A 
ATOM     16  C   UNL     1       6.108  -5.979   2.107  1.00  0.00     0.197 A 
ATOM     17  H   UNL     1       7.237  -4.752   3.402  1.00  0.00     0.167 HD
ATOM     18  N   UNL     1       5.136  -5.747   1.251  1.00  0.00    -0.242 NA
BRANCH  11  19
ATOM     19  C   UNL     1       2.091  -2.643   2.016  1.00  0.00     0.243 C 
ATOM     20  O   UNL     1       1.086  -2.218   1.434  1.00  0.00    -0.273 OA
ATOM     21  N   UNL     1       1.851  -3.336   3.151  1.00  0.00    -0.350 N 
ATOM     22  H   UNL     1       0.915  -3.300   3.452  1.00  0.00     0.163 HD
BRANCH  21  23
ATOM     23  C   UNL     1       2.712  -4.116   4.001  1.00  0.00     0.151 C 
BRANCH  23  24
ATOM     24  C   UNL     1       3.320  -3.364   5.157  1.00  0.00    -0.029 A 
ATOM     25  C   UNL     1       4.072  -4.084   6.097  1.00  0.00     0.005 A 
ATOM     26  C   UNL     1       3.185  -1.980   5.332  1.00  0.00     0.005 A 
ATOM     27  C   UNL     1       4.689  -3.434   7.168  1.00  0.00     0.000 A 
ATOM     28  C   UNL     1       3.825  -1.325   6.385  1.00  0.00     0.000 A 
ATOM     29  C   UNL     1       4.576  -2.053   7.303  1.00  0.00     0.000 A 
ENDBRANCH  23  24
ENDBRANCH  21  23
ENDBRANCH  11  19
ENDBRANCH   7   9
ENDBRANCH   6   7
ENDBRANCH   5   6
ENDBRANCH   3   5
ENDBRANCH   2   3
ENDBRANCH   1   2
BRANCH   1  30
ATOM     30  C   UNL     1       5.348   1.564  -1.708  1.00  0.00     0.202 C 
BRANCH  30  31
ATOM     31  O   UNL     1       4.475   2.675  -1.844  1.00  0.00    -0.374 OA
BRANCH  31  32
ATOM     32  C   UNL     1       3.245   2.541  -2.565  1.00  0.00     0.202 C 
BRANCH  32  33
ATOM     33  C   UNL     1       3.144   1.675  -3.819  1.00  0.00     0.261 C 
BRANCH  33  34
ATOM     34  O   UNL     1       3.276   0.280  -3.540  1.00  0.00    -0.460 OA
BRANCH  34  35
ATOM     35  C   UNL     1       4.347  -0.317  -4.093  1.00  0.00     0.338 C 
ATOM     36  O   UNL     1       5.316   0.246  -4.597  1.00  0.00    -0.246 OA
BRANCH  35  37
ATOM     37  C   UNL     1       4.153  -1.770  -4.184  1.00  0.00     0.060 A 
ATOM     38  C   UNL     1       5.171  -2.447  -4.860  1.00  0.00     0.016 A 
ATOM     39  C   UNL     1       2.873  -2.320  -4.028  1.00  0.00     0.016 A 
ATOM     40  C   UNL     1       4.816  -3.503  -5.664  1.00  0.00     0.010 A 
ATOM     41  C   UNL     1       2.523  -3.390  -4.829  1.00  0.00     0.010 A 
ATOM     42  C   UNL     1       3.468  -3.870  -5.734  1.00  0.00    -0.014 A 
BRANCH  42  43
ATOM     43  C   UNL     1       3.088  -4.638  -6.904  1.00  0.00     0.031 A 
ATOM     44  C   UNL     1       3.531  -6.042  -6.933  1.00  0.00     0.074 A 
ATOM     45  C   UNL     1       2.389  -4.104  -7.924  1.00  0.00     0.049 A 
ATOM     46  N   UNL     1       4.362  -6.597  -7.753  1.00  0.00    -0.248 NA
ATOM     47  C   UNL     1       3.037  -6.910  -5.862  1.00  0.00     0.031 C 
ATOM     48  C   UNL     1       1.626  -2.852  -7.935  1.00  0.00     0.029 A 
ATOM     49  N   UNL     1       2.107  -4.659  -9.137  1.00  0.00    -0.354 N 
ATOM     50  C   UNL     1       4.359  -7.944  -7.412  1.00  0.00     0.074 A 
ATOM     51  C   UNL     1       3.630  -8.061  -6.172  1.00  0.00     0.031 C 
ATOM     52  C   UNL     1       0.770  -2.876  -8.981  1.00  0.00     0.029 A 
ATOM     53  C   UNL     1       1.031  -4.065  -9.774  1.00  0.00     0.049 A 
ATOM     54  H   UNL     1       2.619  -5.407  -9.521  1.00  0.00     0.167 HD
ATOM     55  C   UNL     1       4.793  -8.915  -8.256  1.00  0.00     0.034 A 
ATOM     56  C   UNL     1       0.341  -4.576 -10.818  1.00  0.00     0.034 A 
ATOM     57  C   UNL     1       5.561  -8.412  -9.357  1.00  0.00     0.049 A 
ATOM     58  C   UNL     1       1.184  -5.599 -11.477  1.00  0.00     0.074 A 
ATOM     59  C   UNL     1       6.755  -7.737  -9.496  1.00  0.00     0.029 A 
ATOM     60  N   UNL     1       4.937  -8.342 -10.577  1.00  0.00    -0.354 N 
ATOM     61  N   UNL     1       2.264  -5.338 -12.161  1.00  0.00    -0.248 NA
ATOM     62  C   UNL     1       0.999  -6.994 -11.112  1.00  0.00     0.031 C 
ATOM     63  C   UNL     1       6.610  -6.948 -10.673  1.00  0.00     0.029 A 
ATOM     64  C   UNL     1       5.324  -7.170 -11.172  1.00  0.00     0.049 A 
ATOM     65  H   UNL     1       4.323  -9.012 -10.956  1.00  0.00     0.167 HD
ATOM     66  C   UNL     1       3.084  -6.442 -11.962  1.00  0.00     0.074 A 
ATOM     67  C   UNL     1       2.199  -7.477 -11.443  1.00  0.00     0.031 C 
ATOM     68  C   UNL     1       4.446  -6.327 -11.961  1.00  0.00     0.034 A 
BRANCH  55  69
ATOM     69  C   UNL     1       4.292 -10.327  -8.210  1.00  0.00     0.023 A 
ATOM     70  C   UNL     1       5.075 -11.339  -8.797  1.00  0.00     0.012 A 
ATOM     71  C   UNL     1       2.989 -10.671  -7.790  1.00  0.00     0.148 A 
ATOM     72  C   UNL     1       4.587 -12.642  -8.940  1.00  0.00     0.002 A 
ATOM     73  C   UNL     1       2.546 -11.985  -7.847  1.00  0.00     0.091 A 
ATOM     74  F   UNL     1       2.125  -9.710  -7.435  1.00  0.00    -0.205 F 
ATOM     75  C   UNL     1       3.331 -12.973  -8.441  1.00  0.00     0.022 A 
BRANCH  73  76
ATOM     76  S   UNL     1       0.979 -12.434  -7.095  1.00  0.00     0.127 S 
ATOM     77  O   UNL     1       0.043 -12.211  -8.191  1.00  0.00    -0.237 OA
ATOM     78  O   UNL     1       1.190 -13.838  -6.738  1.00  0.00    -0.237 OA
ATOM     79  O   UNL     1       0.870 -11.543  -5.945  1.00  0.00    -0.744 OA
ENDBRANCH  73  76
ENDBRANCH  55  69
BRANCH  56  80
ATOM     80  C   UNL     1      -1.092  -4.404 -11.139  1.00  0.00     0.023 A 
ATOM     81  C   UNL     1      -1.536  -4.582 -12.462  1.00  0.00     0.012 A 
ATOM     82  C   UNL     1      -2.061  -4.296 -10.116  1.00  0.00     0.148 A 
ATOM     83  C   UNL     1      -2.902  -4.664 -12.756  1.00  0.00     0.002 A 
ATOM     84  C   UNL     1      -3.418  -4.357 -10.415  1.00  0.00     0.091 A 
ATOM     85  F   UNL     1      -1.654  -4.229  -8.841  1.00  0.00    -0.205 F 
ATOM     86  C   UNL     1      -3.843  -4.551 -11.735  1.00  0.00     0.022 A 
BRANCH  84  87
ATOM     87  S   UNL     1      -4.678  -4.210  -9.141  1.00  0.00     0.127 S 
ATOM     88  O   UNL     1      -5.675  -3.358  -9.791  1.00  0.00    -0.237 OA
ATOM     89  O   UNL     1      -5.087  -5.599  -8.958  1.00  0.00    -0.237 OA
ATOM     90  O   UNL     1      -4.013  -3.583  -8.006  1.00  0.00    -0.744 OA
ENDBRANCH  84  87
ENDBRANCH  56  80
BRANCH  68  91
ATOM     91  C   UNL     1       5.059  -5.054 -12.498  1.00  0.00     0.023 A 
ATOM     92  C   UNL     1       4.804  -3.808 -11.889  1.00  0.00     0.012 A 
ATOM     93  C   UNL     1       6.056  -5.132 -13.489  1.00  0.00     0.148 A 
ATOM     94  C   UNL     1       5.503  -2.662 -12.275  1.00  0.00     0.002 A 
ATOM     95  C   UNL     1       6.785  -3.998 -13.836  1.00  0.00     0.091 A 
ATOM     96  F   UNL     1       6.301  -6.323 -14.056  1.00  0.00    -0.205 F 
ATOM     97  C   UNL     1       6.504  -2.760 -13.238  1.00  0.00     0.022 A 
BRANCH  95  98
ATOM     98  S   UNL     1       8.186  -4.084 -14.958  1.00  0.00     0.127 S 
ATOM     99  O   UNL     1       7.610  -3.597 -16.209  1.00  0.00    -0.237 OA
ATOM    100  O   UNL     1       9.151  -3.175 -14.336  1.00  0.00    -0.237 OA
ATOM    101  O   UNL     1       8.606  -5.481 -14.957  1.00  0.00    -0.744 OA
ENDBRANCH  95  98
ENDBRANCH  68  91
ENDBRANCH  42  43
ENDBRANCH  35  37
ENDBRANCH  34  35
ENDBRANCH  33  34
ENDBRANCH  32  33
ENDBRANCH  31  32
ENDBRANCH  30  31
ENDBRANCH   1  30
TORSDOF 23
