REMARK SMILES O=C(OCCOCCOC(=O)[C@H]1Cc2c([nH]c3ccccc23)[C@@H](c2ccc(OC(F)(F)F)cc2)[NH2+]1)c1ccc(-c2c3nc(c(-c4cccc(S(=O)(=O)[O-])c4F)c4ccc([nH]4)c(-c4cccc(S(=O)(=O)[O-])c4F)c4nc(c(-c5cccc(S(=O)(=O)[O-])c5F)c5ccc2[nH]5)C=C4)C=C3)cc1
REMARK SMILES IDX 6 1 5 2 4 3 3 4 2 5 1 6 36 7 37 8 98 9 38 10 97 11 39 12
REMARK SMILES IDX 40 13 41 14 91 15 42 16 96 17 90 18 92 19 43 20 95 21 89 22
REMARK SMILES IDX 88 23 44 25 76 26 56 27 75 28 57 29 60 30 74 31 93 32 58 33
REMARK SMILES IDX 59 34 73 36 94 37 61 38 45 39 46 40 54 41 47 42 49 43 55 44
REMARK SMILES IDX 48 45 50 46 51 47 52 48 53 49 77 50 78 51 86 52 79 53 81 54
REMARK SMILES IDX 87 55 80 56 82 57 83 58 84 59 85 60 62 61 63 62 71 63 64 64
REMARK SMILES IDX 66 65 72 66 65 67 67 68 68 69 69 70 70 71 7 72 8 73 9 74
REMARK SMILES IDX 10 75 11 76 12 77 13 78 35 79 14 80 23 81 15 84 22 85 16 86
REMARK SMILES IDX 17 87 21 88 18 90 20 91 19 92 24 93 25 94 34 95 26 96 33 97
REMARK SMILES IDX 27 98 28 99 29 100 30 101 31 102 32 103
REMARK H PARENT 92 24 60 35 35 82 35 83 16 89
REMARK Flexibility Score: inf
ROOT
ATOM      1  O   UNL     1       4.094   0.580  -1.665  1.00  0.00    -0.374 OA
ENDROOT
BRANCH   1   2
ATOM      2  C   UNL     1       4.501  -0.708  -1.199  1.00  0.00     0.202 C 
BRANCH   2   3
ATOM      3  C   UNL     1       4.251  -1.037   0.279  1.00  0.00     0.261 C 
BRANCH   3   4
ATOM      4  O   UNL     1       2.850  -0.930   0.589  1.00  0.00    -0.460 OA
BRANCH   4   5
ATOM      5  C   UNL     1       2.187   0.135   1.102  1.00  0.00     0.338 C 
ATOM      6  O   UNL     1       0.970   0.056   1.251  1.00  0.00    -0.246 OA
BRANCH   5   7
ATOM      7  C   UNL     1       2.879   1.384   1.530  1.00  0.00     0.060 A 
ATOM      8  C   UNL     1       4.086   1.832   1.000  1.00  0.00     0.016 A 
ATOM      9  C   UNL     1       2.256   2.177   2.506  1.00  0.00     0.016 A 
ATOM     10  C   UNL     1       4.726   2.948   1.481  1.00  0.00     0.010 A 
ATOM     11  C   UNL     1       2.871   3.344   2.973  1.00  0.00     0.010 A 
ATOM     12  C   UNL     1       4.129   3.701   2.479  1.00  0.00    -0.014 A 
BRANCH  12  13
ATOM     13  C   UNL     1       4.978   4.742   3.066  1.00  0.00     0.031 A 
ATOM     14  C   UNL     1       5.658   4.431   4.361  1.00  0.00     0.074 A 
ATOM     15  C   UNL     1       5.305   5.807   2.313  1.00  0.00     0.049 A 
ATOM     16  N   UNL     1       6.516   5.145   5.030  1.00  0.00    -0.248 NA
ATOM     17  C   UNL     1       5.356   3.121   4.969  1.00  0.00     0.031 C 
ATOM     18  C   UNL     1       4.800   6.067   0.960  1.00  0.00     0.029 A 
ATOM     19  N   UNL     1       6.179   6.830   2.545  1.00  0.00    -0.354 N 
ATOM     20  C   UNL     1       6.800   4.408   6.172  1.00  0.00     0.074 A 
ATOM     21  C   UNL     1       6.059   3.172   6.088  1.00  0.00     0.031 C 
ATOM     22  C   UNL     1       5.397   7.165   0.473  1.00  0.00     0.029 A 
ATOM     23  C   UNL     1       6.264   7.722   1.503  1.00  0.00     0.049 A 
ATOM     24  H   UNL     1       6.697   6.920   3.377  1.00  0.00     0.167 HD
ATOM     25  C   UNL     1       7.599   4.755   7.204  1.00  0.00     0.034 A 
ATOM     26  C   UNL     1       6.950   8.875   1.418  1.00  0.00     0.034 A 
ATOM     27  C   UNL     1       8.332   5.988   7.235  1.00  0.00     0.049 A 
ATOM     28  C   UNL     1       7.786   9.264   2.606  1.00  0.00     0.074 A 
ATOM     29  C   UNL     1       9.123   6.500   8.243  1.00  0.00     0.029 A 
ATOM     30  N   UNL     1       8.356   6.906   6.192  1.00  0.00    -0.354 N 
ATOM     31  N   UNL     1       8.023   8.584   3.704  1.00  0.00    -0.248 NA
ATOM     32  C   UNL     1       8.453  10.569   2.548  1.00  0.00     0.031 C 
ATOM     33  C   UNL     1       9.604   7.744   7.818  1.00  0.00     0.029 A 
ATOM     34  C   UNL     1       9.142   7.989   6.532  1.00  0.00     0.049 A 
ATOM     35  H   UNL     1       7.881   6.800   5.336  1.00  0.00     0.167 HD
ATOM     36  C   UNL     1       8.887   9.363   4.459  1.00  0.00     0.074 A 
ATOM     37  C   UNL     1       9.148  10.559   3.678  1.00  0.00     0.031 C 
ATOM     38  C   UNL     1       9.408   9.129   5.689  1.00  0.00     0.034 A 
BRANCH  25  39
ATOM     39  C   UNL     1       7.633   3.824   8.383  1.00  0.00     0.023 A 
ATOM     40  C   UNL     1       8.322   2.597   8.310  1.00  0.00     0.012 A 
ATOM     41  C   UNL     1       6.924   4.151   9.555  1.00  0.00     0.148 A 
ATOM     42  C   UNL     1       8.271   1.693   9.373  1.00  0.00     0.002 A 
ATOM     43  C   UNL     1       6.911   3.264  10.624  1.00  0.00     0.091 A 
ATOM     44  F   UNL     1       6.241   5.304   9.588  1.00  0.00    -0.205 F 
ATOM     45  C   UNL     1       7.572   2.029  10.530  1.00  0.00     0.022 A 
BRANCH  43  46
ATOM     46  S   UNL     1       6.078   3.632  12.171  1.00  0.00     0.127 S 
ATOM     47  O   UNL     1       4.931   2.727  12.113  1.00  0.00    -0.237 OA
ATOM     48  O   UNL     1       7.093   3.268  13.160  1.00  0.00    -0.237 OA
ATOM     49  O   UNL     1       5.758   5.052  12.126  1.00  0.00    -0.744 OA
ENDBRANCH  43  46
ENDBRANCH  25  39
BRANCH  26  50
ATOM     50  C   UNL     1       6.866   9.721   0.193  1.00  0.00     0.023 A 
ATOM     51  C   UNL     1       8.012   9.929  -0.597  1.00  0.00     0.012 A 
ATOM     52  C   UNL     1       5.644  10.298  -0.211  1.00  0.00     0.148 A 
ATOM     53  C   UNL     1       7.948  10.713  -1.751  1.00  0.00     0.002 A 
ATOM     54  C   UNL     1       5.575  11.030  -1.391  1.00  0.00     0.091 A 
ATOM     55  F   UNL     1       4.566  10.112   0.563  1.00  0.00    -0.205 F 
ATOM     56  C   UNL     1       6.729  11.254  -2.154  1.00  0.00     0.022 A 
BRANCH  54  57
ATOM     57  S   UNL     1       4.021  11.651  -2.045  1.00  0.00     0.127 S 
ATOM     58  O   UNL     1       4.145  13.086  -1.799  1.00  0.00    -0.237 OA
ATOM     59  O   UNL     1       4.104  11.258  -3.453  1.00  0.00    -0.237 OA
ATOM     60  O   UNL     1       2.978  10.967  -1.294  1.00  0.00    -0.744 OA
ENDBRANCH  54  57
ENDBRANCH  26  50
BRANCH  38  61
ATOM     61  C   UNL     1      10.346  10.165   6.238  1.00  0.00     0.023 A 
ATOM     62  C   UNL     1       9.839  11.386   6.722  1.00  0.00     0.012 A 
ATOM     63  C   UNL     1      11.719   9.881   6.354  1.00  0.00     0.148 A 
ATOM     64  C   UNL     1      10.696  12.325   7.290  1.00  0.00     0.002 A 
ATOM     65  C   UNL     1      12.557  10.799   6.970  1.00  0.00     0.091 A 
ATOM     66  F   UNL     1      12.178   8.720   5.863  1.00  0.00    -0.205 F 
ATOM     67  C   UNL     1      12.051  12.026   7.427  1.00  0.00     0.022 A 
BRANCH  65  68
ATOM     68  S   UNL     1      14.287  10.437   7.286  1.00  0.00     0.127 S 
ATOM     69  O   UNL     1      14.949  11.207   6.234  1.00  0.00    -0.237 OA
ATOM     70  O   UNL     1      14.474  10.964   8.639  1.00  0.00    -0.237 OA
ATOM     71  O   UNL     1      14.415   8.990   7.184  1.00  0.00    -0.744 OA
ENDBRANCH  65  68
ENDBRANCH  38  61
ENDBRANCH  12  13
ENDBRANCH   5   7
ENDBRANCH   4   5
ENDBRANCH   3   4
ENDBRANCH   2   3
ENDBRANCH   1   2
BRANCH   1  72
ATOM     72  C   UNL     1       2.726   0.677  -2.086  1.00  0.00     0.202 C 
BRANCH  72  73
ATOM     73  C   UNL     1       2.642   0.723  -3.609  1.00  0.00     0.261 C 
BRANCH  73  74
ATOM     74  O   UNL     1       3.147  -0.530  -4.102  1.00  0.00    -0.459 OA
BRANCH  74  75
ATOM     75  C   UNL     1       4.391  -0.498  -4.640  1.00  0.00     0.365 C 
ATOM     76  O   UNL     1       4.930   0.506  -5.097  1.00  0.00    -0.245 OA
BRANCH  75  77
ATOM     77  C   UNL     1       5.089  -1.868  -4.622  1.00  0.00     0.298 C 
ATOM     78  C   UNL     1       4.442  -2.924  -3.683  1.00  0.00     0.115 C 
ATOM     79  N   UNL     1       5.460  -2.263  -6.008  1.00  0.00    -0.323 N 
ATOM     80  C   UNL     1       4.582  -4.293  -4.208  1.00  0.00    -0.006 A 
ATOM     81  C   UNL     1       4.781  -3.422  -6.590  1.00  0.00     0.262 C 
ATOM     82  H   UNL     1       6.460  -2.463  -6.011  1.00  0.00     0.347 HD
ATOM     83  H   UNL     1       5.169  -1.476  -6.588  1.00  0.00     0.347 HD
ATOM     84  C   UNL     1       4.758  -4.500  -5.552  1.00  0.00     0.083 A 
ATOM     85  C   UNL     1       4.562  -5.545  -3.553  1.00  0.00     0.003 A 
ATOM     86  N   UNL     1       4.907  -5.845  -5.747  1.00  0.00    -0.353 N 
ATOM     87  C   UNL     1       4.759  -6.510  -4.544  1.00  0.00     0.046 A 
ATOM     88  C   UNL     1       4.395  -5.955  -2.216  1.00  0.00     0.010 A 
ATOM     89  H   UNL     1       5.092  -6.275  -6.614  1.00  0.00     0.166 HD
ATOM     90  C   UNL     1       4.788  -7.878  -4.254  1.00  0.00     0.026 A 
ATOM     91  C   UNL     1       4.427  -7.319  -1.912  1.00  0.00     0.001 A 
ATOM     92  C   UNL     1       4.618  -8.264  -2.919  1.00  0.00     0.002 A 
BRANCH  81  93
ATOM     93  C   UNL     1       3.419  -3.124  -7.226  1.00  0.00     0.016 A 
ATOM     94  C   UNL     1       2.336  -4.014  -7.104  1.00  0.00     0.014 A 
ATOM     95  C   UNL     1       3.251  -2.031  -8.094  1.00  0.00     0.014 A 
ATOM     96  C   UNL     1       1.173  -3.853  -7.861  1.00  0.00     0.047 A 
ATOM     97  C   UNL     1       2.075  -1.861  -8.843  1.00  0.00     0.047 A 
ATOM     98  C   UNL     1       1.044  -2.794  -8.757  1.00  0.00     0.129 A 
BRANCH  98  99
ATOM     99  O   UNL     1      -0.112  -2.808  -9.479  1.00  0.00    -0.406 OA
BRANCH  99 100
ATOM    100  C   UNL     1      -0.262  -1.843 -10.505  1.00  0.00     0.573 C 
ATOM    101  F   UNL     1      -0.366  -0.602  -9.989  1.00  0.00    -0.132 F 
ATOM    102  F   UNL     1       0.764  -1.887 -11.383  1.00  0.00    -0.132 F 
ATOM    103  F   UNL     1      -1.399  -2.114 -11.187  1.00  0.00    -0.132 F 
ENDBRANCH  99 100
ENDBRANCH  98  99
ENDBRANCH  81  93
ENDBRANCH  75  77
ENDBRANCH  74  75
ENDBRANCH  73  74
ENDBRANCH  72  73
ENDBRANCH   1  72
TORSDOF 20
