REMARK SMILES CC1=C(CC(=O)OCCOCCOC(=O)c2ccc(-c3c4nc(c(-c5cccc(S(=O)(=O)[O-])c5F)c5ccc([nH]5)c(-c5cccc(S(=O)(=O)[O-])c5F)c5nc(c(-c6cccc(S(=O)(=O)[O-])c6F)c6ccc3[nH]6)C=C5)C=C4)cc2)c2cc(F)ccc2/C1=C\c1ccc([S@@+](C)[O-])cc1
REMARK SMILES IDX 10 1 9 2 8 3 7 4 5 5 6 6 4 7 3 8 1 9 2 10 86 11 79 12 85 13
REMARK SMILES IDX 87 14 80 15 84 16 81 17 83 18 82 19 88 20 89 21 96 22 90 23
REMARK SMILES IDX 95 24 91 25 92 26 93 27 94 28 11 29 12 30 13 31 14 32 15 33
REMARK SMILES IDX 16 34 17 35 78 36 18 37 77 38 19 39 20 40 21 41 71 42 22 43
REMARK SMILES IDX 76 44 70 45 72 46 23 47 75 48 69 49 68 50 24 52 56 53 36 54
REMARK SMILES IDX 55 55 37 56 40 57 54 58 73 59 38 60 39 61 53 63 74 64 41 65
REMARK SMILES IDX 25 66 26 67 34 68 27 69 29 70 35 71 28 72 30 73 31 74 32 75
REMARK SMILES IDX 33 76 57 77 58 78 66 79 59 80 61 81 67 82 60 83 62 84 63 85
REMARK SMILES IDX 64 86 65 87 42 88 43 89 51 90 44 91 46 92 52 93 45 94 47 95
REMARK SMILES IDX 48 96 49 97 50 98
REMARK H PARENT 72 51 40 62
REMARK Flexibility Score: inf
ROOT
ATOM      1  O   UNL     1       3.044  -5.608   3.326  1.00  0.00    -0.374 OA
ENDROOT
BRANCH   1   2
ATOM      2  C   UNL     1       2.841  -4.465   4.153  1.00  0.00     0.202 C 
BRANCH   2   3
ATOM      3  C   UNL     1       3.165  -3.077   3.580  1.00  0.00     0.261 C 
BRANCH   3   4
ATOM      4  O   UNL     1       2.546  -2.784   2.309  1.00  0.00    -0.463 OA
BRANCH   4   5
ATOM      5  C   UNL     1       3.409  -2.549   1.284  1.00  0.00     0.310 C 
ATOM      6  O   UNL     1       4.634  -2.562   1.392  1.00  0.00    -0.252 OA
BRANCH   5   7
ATOM      7  C   UNL     1       2.763  -2.284  -0.074  1.00  0.00     0.159 C 
BRANCH   7   8
ATOM      8  C   UNL     1       1.276  -2.315  -0.231  1.00  0.00    -0.025 C 
ATOM      9  C   UNL     1       0.693   0.142   0.131  1.00  0.00     0.045 C 
ATOM     10  C   UNL     1       0.392  -1.291  -0.157  1.00  0.00    -0.039 C 
ATOM     11  C   UNL     1      -0.969  -1.776  -0.454  1.00  0.00    -0.014 C 
ATOM     12  C   UNL     1       0.530  -3.509  -0.672  1.00  0.00    -0.011 A 
ATOM     13  C   UNL     1      -0.843  -3.215  -0.765  1.00  0.00    -0.010 A 
ATOM     14  C   UNL     1      -2.075  -1.002  -0.455  1.00  0.00     0.017 C 
ATOM     15  C   UNL     1       1.001  -4.775  -1.001  1.00  0.00     0.048 A 
ATOM     16  C   UNL     1      -1.754  -4.205  -1.117  1.00  0.00     0.012 A 
ATOM     17  C   UNL     1       0.075  -5.763  -1.332  1.00  0.00     0.123 A 
ATOM     18  C   UNL     1      -1.292  -5.497  -1.373  1.00  0.00     0.040 A 
ATOM     19  F   UNL     1       0.504  -7.010  -1.568  1.00  0.00    -0.207 F 
BRANCH  14  20
ATOM     20  C   UNL     1      -3.433  -1.467  -0.753  1.00  0.00    -0.025 A 
ATOM     21  C   UNL     1      -4.139  -2.218   0.193  1.00  0.00     0.013 A 
ATOM     22  C   UNL     1      -3.980  -1.277  -2.025  1.00  0.00     0.013 A 
ATOM     23  C   UNL     1      -5.314  -2.886  -0.171  1.00  0.00     0.061 A 
ATOM     24  C   UNL     1      -5.168  -1.925  -2.380  1.00  0.00     0.061 A 
ATOM     25  C   UNL     1      -5.819  -2.770  -1.471  1.00  0.00     0.152 A 
BRANCH  25  26
ATOM     26  S   UNL     1      -7.158  -3.844  -2.049  1.00  0.00    -0.018 S 
ATOM     27  C   UNL     1      -8.375  -3.560  -0.750  1.00  0.00     0.346 C 
ATOM     28  O   UNL     1      -7.709  -3.226  -3.384  1.00  0.00    -0.612 OA
ENDBRANCH  25  26
ENDBRANCH  14  20
ENDBRANCH   7   8
ENDBRANCH   5   7
ENDBRANCH   4   5
ENDBRANCH   3   4
ENDBRANCH   2   3
ENDBRANCH   1   2
BRANCH   1  29
ATOM     29  C   UNL     1       2.252  -5.730   2.150  1.00  0.00     0.202 C 
BRANCH  29  30
ATOM     30  C   UNL     1       0.738  -5.927   2.302  1.00  0.00     0.261 C 
BRANCH  30  31
ATOM     31  O   UNL     1       0.101  -4.955   3.130  1.00  0.00    -0.460 OA
BRANCH  31  32
ATOM     32  C   UNL     1      -0.459  -5.471   4.249  1.00  0.00     0.338 C 
ATOM     33  O   UNL     1      -0.511  -6.645   4.585  1.00  0.00    -0.246 OA
BRANCH  32  34
ATOM     34  C   UNL     1      -0.875  -4.367   5.120  1.00  0.00     0.060 A 
ATOM     35  C   UNL     1      -1.756  -3.385   4.664  1.00  0.00     0.016 A 
ATOM     36  C   UNL     1      -0.396  -4.358   6.435  1.00  0.00     0.016 A 
ATOM     37  C   UNL     1      -2.194  -2.408   5.554  1.00  0.00     0.010 A 
ATOM     38  C   UNL     1      -0.842  -3.387   7.324  1.00  0.00     0.010 A 
ATOM     39  C   UNL     1      -1.766  -2.425   6.895  1.00  0.00    -0.014 A 
BRANCH  39  40
ATOM     40  C   UNL     1      -2.424  -1.546   7.887  1.00  0.00     0.031 A 
ATOM     41  C   UNL     1      -1.703  -0.398   8.518  1.00  0.00     0.074 A 
ATOM     42  C   UNL     1      -3.690  -1.845   8.240  1.00  0.00     0.049 A 
ATOM     43  N   UNL     1      -2.174   0.500   9.341  1.00  0.00    -0.248 NA
ATOM     44  C   UNL     1      -0.275  -0.236   8.201  1.00  0.00     0.031 C 
ATOM     45  C   UNL     1      -4.446  -3.001   7.748  1.00  0.00     0.029 A 
ATOM     46  N   UNL     1      -4.561  -1.215   9.088  1.00  0.00    -0.354 N 
ATOM     47  C   UNL     1      -1.105   1.330   9.650  1.00  0.00     0.074 A 
ATOM     48  C   UNL     1       0.048   0.818   8.942  1.00  0.00     0.031 C 
ATOM     49  C   UNL     1      -5.678  -2.977   8.275  1.00  0.00     0.029 A 
ATOM     50  C   UNL     1      -5.792  -1.823   9.160  1.00  0.00     0.049 A 
ATOM     51  H   UNL     1      -4.329  -0.405   9.597  1.00  0.00     0.167 HD
ATOM     52  C   UNL     1      -1.102   2.430  10.436  1.00  0.00     0.034 A 
ATOM     53  C   UNL     1      -6.896  -1.485   9.853  1.00  0.00     0.034 A 
ATOM     54  C   UNL     1      -2.263   2.932  11.119  1.00  0.00     0.049 A 
ATOM     55  C   UNL     1      -6.872  -0.243  10.693  1.00  0.00     0.074 A 
ATOM     56  C   UNL     1      -2.376   4.083  11.878  1.00  0.00     0.029 A 
ATOM     57  N   UNL     1      -3.501   2.311  11.140  1.00  0.00    -0.354 N 
ATOM     58  N   UNL     1      -5.892   0.611  10.857  1.00  0.00    -0.248 NA
ATOM     59  C   UNL     1      -8.102   0.101  11.420  1.00  0.00     0.031 C 
ATOM     60  C   UNL     1      -3.678   4.147  12.377  1.00  0.00     0.029 A 
ATOM     61  C   UNL     1      -4.383   3.050  11.906  1.00  0.00     0.049 A 
ATOM     62  H   UNL     1      -3.720   1.470  10.678  1.00  0.00     0.167 HD
ATOM     63  C   UNL     1      -6.390   1.607  11.685  1.00  0.00     0.074 A 
ATOM     64  C   UNL     1      -7.763   1.254  11.986  1.00  0.00     0.031 C 
ATOM     65  C   UNL     1      -5.760   2.707  12.157  1.00  0.00     0.034 A 
BRANCH  52  66
ATOM     66  C   UNL     1       0.171   3.218  10.560  1.00  0.00     0.023 A 
ATOM     67  C   UNL     1       0.552   4.072   9.505  1.00  0.00     0.012 A 
ATOM     68  C   UNL     1       0.910   3.220  11.758  1.00  0.00     0.148 A 
ATOM     69  C   UNL     1       1.653   4.915   9.640  1.00  0.00     0.002 A 
ATOM     70  C   UNL     1       1.990   4.083  11.896  1.00  0.00     0.091 A 
ATOM     71  F   UNL     1       0.529   2.394  12.743  1.00  0.00    -0.205 F 
ATOM     72  C   UNL     1       2.364   4.929  10.838  1.00  0.00     0.022 A 
BRANCH  70  73
ATOM     73  S   UNL     1       2.944   4.218  13.412  1.00  0.00     0.127 S 
ATOM     74  O   UNL     1       4.262   3.763  12.970  1.00  0.00    -0.237 OA
ATOM     75  O   UNL     1       2.857   5.649  13.701  1.00  0.00    -0.237 OA
ATOM     76  O   UNL     1       2.287   3.354  14.382  1.00  0.00    -0.744 OA
ENDBRANCH  70  73
ENDBRANCH  52  66
BRANCH  53  77
ATOM     77  C   UNL     1      -8.125  -2.306   9.698  1.00  0.00     0.023 A 
ATOM     78  C   UNL     1      -9.176  -1.825   8.895  1.00  0.00     0.012 A 
ATOM     79  C   UNL     1      -8.212  -3.597  10.254  1.00  0.00     0.148 A 
ATOM     80  C   UNL     1     -10.299  -2.616   8.651  1.00  0.00     0.002 A 
ATOM     81  C   UNL     1      -9.316  -4.394   9.976  1.00  0.00     0.091 A 
ATOM     82  F   UNL     1      -7.192  -4.031  11.006  1.00  0.00    -0.205 F 
ATOM     83  C   UNL     1     -10.364  -3.902   9.181  1.00  0.00     0.022 A 
BRANCH  81  84
ATOM     84  S   UNL     1      -9.446  -6.097  10.528  1.00  0.00     0.127 S 
ATOM     85  O   UNL     1     -10.613  -6.037  11.405  1.00  0.00    -0.237 OA
ATOM     86  O   UNL     1      -9.659  -6.803   9.265  1.00  0.00    -0.237 OA
ATOM     87  O   UNL     1      -8.184  -6.399  11.188  1.00  0.00    -0.744 OA
ENDBRANCH  81  84
ENDBRANCH  53  77
BRANCH  65  88
ATOM     88  C   UNL     1      -6.528   3.650  13.038  1.00  0.00     0.023 A 
ATOM     89  C   UNL     1      -6.669   3.356  14.406  1.00  0.00     0.012 A 
ATOM     90  C   UNL     1      -6.933   4.905  12.544  1.00  0.00     0.148 A 
ATOM     91  C   UNL     1      -7.194   4.309  15.278  1.00  0.00     0.002 A 
ATOM     92  C   UNL     1      -7.423   5.861  13.423  1.00  0.00     0.091 A 
ATOM     93  F   UNL     1      -6.785   5.152  11.234  1.00  0.00    -0.205 F 
ATOM     94  C   UNL     1      -7.555   5.564  14.790  1.00  0.00     0.022 A 
BRANCH  92  95
ATOM     95  S   UNL     1      -7.838   7.530  12.907  1.00  0.00     0.127 S 
ATOM     96  O   UNL     1      -9.263   7.596  13.229  1.00  0.00    -0.237 OA
ATOM     97  O   UNL     1      -6.978   8.340  13.768  1.00  0.00    -0.237 OA
ATOM     98  O   UNL     1      -7.528   7.605  11.485  1.00  0.00    -0.744 OA
ENDBRANCH  92  95
ENDBRANCH  65  88
ENDBRANCH  39  40
ENDBRANCH  32  34
ENDBRANCH  31  32
ENDBRANCH  30  31
ENDBRANCH  29  30
ENDBRANCH   1  29
TORSDOF 20
