REMARK SMILES O=C(OCCOCCOC(=O)c1ccc(C[NH2+]C[C@H]2C[C@H](O)C2)nc1)c1ccc(-c2c3nc(c(-c4cccc(S(=O)(=O)[O-])c4F)c4ccc([nH]4)c(-c4cccc(S(=O)(=O)[O-])c4F)c4nc(c(-c5cccc(S(=O)(=O)[O-])c5F)c5ccc2[nH]5)C=C4)C=C3)cc1
REMARK SMILES IDX 7 1 6 2 5 3 4 4 3 5 2 6 1 7 26 8 27 9 88 10 28 11 87 12
REMARK SMILES IDX 29 13 30 14 31 15 81 16 32 17 86 18 80 19 82 20 33 21 85 22
REMARK SMILES IDX 79 23 78 24 34 26 66 27 46 28 65 29 47 30 50 31 64 32 83 33
REMARK SMILES IDX 48 34 49 35 63 37 84 38 51 39 35 40 36 41 44 42 37 43 39 44
REMARK SMILES IDX 45 45 38 46 40 47 41 48 42 49 43 50 67 51 68 52 76 53 69 54
REMARK SMILES IDX 71 55 77 56 70 57 72 58 73 59 74 60 75 61 52 62 53 63 61 64
REMARK SMILES IDX 54 65 56 66 62 67 55 68 57 69 58 70 59 71 60 72 8 73 9 74
REMARK SMILES IDX 10 75 11 76 12 77 13 78 25 79 14 80 24 81 15 82 16 83 17 84
REMARK SMILES IDX 18 87 19 88 23 89 20 90 21 91 22 92
REMARK H PARENT 82 25 50 36 17 85 17 86 22 93
REMARK Flexibility Score: inf
ROOT
ATOM      1  C   UNL     1       2.771  -2.036  -0.923  1.00  0.00     0.202 C 
ENDROOT
BRANCH   1   2
ATOM      2  O   UNL     1       4.146  -1.757  -0.617  1.00  0.00    -0.374 OA
BRANCH   2   3
ATOM      3  C   UNL     1       4.462  -1.602   0.769  1.00  0.00     0.202 C 
BRANCH   3   4
ATOM      4  C   UNL     1       4.182  -0.214   1.352  1.00  0.00     0.261 C 
BRANCH   4   5
ATOM      5  O   UNL     1       2.780   0.088   1.262  1.00  0.00    -0.460 OA
BRANCH   5   6
ATOM      6  C   UNL     1       2.154   0.909   0.389  1.00  0.00     0.338 C 
ATOM      7  O   UNL     1       0.936   1.049   0.492  1.00  0.00    -0.246 OA
BRANCH   6   8
ATOM      8  C   UNL     1       2.863   1.661  -0.690  1.00  0.00     0.060 A 
ATOM      9  C   UNL     1       4.024   1.229  -1.339  1.00  0.00     0.016 A 
ATOM     10  C   UNL     1       2.252   2.839  -1.145  1.00  0.00     0.016 A 
ATOM     11  C   UNL     1       4.604   1.961  -2.362  1.00  0.00     0.010 A 
ATOM     12  C   UNL     1       2.808   3.567  -2.197  1.00  0.00     0.010 A 
ATOM     13  C   UNL     1       3.997   3.132  -2.792  1.00  0.00    -0.014 A 
BRANCH  13  14
ATOM     14  C   UNL     1       4.685   3.950  -3.798  1.00  0.00     0.031 A 
ATOM     15  C   UNL     1       5.396   5.176  -3.332  1.00  0.00     0.074 A 
ATOM     16  C   UNL     1       4.688   3.560  -5.083  1.00  0.00     0.049 A 
ATOM     17  N   UNL     1       5.948   6.125  -4.031  1.00  0.00    -0.248 NA
ATOM     18  C   UNL     1       5.499   5.355  -1.873  1.00  0.00     0.031 C 
ATOM     19  C   UNL     1       4.091   2.321  -5.586  1.00  0.00     0.029 A 
ATOM     20  N   UNL     1       5.188   4.173  -6.198  1.00  0.00    -0.354 N 
ATOM     21  C   UNL     1       6.401   7.052  -3.103  1.00  0.00     0.074 A 
ATOM     22  C   UNL     1       6.089   6.537  -1.789  1.00  0.00     0.031 C 
ATOM     23  C   UNL     1       4.226   2.284  -6.921  1.00  0.00     0.029 A 
ATOM     24  C   UNL     1       4.856   3.523  -7.363  1.00  0.00     0.049 A 
ATOM     25  H   UNL     1       5.729   4.995  -6.170  1.00  0.00     0.167 HD
ATOM     26  C   UNL     1       7.006   8.236  -3.341  1.00  0.00     0.034 A 
ATOM     27  C   UNL     1       4.995   3.924  -8.640  1.00  0.00     0.034 A 
ATOM     28  C   UNL     1       7.293   8.707  -4.666  1.00  0.00     0.049 A 
ATOM     29  C   UNL     1       5.639   5.261  -8.887  1.00  0.00     0.074 A 
ATOM     30  C   UNL     1       7.887   9.891  -5.055  1.00  0.00     0.029 A 
ATOM     31  N   UNL     1       6.984   8.007  -5.827  1.00  0.00    -0.354 N 
ATOM     32  N   UNL     1       6.090   6.128  -8.010  1.00  0.00    -0.248 NA
ATOM     33  C   UNL     1       5.811   5.673 -10.284  1.00  0.00     0.031 C 
ATOM     34  C   UNL     1       7.907   9.920  -6.453  1.00  0.00     0.029 A 
ATOM     35  C   UNL     1       7.364   8.736  -6.936  1.00  0.00     0.049 A 
ATOM     36  H   UNL     1       6.557   7.120  -5.854  1.00  0.00     0.167 HD
ATOM     37  C   UNL     1       6.630   7.174  -8.744  1.00  0.00     0.074 A 
ATOM     38  C   UNL     1       6.452   6.828 -10.143  1.00  0.00     0.031 C 
ATOM     39  C   UNL     1       7.212   8.319  -8.309  1.00  0.00     0.034 A 
BRANCH  26  40
ATOM     40  C   UNL     1       7.322   9.094  -2.147  1.00  0.00     0.023 A 
ATOM     41  C   UNL     1       8.339   8.716  -1.246  1.00  0.00     0.012 A 
ATOM     42  C   UNL     1       6.566  10.254  -1.887  1.00  0.00     0.148 A 
ATOM     43  C   UNL     1       8.559   9.447  -0.077  1.00  0.00     0.002 A 
ATOM     44  C   UNL     1       6.822  11.002  -0.744  1.00  0.00     0.091 A 
ATOM     45  F   UNL     1       5.581  10.580  -2.736  1.00  0.00    -0.205 F 
ATOM     46  C   UNL     1       7.805  10.591   0.170  1.00  0.00     0.022 A 
BRANCH  44  47
ATOM     47  S   UNL     1       5.942  12.522  -0.374  1.00  0.00     0.127 S 
ATOM     48  O   UNL     1       5.056  12.095   0.708  1.00  0.00    -0.237 OA
ATOM     49  O   UNL     1       7.027  13.412   0.043  1.00  0.00    -0.237 OA
ATOM     50  O   UNL     1       5.282  12.913  -1.611  1.00  0.00    -0.744 OA
ENDBRANCH  44  47
ENDBRANCH  26  40
BRANCH  27  51
ATOM     51  C   UNL     1       4.501   3.053  -9.743  1.00  0.00     0.023 A 
ATOM     52  C   UNL     1       5.419   2.407 -10.591  1.00  0.00     0.012 A 
ATOM     53  C   UNL     1       3.123   2.792  -9.898  1.00  0.00     0.148 A 
ATOM     54  C   UNL     1       4.974   1.525 -11.579  1.00  0.00     0.002 A 
ATOM     55  C   UNL     1       2.691   1.872 -10.846  1.00  0.00     0.091 A 
ATOM     56  F   UNL     1       2.263   3.425  -9.088  1.00  0.00    -0.205 F 
ATOM     57  C   UNL     1       3.614   1.247 -11.697  1.00  0.00     0.022 A 
BRANCH  55  58
ATOM     58  S   UNL     1       0.976   1.351 -10.979  1.00  0.00     0.127 S 
ATOM     59  O   UNL     1       0.604   1.878 -12.289  1.00  0.00    -0.237 OA
ATOM     60  O   UNL     1       1.099  -0.106 -10.914  1.00  0.00    -0.237 OA
ATOM     61  O   UNL     1       0.289   1.949  -9.842  1.00  0.00    -0.744 OA
ENDBRANCH  55  58
ENDBRANCH  27  51
BRANCH  39  62
ATOM     62  C   UNL     1       7.753   9.261  -9.347  1.00  0.00     0.023 A 
ATOM     63  C   UNL     1       6.877  10.092 -10.069  1.00  0.00     0.012 A 
ATOM     64  C   UNL     1       9.146   9.419  -9.487  1.00  0.00     0.148 A 
ATOM     65  C   UNL     1       7.383  11.069 -10.925  1.00  0.00     0.002 A 
ATOM     66  C   UNL     1       9.641  10.428 -10.300  1.00  0.00     0.091 A 
ATOM     67  F   UNL     1       9.954   8.599  -8.799  1.00  0.00    -0.205 F 
ATOM     68  C   UNL     1       8.762  11.248 -11.027  1.00  0.00     0.022 A 
BRANCH  66  69
ATOM     69  S   UNL     1      11.393  10.807 -10.398  1.00  0.00     0.127 S 
ATOM     70  O   UNL     1      11.707  10.405 -11.768  1.00  0.00    -0.237 OA
ATOM     71  O   UNL     1      11.408  12.252 -10.166  1.00  0.00    -0.237 OA
ATOM     72  O   UNL     1      12.037  10.019  -9.356  1.00  0.00    -0.744 OA
ENDBRANCH  66  69
ENDBRANCH  39  62
ENDBRANCH  13  14
ENDBRANCH   6   8
ENDBRANCH   5   6
ENDBRANCH   4   5
ENDBRANCH   3   4
ENDBRANCH   2   3
ENDBRANCH   1   2
BRANCH   1  73
ATOM     73  C   UNL     1       2.688  -3.234  -1.873  1.00  0.00     0.261 C 
BRANCH  73  74
ATOM     74  O   UNL     1       3.234  -4.374  -1.190  1.00  0.00    -0.460 OA
BRANCH  74  75
ATOM     75  C   UNL     1       4.577  -4.505  -1.346  1.00  0.00     0.339 C 
ATOM     76  O   UNL     1       5.265  -4.103  -2.260  1.00  0.00    -0.246 OA
BRANCH  75  77
ATOM     77  C   UNL     1       5.126  -5.030  -0.088  1.00  0.00     0.078 A 
ATOM     78  C   UNL     1       4.474  -5.966   0.712  1.00  0.00     0.019 A 
ATOM     79  C   UNL     1       6.330  -4.507   0.348  1.00  0.00     0.127 A 
ATOM     80  C   UNL     1       5.072  -6.370   1.905  1.00  0.00     0.031 A 
ATOM     81  N   UNL     1       6.918  -4.868   1.510  1.00  0.00    -0.254 NA
ATOM     82  C   UNL     1       6.298  -5.813   2.266  1.00  0.00     0.094 A 
BRANCH  82  83
ATOM     83  C   UNL     1       7.087  -6.349   3.452  1.00  0.00     0.317 C 
BRANCH  83  84
ATOM     84  N   UNL     1       8.432  -6.728   3.014  1.00  0.00    -0.341 N 
ATOM     85  H   UNL     1       9.045  -5.930   3.181  1.00  0.00     0.346 HD
ATOM     86  H   UNL     1       8.322  -6.995   2.036  1.00  0.00     0.346 HD
BRANCH  84  87
ATOM     87  C   UNL     1       9.036  -7.880   3.647  1.00  0.00     0.264 C 
BRANCH  87  88
ATOM     88  C   UNL     1       8.271  -9.188   3.462  1.00  0.00     0.049 C 
ATOM     89  C   UNL     1       9.117 -10.369   2.908  1.00  0.00     0.041 C 
ATOM     90  C   UNL     1       7.302  -9.450   2.271  1.00  0.00     0.041 C 
ATOM     91  C   UNL     1       7.835 -10.899   2.231  1.00  0.00     0.115 C 
BRANCH  91  92
ATOM     92  O   UNL     1       7.083 -11.886   2.966  1.00  0.00    -0.393 OA
ATOM     93  H   UNL     1       6.931 -11.569   3.870  1.00  0.00     0.210 HD
ENDBRANCH  91  92
ENDBRANCH  87  88
ENDBRANCH  84  87
ENDBRANCH  83  84
ENDBRANCH  82  83
ENDBRANCH  75  77
ENDBRANCH  74  75
ENDBRANCH  73  74
ENDBRANCH   1  73
TORSDOF 22
