REMARK SMILES CCCc1cc2c(cc1Cl)C=C(C(=O)OCCOCCOC(=O)c1ccc(-c3c4nc(c(-c5cccc(S(=O)(=O)[O-])c5F)c5ccc([nH]5)c(-c5cccc(S(=O)(=O)[O-])c5F)c5nc(c(-c6cccc(S(=O)(=O)[O-])c6F)c6ccc3[nH]6)C=C5)C=C4)cc1)[C@@H](C(F)(F)F)O2
REMARK SMILES IDX 19 1 18 2 17 3 16 4 15 5 13 6 14 7 12 8 4 9 5 10 9 11 6 12
REMARK SMILES IDX 8 13 10 14 7 15 92 16 11 17 87 18 3 19 2 20 1 21 88 22 89 23
REMARK SMILES IDX 90 24 91 25 20 26 21 27 22 28 23 29 24 30 25 31 86 32 26 33
REMARK SMILES IDX 85 34 27 35 28 36 29 37 79 38 30 39 84 40 78 41 80 42 31 43
REMARK SMILES IDX 83 44 77 45 76 46 32 48 64 49 44 50 63 51 45 52 48 53 62 54
REMARK SMILES IDX 81 55 46 56 47 57 61 59 82 60 49 61 33 62 34 63 42 64 35 65
REMARK SMILES IDX 37 66 43 67 36 68 38 69 39 70 40 71 41 72 65 73 66 74 74 75
REMARK SMILES IDX 67 76 69 77 75 78 68 79 70 80 71 81 72 82 73 83 50 84 51 85
REMARK SMILES IDX 59 86 52 87 54 88 60 89 53 90 55 91 56 92 57 93 58 94
REMARK H PARENT 80 47 48 58
REMARK Flexibility Score: inf
ROOT
ATOM      1  C   UNL     1       0.037  -1.624   9.275  1.00  0.00     0.202 C 
ENDROOT
BRANCH   1   2
ATOM      2  O   UNL     1      -1.004  -1.359  10.213  1.00  0.00    -0.374 OA
BRANCH   2   3
ATOM      3  C   UNL     1      -1.866  -2.432  10.588  1.00  0.00     0.202 C 
BRANCH   3   4
ATOM      4  C   UNL     1      -2.930  -2.874   9.576  1.00  0.00     0.261 C 
BRANCH   4   5
ATOM      5  O   UNL     1      -2.357  -3.239   8.310  1.00  0.00    -0.460 OA
BRANCH   5   6
ATOM      6  C   UNL     1      -2.673  -2.408   7.290  1.00  0.00     0.338 C 
ATOM      7  O   UNL     1      -3.447  -1.464   7.319  1.00  0.00    -0.246 OA
BRANCH   6   8
ATOM      8  C   UNL     1      -1.808  -2.693   6.131  1.00  0.00     0.087 C 
ATOM      9  C   UNL     1       0.875  -2.092   1.918  1.00  0.00    -0.026 A 
ATOM     10  C   UNL     1       0.185  -3.170   2.512  1.00  0.00     0.052 A 
ATOM     11  C   UNL     1       1.023  -0.918   2.671  1.00  0.00     0.045 A 
ATOM     12  C   UNL     1      -0.410  -3.046   3.771  1.00  0.00     0.128 A 
ATOM     13  C   UNL     1       0.359  -0.767   3.892  1.00  0.00     0.032 A 
ATOM     14  Cl  UNL     1       2.064   0.375   2.193  1.00  0.00    -0.084 Cl
ATOM     15  C   UNL     1      -0.386  -1.819   4.424  1.00  0.00     0.019 A 
ATOM     16  O   UNL     1      -1.019  -4.158   4.277  1.00  0.00    -0.475 OA
ATOM     17  C   UNL     1      -1.188  -1.625   5.614  1.00  0.00     0.027 C 
ATOM     18  C   UNL     1      -1.656  -4.089   5.591  1.00  0.00     0.316 C 
BRANCH   9  19
ATOM     19  C   UNL     1       1.415  -2.260   0.514  1.00  0.00     0.037 C 
BRANCH  19  20
ATOM     20  C   UNL     1       0.568  -1.614  -0.598  1.00  0.00     0.001 C 
ATOM     21  C   UNL     1       0.765  -0.114  -0.771  1.00  0.00     0.004 C 
ENDBRANCH  19  20
ENDBRANCH   9  19
BRANCH  18  22
ATOM     22  C   UNL     1      -2.987  -4.849   5.479  1.00  0.00     0.430 C 
ATOM     23  F   UNL     1      -2.789  -6.100   4.998  1.00  0.00    -0.167 F 
ATOM     24  F   UNL     1      -3.603  -4.984   6.673  1.00  0.00    -0.167 F 
ATOM     25  F   UNL     1      -3.847  -4.224   4.643  1.00  0.00    -0.167 F 
ENDBRANCH  18  22
ENDBRANCH   6   8
ENDBRANCH   5   6
ENDBRANCH   4   5
ENDBRANCH   3   4
ENDBRANCH   2   3
ENDBRANCH   1   2
BRANCH   1  26
ATOM     26  C   UNL     1       1.239  -2.463   9.730  1.00  0.00     0.261 C 
BRANCH  26  27
ATOM     27  O   UNL     1       0.888  -3.815  10.062  1.00  0.00    -0.460 OA
BRANCH  27  28
ATOM     28  C   UNL     1       0.921  -4.100  11.391  1.00  0.00     0.338 C 
ATOM     29  O   UNL     1       1.225  -3.344  12.294  1.00  0.00    -0.246 OA
BRANCH  28  30
ATOM     30  C   UNL     1       0.333  -5.437  11.611  1.00  0.00     0.060 A 
ATOM     31  C   UNL     1       0.794  -6.551  10.910  1.00  0.00     0.016 A 
ATOM     32  C   UNL     1      -0.681  -5.566  12.570  1.00  0.00     0.016 A 
ATOM     33  C   UNL     1       0.248  -7.805  11.188  1.00  0.00     0.010 A 
ATOM     34  C   UNL     1      -1.220  -6.823  12.849  1.00  0.00     0.010 A 
ATOM     35  C   UNL     1      -0.749  -7.954  12.171  1.00  0.00    -0.014 A 
BRANCH  35  36
ATOM     36  C   UNL     1      -1.197  -9.313  12.562  1.00  0.00     0.031 A 
ATOM     37  C   UNL     1      -2.557  -9.830  12.195  1.00  0.00     0.074 A 
ATOM     38  C   UNL     1      -0.350 -10.089  13.266  1.00  0.00     0.049 A 
ATOM     39  N   UNL     1      -3.043 -11.032  12.364  1.00  0.00    -0.248 NA
ATOM     40  C   UNL     1      -3.492  -8.885  11.565  1.00  0.00     0.031 C 
ATOM     41  C   UNL     1       0.971  -9.670  13.742  1.00  0.00     0.029 A 
ATOM     42  N   UNL     1      -0.465 -11.385  13.700  1.00  0.00    -0.354 N 
ATOM     43  C   UNL     1      -4.339 -10.993  11.867  1.00  0.00     0.074 A 
ATOM     44  C   UNL     1      -4.574  -9.640  11.410  1.00  0.00     0.031 C 
ATOM     45  C   UNL     1       1.556 -10.700  14.374  1.00  0.00     0.029 A 
ATOM     46  C   UNL     1       0.647 -11.843  14.365  1.00  0.00     0.049 A 
ATOM     47  H   UNL     1      -1.268 -11.935  13.549  1.00  0.00     0.167 HD
ATOM     48  C   UNL     1      -5.237 -12.001  11.777  1.00  0.00     0.034 A 
ATOM     49  C   UNL     1       0.915 -13.050  14.900  1.00  0.00     0.034 A 
ATOM     50  C   UNL     1      -4.994 -13.349  12.217  1.00  0.00     0.049 A 
ATOM     51  C   UNL     1      -0.094 -14.154  14.775  1.00  0.00     0.074 A 
ATOM     52  C   UNL     1      -5.825 -14.450  12.100  1.00  0.00     0.029 A 
ATOM     53  N   UNL     1      -3.850 -13.778  12.870  1.00  0.00    -0.354 N 
ATOM     54  N   UNL     1      -1.255 -14.136  14.169  1.00  0.00    -0.248 NA
ATOM     55  C   UNL     1       0.251 -15.449  15.380  1.00  0.00     0.031 C 
ATOM     56  C   UNL     1      -5.192 -15.541  12.702  1.00  0.00     0.029 A 
ATOM     57  C   UNL     1      -3.958 -15.124  13.174  1.00  0.00     0.049 A 
ATOM     58  H   UNL     1      -3.075 -13.210  13.085  1.00  0.00     0.167 HD
ATOM     59  C   UNL     1      -1.774 -15.418  14.303  1.00  0.00     0.074 A 
ATOM     60  C   UNL     1      -0.794 -16.193  15.035  1.00  0.00     0.031 C 
ATOM     61  C   UNL     1      -2.963 -15.899  13.868  1.00  0.00     0.034 A 
BRANCH  48  62
ATOM     62  C   UNL     1      -6.559 -11.718  11.120  1.00  0.00     0.023 A 
ATOM     63  C   UNL     1      -6.624 -11.652   9.714  1.00  0.00     0.012 A 
ATOM     64  C   UNL     1      -7.746 -11.646  11.876  1.00  0.00     0.148 A 
ATOM     65  C   UNL     1      -7.851 -11.512   9.068  1.00  0.00     0.002 A 
ATOM     66  C   UNL     1      -8.967 -11.534  11.223  1.00  0.00     0.091 A 
ATOM     67  F   UNL     1      -7.655 -11.706  13.211  1.00  0.00    -0.205 F 
ATOM     68  C   UNL     1      -9.021 -11.464   9.820  1.00  0.00     0.022 A 
BRANCH  66  69
ATOM     69  S   UNL     1     -10.539 -11.512  12.092  1.00  0.00     0.127 S 
ATOM     70  O   UNL     1     -11.033 -10.173  11.771  1.00  0.00    -0.237 OA
ATOM     71  O   UNL     1     -11.264 -12.603  11.441  1.00  0.00    -0.237 OA
ATOM     72  O   UNL     1     -10.228 -11.733  13.497  1.00  0.00    -0.744 OA
ENDBRANCH  66  69
ENDBRANCH  48  62
BRANCH  49  73
ATOM     73  C   UNL     1       2.238 -13.280  15.540  1.00  0.00     0.023 A 
ATOM     74  C   UNL     1       3.216 -14.025  14.855  1.00  0.00     0.012 A 
ATOM     75  C   UNL     1       2.553 -12.701  16.784  1.00  0.00     0.148 A 
ATOM     76  C   UNL     1       4.488 -14.194  15.402  1.00  0.00     0.002 A 
ATOM     77  C   UNL     1       3.832 -12.843  17.306  1.00  0.00     0.091 A 
ATOM     78  F   UNL     1       1.602 -11.995  17.411  1.00  0.00    -0.205 F 
ATOM     79  C   UNL     1       4.799 -13.596  16.621  1.00  0.00     0.022 A 
BRANCH  77  80
ATOM     80  S   UNL     1       4.356 -12.036  18.822  1.00  0.00     0.127 S 
ATOM     81  O   UNL     1       4.684 -13.180  19.670  1.00  0.00    -0.237 OA
ATOM     82  O   UNL     1       5.507 -11.259  18.362  1.00  0.00    -0.237 OA
ATOM     83  O   UNL     1       3.220 -11.239  19.262  1.00  0.00    -0.744 OA
ENDBRANCH  77  80
ENDBRANCH  49  73
BRANCH  61  84
ATOM     84  C   UNL     1      -3.297 -17.337  14.152  1.00  0.00     0.023 A 
ATOM     85  C   UNL     1      -3.751 -17.699  15.435  1.00  0.00     0.012 A 
ATOM     86  C   UNL     1      -3.303 -18.291  13.116  1.00  0.00     0.148 A 
ATOM     87  C   UNL     1      -4.207 -18.994  15.682  1.00  0.00     0.002 A 
ATOM     88  C   UNL     1      -3.789 -19.569  13.361  1.00  0.00     0.091 A 
ATOM     89  F   UNL     1      -2.861 -17.919  11.905  1.00  0.00    -0.205 F 
ATOM     90  C   UNL     1      -4.239 -19.923  14.644  1.00  0.00     0.022 A 
BRANCH  88  91
ATOM     91  S   UNL     1      -3.938 -20.815  12.075  1.00  0.00     0.127 S 
ATOM     92  O   UNL     1      -3.005 -21.839  12.545  1.00  0.00    -0.237 OA
ATOM     93  O   UNL     1      -5.350 -21.186  12.168  1.00  0.00    -0.237 OA
ATOM     94  O   UNL     1      -3.558 -20.161  10.830  1.00  0.00    -0.744 OA
ENDBRANCH  88  91
ENDBRANCH  61  84
ENDBRANCH  35  36
ENDBRANCH  28  30
ENDBRANCH  27  28
ENDBRANCH  26  27
ENDBRANCH   1  26
TORSDOF 20
