REMARK SMILES Cc1nc(CC(=O)N2Cc3nc[nH]c3C[C@H]2C(=O)OCCOCCOC(=O)c2ccc(-c3c4nc(c(-c5cccc(S(=O)(=O)[O-])c5F)c5ccc([nH]5)c(-c5cccc(S(=O)(=O)[O-])c5F)c5nc(c(-c6cccc(S(=O)(=O)[O-])c6F)c6ccc3[nH]6)C=C5)C=C4)cc2)cs1
REMARK SMILES IDX 22 1 21 2 20 3 19 4 17 5 18 6 16 7 8 8 9 9 10 10 15 11 11 12
REMARK SMILES IDX 14 13 12 14 13 15 6 17 7 18 5 19 4 20 1 21 2 22 3 23 92 24
REMARK SMILES IDX 91 25 23 26 24 27 25 28 26 29 27 30 28 31 29 32 90 33 30 34
REMARK SMILES IDX 89 35 31 36 32 37 33 38 83 39 34 40 88 41 82 42 84 43 35 44
REMARK SMILES IDX 87 45 81 46 80 47 36 49 68 50 48 51 67 52 49 53 52 54 66 55
REMARK SMILES IDX 85 56 50 57 51 58 65 60 86 61 53 62 37 63 38 64 46 65 39 66
REMARK SMILES IDX 41 67 47 68 40 69 42 70 43 71 44 72 45 73 69 74 70 75 78 76
REMARK SMILES IDX 71 77 73 78 79 79 72 80 74 81 75 82 76 83 77 84 54 85 55 86
REMARK SMILES IDX 63 87 56 88 58 89 64 90 57 91 59 92 60 93 61 94 62 95
REMARK H PARENT 13 16 84 48 52 59
REMARK Flexibility Score: inf
ROOT
ATOM      1  O   UNL     1      -1.995  -4.565  -3.458  1.00  0.00    -0.374 OA
ENDROOT
BRANCH   1   2
ATOM      2  C   UNL     1      -1.511  -4.673  -4.799  1.00  0.00     0.202 C 
BRANCH   2   3
ATOM      3  C   UNL     1      -1.049  -3.371  -5.442  1.00  0.00     0.261 C 
BRANCH   3   4
ATOM      4  O   UNL     1       0.095  -2.870  -4.738  1.00  0.00    -0.462 OA
BRANCH   4   5
ATOM      5  C   UNL     1      -0.042  -1.655  -4.157  1.00  0.00     0.329 C 
ATOM      6  O   UNL     1      -0.999  -0.902  -4.324  1.00  0.00    -0.250 OA
BRANCH   5   7
ATOM      7  C   UNL     1       1.176  -1.258  -3.305  1.00  0.00     0.201 C 
ATOM      8  N   UNL     1       2.200  -2.283  -2.882  1.00  0.00    -0.322 N 
ATOM      9  C   UNL     1       2.956  -2.970  -3.964  1.00  0.00     0.178 C 
ATOM     10  C   UNL     1       3.161  -2.038  -5.110  1.00  0.00     0.081 A 
ATOM     11  C   UNL     1       1.875  -0.110  -4.091  1.00  0.00     0.093 C 
ATOM     12  N   UNL     1       3.721  -2.384  -6.307  1.00  0.00    -0.240 NA
ATOM     13  C   UNL     1       2.673  -0.751  -5.164  1.00  0.00     0.042 A 
ATOM     14  C   UNL     1       3.595  -1.318  -7.067  1.00  0.00     0.197 A 
ATOM     15  N   UNL     1       2.958  -0.295  -6.415  1.00  0.00    -0.348 N 
ATOM     16  H   UNL     1       2.748   0.595  -6.779  1.00  0.00     0.167 HD
BRANCH   8  17
ATOM     17  C   UNL     1       2.814  -2.245  -1.631  1.00  0.00     0.229 C 
ATOM     18  O   UNL     1       4.039  -2.342  -1.514  1.00  0.00    -0.274 OA
BRANCH  17  19
ATOM     19  C   UNL     1       1.966  -2.279  -0.368  1.00  0.00     0.157 C 
BRANCH  19  20
ATOM     20  C   UNL     1       1.130  -1.080  -0.109  1.00  0.00     0.061 A 
ATOM     21  C   UNL     1      -2.325   0.085   0.049  1.00  0.00     0.079 C 
ATOM     22  C   UNL     1      -0.849  -0.092   0.063  1.00  0.00     0.090 A 
ATOM     23  N   UNL     1      -0.248  -1.244  -0.130  1.00  0.00    -0.246 NA
ATOM     24  S   UNL     1       0.196   1.250   0.298  1.00  0.00    -0.127 S 
ATOM     25  C   UNL     1       1.553   0.213   0.136  1.00  0.00     0.091 A 
ENDBRANCH  19  20
ENDBRANCH  17  19
ENDBRANCH   8  17
ENDBRANCH   5   7
ENDBRANCH   4   5
ENDBRANCH   3   4
ENDBRANCH   2   3
ENDBRANCH   1   2
BRANCH   1  26
ATOM     26  C   UNL     1      -1.060  -4.340  -2.404  1.00  0.00     0.202 C 
BRANCH  26  27
ATOM     27  C   UNL     1      -0.141  -5.490  -2.023  1.00  0.00     0.261 C 
BRANCH  27  28
ATOM     28  O   UNL     1       0.778  -5.834  -3.053  1.00  0.00    -0.460 OA
BRANCH  28  29
ATOM     29  C   UNL     1       0.487  -6.997  -3.669  1.00  0.00     0.338 C 
ATOM     30  O   UNL     1      -0.624  -7.526  -3.755  1.00  0.00    -0.246 OA
BRANCH  29  31
ATOM     31  C   UNL     1       1.722  -7.659  -4.077  1.00  0.00     0.060 A 
ATOM     32  C   UNL     1       1.593  -8.876  -4.750  1.00  0.00     0.016 A 
ATOM     33  C   UNL     1       2.956  -7.216  -3.574  1.00  0.00     0.016 A 
ATOM     34  C   UNL     1       2.672  -9.729  -4.778  1.00  0.00     0.010 A 
ATOM     35  C   UNL     1       4.028  -8.076  -3.586  1.00  0.00     0.010 A 
ATOM     36  C   UNL     1       3.856  -9.345  -4.135  1.00  0.00    -0.014 A 
BRANCH  36  37
ATOM     37  C   UNL     1       4.998 -10.229  -4.245  1.00  0.00     0.031 A 
ATOM     38  C   UNL     1       5.553 -10.199  -5.618  1.00  0.00     0.074 A 
ATOM     39  C   UNL     1       5.508 -10.902  -3.195  1.00  0.00     0.049 A 
ATOM     40  N   UNL     1       5.455 -11.122  -6.516  1.00  0.00    -0.248 NA
ATOM     41  C   UNL     1       6.036  -8.909  -6.141  1.00  0.00     0.031 C 
ATOM     42  C   UNL     1       5.148 -10.738  -1.783  1.00  0.00     0.029 A 
ATOM     43  N   UNL     1       6.548 -11.782  -3.145  1.00  0.00    -0.354 N 
ATOM     44  C   UNL     1       6.142 -10.619  -7.619  1.00  0.00     0.074 A 
ATOM     45  C   UNL     1       6.213  -9.201  -7.430  1.00  0.00     0.031 C 
ATOM     46  C   UNL     1       6.112 -11.293  -1.012  1.00  0.00     0.029 A 
ATOM     47  C   UNL     1       7.082 -11.952  -1.868  1.00  0.00     0.049 A 
ATOM     48  H   UNL     1       6.890 -12.254  -3.939  1.00  0.00     0.167 HD
ATOM     49  C   UNL     1       6.905 -11.454  -8.376  1.00  0.00     0.034 A 
ATOM     50  C   UNL     1       8.272 -12.526  -1.557  1.00  0.00     0.034 A 
ATOM     51  C   UNL     1       6.538 -12.827  -8.117  1.00  0.00     0.049 A 
ATOM     52  C   UNL     1       8.676 -13.345  -2.718  1.00  0.00     0.074 A 
ATOM     53  C   UNL     1       5.421 -13.613  -8.296  1.00  0.00     0.029 A 
ATOM     54  N   UNL     1       7.323 -13.438  -7.173  1.00  0.00    -0.354 N 
ATOM     55  N   UNL     1       8.060 -14.435  -3.076  1.00  0.00    -0.248 NA
ATOM     56  C   UNL     1       9.548 -12.755  -3.723  1.00  0.00     0.031 C 
ATOM     57  C   UNL     1       5.447 -14.562  -7.232  1.00  0.00     0.029 A 
ATOM     58  C   UNL     1       6.609 -14.371  -6.482  1.00  0.00     0.049 A 
ATOM     59  H   UNL     1       8.272 -13.230  -7.015  1.00  0.00     0.167 HD
ATOM     60  C   UNL     1       8.078 -14.383  -4.460  1.00  0.00     0.074 A 
ATOM     61  C   UNL     1       9.148 -13.447  -4.793  1.00  0.00     0.031 C 
ATOM     62  C   UNL     1       7.013 -14.846  -5.176  1.00  0.00     0.034 A 
BRANCH  49  63
ATOM     63  C   UNL     1       8.301 -11.120  -8.899  1.00  0.00     0.023 A 
ATOM     64  C   UNL     1       8.982 -12.168  -9.566  1.00  0.00     0.012 A 
ATOM     65  C   UNL     1       9.087 -10.003  -8.525  1.00  0.00     0.148 A 
ATOM     66  C   UNL     1      10.368 -12.153  -9.754  1.00  0.00     0.002 A 
ATOM     67  C   UNL     1      10.458  -9.966  -8.763  1.00  0.00     0.091 A 
ATOM     68  F   UNL     1       8.554  -8.992  -7.845  1.00  0.00    -0.205 F 
ATOM     69  C   UNL     1      11.109 -11.054  -9.345  1.00  0.00     0.022 A 
BRANCH  67  70
ATOM     70  S   UNL     1      11.470  -8.556  -8.283  1.00  0.00     0.127 S 
ATOM     71  O   UNL     1      12.328  -9.147  -7.260  1.00  0.00    -0.237 OA
ATOM     72  O   UNL     1      12.137  -8.234  -9.544  1.00  0.00    -0.237 OA
ATOM     73  O   UNL     1      10.543  -7.534  -7.815  1.00  0.00    -0.744 OA
ENDBRANCH  67  70
ENDBRANCH  49  63
BRANCH  50  74
ATOM     74  C   UNL     1       9.221 -12.280  -0.442  1.00  0.00     0.023 A 
ATOM     75  C   UNL     1      10.217 -13.238  -0.149  1.00  0.00     0.012 A 
ATOM     76  C   UNL     1       9.353 -10.995   0.125  1.00  0.00     0.148 A 
ATOM     77  C   UNL     1      11.330 -12.913   0.636  1.00  0.00     0.002 A 
ATOM     78  C   UNL     1      10.460 -10.677   0.908  1.00  0.00     0.091 A 
ATOM     79  F   UNL     1       8.447 -10.059  -0.182  1.00  0.00    -0.205 F 
ATOM     80  C   UNL     1      11.458 -11.629   1.154  1.00  0.00     0.022 A 
BRANCH  78  81
ATOM     81  S   UNL     1      10.717  -9.028   1.578  1.00  0.00     0.127 S 
ATOM     82  O   UNL     1      11.008  -9.316   2.984  1.00  0.00    -0.237 OA
ATOM     83  O   UNL     1      11.861  -8.562   0.799  1.00  0.00    -0.237 OA
ATOM     84  O   UNL     1       9.468  -8.311   1.359  1.00  0.00    -0.744 OA
ENDBRANCH  78  81
ENDBRANCH  50  74
BRANCH  62  85
ATOM     85  C   UNL     1       6.084 -15.810  -4.496  1.00  0.00     0.023 A 
ATOM     86  C   UNL     1       5.263 -15.465  -3.404  1.00  0.00     0.012 A 
ATOM     87  C   UNL     1       5.945 -17.076  -5.086  1.00  0.00     0.148 A 
ATOM     88  C   UNL     1       4.329 -16.380  -2.906  1.00  0.00     0.002 A 
ATOM     89  C   UNL     1       4.979 -17.956  -4.628  1.00  0.00     0.091 A 
ATOM     90  F   UNL     1       6.751 -17.386  -6.114  1.00  0.00    -0.205 F 
ATOM     91  C   UNL     1       4.174 -17.618  -3.530  1.00  0.00     0.022 A 
BRANCH  89  92
ATOM     92  S   UNL     1       4.655 -19.497  -5.485  1.00  0.00     0.127 S 
ATOM     93  O   UNL     1       5.282 -20.476  -4.601  1.00  0.00    -0.237 OA
ATOM     94  O   UNL     1       3.192 -19.540  -5.510  1.00  0.00    -0.237 OA
ATOM     95  O   UNL     1       5.265 -19.358  -6.802  1.00  0.00    -0.744 OA
ENDBRANCH  89  92
ENDBRANCH  62  85
ENDBRANCH  36  37
ENDBRANCH  29  31
ENDBRANCH  28  29
ENDBRANCH  27  28
ENDBRANCH  26  27
ENDBRANCH   1  26
TORSDOF 20
