REMARK SMILES O=C(Cn1nc(C(=O)OCCOCCOC(=O)c2ccc(-c3c4nc(c(-c5cccc(S(=O)(=O)[O-])c5F)c5ccc([nH]5)c(-c5cccc(S(=O)(=O)[O-])c5F)c5nc(c(-c6cccc(S(=O)(=O)[O-])c6F)c6ccc3[nH]6)C=C5)C=C4)cc2)c2ccccc2c1=O)NCc1ccc(F)cc1
REMARK SMILES IDX 11 1 10 2 9 3 7 4 8 5 6 6 4 7 5 8 87 9 86 10 88 11 81 12
REMARK SMILES IDX 85 13 82 14 84 15 83 16 3 17 2 18 1 19 89 20 90 22 91 23
REMARK SMILES IDX 92 24 97 25 93 26 96 27 94 28 95 29 12 30 13 31 14 32 15 33
REMARK SMILES IDX 16 34 17 35 18 36 19 37 80 38 20 39 79 40 21 41 22 42 23 43
REMARK SMILES IDX 73 44 24 45 78 46 72 47 74 48 25 49 77 50 71 51 70 52 26 54
REMARK SMILES IDX 58 55 38 56 57 57 39 58 42 59 56 60 75 61 40 62 41 63 55 65
REMARK SMILES IDX 76 66 43 67 27 68 28 69 36 70 29 71 31 72 37 73 30 74 32 75
REMARK SMILES IDX 33 76 34 77 35 78 59 79 60 80 68 81 61 82 63 83 69 84 62 85
REMARK SMILES IDX 64 86 65 87 66 88 67 89 44 90 45 91 53 92 46 93 48 94 54 95
REMARK SMILES IDX 47 96 49 97 50 98 51 99 52 100
REMARK H PARENT 89 21 74 53 42 64
REMARK Flexibility Score: inf
ROOT
ATOM      1  C   UNL     1       8.263  -0.058  -6.068  1.00  0.00     0.202 C 
ENDROOT
BRANCH   1   2
ATOM      2  C   UNL     1       8.458  -0.325  -4.572  1.00  0.00     0.261 C 
BRANCH   2   3
ATOM      3  O   UNL     1       7.246  -0.099  -3.840  1.00  0.00    -0.458 OA
BRANCH   3   4
ATOM      4  C   UNL     1       7.305   0.868  -2.903  1.00  0.00     0.359 C 
ATOM      5  O   UNL     1       8.279   1.482  -2.507  1.00  0.00    -0.244 OA
BRANCH   4   6
ATOM      6  C   UNL     1       5.897   1.252  -2.470  1.00  0.00     0.176 A 
ATOM      7  N   UNL     1       3.882   0.660  -1.510  1.00  0.00    -0.219 N 
ATOM      8  N   UNL     1       5.161   0.334  -1.913  1.00  0.00    -0.161 NA
ATOM      9  C   UNL     1       3.324   1.930  -1.653  1.00  0.00     0.275 A 
ATOM     10  C   UNL     1       4.200   2.982  -2.186  1.00  0.00     0.051 A 
ATOM     11  O   UNL     1       2.165   2.215  -1.367  1.00  0.00    -0.267 OA
ATOM     12  C   UNL     1       5.450   2.642  -2.684  1.00  0.00     0.022 A 
ATOM     13  C   UNL     1       3.746   4.307  -2.242  1.00  0.00     0.014 A 
ATOM     14  C   UNL     1       6.213   3.614  -3.344  1.00  0.00     0.011 A 
ATOM     15  C   UNL     1       4.524   5.282  -2.861  1.00  0.00     0.001 A 
ATOM     16  C   UNL     1       5.742   4.928  -3.438  1.00  0.00     0.001 A 
BRANCH   7  17
ATOM     17  C   UNL     1       2.998  -0.457  -1.160  1.00  0.00     0.248 C 
BRANCH  17  18
ATOM     18  C   UNL     1       2.228  -0.231   0.143  1.00  0.00     0.242 C 
ATOM     19  O   UNL     1       1.133  -0.752   0.349  1.00  0.00    -0.273 OA
ATOM     20  N   UNL     1       2.903   0.486   1.107  1.00  0.00    -0.350 N 
ATOM     21  H   UNL     1       3.868   0.647   0.998  1.00  0.00     0.163 HD
BRANCH  20  22
ATOM     22  C   UNL     1       2.233   1.007   2.272  1.00  0.00     0.151 C 
BRANCH  22  23
ATOM     23  C   UNL     1       2.586   0.244   3.518  1.00  0.00    -0.029 A 
ATOM     24  C   UNL     1       3.309   0.856   4.553  1.00  0.00     0.008 A 
ATOM     25  C   UNL     1       2.174  -1.091   3.667  1.00  0.00     0.008 A 
ATOM     26  C   UNL     1       3.615   0.144   5.713  1.00  0.00     0.039 A 
ATOM     27  C   UNL     1       2.485  -1.802   4.825  1.00  0.00     0.039 A 
ATOM     28  C   UNL     1       3.202  -1.177   5.838  1.00  0.00     0.123 A 
ATOM     29  F   UNL     1       3.496  -1.855   6.955  1.00  0.00    -0.207 F 
ENDBRANCH  22  23
ENDBRANCH  20  22
ENDBRANCH  17  18
ENDBRANCH   7  17
ENDBRANCH   4   6
ENDBRANCH   3   4
ENDBRANCH   2   3
ENDBRANCH   1   2
BRANCH   1  30
ATOM     30  O   UNL     1       7.740   1.222  -6.424  1.00  0.00    -0.374 OA
BRANCH  30  31
ATOM     31  C   UNL     1       6.337   1.437  -6.267  1.00  0.00     0.202 C 
BRANCH  31  32
ATOM     32  C   UNL     1       5.375   0.752  -7.246  1.00  0.00     0.261 C 
BRANCH  32  33
ATOM     33  O   UNL     1       5.366  -0.675  -7.103  1.00  0.00    -0.460 OA
BRANCH  33  34
ATOM     34  C   UNL     1       5.946  -1.357  -8.123  1.00  0.00     0.338 C 
ATOM     35  O   UNL     1       6.426  -0.883  -9.142  1.00  0.00    -0.246 OA
BRANCH  34  36
ATOM     36  C   UNL     1       6.114  -2.767  -7.723  1.00  0.00     0.060 A 
ATOM     37  C   UNL     1       5.044  -3.512  -7.226  1.00  0.00     0.016 A 
ATOM     38  C   UNL     1       7.380  -3.349  -7.869  1.00  0.00     0.016 A 
ATOM     39  C   UNL     1       5.241  -4.855  -6.900  1.00  0.00     0.010 A 
ATOM     40  C   UNL     1       7.574  -4.692  -7.545  1.00  0.00     0.010 A 
ATOM     41  C   UNL     1       6.500  -5.461  -7.076  1.00  0.00    -0.014 A 
BRANCH  41  42
ATOM     42  C   UNL     1       6.642  -6.928  -6.911  1.00  0.00     0.031 A 
ATOM     43  C   UNL     1       7.376  -7.529  -5.751  1.00  0.00     0.074 A 
ATOM     44  C   UNL     1       6.102  -7.725  -7.854  1.00  0.00     0.049 A 
ATOM     45  N   UNL     1       7.497  -8.791  -5.430  1.00  0.00    -0.248 NA
ATOM     46  C   UNL     1       8.068  -6.607  -4.837  1.00  0.00     0.031 C 
ATOM     47  C   UNL     1       5.428  -7.252  -9.066  1.00  0.00     0.029 A 
ATOM     48  N   UNL     1       6.032  -9.091  -7.945  1.00  0.00    -0.354 N 
ATOM     49  C   UNL     1       8.276  -8.822  -4.282  1.00  0.00     0.074 A 
ATOM     50  C   UNL     1       8.622  -7.450  -3.972  1.00  0.00     0.031 C 
ATOM     51  C   UNL     1       4.987  -8.310  -9.763  1.00  0.00     0.029 A 
ATOM     52  C   UNL     1       5.364  -9.533  -9.063  1.00  0.00     0.049 A 
ATOM     53  H   UNL     1       6.422  -9.698  -7.275  1.00  0.00     0.167 HD
ATOM     54  C   UNL     1       8.646  -9.895  -3.544  1.00  0.00     0.034 A 
ATOM     55  C   UNL     1       5.077 -10.782  -9.477  1.00  0.00     0.034 A 
ATOM     56  C   UNL     1       8.286 -11.254  -3.849  1.00  0.00     0.049 A 
ATOM     57  C   UNL     1       5.488 -11.952  -8.632  1.00  0.00     0.074 A 
ATOM     58  C   UNL     1       8.562 -12.396  -3.115  1.00  0.00     0.029 A 
ATOM     59  N   UNL     1       7.591 -11.661  -4.976  1.00  0.00    -0.354 N 
ATOM     60  N   UNL     1       6.103 -11.950  -7.475  1.00  0.00    -0.248 NA
ATOM     61  C   UNL     1       5.144 -13.292  -9.130  1.00  0.00     0.031 C 
ATOM     62  C   UNL     1       8.053 -13.496  -3.811  1.00  0.00     0.029 A 
ATOM     63  C   UNL     1       7.440 -13.037  -4.965  1.00  0.00     0.049 A 
ATOM     64  H   UNL     1       7.255 -11.060  -5.680  1.00  0.00     0.167 HD
ATOM     65  C   UNL     1       6.204 -13.283  -7.096  1.00  0.00     0.074 A 
ATOM     66  C   UNL     1       5.574 -14.065  -8.140  1.00  0.00     0.031 C 
ATOM     67  C   UNL     1       6.778 -13.805  -5.987  1.00  0.00     0.034 A 
BRANCH  54  68
ATOM     68  C   UNL     1       9.435  -9.659  -2.285  1.00  0.00     0.023 A 
ATOM     69  C   UNL     1       8.760  -9.219  -1.130  1.00  0.00     0.012 A 
ATOM     70  C   UNL     1      10.797 -10.005  -2.206  1.00  0.00     0.148 A 
ATOM     71  C   UNL     1       9.430  -9.123   0.088  1.00  0.00     0.002 A 
ATOM     72  C   UNL     1      11.453  -9.933  -0.983  1.00  0.00     0.091 A 
ATOM     73  F   UNL     1      11.416 -10.417  -3.321  1.00  0.00    -0.205 F 
ATOM     74  C   UNL     1      10.771  -9.491   0.164  1.00  0.00     0.022 A 
BRANCH  72  75
ATOM     75  S   UNL     1      13.166 -10.428  -0.762  1.00  0.00     0.127 S 
ATOM     76  O   UNL     1      13.789  -9.162  -0.376  1.00  0.00    -0.237 OA
ATOM     77  O   UNL     1      13.065 -11.411   0.315  1.00  0.00    -0.237 OA
ATOM     78  O   UNL     1      13.601 -10.962  -2.045  1.00  0.00    -0.744 OA
ENDBRANCH  72  75
ENDBRANCH  54  68
BRANCH  55  79
ATOM     79  C   UNL     1       4.296 -10.968 -10.729  1.00  0.00     0.023 A 
ATOM     80  C   UNL     1       2.936 -11.319 -10.647  1.00  0.00     0.012 A 
ATOM     81  C   UNL     1       4.875 -10.720 -11.988  1.00  0.00     0.148 A 
ATOM     82  C   UNL     1       2.164 -11.428 -11.804  1.00  0.00     0.002 A 
ATOM     83  C   UNL     1       4.092 -10.794 -13.132  1.00  0.00     0.091 A 
ATOM     84  F   UNL     1       6.171 -10.384 -12.032  1.00  0.00    -0.205 F 
ATOM     85  C   UNL     1       2.738 -11.156 -13.043  1.00  0.00     0.022 A 
BRANCH  83  86
ATOM     86  S   UNL     1       4.715 -10.373 -14.762  1.00  0.00     0.127 S 
ATOM     87  O   UNL     1       4.585 -11.646 -15.468  1.00  0.00    -0.237 OA
ATOM     88  O   UNL     1       3.773  -9.336 -15.182  1.00  0.00    -0.237 OA
ATOM     89  O   UNL     1       6.080  -9.909 -14.559  1.00  0.00    -0.744 OA
ENDBRANCH  83  86
ENDBRANCH  55  79
BRANCH  67  90
ATOM     90  C   UNL     1       6.758 -15.299  -5.813  1.00  0.00     0.023 A 
ATOM     91  C   UNL     1       7.673 -16.091  -6.532  1.00  0.00     0.012 A 
ATOM     92  C   UNL     1       5.932 -15.896  -4.840  1.00  0.00     0.148 A 
ATOM     93  C   UNL     1       7.764 -17.461  -6.288  1.00  0.00     0.002 A 
ATOM     94  C   UNL     1       6.052 -17.255  -4.579  1.00  0.00     0.091 A 
ATOM     95  F   UNL     1       5.067 -15.118  -4.174  1.00  0.00    -0.205 F 
ATOM     96  C   UNL     1       6.964 -18.040  -5.304  1.00  0.00     0.022 A 
BRANCH  94  97
ATOM     97  S   UNL     1       5.117 -18.081  -3.286  1.00  0.00     0.127 S 
ATOM     98  O   UNL     1       4.293 -19.008  -4.061  1.00  0.00    -0.237 OA
ATOM     99  O   UNL     1       6.174 -18.715  -2.499  1.00  0.00    -0.237 OA
ATOM    100  O   UNL     1       4.379 -17.037  -2.588  1.00  0.00    -0.744 OA
ENDBRANCH  94  97
ENDBRANCH  67  90
ENDBRANCH  41  42
ENDBRANCH  34  36
ENDBRANCH  33  34
ENDBRANCH  32  33
ENDBRANCH  31  32
ENDBRANCH  30  31
ENDBRANCH   1  30
TORSDOF 21
