REMARK SMILES O=C(OCCOCCOC(=O)[C@@H](F)Sc1ccccc1O)c1ccc(-c2c3nc(c(-c4cccc(S(=O)(=O)[O-])c4F)c4ccc([nH]4)c(-c4cccc(S(=O)(=O)[O-])c4F)c4nc(c(-c5cccc(S(=O)(=O)[O-])c5F)c5ccc2[nH]5)C=C4)C=C3)cc1
REMARK SMILES IDX 6 1 5 2 4 3 3 4 2 5 1 6 22 7 23 8 84 9 24 10 83 11 25 12
REMARK SMILES IDX 26 13 27 14 77 15 28 16 82 17 76 18 78 19 29 20 81 21 75 22
REMARK SMILES IDX 74 23 30 25 62 26 42 27 61 28 43 29 46 30 60 31 79 32 44 33
REMARK SMILES IDX 45 34 59 36 80 37 47 38 31 39 32 40 40 41 33 42 35 43 41 44
REMARK SMILES IDX 34 45 36 46 37 47 38 48 39 49 63 50 64 51 72 52 65 53 67 54
REMARK SMILES IDX 73 55 66 56 68 57 69 58 70 59 71 60 48 61 49 62 57 63 50 64
REMARK SMILES IDX 52 65 58 66 51 67 53 68 54 69 55 70 56 71 7 72 8 73 9 74
REMARK SMILES IDX 10 75 11 76 12 77 13 78 14 79 15 80 16 81 20 82 17 83 19 84
REMARK SMILES IDX 18 85 21 86
REMARK H PARENT 78 24 46 35 21 87
REMARK Flexibility Score: inf
ROOT
ATOM      1  O   UNL     1       4.467   0.355   1.346  1.00  0.00    -0.374 OA
ENDROOT
BRANCH   1   2
ATOM      2  C   UNL     1       4.717   1.433   0.441  1.00  0.00     0.202 C 
BRANCH   2   3
ATOM      3  C   UNL     1       4.449   1.113  -1.039  1.00  0.00     0.261 C 
BRANCH   3   4
ATOM      4  O   UNL     1       3.079   0.741  -1.274  1.00  0.00    -0.460 OA
BRANCH   4   5
ATOM      5  C   UNL     1       2.515  -0.489  -1.356  1.00  0.00     0.338 C 
ATOM      6  O   UNL     1       1.323  -0.552  -1.658  1.00  0.00    -0.246 OA
BRANCH   5   7
ATOM      7  C   UNL     1       3.225  -1.773  -1.044  1.00  0.00     0.060 A 
ATOM      8  C   UNL     1       4.486  -1.876  -0.456  1.00  0.00     0.016 A 
ATOM      9  C   UNL     1       2.524  -2.971  -1.286  1.00  0.00     0.016 A 
ATOM     10  C   UNL     1       5.029  -3.091  -0.088  1.00  0.00     0.010 A 
ATOM     11  C   UNL     1       3.072  -4.212  -0.943  1.00  0.00     0.010 A 
ATOM     12  C   UNL     1       4.332  -4.262  -0.344  1.00  0.00    -0.014 A 
BRANCH  12  13
ATOM     13  C   UNL     1       5.078  -5.505  -0.128  1.00  0.00     0.031 A 
ATOM     14  C   UNL     1       5.818  -6.070  -1.298  1.00  0.00     0.074 A 
ATOM     15  C   UNL     1       5.242  -5.966   1.123  1.00  0.00     0.049 A 
ATOM     16  N   UNL     1       6.602  -7.107  -1.353  1.00  0.00    -0.248 NA
ATOM     17  C   UNL     1       5.685  -5.341  -2.574  1.00  0.00     0.031 C 
ATOM     18  C   UNL     1       4.667  -5.358   2.326  1.00  0.00     0.029 A 
ATOM     19  N   UNL     1       5.960  -7.029   1.593  1.00  0.00    -0.354 N 
ATOM     20  C   UNL     1       7.021  -7.183  -2.674  1.00  0.00     0.074 A 
ATOM     21  C   UNL     1       6.430  -6.074  -3.384  1.00  0.00     0.031 C 
ATOM     22  C   UNL     1       5.044  -6.073   3.399  1.00  0.00     0.029 A 
ATOM     23  C   UNL     1       5.839  -7.210   2.950  1.00  0.00     0.049 A 
ATOM     24  H   UNL     1       6.509  -7.608   1.017  1.00  0.00     0.167 HD
ATOM     25  C   UNL     1       7.820  -8.114  -3.238  1.00  0.00     0.034 A 
ATOM     26  C   UNL     1       6.294  -8.215   3.721  1.00  0.00     0.034 A 
ATOM     27  C   UNL     1       8.373  -9.212  -2.499  1.00  0.00     0.049 A 
ATOM     28  C   UNL     1       7.103  -9.293   3.048  1.00  0.00     0.074 A 
ATOM     29  C   UNL     1       9.141 -10.263  -2.957  1.00  0.00     0.029 A 
ATOM     30  N   UNL     1       8.194  -9.402  -1.134  1.00  0.00    -0.354 N 
ATOM     31  N   UNL     1       7.494  -9.368   1.796  1.00  0.00    -0.248 NA
ATOM     32  C   UNL     1       7.545 -10.413   3.885  1.00  0.00     0.031 C 
ATOM     33  C   UNL     1       9.393 -11.111  -1.873  1.00  0.00     0.029 A 
ATOM     34  C   UNL     1       8.823 -10.562  -0.732  1.00  0.00     0.049 A 
ATOM     35  H   UNL     1       7.691  -8.797  -0.541  1.00  0.00     0.167 HD
ATOM     36  C   UNL     1       8.252 -10.526   1.700  1.00  0.00     0.074 A 
ATOM     37  C   UNL     1       8.282 -11.109   3.029  1.00  0.00     0.031 C 
ATOM     38  C   UNL     1       8.859 -11.073   0.617  1.00  0.00     0.034 A 
BRANCH  25  39
ATOM     39  C   UNL     1       8.057  -8.007  -4.718  1.00  0.00     0.023 A 
ATOM     40  C   UNL     1       8.890  -6.995  -5.237  1.00  0.00     0.012 A 
ATOM     41  C   UNL     1       7.415  -8.896  -5.601  1.00  0.00     0.148 A 
ATOM     42  C   UNL     1       9.049  -6.847  -6.616  1.00  0.00     0.002 A 
ATOM     43  C   UNL     1       7.612  -8.769  -6.970  1.00  0.00     0.091 A 
ATOM     44  F   UNL     1       6.600  -9.827  -5.087  1.00  0.00    -0.205 F 
ATOM     45  C   UNL     1       8.416  -7.737  -7.480  1.00  0.00     0.022 A 
BRANCH  43  46
ATOM     46  S   UNL     1       6.885  -9.899  -8.160  1.00  0.00     0.127 S 
ATOM     47  O   UNL     1       5.955  -9.021  -8.871  1.00  0.00    -0.237 OA
ATOM     48  O   UNL     1       8.052 -10.311  -8.940  1.00  0.00    -0.237 OA
ATOM     49  O   UNL     1       6.263 -10.961  -7.383  1.00  0.00    -0.744 OA
ENDBRANCH  43  46
ENDBRANCH  25  39
BRANCH  26  50
ATOM     50  C   UNL     1       5.975  -8.261   5.177  1.00  0.00     0.023 A 
ATOM     51  C   UNL     1       7.005  -8.167   6.131  1.00  0.00     0.012 A 
ATOM     52  C   UNL     1       4.643  -8.391   5.622  1.00  0.00     0.148 A 
ATOM     53  C   UNL     1       6.720  -8.235   7.497  1.00  0.00     0.002 A 
ATOM     54  C   UNL     1       4.359  -8.401   6.983  1.00  0.00     0.091 A 
ATOM     55  F   UNL     1       3.673  -8.499   4.703  1.00  0.00    -0.205 F 
ATOM     56  C   UNL     1       5.398  -8.342   7.923  1.00  0.00     0.022 A 
BRANCH  54  57
ATOM     57  S   UNL     1       2.678  -8.415   7.616  1.00  0.00     0.127 S 
ATOM     58  O   UNL     1       2.580  -9.760   8.177  1.00  0.00    -0.237 OA
ATOM     59  O   UNL     1       2.717  -7.336   8.604  1.00  0.00    -0.237 OA
ATOM     60  O   UNL     1       1.822  -8.145   6.468  1.00  0.00    -0.744 OA
ENDBRANCH  54  57
ENDBRANCH  26  50
BRANCH  38  61
ATOM     61  C   UNL     1       9.641 -12.337   0.835  1.00  0.00     0.023 A 
ATOM     62  C   UNL     1       8.967 -13.555   1.048  1.00  0.00     0.012 A 
ATOM     63  C   UNL     1      11.044 -12.324   0.727  1.00  0.00     0.148 A 
ATOM     64  C   UNL     1       9.685 -14.741   1.178  1.00  0.00     0.002 A 
ATOM     65  C   UNL     1      11.748 -13.517   0.798  1.00  0.00     0.091 A 
ATOM     66  F   UNL     1      11.661 -11.147   0.542  1.00  0.00    -0.205 F 
ATOM     67  C   UNL     1      11.072 -14.725   1.038  1.00  0.00     0.022 A 
BRANCH  65  68
ATOM     68  S   UNL     1      13.517 -13.602   0.513  1.00  0.00     0.127 S 
ATOM     69  O   UNL     1      14.022 -13.875   1.857  1.00  0.00    -0.237 OA
ATOM     70  O   UNL     1      13.625 -14.725  -0.420  1.00  0.00    -0.237 OA
ATOM     71  O   UNL     1      13.897 -12.313  -0.048  1.00  0.00    -0.744 OA
ENDBRANCH  65  68
ENDBRANCH  38  61
ENDBRANCH  12  13
ENDBRANCH   5   7
ENDBRANCH   4   5
ENDBRANCH   3   4
ENDBRANCH   2   3
ENDBRANCH   1   2
BRANCH   1  72
ATOM     72  C   UNL     1       3.104   0.206   1.763  1.00  0.00     0.202 C 
BRANCH  72  73
ATOM     73  C   UNL     1       2.964   0.645   3.207  1.00  0.00     0.261 C 
BRANCH  73  74
ATOM     74  O   UNL     1       3.284   2.039   3.233  1.00  0.00    -0.460 OA
BRANCH  74  75
ATOM     75  C   UNL     1       4.472   2.394   3.796  1.00  0.00     0.351 C 
ATOM     76  O   UNL     1       5.233   1.638   4.393  1.00  0.00    -0.248 OA
BRANCH  75  77
ATOM     77  C   UNL     1       4.742   3.868   3.561  1.00  0.00     0.338 C 
ATOM     78  F   UNL     1       4.279   4.306   2.348  1.00  0.00    -0.222 F 
BRANCH  77  79
ATOM     79  S   UNL     1       4.053   4.911   4.888  1.00  0.00    -0.073 SA
BRANCH  79  80
ATOM     80  C   UNL     1       2.309   4.724   4.526  1.00  0.00     0.052 A 
ATOM     81  C   UNL     1       1.679   5.688   3.731  1.00  0.00     0.019 A 
ATOM     82  C   UNL     1       1.561   3.625   4.975  1.00  0.00     0.129 A 
ATOM     83  C   UNL     1       0.341   5.535   3.361  1.00  0.00     0.001 A 
ATOM     84  C   UNL     1       0.234   3.452   4.580  1.00  0.00     0.047 A 
ATOM     85  C   UNL     1      -0.374   4.410   3.770  1.00  0.00     0.004 A 
BRANCH  82  86
ATOM     86  O   UNL     1       2.154   2.689   5.780  1.00  0.00    -0.507 OA
ATOM     87  H   UNL     1       3.045   2.799   6.048  1.00  0.00     0.293 HD
ENDBRANCH  82  86
ENDBRANCH  79  80
ENDBRANCH  77  79
ENDBRANCH  75  77
ENDBRANCH  74  75
ENDBRANCH  73  74
ENDBRANCH  72  73
ENDBRANCH   1  72
TORSDOF 20
