REMARK SMILES O=C(CNc1nc(-c2ccccc2)c(-c2ccccc2)s1)OCCOCCOC(=O)c1ccc(-c2c3nc(c(-c4cccc(S(=O)(=O)[O-])c4F)c4ccc([nH]4)c(-c4cccc(S(=O)(=O)[O-])c4F)c4nc(c(-c5cccc(S(=O)(=O)[O-])c5F)c5ccc2[nH]5)C=C4)C=C3)cc1
REMARK SMILES IDX 25 1 24 2 23 3 22 4 2 5 1 6 3 7 4 8 5 10 6 11 21 12 7 13
REMARK SMILES IDX 14 14 8 15 9 16 13 17 10 18 12 19 11 20 15 21 16 22 20 23
REMARK SMILES IDX 17 24 19 25 18 26 26 27 27 28 28 29 29 30 30 31 31 32 32 33
REMARK SMILES IDX 93 34 33 35 92 36 34 37 35 38 36 39 86 40 37 41 91 42 85 43
REMARK SMILES IDX 87 44 38 45 90 46 84 47 83 48 39 50 71 51 51 52 70 53 52 54
REMARK SMILES IDX 55 55 69 56 88 57 53 58 54 59 68 61 89 62 56 63 40 64 41 65
REMARK SMILES IDX 49 66 42 67 44 68 50 69 43 70 45 71 46 72 47 73 48 74 72 75
REMARK SMILES IDX 73 76 81 77 74 78 76 79 82 80 75 81 77 82 78 83 79 84 80 85
REMARK SMILES IDX 57 86 58 87 66 88 59 89 61 90 67 91 60 92 62 93 63 94 64 95
REMARK SMILES IDX 65 96
REMARK H PARENT 4 9 87 49 55 60
REMARK Flexibility Score: inf
ROOT
ATOM      1  O   UNL     1       4.083  -1.332  -0.847  1.00  0.00    -0.374 OA
ENDROOT
BRANCH   1   2
ATOM      2  C   UNL     1       4.591  -0.819   0.378  1.00  0.00     0.202 C 
BRANCH   2   3
ATOM      3  C   UNL     1       4.080   0.547   0.828  1.00  0.00     0.261 C 
BRANCH   3   4
ATOM      4  O   UNL     1       2.701   0.811   0.539  1.00  0.00    -0.462 OA
BRANCH   4   5
ATOM      5  C   UNL     1       2.208   1.216  -0.655  1.00  0.00     0.325 C 
ATOM      6  O   UNL     1       0.989   1.359  -0.773  1.00  0.00    -0.250 OA
BRANCH   5   7
ATOM      7  C   UNL     1       3.127   1.440  -1.855  1.00  0.00     0.238 C 
BRANCH   7   8
ATOM      8  N   UNL     1       4.222   2.360  -1.600  1.00  0.00    -0.351 N 
ATOM      9  H   UNL     1       4.029   3.260  -1.251  1.00  0.00     0.163 HD
BRANCH   8  10
ATOM     10  C   UNL     1       5.501   1.998  -1.834  1.00  0.00     0.184 A 
ATOM     11  N   UNL     1       5.904   1.020  -2.610  1.00  0.00    -0.220 NA
ATOM     12  S   UNL     1       6.753   2.825  -0.992  1.00  0.00    -0.096 S 
ATOM     13  C   UNL     1       7.277   0.844  -2.484  1.00  0.00     0.091 A 
ATOM     14  C   UNL     1       7.900   1.706  -1.596  1.00  0.00     0.064 A 
BRANCH  13  15
ATOM     15  C   UNL     1       8.015  -0.092  -3.324  1.00  0.00     0.002 A 
ATOM     16  C   UNL     1       8.889  -1.041  -2.776  1.00  0.00     0.010 A 
ATOM     17  C   UNL     1       7.944   0.048  -4.715  1.00  0.00     0.010 A 
ATOM     18  C   UNL     1       9.726  -1.791  -3.607  1.00  0.00     0.001 A 
ATOM     19  C   UNL     1       8.784  -0.701  -5.544  1.00  0.00     0.001 A 
ATOM     20  C   UNL     1       9.684  -1.609  -4.988  1.00  0.00     0.000 A 
ENDBRANCH  13  15
BRANCH  14  21
ATOM     21  C   UNL     1       9.300   1.870  -1.224  1.00  0.00    -0.006 A 
ATOM     22  C   UNL     1       9.742   1.549   0.066  1.00  0.00     0.009 A 
ATOM     23  C   UNL     1      10.213   2.365  -2.162  1.00  0.00     0.009 A 
ATOM     24  C   UNL     1      11.079   1.743   0.417  1.00  0.00     0.001 A 
ATOM     25  C   UNL     1      11.547   2.561  -1.809  1.00  0.00     0.001 A 
ATOM     26  C   UNL     1      11.977   2.256  -0.519  1.00  0.00     0.000 A 
ENDBRANCH  14  21
ENDBRANCH   8  10
ENDBRANCH   7   8
ENDBRANCH   5   7
ENDBRANCH   4   5
ENDBRANCH   3   4
ENDBRANCH   2   3
ENDBRANCH   1   2
BRANCH   1  27
ATOM     27  C   UNL     1       2.828  -2.014  -0.767  1.00  0.00     0.202 C 
BRANCH  27  28
ATOM     28  C   UNL     1       2.904  -3.489  -0.357  1.00  0.00     0.261 C 
BRANCH  28  29
ATOM     29  O   UNL     1       3.314  -3.635   1.011  1.00  0.00    -0.460 OA
BRANCH  29  30
ATOM     30  C   UNL     1       4.616  -3.964   1.191  1.00  0.00     0.338 C 
ATOM     31  O   UNL     1       5.430  -4.259   0.329  1.00  0.00    -0.246 OA
BRANCH  30  32
ATOM     32  C   UNL     1       4.988  -3.699   2.595  1.00  0.00     0.060 A 
ATOM     33  C   UNL     1       6.188  -3.015   2.833  1.00  0.00     0.016 A 
ATOM     34  C   UNL     1       4.181  -4.112   3.657  1.00  0.00     0.016 A 
ATOM     35  C   UNL     1       6.619  -2.799   4.139  1.00  0.00     0.010 A 
ATOM     36  C   UNL     1       4.616  -3.897   4.965  1.00  0.00     0.010 A 
ATOM     37  C   UNL     1       5.857  -3.283   5.208  1.00  0.00    -0.014 A 
BRANCH  37  38
ATOM     38  C   UNL     1       6.436  -3.310   6.570  1.00  0.00     0.031 A 
ATOM     39  C   UNL     1       6.962  -4.617   7.097  1.00  0.00     0.074 A 
ATOM     40  C   UNL     1       6.486  -2.197   7.322  1.00  0.00     0.049 A 
ATOM     41  N   UNL     1       7.461  -4.897   8.271  1.00  0.00    -0.248 NA
ATOM     42  C   UNL     1       6.911  -5.766   6.176  1.00  0.00     0.031 C 
ATOM     43  C   UNL     1       6.009  -0.877   6.910  1.00  0.00     0.029 A 
ATOM     44  N   UNL     1       6.936  -2.010   8.604  1.00  0.00    -0.354 N 
ATOM     45  C   UNL     1       7.750  -6.256   8.244  1.00  0.00     0.074 A 
ATOM     46  C   UNL     1       7.357  -6.749   6.943  1.00  0.00     0.031 C 
ATOM     47  C   UNL     1       6.165  -0.020   7.934  1.00  0.00     0.029 A 
ATOM     48  C   UNL     1       6.723  -0.738   9.078  1.00  0.00     0.049 A 
ATOM     49  H   UNL     1       7.370  -2.718   9.132  1.00  0.00     0.167 HD
ATOM     50  C   UNL     1       8.308  -7.022   9.211  1.00  0.00     0.034 A 
ATOM     51  C   UNL     1       6.929  -0.224  10.307  1.00  0.00     0.034 A 
ATOM     52  C   UNL     1       8.705  -6.519  10.497  1.00  0.00     0.049 A 
ATOM     53  C   UNL     1       7.522  -1.105  11.376  1.00  0.00     0.074 A 
ATOM     54  C   UNL     1       9.319  -7.198  11.534  1.00  0.00     0.029 A 
ATOM     55  N   UNL     1       8.513  -5.215  10.929  1.00  0.00    -0.354 N 
ATOM     56  N   UNL     1       7.892  -2.361  11.302  1.00  0.00    -0.248 NA
ATOM     57  C   UNL     1       7.757  -0.487  12.689  1.00  0.00     0.031 C 
ATOM     58  C   UNL     1       9.463  -6.313  12.608  1.00  0.00     0.029 A 
ATOM     59  C   UNL     1       8.983  -5.071  12.223  1.00  0.00     0.049 A 
ATOM     60  H   UNL     1       8.103  -4.498  10.394  1.00  0.00     0.167 HD
ATOM     61  C   UNL     1       8.441  -2.671  12.541  1.00  0.00     0.074 A 
ATOM     62  C   UNL     1       8.371  -1.465  13.341  1.00  0.00     0.031 C 
ATOM     63  C   UNL     1       8.950  -3.849  12.984  1.00  0.00     0.034 A 
BRANCH  50  64
ATOM     64  C   UNL     1       8.530  -8.481   8.908  1.00  0.00     0.023 A 
ATOM     65  C   UNL     1       9.521  -8.862   7.980  1.00  0.00     0.012 A 
ATOM     66  C   UNL     1       7.791  -9.476   9.575  1.00  0.00     0.148 A 
ATOM     67  C   UNL     1       9.748 -10.209   7.695  1.00  0.00     0.002 A 
ATOM     68  C   UNL     1       8.056 -10.817   9.323  1.00  0.00     0.091 A 
ATOM     69  F   UNL     1       6.837  -9.094  10.437  1.00  0.00    -0.205 F 
ATOM     70  C   UNL     1       9.023 -11.184   8.374  1.00  0.00     0.022 A 
BRANCH  68  71
ATOM     71  S   UNL     1       7.235 -12.150  10.203  1.00  0.00     0.127 S 
ATOM     72  O   UNL     1       6.429 -12.752   9.142  1.00  0.00    -0.237 OA
ATOM     73  O   UNL     1       8.367 -12.965  10.645  1.00  0.00    -0.237 OA
ATOM     74  O   UNL     1       6.481 -11.520  11.277  1.00  0.00    -0.744 OA
ENDBRANCH  68  71
ENDBRANCH  50  64
BRANCH  51  75
ATOM     75  C   UNL     1       6.595   1.201  10.588  1.00  0.00     0.023 A 
ATOM     76  C   UNL     1       7.629   2.121  10.851  1.00  0.00     0.012 A 
ATOM     77  C   UNL     1       5.260   1.650  10.592  1.00  0.00     0.148 A 
ATOM     78  C   UNL     1       7.337   3.453  11.148  1.00  0.00     0.002 A 
ATOM     79  C   UNL     1       4.980   2.990  10.831  1.00  0.00     0.091 A 
ATOM     80  F   UNL     1       4.290   0.756  10.353  1.00  0.00    -0.205 F 
ATOM     81  C   UNL     1       6.015   3.889  11.129  1.00  0.00     0.022 A 
BRANCH  79  82
ATOM     82  S   UNL     1       3.322   3.667  10.701  1.00  0.00     0.127 S 
ATOM     83  O   UNL     1       3.027   4.005  12.091  1.00  0.00    -0.237 OA
ATOM     84  O   UNL     1       3.536   4.814   9.819  1.00  0.00    -0.237 OA
ATOM     85  O   UNL     1       2.507   2.607  10.123  1.00  0.00    -0.744 OA
ENDBRANCH  79  82
ENDBRANCH  51  75
BRANCH  63  86
ATOM     86  C   UNL     1       9.523  -3.883  14.377  1.00  0.00     0.023 A 
ATOM     87  C   UNL     1       8.671  -3.812  15.497  1.00  0.00     0.012 A 
ATOM     88  C   UNL     1      10.908  -4.055  14.572  1.00  0.00     0.148 A 
ATOM     89  C   UNL     1       9.193  -3.872  16.789  1.00  0.00     0.002 A 
ATOM     90  C   UNL     1      11.415  -4.170  15.860  1.00  0.00     0.091 A 
ATOM     91  F   UNL     1      11.704  -4.105  13.494  1.00  0.00    -0.205 F 
ATOM     92  C   UNL     1      10.561  -4.063  16.970  1.00  0.00     0.022 A 
BRANCH  90  93
ATOM     93  S   UNL     1      13.146  -4.518  16.188  1.00  0.00     0.127 S 
ATOM     94  O   UNL     1      13.604  -3.248  16.748  1.00  0.00    -0.237 OA
ATOM     95  O   UNL     1      13.063  -5.615  17.152  1.00  0.00    -0.237 OA
ATOM     96  O   UNL     1      13.734  -4.882  14.906  1.00  0.00    -0.744 OA
ENDBRANCH  90  93
ENDBRANCH  63  86
ENDBRANCH  37  38
ENDBRANCH  30  32
ENDBRANCH  29  30
ENDBRANCH  28  29
ENDBRANCH  27  28
ENDBRANCH   1  27
TORSDOF 21
