REMARK SMILES COc1ccc2c(c1)c(CC(=O)OCCOCCOC(=O)c1ccc(-c3c4nc(c(-c5cccc(S(=O)(=O)[O-])c5F)c5ccc([nH]5)c(-c5cccc(S(=O)(=O)[O-])c5F)c5nc(c(-c6cccc(S(=O)(=O)[O-])c6F)c6ccc3[nH]6)C=C5)C=C4)cc1)c(C)n2C(=O)c1ccc(Cl)cc1
REMARK SMILES IDX 16 1 15 2 14 3 13 4 11 5 12 6 10 7 9 8 3 9 4 10 8 11 5 12
REMARK SMILES IDX 7 13 6 14 87 15 85 16 86 17 2 18 1 19 88 20 89 21 90 22
REMARK SMILES IDX 91 23 96 24 92 25 95 26 93 27 94 28 17 29 18 30 19 31 20 32
REMARK SMILES IDX 21 33 22 34 23 35 84 36 24 37 83 38 25 39 26 40 27 41 77 42
REMARK SMILES IDX 28 43 82 44 76 45 78 46 29 47 81 48 75 49 74 50 30 52 62 53
REMARK SMILES IDX 42 54 61 55 43 56 46 57 60 58 79 59 44 60 45 61 59 63 80 64
REMARK SMILES IDX 47 65 31 66 32 67 40 68 33 69 35 70 41 71 34 72 36 73 37 74
REMARK SMILES IDX 38 75 39 76 63 77 64 78 72 79 65 80 67 81 73 82 66 83 68 84
REMARK SMILES IDX 69 85 70 86 71 87 48 88 49 89 57 90 50 91 52 92 58 93 51 94
REMARK SMILES IDX 53 95 54 96 55 97 56 98
REMARK H PARENT 78 51 46 62
REMARK Flexibility Score: inf
ROOT
ATOM      1  O   UNL     1      -2.529   4.605   1.195  1.00  0.00    -0.374 OA
ENDROOT
BRANCH   1   2
ATOM      2  C   UNL     1      -2.484   5.894   1.795  1.00  0.00     0.202 C 
BRANCH   2   3
ATOM      3  C   UNL     1      -2.604   6.038   3.321  1.00  0.00     0.261 C 
BRANCH   3   4
ATOM      4  O   UNL     1      -1.862   5.069   4.087  1.00  0.00    -0.463 OA
BRANCH   4   5
ATOM      5  C   UNL     1      -2.628   4.142   4.718  1.00  0.00     0.310 C 
ATOM      6  O   UNL     1      -3.858   4.129   4.695  1.00  0.00    -0.252 OA
BRANCH   5   7
ATOM      7  C   UNL     1      -1.881   3.094   5.508  1.00  0.00     0.160 C 
BRANCH   7   8
ATOM      8  C   UNL     1      -0.396   2.911   5.322  1.00  0.00    -0.008 A 
ATOM      9  C   UNL     1       0.609   0.711   2.347  1.00  0.00     0.119 A 
ATOM     10  C   UNL     1       1.968   0.731   2.598  1.00  0.00     0.048 A 
ATOM     11  C   UNL     1      -0.255   1.332   3.253  1.00  0.00     0.057 A 
ATOM     12  C   UNL     1       2.476   1.398   3.719  1.00  0.00     0.031 A 
ATOM     13  C   UNL     1       0.239   2.100   4.337  1.00  0.00     0.008 A 
ATOM     14  C   UNL     1       1.617   2.122   4.575  1.00  0.00     0.057 A 
ATOM     15  N   UNL     1       1.847   2.883   5.741  1.00  0.00    -0.280 N 
ATOM     16  C   UNL     1       0.605   3.387   6.164  1.00  0.00     0.028 A 
ATOM     17  C   UNL     1       0.380   4.265   7.359  1.00  0.00     0.065 C 
BRANCH   9  18
ATOM     18  O   UNL     1       0.002   0.161   1.254  1.00  0.00    -0.497 OA
ATOM     19  C   UNL     1       0.844  -0.343   0.222  1.00  0.00     0.278 C 
ENDBRANCH   9  18
BRANCH  15  20
ATOM     20  C   UNL     1       3.103   3.042   6.403  1.00  0.00     0.262 C 
ATOM     21  O   UNL     1       3.143   3.563   7.516  1.00  0.00    -0.268 OA
BRANCH  20  22
ATOM     22  C   UNL     1       4.400   2.550   5.911  1.00  0.00     0.040 A 
ATOM     23  C   UNL     1       5.034   3.160   4.824  1.00  0.00     0.015 A 
ATOM     24  C   UNL     1       4.976   1.444   6.550  1.00  0.00     0.015 A 
ATOM     25  C   UNL     1       6.213   2.602   4.321  1.00  0.00     0.021 A 
ATOM     26  C   UNL     1       6.158   0.898   6.049  1.00  0.00     0.021 A 
ATOM     27  C   UNL     1       6.761   1.468   4.927  1.00  0.00     0.041 A 
ATOM     28  Cl  UNL     1       8.181   0.750   4.271  1.00  0.00    -0.084 Cl
ENDBRANCH  20  22
ENDBRANCH  15  20
ENDBRANCH   7   8
ENDBRANCH   5   7
ENDBRANCH   4   5
ENDBRANCH   3   4
ENDBRANCH   2   3
ENDBRANCH   1   2
BRANCH   1  29
ATOM     29  C   UNL     1      -1.433   3.729   1.445  1.00  0.00     0.202 C 
BRANCH  29  30
ATOM     30  C   UNL     1      -0.031   4.112   0.943  1.00  0.00     0.261 C 
BRANCH  30  31
ATOM     31  O   UNL     1       0.462   5.279   1.602  1.00  0.00    -0.460 OA
BRANCH  31  32
ATOM     32  C   UNL     1       1.215   6.085   0.800  1.00  0.00     0.338 C 
ATOM     33  O   UNL     1       1.915   5.760  -0.129  1.00  0.00    -0.246 OA
BRANCH  32  34
ATOM     34  C   UNL     1       0.666   7.429   1.048  1.00  0.00     0.060 A 
ATOM     35  C   UNL     1       0.610   7.923   2.354  1.00  0.00     0.016 A 
ATOM     36  C   UNL     1      -0.104   7.981   0.012  1.00  0.00     0.016 A 
ATOM     37  C   UNL     1      -0.291   8.936   2.637  1.00  0.00     0.010 A 
ATOM     38  C   UNL     1      -1.026   8.975   0.309  1.00  0.00     0.010 A 
ATOM     39  C   UNL     1      -1.135   9.428   1.626  1.00  0.00    -0.014 A 
BRANCH  39  40
ATOM     40  C   UNL     1      -1.935  10.603   1.950  1.00  0.00     0.031 A 
ATOM     41  C   UNL     1      -1.094  11.812   2.153  1.00  0.00     0.074 A 
ATOM     42  C   UNL     1      -3.279  10.691   1.929  1.00  0.00     0.049 A 
ATOM     43  N   UNL     1      -0.947  12.514   3.229  1.00  0.00    -0.248 NA
ATOM     44  C   UNL     1      -0.192  12.184   1.050  1.00  0.00     0.031 C 
ATOM     45  C   UNL     1      -4.243   9.705   1.446  1.00  0.00     0.029 A 
ATOM     46  N   UNL     1      -4.058  11.774   2.224  1.00  0.00    -0.354 N 
ATOM     47  C   UNL     1      -0.079  13.541   2.871  1.00  0.00     0.074 A 
ATOM     48  C   UNL     1       0.485  13.192   1.593  1.00  0.00     0.031 C 
ATOM     49  C   UNL     1      -5.438  10.313   1.259  1.00  0.00     0.029 A 
ATOM     50  C   UNL     1      -5.346  11.694   1.702  1.00  0.00     0.049 A 
ATOM     51  H   UNL     1      -3.739  12.539   2.755  1.00  0.00     0.167 HD
ATOM     52  C   UNL     1      -0.045  14.732   3.521  1.00  0.00     0.034 A 
ATOM     53  C   UNL     1      -6.217  12.723   1.558  1.00  0.00     0.034 A 
ATOM     54  C   UNL     1      -0.673  14.688   4.807  1.00  0.00     0.049 A 
ATOM     55  C   UNL     1      -5.781  13.799   2.482  1.00  0.00     0.074 A 
ATOM     56  C   UNL     1      -0.476  13.969   5.967  1.00  0.00     0.029 A 
ATOM     57  N   UNL     1      -1.920  15.250   4.912  1.00  0.00    -0.354 N 
ATOM     58  N   UNL     1      -5.826  13.714   3.782  1.00  0.00    -0.248 NA
ATOM     59  C   UNL     1      -4.959  14.877   1.953  1.00  0.00     0.031 C 
ATOM     60  C   UNL     1      -1.780  13.765   6.501  1.00  0.00     0.029 A 
ATOM     61  C   UNL     1      -2.690  14.385   5.641  1.00  0.00     0.049 A 
ATOM     62  H   UNL     1      -2.207  16.113   4.534  1.00  0.00     0.167 HD
ATOM     63  C   UNL     1      -4.729  14.444   4.218  1.00  0.00     0.074 A 
ATOM     64  C   UNL     1      -4.314  15.234   3.065  1.00  0.00     0.031 C 
ATOM     65  C   UNL     1      -4.089  14.127   5.380  1.00  0.00     0.034 A 
BRANCH  52  66
ATOM     66  C   UNL     1       0.269  16.024   2.825  1.00  0.00     0.023 A 
ATOM     67  C   UNL     1       0.652  17.133   3.603  1.00  0.00     0.012 A 
ATOM     68  C   UNL     1      -0.025  16.253   1.461  1.00  0.00     0.148 A 
ATOM     69  C   UNL     1       0.747  18.411   3.041  1.00  0.00     0.002 A 
ATOM     70  C   UNL     1       0.164  17.502   0.889  1.00  0.00     0.091 A 
ATOM     71  F   UNL     1      -0.618  15.294   0.738  1.00  0.00    -0.205 F 
ATOM     72  C   UNL     1       0.527  18.592   1.679  1.00  0.00     0.022 A 
BRANCH  70  73
ATOM     73  S   UNL     1      -0.034  17.741  -0.879  1.00  0.00     0.127 S 
ATOM     74  O   UNL     1      -1.377  18.307  -0.951  1.00  0.00    -0.237 OA
ATOM     75  O   UNL     1       1.052  18.674  -1.183  1.00  0.00    -0.237 OA
ATOM     76  O   UNL     1       0.146  16.415  -1.458  1.00  0.00    -0.744 OA
ENDBRANCH  70  73
ENDBRANCH  52  66
BRANCH  53  77
ATOM     77  C   UNL     1      -7.261  12.965   0.527  1.00  0.00     0.023 A 
ATOM     78  C   UNL     1      -8.206  13.994   0.732  1.00  0.00     0.012 A 
ATOM     79  C   UNL     1      -7.185  12.395  -0.764  1.00  0.00     0.148 A 
ATOM     80  C   UNL     1      -9.007  14.469  -0.315  1.00  0.00     0.002 A 
ATOM     81  C   UNL     1      -8.000  12.854  -1.797  1.00  0.00     0.091 A 
ATOM     82  F   UNL     1      -6.248  11.473  -1.016  1.00  0.00    -0.205 F 
ATOM     83  C   UNL     1      -8.900  13.903  -1.581  1.00  0.00     0.022 A 
BRANCH  81  84
ATOM     84  S   UNL     1      -7.912  12.155  -3.451  1.00  0.00     0.127 S 
ATOM     85  O   UNL     1      -9.322  12.095  -3.838  1.00  0.00    -0.237 OA
ATOM     86  O   UNL     1      -7.124  13.155  -4.164  1.00  0.00    -0.237 OA
ATOM     87  O   UNL     1      -7.287  10.847  -3.288  1.00  0.00    -0.744 OA
ENDBRANCH  81  84
ENDBRANCH  53  77
BRANCH  65  88
ATOM     88  C   UNL     1      -4.758  13.166   6.328  1.00  0.00     0.023 A 
ATOM     89  C   UNL     1      -4.937  11.807   5.995  1.00  0.00     0.012 A 
ATOM     90  C   UNL     1      -4.985  13.585   7.650  1.00  0.00     0.148 A 
ATOM     91  C   UNL     1      -5.335  10.883   6.963  1.00  0.00     0.002 A 
ATOM     92  C   UNL     1      -5.337  12.655   8.620  1.00  0.00     0.091 A 
ATOM     93  F   UNL     1      -4.790  14.879   7.945  1.00  0.00    -0.205 F 
ATOM     94  C   UNL     1      -5.518  11.304   8.279  1.00  0.00     0.022 A 
BRANCH  92  95
ATOM     95  S   UNL     1      -5.461  13.090  10.357  1.00  0.00     0.127 S 
ATOM     96  O   UNL     1      -6.870  12.824  10.640  1.00  0.00    -0.237 OA
ATOM     97  O   UNL     1      -4.525  12.151  10.976  1.00  0.00    -0.237 OA
ATOM     98  O   UNL     1      -5.065  14.489  10.457  1.00  0.00    -0.744 OA
ENDBRANCH  92  95
ENDBRANCH  65  88
ENDBRANCH  39  40
ENDBRANCH  32  34
ENDBRANCH  31  32
ENDBRANCH  30  31
ENDBRANCH  29  30
ENDBRANCH   1  29
TORSDOF 21
