REMARK SMILES Cc1cccc(N2CCN(c3ncc(NC(=O)c4ccccc4F)cc3C(=O)OCCOCCOC(=O)c3ccc(-c4c5nc(c(-c6cccc(S(=O)(=O)[O-])c6F)c6ccc([nH]6)c(-c6cccc(S(=O)(=O)[O-])c6F)c6nc(c(-c7cccc(S(=O)(=O)[O-])c7F)c7ccc4[nH]7)C=C6)C=C5)cc3)C[C@@H]2C)c1
REMARK SMILES IDX 33 1 32 2 31 3 30 4 29 5 27 6 28 7 26 8 11 9 12 10 13 11
REMARK SMILES IDX 25 12 14 13 10 14 7 15 8 16 102 17 9 18 101 19 103 20 6 21
REMARK SMILES IDX 1 22 2 23 3 24 104 25 4 26 5 27 15 28 16 29 17 31 18 32
REMARK SMILES IDX 19 33 23 34 20 35 22 36 24 37 21 38 34 39 35 40 36 41 37 42
REMARK SMILES IDX 38 43 39 44 100 45 40 46 99 47 41 48 42 49 43 50 93 51 44 52
REMARK SMILES IDX 98 53 92 54 94 55 45 56 97 57 91 58 90 59 46 61 78 62 58 63
REMARK SMILES IDX 77 64 59 65 62 66 76 67 95 68 60 69 61 70 75 72 96 73 63 74
REMARK SMILES IDX 47 75 48 76 56 77 49 78 51 79 57 80 50 81 52 82 53 83 54 84
REMARK SMILES IDX 55 85 79 86 80 87 88 88 81 89 83 90 89 91 82 92 84 93 85 94
REMARK SMILES IDX 86 95 87 96 64 97 65 98 73 99 66 100 68 101 74 102 67 103
REMARK SMILES IDX 69 104 70 105 71 106 72 107
REMARK H PARENT 15 30 94 60 62 71
REMARK Flexibility Score: inf
ROOT
ATOM      1  C   UNL     1      -2.125   7.201  -2.789  1.00  0.00     0.202 C 
ENDROOT
BRANCH   1   2
ATOM      2  O   UNL     1      -3.336   6.490  -2.753  1.00  0.00    -0.374 OA
BRANCH   2   3
ATOM      3  C   UNL     1      -4.449   7.123  -3.366  1.00  0.00     0.202 C 
BRANCH   3   4
ATOM      4  C   UNL     1      -5.621   6.306  -2.928  1.00  0.00     0.261 C 
BRANCH   4   5
ATOM      5  O   UNL     1      -5.780   6.401  -1.496  1.00  0.00    -0.460 OA
BRANCH   5   6
ATOM      6  C   UNL     1      -5.081   5.548  -0.677  1.00  0.00     0.342 C 
ATOM      7  O   UNL     1      -4.497   4.551  -1.018  1.00  0.00    -0.246 OA
BRANCH   6   8
ATOM      8  C   UNL     1      -5.098   6.113   0.696  1.00  0.00     0.104 A 
ATOM      9  C   UNL     1      -4.150   5.804   1.690  1.00  0.00     0.143 A 
ATOM     10  N   UNL     1      -4.172   6.481   2.873  1.00  0.00    -0.236 NA
ATOM     11  C   UNL     1      -5.106   7.457   3.058  1.00  0.00     0.139 A 
ATOM     12  C   UNL     1      -6.106   7.051   0.972  1.00  0.00     0.047 A 
ATOM     13  C   UNL     1      -6.086   7.788   2.135  1.00  0.00     0.061 A 
BRANCH   9  14
ATOM     14  N   UNL     1      -3.208   4.801   1.555  1.00  0.00    -0.352 N 
ATOM     15  N   UNL     1      -1.230   2.671   1.367  1.00  0.00    -0.365 N 
ATOM     16  C   UNL     1      -2.555   2.465   2.018  1.00  0.00     0.138 C 
ATOM     17  C   UNL     1      -1.174   3.829   0.426  1.00  0.00     0.098 C 
ATOM     18  C   UNL     1      -3.126   3.777   2.607  1.00  0.00     0.139 C 
ATOM     19  C   UNL     1      -1.897   5.109   0.969  1.00  0.00     0.142 C 
ATOM     20  C   UNL     1      -1.790   3.430  -0.898  1.00  0.00     0.033 C 
BRANCH  15  21
ATOM     21  C   UNL     1      -0.567   1.516   0.887  1.00  0.00     0.037 A 
ATOM     22  C   UNL     1       2.996   0.395  -0.020  1.00  0.00     0.044 C 
ATOM     23  C   UNL     1       1.508   0.414   0.137  1.00  0.00    -0.049 A 
ATOM     24  C   UNL     1       0.785  -0.726  -0.205  1.00  0.00     0.003 A 
ATOM     25  C   UNL     1       0.826   1.524   0.676  1.00  0.00     0.029 A 
ATOM     26  C   UNL     1      -0.590  -0.738  -0.043  1.00  0.00     0.002 A 
ATOM     27  C   UNL     1      -1.257   0.354   0.514  1.00  0.00     0.026 A 
ENDBRANCH  15  21
ENDBRANCH   9  14
BRANCH  13  28
ATOM     28  N   UNL     1      -7.051   8.807   2.225  1.00  0.00    -0.320 N 
ATOM     29  C   UNL     1      -7.043  10.009   2.882  1.00  0.00     0.258 C 
ATOM     30  H   UNL     1      -7.880   8.623   1.726  1.00  0.00     0.170 HD
ATOM     31  O   UNL     1      -8.067  10.685   2.956  1.00  0.00    -0.269 OA
BRANCH  29  32
ATOM     32  C   UNL     1      -5.805  10.544   3.459  1.00  0.00     0.075 A 
ATOM     33  C   UNL     1      -5.840  11.012   4.774  1.00  0.00     0.017 A 
ATOM     34  C   UNL     1      -4.624  10.615   2.720  1.00  0.00     0.135 A 
ATOM     35  C   UNL     1      -4.665  11.467   5.371  1.00  0.00     0.001 A 
ATOM     36  C   UNL     1      -3.448  11.049   3.320  1.00  0.00     0.040 A 
ATOM     37  F   UNL     1      -4.590  10.257   1.428  1.00  0.00    -0.206 F 
ATOM     38  C   UNL     1      -3.467  11.464   4.652  1.00  0.00     0.003 A 
ENDBRANCH  29  32
ENDBRANCH  13  28
ENDBRANCH   6   8
ENDBRANCH   5   6
ENDBRANCH   4   5
ENDBRANCH   3   4
ENDBRANCH   2   3
ENDBRANCH   1   2
BRANCH   1  39
ATOM     39  C   UNL     1      -1.653   7.452  -4.219  1.00  0.00     0.261 C 
BRANCH  39  40
ATOM     40  O   UNL     1      -1.456   6.180  -4.876  1.00  0.00    -0.460 OA
BRANCH  40  41
ATOM     41  C   UNL     1      -2.400   5.837  -5.807  1.00  0.00     0.338 C 
ATOM     42  O   UNL     1      -2.761   6.575  -6.708  1.00  0.00    -0.246 OA
BRANCH  41  43
ATOM     43  C   UNL     1      -3.076   4.557  -5.410  1.00  0.00     0.060 A 
ATOM     44  C   UNL     1      -4.275   4.130  -6.005  1.00  0.00     0.016 A 
ATOM     45  C   UNL     1      -2.667   3.930  -4.249  1.00  0.00     0.016 A 
ATOM     46  C   UNL     1      -5.149   3.236  -5.332  1.00  0.00     0.010 A 
ATOM     47  C   UNL     1      -3.564   3.114  -3.582  1.00  0.00     0.010 A 
ATOM     48  C   UNL     1      -4.840   2.799  -4.054  1.00  0.00    -0.014 A 
BRANCH  48  49
ATOM     49  C   UNL     1      -5.676   2.105  -3.041  1.00  0.00     0.031 A 
ATOM     50  C   UNL     1      -5.186   0.806  -2.472  1.00  0.00     0.074 A 
ATOM     51  C   UNL     1      -6.591   2.796  -2.302  1.00  0.00     0.049 A 
ATOM     52  N   UNL     1      -5.810   0.128  -1.569  1.00  0.00    -0.248 NA
ATOM     53  C   UNL     1      -3.935   0.160  -2.871  1.00  0.00     0.031 C 
ATOM     54  C   UNL     1      -6.913   2.596  -0.879  1.00  0.00     0.029 A 
ATOM     55  N   UNL     1      -7.390   3.901  -2.623  1.00  0.00    -0.354 N 
ATOM     56  C   UNL     1      -4.957  -0.835  -1.071  1.00  0.00     0.074 A 
ATOM     57  C   UNL     1      -3.823  -0.814  -1.958  1.00  0.00     0.031 C 
ATOM     58  C   UNL     1      -7.979   3.338  -0.538  1.00  0.00     0.029 A 
ATOM     59  C   UNL     1      -8.493   3.927  -1.756  1.00  0.00     0.049 A 
ATOM     60  H   UNL     1      -7.208   4.551  -3.339  1.00  0.00     0.167 HD
ATOM     61  C   UNL     1      -5.272  -1.448   0.108  1.00  0.00     0.034 A 
ATOM     62  C   UNL     1      -9.768   3.905  -2.227  1.00  0.00     0.034 A 
ATOM     63  C   UNL     1      -6.561  -0.946   0.615  1.00  0.00     0.049 A 
ATOM     64  C   UNL     1     -10.448   2.643  -1.771  1.00  0.00     0.074 A 
ATOM     65  C   UNL     1      -6.913  -0.023   1.587  1.00  0.00     0.029 A 
ATOM     66  N   UNL     1      -7.713  -1.188  -0.127  1.00  0.00    -0.354 N 
ATOM     67  N   UNL     1      -9.800   1.711  -1.130  1.00  0.00    -0.248 NA
ATOM     68  C   UNL     1     -11.859   2.310  -1.917  1.00  0.00     0.031 C 
ATOM     69  C   UNL     1      -8.275   0.332   1.381  1.00  0.00     0.029 A 
ATOM     70  C   UNL     1      -8.763  -0.391   0.303  1.00  0.00     0.049 A 
ATOM     71  H   UNL     1      -7.775  -1.841  -0.861  1.00  0.00     0.167 HD
ATOM     72  C   UNL     1     -10.600   0.653  -0.861  1.00  0.00     0.074 A 
ATOM     73  C   UNL     1     -11.902   1.094  -1.335  1.00  0.00     0.031 C 
ATOM     74  C   UNL     1     -10.083  -0.494  -0.326  1.00  0.00     0.034 A 
BRANCH  61  75
ATOM     75  C   UNL     1      -4.346  -2.316   0.956  1.00  0.00     0.023 A 
ATOM     76  C   UNL     1      -4.617  -2.381   2.345  1.00  0.00     0.012 A 
ATOM     77  C   UNL     1      -3.219  -3.053   0.520  1.00  0.00     0.148 A 
ATOM     78  C   UNL     1      -3.780  -3.034   3.257  1.00  0.00     0.002 A 
ATOM     79  C   UNL     1      -2.344  -3.661   1.440  1.00  0.00     0.091 A 
ATOM     80  F   UNL     1      -2.993  -3.195  -0.790  1.00  0.00    -0.205 F 
ATOM     81  C   UNL     1      -2.623  -3.645   2.809  1.00  0.00     0.022 A 
BRANCH  79  82
ATOM     82  S   UNL     1      -0.765  -4.410   0.974  1.00  0.00     0.127 S 
ATOM     83  O   UNL     1       0.184  -3.690   1.824  1.00  0.00    -0.237 OA
ATOM     84  O   UNL     1      -0.955  -5.811   1.342  1.00  0.00    -0.237 OA
ATOM     85  O   UNL     1      -0.600  -4.157  -0.453  1.00  0.00    -0.744 OA
ENDBRANCH  79  82
ENDBRANCH  61  75
BRANCH  62  86
ATOM     86  C   UNL     1      -9.895   4.704  -3.487  1.00  0.00     0.023 A 
ATOM     87  C   UNL     1      -9.802   6.114  -3.316  1.00  0.00     0.012 A 
ATOM     88  C   UNL     1      -9.550   4.160  -4.740  1.00  0.00     0.148 A 
ATOM     89  C   UNL     1      -9.229   6.929  -4.297  1.00  0.00     0.002 A 
ATOM     90  C   UNL     1      -8.970   4.981  -5.712  1.00  0.00     0.091 A 
ATOM     91  F   UNL     1      -9.703   2.842  -4.925  1.00  0.00    -0.205 F 
ATOM     92  C   UNL     1      -8.768   6.353  -5.473  1.00  0.00     0.022 A 
BRANCH  90  93
ATOM     93  S   UNL     1      -8.314   4.340  -7.260  1.00  0.00     0.127 S 
ATOM     94  O   UNL     1      -9.351   4.738  -8.208  1.00  0.00    -0.237 OA
ATOM     95  O   UNL     1      -7.056   5.077  -7.395  1.00  0.00    -0.237 OA
ATOM     96  O   UNL     1      -8.156   2.907  -7.059  1.00  0.00    -0.744 OA
ENDBRANCH  90  93
ENDBRANCH  62  86
BRANCH  74  97
ATOM     97  C   UNL     1     -10.782  -1.829  -0.370  1.00  0.00     0.023 A 
ATOM     98  C   UNL     1     -11.819  -2.086  -1.286  1.00  0.00     0.012 A 
ATOM     99  C   UNL     1     -10.293  -2.930   0.374  1.00  0.00     0.148 A 
ATOM    100  C   UNL     1     -12.394  -3.351  -1.411  1.00  0.00     0.002 A 
ATOM    101  C   UNL     1     -10.773  -4.212   0.141  1.00  0.00     0.091 A 
ATOM    102  F   UNL     1      -9.366  -2.744   1.324  1.00  0.00    -0.205 F 
ATOM    103  C   UNL     1     -11.852  -4.421  -0.718  1.00  0.00     0.022 A 
BRANCH 101 104
ATOM    104  S   UNL     1      -9.905  -5.653   0.775  1.00  0.00     0.127 S 
ATOM    105  O   UNL     1     -10.677  -5.962   1.976  1.00  0.00    -0.237 OA
ATOM    106  O   UNL     1     -10.064  -6.614  -0.318  1.00  0.00    -0.237 OA
ATOM    107  O   UNL     1      -8.535  -5.208   0.986  1.00  0.00    -0.744 OA
ENDBRANCH 101 104
ENDBRANCH  74  97
ENDBRANCH  48  49
ENDBRANCH  41  43
ENDBRANCH  40  41
ENDBRANCH  39  40
ENDBRANCH   1  39
TORSDOF 21
