REMARK SMILES O=C(C[C@@H]1CN(C(=O)[C@H]2C[C@H](O)C[NH2+]2)CCO1)OCCOCCOC(=O)c1ccc(-c2c3nc(c(-c4cccc(S(=O)(=O)[O-])c4F)c4ccc([nH]4)c(-c4cccc(S(=O)(=O)[O-])c4F)c4nc(c(-c5cccc(S(=O)(=O)[O-])c5F)c5ccc2[nH]5)C=C4)C=C3)cc1
REMARK SMILES IDX 20 1 19 2 18 3 2 4 1 5 3 6 4 7 5 8 17 9 6 10 16 11 15 12
REMARK SMILES IDX 7 13 8 14 9 15 10 16 14 17 11 18 13 19 12 22 21 24 22 25
REMARK SMILES IDX 23 26 24 27 25 28 26 29 27 30 28 31 89 32 29 33 88 34 30 35
REMARK SMILES IDX 31 36 32 37 82 38 33 39 87 40 81 41 83 42 34 43 86 44 80 45
REMARK SMILES IDX 79 46 35 48 67 49 47 50 66 51 48 52 51 53 65 54 84 55 49 56
REMARK SMILES IDX 50 57 64 59 85 60 52 61 36 62 37 63 45 64 38 65 40 66 46 67
REMARK SMILES IDX 39 68 41 69 42 70 43 71 44 72 68 73 69 74 77 75 70 76 72 77
REMARK SMILES IDX 78 78 71 79 73 80 74 81 75 82 76 83 53 84 54 85 62 86 55 87
REMARK SMILES IDX 57 88 63 89 56 90 58 91 59 92 60 93 61 94
REMARK H PARENT 14 20 14 21 12 23 83 47 51 58
REMARK Flexibility Score: inf
ROOT
ATOM      1  C   UNL     1       4.769   1.195  -0.029  1.00  0.00     0.202 C 
ENDROOT
BRANCH   1   2
ATOM      2  C   UNL     1       4.332  -0.051  -0.787  1.00  0.00     0.261 C 
BRANCH   2   3
ATOM      3  O   UNL     1       2.911  -0.266  -0.797  1.00  0.00    -0.463 OA
BRANCH   3   4
ATOM      4  C   UNL     1       2.191  -0.806   0.206  1.00  0.00     0.308 C 
ATOM      5  O   UNL     1       0.966  -0.873   0.110  1.00  0.00    -0.252 OA
BRANCH   4   6
ATOM      6  C   UNL     1       2.871  -1.315   1.451  1.00  0.00     0.156 C 
BRANCH   6   7
ATOM      7  C   UNL     1       3.814  -2.454   1.146  1.00  0.00     0.148 C 
ATOM      8  C   UNL     1       3.418  -3.717   1.890  1.00  0.00     0.152 C 
ATOM      9  O   UNL     1       5.169  -2.138   1.538  1.00  0.00    -0.374 OA
ATOM     10  N   UNL     1       4.203  -4.787   1.310  1.00  0.00    -0.333 N 
ATOM     11  C   UNL     1       6.079  -3.175   1.102  1.00  0.00     0.182 C 
ATOM     12  C   UNL     1       5.640  -4.584   1.566  1.00  0.00     0.148 C 
BRANCH  10  13
ATOM     13  C   UNL     1       3.783  -5.671   0.330  1.00  0.00     0.281 C 
ATOM     14  O   UNL     1       4.604  -6.445  -0.180  1.00  0.00    -0.268 OA
BRANCH  13  15
ATOM     15  C   UNL     1       2.317  -5.670  -0.222  1.00  0.00     0.275 C 
ATOM     16  C   UNL     1       1.126  -5.674   0.729  1.00  0.00     0.113 C 
ATOM     17  N   UNL     1       2.094  -4.589  -1.209  1.00  0.00    -0.334 N 
ATOM     18  C   UNL     1       0.320  -4.422   0.386  1.00  0.00     0.175 C 
ATOM     19  C   UNL     1       0.716  -4.116  -1.055  1.00  0.00     0.293 C 
ATOM     20  H   UNL     1       2.233  -4.948  -2.154  1.00  0.00     0.347 HD
ATOM     21  H   UNL     1       2.751  -3.825  -1.054  1.00  0.00     0.347 HD
BRANCH  18  22
ATOM     22  O   UNL     1      -1.065  -4.658   0.582  1.00  0.00    -0.387 OA
ATOM     23  H   UNL     1      -1.343  -5.417   0.045  1.00  0.00     0.211 HD
ENDBRANCH  18  22
ENDBRANCH  13  15
ENDBRANCH  10  13
ENDBRANCH   6   7
ENDBRANCH   4   6
ENDBRANCH   3   4
ENDBRANCH   2   3
ENDBRANCH   1   2
BRANCH   1  24
ATOM     24  O   UNL     1       4.255   1.386   1.284  1.00  0.00    -0.374 OA
BRANCH  24  25
ATOM     25  C   UNL     1       2.986   2.048   1.372  1.00  0.00     0.202 C 
BRANCH  25  26
ATOM     26  C   UNL     1       3.045   3.575   1.381  1.00  0.00     0.261 C 
BRANCH  26  27
ATOM     27  O   UNL     1       3.392   4.079   0.086  1.00  0.00    -0.460 OA
BRANCH  27  28
ATOM     28  C   UNL     1       4.704   4.361  -0.094  1.00  0.00     0.338 C 
ATOM     29  O   UNL     1       5.583   4.364   0.754  1.00  0.00    -0.246 OA
BRANCH  28  30
ATOM     30  C   UNL     1       4.967   4.414  -1.546  1.00  0.00     0.060 A 
ATOM     31  C   UNL     1       6.105   3.753  -2.037  1.00  0.00     0.016 A 
ATOM     32  C   UNL     1       4.091   5.067  -2.414  1.00  0.00     0.016 A 
ATOM     33  C   UNL     1       6.406   3.798  -3.393  1.00  0.00     0.010 A 
ATOM     34  C   UNL     1       4.399   5.124  -3.768  1.00  0.00     0.010 A 
ATOM     35  C   UNL     1       5.581   4.532  -4.250  1.00  0.00    -0.014 A 
BRANCH  35  36
ATOM     36  C   UNL     1       6.048   4.895  -5.602  1.00  0.00     0.031 A 
ATOM     37  C   UNL     1       6.597   6.278  -5.797  1.00  0.00     0.074 A 
ATOM     38  C   UNL     1       5.909   4.047  -6.633  1.00  0.00     0.049 A 
ATOM     39  N   UNL     1       6.908   6.898  -6.901  1.00  0.00    -0.248 NA
ATOM     40  C   UNL     1       6.799   7.078  -4.575  1.00  0.00     0.031 C 
ATOM     41  C   UNL     1       5.385   2.687  -6.542  1.00  0.00     0.029 A 
ATOM     42  N   UNL     1       6.144   4.236  -7.970  1.00  0.00    -0.354 N 
ATOM     43  C   UNL     1       7.285   8.178  -6.515  1.00  0.00     0.074 A 
ATOM     44  C   UNL     1       7.166   8.247  -5.077  1.00  0.00     0.031 C 
ATOM     45  C   UNL     1       5.281   2.180  -7.782  1.00  0.00     0.029 A 
ATOM     46  C   UNL     1       5.694   3.197  -8.748  1.00  0.00     0.049 A 
ATOM     47  H   UNL     1       6.590   5.034  -8.335  1.00  0.00     0.167 HD
ATOM     48  C   UNL     1       7.694   9.205  -7.295  1.00  0.00     0.034 A 
ATOM     49  C   UNL     1       5.579   3.104 -10.087  1.00  0.00     0.034 A 
ATOM     50  C   UNL     1       7.814   9.113  -8.722  1.00  0.00     0.049 A 
ATOM     51  C   UNL     1       6.032   4.259 -10.940  1.00  0.00     0.074 A 
ATOM     52  C   UNL     1       8.290  10.061  -9.608  1.00  0.00     0.029 A 
ATOM     53  N   UNL     1       7.429   8.013  -9.475  1.00  0.00    -0.354 N 
ATOM     54  N   UNL     1       6.506   5.424 -10.565  1.00  0.00    -0.248 NA
ATOM     55  C   UNL     1       5.964   4.080 -12.397  1.00  0.00     0.031 C 
ATOM     56  C   UNL     1       8.148   9.551 -10.902  1.00  0.00     0.029 A 
ATOM     57  C   UNL     1       7.634   8.266 -10.818  1.00  0.00     0.049 A 
ATOM     58  H   UNL     1       7.064   7.176  -9.107  1.00  0.00     0.167 HD
ATOM     59  C   UNL     1       6.828   6.102 -11.736  1.00  0.00     0.074 A 
ATOM     60  C   UNL     1       6.500   5.213 -12.833  1.00  0.00     0.031 C 
ATOM     61  C   UNL     1       7.344   7.346 -11.890  1.00  0.00     0.034 A 
BRANCH  48  62
ATOM     62  C   UNL     1       8.024  10.508  -6.617  1.00  0.00     0.023 A 
ATOM     63  C   UNL     1       9.159  10.609  -5.788  1.00  0.00     0.012 A 
ATOM     64  C   UNL     1       7.214  11.642  -6.820  1.00  0.00     0.148 A 
ATOM     65  C   UNL     1       9.457  11.805  -5.135  1.00  0.00     0.002 A 
ATOM     66  C   UNL     1       7.547  12.844  -6.208  1.00  0.00     0.091 A 
ATOM     67  F   UNL     1       6.122  11.521  -7.589  1.00  0.00    -0.205 F 
ATOM     68  C   UNL     1       8.658  12.924  -5.353  1.00  0.00     0.022 A 
BRANCH  66  69
ATOM     69  S   UNL     1       6.627  14.360  -6.495  1.00  0.00     0.127 S 
ATOM     70  O   UNL     1       5.946  14.538  -5.213  1.00  0.00    -0.237 OA
ATOM     71  O   UNL     1       7.698  15.323  -6.755  1.00  0.00    -0.237 OA
ATOM     72  O   UNL     1       5.760  14.094  -7.634  1.00  0.00    -0.744 OA
ENDBRANCH  66  69
ENDBRANCH  48  62
BRANCH  49  73
ATOM     73  C   UNL     1       5.011   1.867 -10.688  1.00  0.00     0.023 A 
ATOM     74  C   UNL     1       5.850   0.981 -11.389  1.00  0.00     0.012 A 
ATOM     75  C   UNL     1       3.651   1.538 -10.515  1.00  0.00     0.148 A 
ATOM     76  C   UNL     1       5.342  -0.203 -11.923  1.00  0.00     0.002 A 
ATOM     77  C   UNL     1       3.165   0.331 -11.002  1.00  0.00     0.091 A 
ATOM     78  F   UNL     1       2.870   2.402  -9.852  1.00  0.00    -0.205 F 
ATOM     79  C   UNL     1       4.004  -0.534 -11.720  1.00  0.00     0.022 A 
BRANCH  77  80
ATOM     80  S   UNL     1       1.494  -0.240 -10.673  1.00  0.00     0.127 S 
ATOM     81  O   UNL     1       0.911  -0.246 -12.013  1.00  0.00    -0.237 OA
ATOM     82  O   UNL     1       1.739  -1.563 -10.100  1.00  0.00    -0.237 OA
ATOM     83  O   UNL     1       0.921   0.724  -9.743  1.00  0.00    -0.744 OA
ENDBRANCH  77  80
ENDBRANCH  49  73
BRANCH  61  84
ATOM     84  C   UNL     1       7.648   7.817 -13.288  1.00  0.00     0.023 A 
ATOM     85  C   UNL     1       6.603   8.190 -14.154  1.00  0.00     0.012 A 
ATOM     86  C   UNL     1       8.986   8.000 -13.694  1.00  0.00     0.148 A 
ATOM     87  C   UNL     1       6.885   8.721 -15.412  1.00  0.00     0.002 A 
ATOM     88  C   UNL     1       9.259   8.580 -14.925  1.00  0.00     0.091 A 
ATOM     89  F   UNL     1       9.963   7.624 -12.856  1.00  0.00    -0.205 F 
ATOM     90  C   UNL     1       8.210   8.930 -15.791  1.00  0.00     0.022 A 
BRANCH  88  91
ATOM     91  S   UNL     1      10.927   8.986 -15.451  1.00  0.00     0.127 S 
ATOM     92  O   UNL     1      11.118   8.065 -16.570  1.00  0.00    -0.237 OA
ATOM     93  O   UNL     1      10.796  10.392 -15.833  1.00  0.00    -0.237 OA
ATOM     94  O   UNL     1      11.786   8.747 -14.299  1.00  0.00    -0.744 OA
ENDBRANCH  88  91
ENDBRANCH  61  84
ENDBRANCH  35  36
ENDBRANCH  28  30
ENDBRANCH  27  28
ENDBRANCH  26  27
ENDBRANCH  25  26
ENDBRANCH  24  25
ENDBRANCH   1  24
TORSDOF 21
