REMARK SMILES Cc1ccccc1C(=O)Nc1ccc(N2CCCCC2)cc1C(=O)OCCOCCOC(=O)c1ccc(-c2c3nc(c(-c4cccc(S(=O)(=O)[O-])c4F)c4ccc([nH]4)c(-c4cccc(S(=O)(=O)[O-])c4F)c4nc(c(-c5cccc(S(=O)(=O)[O-])c5F)c5ccc2[nH]5)C=C4)C=C3)cc1
REMARK SMILES IDX 29 1 28 2 27 3 26 4 25 5 23 6 24 7 22 8 11 9 12 10 13 11
REMARK SMILES IDX 21 12 14 13 10 14 8 15 9 16 7 18 1 19 2 20 3 21 4 22 6 23
REMARK SMILES IDX 5 24 15 25 16 26 20 27 17 28 19 29 18 30 30 31 31 32 32 33
REMARK SMILES IDX 33 34 34 35 35 36 96 37 36 38 95 39 37 40 38 41 39 42 89 43
REMARK SMILES IDX 40 44 94 45 88 46 90 47 41 48 93 49 87 50 86 51 42 53 74 54
REMARK SMILES IDX 54 55 73 56 55 57 58 58 72 59 91 60 56 61 57 62 71 64 92 65
REMARK SMILES IDX 59 66 43 67 44 68 52 69 45 70 47 71 53 72 46 73 48 74 49 75
REMARK SMILES IDX 50 76 51 77 75 78 76 79 84 80 77 81 79 82 85 83 78 84 80 85
REMARK SMILES IDX 81 86 82 87 83 88 60 89 61 90 69 91 62 92 64 93 70 94 63 95
REMARK SMILES IDX 65 96 66 97 67 98 68 99
REMARK H PARENT 10 17 90 52 58 63
REMARK Flexibility Score: inf
ROOT
ATOM      1  C   UNL     1      -0.736  -0.864  -0.275  1.00  0.00     0.202 C 
ENDROOT
BRANCH   1   2
ATOM      2  O   UNL     1      -0.779   0.552  -0.176  1.00  0.00    -0.374 OA
BRANCH   2   3
ATOM      3  C   UNL     1      -0.634   1.330  -1.343  1.00  0.00     0.202 C 
BRANCH   3   4
ATOM      4  C   UNL     1       0.373   0.854  -2.375  1.00  0.00     0.261 C 
BRANCH   4   5
ATOM      5  O   UNL     1       1.575   0.350  -1.802  1.00  0.00    -0.460 OA
BRANCH   5   6
ATOM      6  C   UNL     1       2.470   1.330  -1.537  1.00  0.00     0.340 C 
ATOM      7  O   UNL     1       2.353   2.512  -1.726  1.00  0.00    -0.246 OA
BRANCH   6   8
ATOM      8  C   UNL     1       3.485   0.762  -0.642  1.00  0.00     0.085 A 
ATOM      9  C   UNL     1       3.527   1.304   0.646  1.00  0.00     0.056 A 
ATOM     10  C   UNL     1       4.546   0.919   1.500  1.00  0.00     0.029 A 
ATOM     11  C   UNL     1       5.362  -0.153   1.144  1.00  0.00     0.028 A 
ATOM     12  C   UNL     1       4.260  -0.360  -0.979  1.00  0.00     0.043 A 
ATOM     13  C   UNL     1       5.160  -0.883  -0.043  1.00  0.00     0.038 A 
BRANCH   9  14
ATOM     14  N   UNL     1       2.508   2.163   1.091  1.00  0.00    -0.321 N 
ATOM     15  C   UNL     1       1.884   2.122   2.321  1.00  0.00     0.255 C 
ATOM     16  O   UNL     1       1.874   3.114   3.051  1.00  0.00    -0.269 OA
ATOM     17  H   UNL     1       2.210   2.861   0.465  1.00  0.00     0.170 HD
BRANCH  15  18
ATOM     18  C   UNL     1       0.885   1.023   2.610  1.00  0.00     0.043 A 
ATOM     19  C   UNL     1       2.414  -1.058   2.527  1.00  0.00     0.045 C 
ATOM     20  C   UNL     1       1.116  -0.362   2.770  1.00  0.00    -0.038 A 
ATOM     21  C   UNL     1       0.042  -1.205   3.139  1.00  0.00     0.004 A 
ATOM     22  C   UNL     1      -1.246  -0.711   3.321  1.00  0.00     0.000 A 
ATOM     23  C   UNL     1      -0.431   1.498   2.800  1.00  0.00     0.014 A 
ATOM     24  C   UNL     1      -1.486   0.641   3.132  1.00  0.00     0.001 A 
ENDBRANCH  15  18
ENDBRANCH   9  14
BRANCH  13  25
ATOM     25  N   UNL     1       5.805  -2.098  -0.183  1.00  0.00    -0.372 N 
ATOM     26  C   UNL     1       5.585  -3.107   0.859  1.00  0.00     0.116 C 
ATOM     27  C   UNL     1       6.282  -2.605  -1.463  1.00  0.00     0.116 C 
ATOM     28  C   UNL     1       6.904  -3.811   1.155  1.00  0.00     0.021 C 
ATOM     29  C   UNL     1       7.626  -3.303  -1.218  1.00  0.00     0.021 C 
ATOM     30  C   UNL     1       7.531  -4.370  -0.122  1.00  0.00     0.004 C 
ENDBRANCH  13  25
ENDBRANCH   6   8
ENDBRANCH   5   6
ENDBRANCH   4   5
ENDBRANCH   3   4
ENDBRANCH   2   3
ENDBRANCH   1   2
BRANCH   1  31
ATOM     31  C   UNL     1      -1.456  -1.602  -1.421  1.00  0.00     0.261 C 
BRANCH  31  32
ATOM     32  O   UNL     1      -2.664  -0.935  -1.826  1.00  0.00    -0.460 OA
BRANCH  32  33
ATOM     33  C   UNL     1      -3.217  -1.399  -2.993  1.00  0.00     0.338 C 
ATOM     34  O   UNL     1      -3.929  -2.382  -3.065  1.00  0.00    -0.246 OA
BRANCH  33  35
ATOM     35  C   UNL     1      -2.855  -0.479  -4.114  1.00  0.00     0.060 A 
ATOM     36  C   UNL     1      -2.301  -0.970  -5.291  1.00  0.00     0.016 A 
ATOM     37  C   UNL     1      -2.802   0.885  -3.872  1.00  0.00     0.016 A 
ATOM     38  C   UNL     1      -1.386  -0.188  -6.014  1.00  0.00     0.010 A 
ATOM     39  C   UNL     1      -1.859   1.651  -4.555  1.00  0.00     0.010 A 
ATOM     40  C   UNL     1      -1.030   1.073  -5.534  1.00  0.00    -0.014 A 
BRANCH  40  41
ATOM     41  C   UNL     1       0.324   1.653  -5.732  1.00  0.00     0.031 A 
ATOM     42  C   UNL     1       0.569   3.094  -6.042  1.00  0.00     0.074 A 
ATOM     43  C   UNL     1       1.422   0.957  -5.308  1.00  0.00     0.049 A 
ATOM     44  N   UNL     1       1.729   3.526  -6.427  1.00  0.00    -0.248 NA
ATOM     45  C   UNL     1      -0.423   4.162  -5.981  1.00  0.00     0.031 C 
ATOM     46  C   UNL     1       2.695   1.549  -4.871  1.00  0.00     0.029 A 
ATOM     47  N   UNL     1       1.643  -0.412  -5.124  1.00  0.00    -0.354 N 
ATOM     48  C   UNL     1       1.732   4.893  -6.290  1.00  0.00     0.074 A 
ATOM     49  C   UNL     1       0.336   5.242  -6.211  1.00  0.00     0.031 C 
ATOM     50  C   UNL     1       3.607   0.594  -4.682  1.00  0.00     0.029 A 
ATOM     51  C   UNL     1       3.021  -0.668  -5.062  1.00  0.00     0.049 A 
ATOM     52  H   UNL     1       0.937  -1.094  -5.050  1.00  0.00     0.167 HD
ATOM     53  C   UNL     1       2.912   5.564  -6.134  1.00  0.00     0.034 A 
ATOM     54  C   UNL     1       3.688  -1.638  -5.740  1.00  0.00     0.034 A 
ATOM     55  C   UNL     1       4.096   4.692  -6.294  1.00  0.00     0.049 A 
ATOM     56  C   UNL     1       4.410  -0.990  -6.904  1.00  0.00     0.074 A 
ATOM     57  C   UNL     1       5.192   4.318  -5.535  1.00  0.00     0.029 A 
ATOM     58  N   UNL     1       4.160   3.900  -7.427  1.00  0.00    -0.354 N 
ATOM     59  N   UNL     1       5.018   0.169  -6.851  1.00  0.00    -0.248 NA
ATOM     60  C   UNL     1       4.349  -1.532  -8.261  1.00  0.00     0.031 C 
ATOM     61  C   UNL     1       5.843   3.221  -6.202  1.00  0.00     0.029 A 
ATOM     62  C   UNL     1       5.175   2.963  -7.389  1.00  0.00     0.049 A 
ATOM     63  H   UNL     1       3.542   3.995  -8.187  1.00  0.00     0.167 HD
ATOM     64  C   UNL     1       5.088   0.657  -8.138  1.00  0.00     0.074 A 
ATOM     65  C   UNL     1       4.771  -0.483  -8.984  1.00  0.00     0.031 C 
ATOM     66  C   UNL     1       5.232   1.978  -8.471  1.00  0.00     0.034 A 
BRANCH  53  67
ATOM     67  C   UNL     1       3.018   7.046  -5.816  1.00  0.00     0.023 A 
ATOM     68  C   UNL     1       4.255   7.685  -6.053  1.00  0.00     0.012 A 
ATOM     69  C   UNL     1       1.988   7.865  -5.289  1.00  0.00     0.148 A 
ATOM     70  C   UNL     1       4.443   9.057  -5.834  1.00  0.00     0.002 A 
ATOM     71  C   UNL     1       2.141   9.250  -5.177  1.00  0.00     0.091 A 
ATOM     72  F   UNL     1       0.885   7.304  -4.781  1.00  0.00    -0.205 F 
ATOM     73  C   UNL     1       3.375   9.849  -5.436  1.00  0.00     0.022 A 
BRANCH  71  74
ATOM     74  S   UNL     1       0.761  10.339  -4.776  1.00  0.00     0.127 S 
ATOM     75  O   UNL     1       1.105  10.792  -3.429  1.00  0.00    -0.237 OA
ATOM     76  O   UNL     1       0.863  11.372  -5.808  1.00  0.00    -0.237 OA
ATOM     77  O   UNL     1      -0.439   9.516  -4.871  1.00  0.00    -0.744 OA
ENDBRANCH  71  74
ENDBRANCH  53  67
BRANCH  54  78
ATOM     78  C   UNL     1       3.023  -2.961  -5.673  1.00  0.00     0.023 A 
ATOM     79  C   UNL     1       3.297  -3.710  -4.503  1.00  0.00     0.012 A 
ATOM     80  C   UNL     1       1.876  -3.261  -6.418  1.00  0.00     0.148 A 
ATOM     81  C   UNL     1       2.395  -4.659  -4.024  1.00  0.00     0.002 A 
ATOM     82  C   UNL     1       0.952  -4.164  -5.901  1.00  0.00     0.091 A 
ATOM     83  F   UNL     1       1.626  -2.538  -7.517  1.00  0.00    -0.205 F 
ATOM     84  C   UNL     1       1.203  -4.857  -4.705  1.00  0.00     0.022 A 
BRANCH  82  85
ATOM     85  S   UNL     1      -0.732  -4.246  -6.512  1.00  0.00     0.127 S 
ATOM     86  O   UNL     1      -0.800  -5.597  -7.055  1.00  0.00    -0.237 OA
ATOM     87  O   UNL     1      -1.480  -4.034  -5.275  1.00  0.00    -0.237 OA
ATOM     88  O   UNL     1      -0.838  -3.163  -7.479  1.00  0.00    -0.744 OA
ENDBRANCH  82  85
ENDBRANCH  54  78
BRANCH  66  89
ATOM     89  C   UNL     1       5.382   2.416  -9.922  1.00  0.00     0.023 A 
ATOM     90  C   UNL     1       6.245   1.695 -10.777  1.00  0.00     0.012 A 
ATOM     91  C   UNL     1       4.823   3.607 -10.444  1.00  0.00     0.148 A 
ATOM     92  C   UNL     1       6.510   2.114 -12.085  1.00  0.00     0.002 A 
ATOM     93  C   UNL     1       5.192   4.087 -11.697  1.00  0.00     0.091 A 
ATOM     94  F   UNL     1       3.869   4.252  -9.763  1.00  0.00    -0.205 F 
ATOM     95  C   UNL     1       6.011   3.329 -12.534  1.00  0.00     0.022 A 
BRANCH  93  96
ATOM     96  S   UNL     1       4.781   5.757 -12.230  1.00  0.00     0.127 S 
ATOM     97  O   UNL     1       6.069   6.232 -12.742  1.00  0.00    -0.237 OA
ATOM     98  O   UNL     1       3.772   5.506 -13.255  1.00  0.00    -0.237 OA
ATOM     99  O   UNL     1       4.323   6.447 -11.033  1.00  0.00    -0.744 OA
ENDBRANCH  93  96
ENDBRANCH  66  89
ENDBRANCH  40  41
ENDBRANCH  33  35
ENDBRANCH  32  33
ENDBRANCH  31  32
ENDBRANCH   1  31
TORSDOF 20
