REMARK SMILES Cc1ccccc1NC(=O)CSc1nc(C(=O)OCCOCCOC(=O)c2ccc(-c3c4nc(c(-c5cccc(S(=O)(=O)[O-])c5F)c5ccc([nH]5)c(-c5cccc(S(=O)(=O)[O-])c5F)c5nc(c(-c6cccc(S(=O)(=O)[O-])c6F)c6ccc3[nH]6)C=C5)C=C4)cc2)c2ccccc2n1
REMARK SMILES IDX 20 1 19 2 18 3 16 4 17 5 15 6 13 7 14 8 96 9 95 10 90 11
REMARK SMILES IDX 94 12 91 13 93 14 92 15 12 16 11 17 9 18 8 19 10 21 7 22
REMARK SMILES IDX 1 23 2 24 3 25 4 26 6 27 5 28 21 29 22 30 23 31 24 32 25 33
REMARK SMILES IDX 26 34 27 35 28 36 89 37 29 38 88 39 30 40 31 41 32 42 82 43
REMARK SMILES IDX 33 44 87 45 81 46 83 47 34 48 86 49 80 50 79 51 35 53 67 54
REMARK SMILES IDX 47 55 66 56 48 57 51 58 65 59 84 60 49 61 50 62 64 64 85 65
REMARK SMILES IDX 52 66 36 67 37 68 45 69 38 70 40 71 46 72 39 73 41 74 42 75
REMARK SMILES IDX 43 76 44 77 68 78 69 79 77 80 70 81 72 82 78 83 71 84 73 85
REMARK SMILES IDX 74 86 75 87 76 88 53 89 54 90 62 91 55 92 57 93 63 94 56 95
REMARK SMILES IDX 58 96 59 97 60 98 61 99
REMARK H PARENT 8 20 83 52 51 63
REMARK Flexibility Score: inf
ROOT
ATOM      1  C   UNL     1      -3.211   7.474  -6.372  1.00  0.00     0.202 C 
ENDROOT
BRANCH   1   2
ATOM      2  C   UNL     1      -1.787   7.934  -6.402  1.00  0.00     0.261 C 
BRANCH   2   3
ATOM      3  O   UNL     1      -0.941   6.937  -5.792  1.00  0.00    -0.458 OA
BRANCH   3   4
ATOM      4  C   UNL     1      -0.996   6.595  -4.478  1.00  0.00     0.357 C 
ATOM      5  O   UNL     1      -1.409   7.239  -3.543  1.00  0.00    -0.244 OA
BRANCH   4   6
ATOM      6  C   UNL     1      -0.655   5.149  -4.348  1.00  0.00     0.160 A 
ATOM      7  C   UNL     1      -1.103   3.347  -3.037  1.00  0.00     0.189 A 
ATOM      8  N   UNL     1      -1.089   4.657  -3.168  1.00  0.00    -0.215 NA
ATOM      9  N   UNL     1      -0.693   2.484  -3.975  1.00  0.00    -0.222 NA
ATOM     10  C   UNL     1      -0.233   2.988  -5.128  1.00  0.00     0.076 A 
ATOM     11  C   UNL     1      -0.179   4.354  -5.405  1.00  0.00     0.034 A 
ATOM     12  C   UNL     1       0.156   2.100  -6.126  1.00  0.00     0.029 A 
ATOM     13  C   UNL     1       0.285   4.775  -6.692  1.00  0.00     0.013 A 
ATOM     14  C   UNL     1       0.555   2.522  -7.400  1.00  0.00     0.002 A 
ATOM     15  C   UNL     1       0.608   3.870  -7.690  1.00  0.00     0.001 A 
BRANCH   7  16
ATOM     16  S   UNL     1      -2.033   2.722  -1.676  1.00  0.00    -0.076 SA
BRANCH  16  17
ATOM     17  C   UNL     1      -1.336   3.740  -0.328  1.00  0.00     0.178 C 
BRANCH  17  18
ATOM     18  C   UNL     1       0.143   3.495  -0.099  1.00  0.00     0.234 C 
ATOM     19  N   UNL     1       0.691   2.280   0.198  1.00  0.00    -0.325 N 
ATOM     20  H   UNL     1       1.661   2.325   0.359  1.00  0.00     0.169 HD
ATOM     21  O   UNL     1       0.946   4.432  -0.181  1.00  0.00    -0.274 OA
BRANCH  19  22
ATOM     22  C   UNL     1       0.172   0.978   0.325  1.00  0.00     0.044 A 
ATOM     23  C   UNL     1       2.514  -0.044  -0.075  1.00  0.00     0.046 C 
ATOM     24  C   UNL     1       1.019  -0.127   0.095  1.00  0.00    -0.027 A 
ATOM     25  C   UNL     1       0.454  -1.415   0.002  1.00  0.00     0.005 A 
ATOM     26  C   UNL     1      -0.913  -1.619   0.168  1.00  0.00     0.000 A 
ATOM     27  C   UNL     1      -1.170   0.729   0.629  1.00  0.00     0.026 A 
ATOM     28  C   UNL     1      -1.721  -0.548   0.513  1.00  0.00     0.002 A 
ENDBRANCH  19  22
ENDBRANCH  17  18
ENDBRANCH  16  17
ENDBRANCH   7  16
ENDBRANCH   4   6
ENDBRANCH   3   4
ENDBRANCH   2   3
ENDBRANCH   1   2
BRANCH   1  29
ATOM     29  O   UNL     1      -3.538   7.403  -5.002  1.00  0.00    -0.374 OA
BRANCH  29  30
ATOM     30  C   UNL     1      -4.686   6.689  -4.630  1.00  0.00     0.202 C 
BRANCH  30  31
ATOM     31  C   UNL     1      -5.930   7.337  -5.226  1.00  0.00     0.261 C 
BRANCH  31  32
ATOM     32  O   UNL     1      -6.106   8.662  -4.670  1.00  0.00    -0.460 OA
BRANCH  32  33
ATOM     33  C   UNL     1      -5.572   9.687  -5.402  1.00  0.00     0.338 C 
ATOM     34  O   UNL     1      -5.899   9.938  -6.552  1.00  0.00    -0.246 OA
BRANCH  33  35
ATOM     35  C   UNL     1      -4.398  10.290  -4.693  1.00  0.00     0.060 A 
ATOM     36  C   UNL     1      -3.491  11.110  -5.389  1.00  0.00     0.016 A 
ATOM     37  C   UNL     1      -4.030   9.768  -3.457  1.00  0.00     0.016 A 
ATOM     38  C   UNL     1      -2.158  11.227  -4.955  1.00  0.00     0.010 A 
ATOM     39  C   UNL     1      -2.693   9.791  -3.107  1.00  0.00     0.010 A 
ATOM     40  C   UNL     1      -1.726  10.460  -3.887  1.00  0.00    -0.014 A 
BRANCH  40  41
ATOM     41  C   UNL     1      -0.339  10.298  -3.416  1.00  0.00     0.031 A 
ATOM     42  C   UNL     1      -0.092  10.794  -2.044  1.00  0.00     0.074 A 
ATOM     43  C   UNL     1       0.545   9.410  -3.950  1.00  0.00     0.049 A 
ATOM     44  N   UNL     1       0.979  10.573  -1.373  1.00  0.00    -0.248 NA
ATOM     45  C   UNL     1      -1.053  11.624  -1.315  1.00  0.00     0.031 C 
ATOM     46  C   UNL     1       1.392   8.476  -3.189  1.00  0.00     0.029 A 
ATOM     47  N   UNL     1       0.840   9.068  -5.267  1.00  0.00    -0.354 N 
ATOM     48  C   UNL     1       0.700  10.866  -0.062  1.00  0.00     0.074 A 
ATOM     49  C   UNL     1      -0.499  11.658  -0.101  1.00  0.00     0.031 C 
ATOM     50  C   UNL     1       2.203   7.800  -4.017  1.00  0.00     0.029 A 
ATOM     51  C   UNL     1       2.062   8.386  -5.332  1.00  0.00     0.049 A 
ATOM     52  H   UNL     1       0.271   9.276  -6.043  1.00  0.00     0.167 HD
ATOM     53  C   UNL     1       1.455  10.261   0.892  1.00  0.00     0.034 A 
ATOM     54  C   UNL     1       3.063   8.826  -6.144  1.00  0.00     0.034 A 
ATOM     55  C   UNL     1       2.624   9.596   0.274  1.00  0.00     0.049 A 
ATOM     56  C   UNL     1       4.210   9.329  -5.305  1.00  0.00     0.074 A 
ATOM     57  C   UNL     1       2.976   8.278   0.039  1.00  0.00     0.029 A 
ATOM     58  N   UNL     1       3.495  10.369  -0.500  1.00  0.00    -0.354 N 
ATOM     59  N   UNL     1       4.129   9.425  -4.007  1.00  0.00    -0.248 NA
ATOM     60  C   UNL     1       5.535   9.694  -5.788  1.00  0.00     0.031 C 
ATOM     61  C   UNL     1       4.023   8.272  -0.936  1.00  0.00     0.029 A 
ATOM     62  C   UNL     1       4.342   9.583  -1.265  1.00  0.00     0.049 A 
ATOM     63  H   UNL     1       3.506  11.353  -0.501  1.00  0.00     0.167 HD
ATOM     64  C   UNL     1       5.277   9.905  -3.472  1.00  0.00     0.074 A 
ATOM     65  C   UNL     1       6.151  10.017  -4.633  1.00  0.00     0.031 C 
ATOM     66  C   UNL     1       5.358  10.198  -2.136  1.00  0.00     0.034 A 
BRANCH  53  67
ATOM     67  C   UNL     1       1.096  10.142   2.365  1.00  0.00     0.023 A 
ATOM     68  C   UNL     1       2.041   9.499   3.195  1.00  0.00     0.012 A 
ATOM     69  C   UNL     1      -0.110  10.542   3.001  1.00  0.00     0.148 A 
ATOM     70  C   UNL     1       1.819   9.279   4.561  1.00  0.00     0.002 A 
ATOM     71  C   UNL     1      -0.306  10.382   4.379  1.00  0.00     0.091 A 
ATOM     72  F   UNL     1      -1.133  11.007   2.282  1.00  0.00    -0.205 F 
ATOM     73  C   UNL     1       0.655   9.739   5.159  1.00  0.00     0.022 A 
BRANCH  71  74
ATOM     74  S   UNL     1      -1.773  10.988   5.239  1.00  0.00     0.127 S 
ATOM     75  O   UNL     1      -2.388   9.748   5.715  1.00  0.00    -0.237 OA
ATOM     76  O   UNL     1      -1.196  11.820   6.296  1.00  0.00    -0.237 OA
ATOM     77  O   UNL     1      -2.559  11.724   4.256  1.00  0.00    -0.744 OA
ENDBRANCH  71  74
ENDBRANCH  53  67
BRANCH  54  78
ATOM     78  C   UNL     1       2.526   9.320  -7.454  1.00  0.00     0.023 A 
ATOM     79  C   UNL     1       2.068   8.303  -8.337  1.00  0.00     0.012 A 
ATOM     80  C   UNL     1       1.939  10.598  -7.540  1.00  0.00     0.148 A 
ATOM     81  C   UNL     1       0.947   8.501  -9.149  1.00  0.00     0.002 A 
ATOM     82  C   UNL     1       0.793  10.772  -8.320  1.00  0.00     0.091 A 
ATOM     83  F   UNL     1       2.431  11.577  -6.770  1.00  0.00    -0.205 F 
ATOM     84  C   UNL     1       0.281   9.719  -9.098  1.00  0.00     0.022 A 
BRANCH  82  85
ATOM     85  S   UNL     1      -0.228  12.250  -8.210  1.00  0.00     0.127 S 
ATOM     86  O   UNL     1       0.099  12.929  -9.461  1.00  0.00    -0.237 OA
ATOM     87  O   UNL     1      -1.578  11.682  -8.162  1.00  0.00    -0.237 OA
ATOM     88  O   UNL     1       0.186  12.927  -6.992  1.00  0.00    -0.744 OA
ENDBRANCH  82  85
ENDBRANCH  54  78
BRANCH  66  89
ATOM     89  C   UNL     1       6.413  11.104  -1.530  1.00  0.00     0.023 A 
ATOM     90  C   UNL     1       7.270  11.889  -2.325  1.00  0.00     0.012 A 
ATOM     91  C   UNL     1       6.484  11.319  -0.129  1.00  0.00     0.148 A 
ATOM     92  C   UNL     1       8.199  12.774  -1.774  1.00  0.00     0.002 A 
ATOM     93  C   UNL     1       7.310  12.301   0.405  1.00  0.00     0.091 A 
ATOM     94  F   UNL     1       5.768  10.560   0.710  1.00  0.00    -0.205 F 
ATOM     95  C   UNL     1       8.202  13.000  -0.409  1.00  0.00     0.022 A 
BRANCH  93  96
ATOM     96  S   UNL     1       7.165  12.823   2.118  1.00  0.00     0.127 S 
ATOM     97  O   UNL     1       8.319  12.167   2.727  1.00  0.00    -0.237 OA
ATOM     98  O   UNL     1       7.281  14.279   2.002  1.00  0.00    -0.237 OA
ATOM     99  O   UNL     1       5.857  12.361   2.561  1.00  0.00    -0.744 OA
ENDBRANCH  93  96
ENDBRANCH  66  89
ENDBRANCH  40  41
ENDBRANCH  33  35
ENDBRANCH  32  33
ENDBRANCH  31  32
ENDBRANCH  30  31
ENDBRANCH  29  30
ENDBRANCH   1  29
TORSDOF 21
