REMARK SMILES CCC[C@H](c1ccccc1)[C@@](C)(O)C(=O)OCCOCCOC(=O)c1ccc(-c2c3nc(c(-c4cccc(S(=O)(=O)[O-])c4F)c4ccc([nH]4)c(-c4cccc(S(=O)(=O)[O-])c4F)c4nc(c(-c5cccc(S(=O)(=O)[O-])c5F)c5ccc2[nH]5)C=C4)C=C3)cc1
REMARK SMILES IDX 19 1 18 2 17 3 16 4 14 5 15 6 11 7 12 8 4 9 3 10 2 11 1 12
REMARK SMILES IDX 5 13 6 14 10 15 7 16 9 17 8 18 13 19 20 21 21 22 22 23 23 24
REMARK SMILES IDX 24 25 25 26 26 27 87 28 27 29 86 30 28 31 29 32 30 33 80 34
REMARK SMILES IDX 31 35 85 36 79 37 81 38 32 39 84 40 78 41 77 42 33 44 65 45
REMARK SMILES IDX 45 46 64 47 46 48 49 49 63 50 82 51 47 52 48 53 62 55 83 56
REMARK SMILES IDX 50 57 34 58 35 59 43 60 36 61 38 62 44 63 37 64 39 65 40 66
REMARK SMILES IDX 41 67 42 68 66 69 67 70 75 71 68 72 70 73 76 74 69 75 71 76
REMARK SMILES IDX 72 77 73 78 74 79 51 80 52 81 60 82 53 83 55 84 61 85 54 86
REMARK SMILES IDX 56 87 57 88 58 89 59 90
REMARK H PARENT 13 20 81 43 49 54
REMARK Flexibility Score: inf
ROOT
ATOM      1  O   UNL     1      -1.984  -0.791   6.457  1.00  0.00    -0.374 OA
ENDROOT
BRANCH   1   2
ATOM      2  C   UNL     1      -0.971  -0.660   7.457  1.00  0.00     0.202 C 
BRANCH   2   3
ATOM      3  C   UNL     1       0.483  -0.601   6.982  1.00  0.00     0.261 C 
BRANCH   3   4
ATOM      4  O   UNL     1       0.685   0.497   6.076  1.00  0.00    -0.461 OA
BRANCH   4   5
ATOM      5  C   UNL     1       1.463   0.212   4.995  1.00  0.00     0.338 C 
ATOM      6  O   UNL     1       2.166  -0.790   4.917  1.00  0.00    -0.249 OA
BRANCH   5   7
ATOM      7  C   UNL     1       1.390   1.327   3.901  1.00  0.00     0.165 C 
ATOM      8  C   UNL     1       2.863   1.727   3.675  1.00  0.00     0.055 C 
BRANCH   7   9
ATOM      9  C   UNL     1       0.714   0.855   2.542  1.00  0.00     0.062 C 
BRANCH   9  10
ATOM     10  C   UNL     1      -0.820   1.153   2.430  1.00  0.00     0.012 C 
BRANCH  10  11
ATOM     11  C   UNL     1      -1.281   1.687   1.063  1.00  0.00    -0.003 C 
ATOM     12  C   UNL     1      -1.037   0.751  -0.106  1.00  0.00     0.004 C 
ENDBRANCH  10  11
ENDBRANCH   9  10
BRANCH   9  13
ATOM     13  C   UNL     1       1.081  -0.575   2.147  1.00  0.00    -0.041 A 
ATOM     14  C   UNL     1       0.317  -1.688   2.540  1.00  0.00     0.004 A 
ATOM     15  C   UNL     1       2.282  -0.811   1.458  1.00  0.00     0.004 A 
ATOM     16  C   UNL     1       0.750  -2.988   2.271  1.00  0.00     0.000 A 
ATOM     17  C   UNL     1       2.723  -2.111   1.208  1.00  0.00     0.000 A 
ATOM     18  C   UNL     1       1.959  -3.200   1.618  1.00  0.00     0.000 A 
ENDBRANCH   9  13
ENDBRANCH   7   9
BRANCH   7  19
ATOM     19  O   UNL     1       0.714   2.529   4.307  1.00  0.00    -0.378 OA
ATOM     20  H   UNL     1       0.714   3.164   3.573  1.00  0.00     0.212 HD
ENDBRANCH   7  19
ENDBRANCH   5   7
ENDBRANCH   4   5
ENDBRANCH   3   4
ENDBRANCH   2   3
ENDBRANCH   1   2
BRANCH   1  21
ATOM     21  C   UNL     1      -2.148   0.285   5.537  1.00  0.00     0.202 C 
BRANCH  21  22
ATOM     22  C   UNL     1      -2.771   1.596   6.036  1.00  0.00     0.261 C 
BRANCH  22  23
ATOM     23  O   UNL     1      -2.106   2.159   7.175  1.00  0.00    -0.460 OA
BRANCH  23  24
ATOM     24  C   UNL     1      -2.801   2.057   8.331  1.00  0.00     0.338 C 
ATOM     25  O   UNL     1      -3.932   1.603   8.477  1.00  0.00    -0.246 OA
BRANCH  24  26
ATOM     26  C   UNL     1      -1.942   2.398   9.476  1.00  0.00     0.060 A 
ATOM     27  C   UNL     1      -1.834   1.447  10.498  1.00  0.00     0.016 A 
ATOM     28  C   UNL     1      -1.327   3.647   9.592  1.00  0.00     0.016 A 
ATOM     29  C   UNL     1      -1.165   1.765  11.674  1.00  0.00     0.010 A 
ATOM     30  C   UNL     1      -0.664   3.969  10.781  1.00  0.00     0.010 A 
ATOM     31  C   UNL     1      -0.626   3.047  11.842  1.00  0.00    -0.014 A 
BRANCH  31  32
ATOM     32  C   UNL     1      -0.202   3.458  13.200  1.00  0.00     0.031 A 
ATOM     33  C   UNL     1      -1.163   4.249  14.047  1.00  0.00     0.074 A 
ATOM     34  C   UNL     1       0.990   3.080  13.692  1.00  0.00     0.049 A 
ATOM     35  N   UNL     1      -1.041   4.644  15.286  1.00  0.00    -0.248 NA
ATOM     36  C   UNL     1      -2.432   4.645  13.412  1.00  0.00     0.031 C 
ATOM     37  C   UNL     1       1.999   2.313  12.963  1.00  0.00     0.029 A 
ATOM     38  N   UNL     1       1.554   3.297  14.922  1.00  0.00    -0.354 N 
ATOM     39  C   UNL     1      -2.204   5.348  15.574  1.00  0.00     0.074 A 
ATOM     40  C   UNL     1      -3.011   5.346  14.374  1.00  0.00     0.031 C 
ATOM     41  C   UNL     1       3.070   2.138  13.757  1.00  0.00     0.029 A 
ATOM     42  C   UNL     1       2.824   2.786  15.044  1.00  0.00     0.049 A 
ATOM     43  H   UNL     1       1.093   3.774  15.650  1.00  0.00     0.167 HD
ATOM     44  C   UNL     1      -2.578   5.926  16.740  1.00  0.00     0.034 A 
ATOM     45  C   UNL     1       3.687   2.839  16.077  1.00  0.00     0.034 A 
ATOM     46  C   UNL     1      -1.782   5.907  17.936  1.00  0.00     0.049 A 
ATOM     47  C   UNL     1       3.246   3.488  17.364  1.00  0.00     0.074 A 
ATOM     48  C   UNL     1      -2.085   6.427  19.182  1.00  0.00     0.029 A 
ATOM     49  N   UNL     1      -0.518   5.344  18.034  1.00  0.00    -0.354 N 
ATOM     50  N   UNL     1       2.093   4.039  17.660  1.00  0.00    -0.248 NA
ATOM     51  C   UNL     1       4.211   3.486  18.473  1.00  0.00     0.031 C 
ATOM     52  C   UNL     1      -0.994   6.196  20.027  1.00  0.00     0.029 A 
ATOM     53  C   UNL     1      -0.023   5.510  19.316  1.00  0.00     0.049 A 
ATOM     54  H   UNL     1      -0.043   4.892  17.299  1.00  0.00     0.167 HD
ATOM     55  C   UNL     1       2.179   4.414  18.996  1.00  0.00     0.074 A 
ATOM     56  C   UNL     1       3.491   4.008  19.457  1.00  0.00     0.031 C 
ATOM     57  C   UNL     1       1.264   5.051  19.770  1.00  0.00     0.034 A 
BRANCH  44  58
ATOM     58  C   UNL     1      -3.923   6.602  16.782  1.00  0.00     0.023 A 
ATOM     59  C   UNL     1      -5.096   5.819  16.793  1.00  0.00     0.012 A 
ATOM     60  C   UNL     1      -4.027   8.004  16.854  1.00  0.00     0.148 A 
ATOM     61  C   UNL     1      -6.352   6.423  16.842  1.00  0.00     0.002 A 
ATOM     62  C   UNL     1      -5.282   8.597  16.945  1.00  0.00     0.091 A 
ATOM     63  F   UNL     1      -2.902   8.732  16.815  1.00  0.00    -0.205 F 
ATOM     64  C   UNL     1      -6.444   7.809  16.929  1.00  0.00     0.022 A 
BRANCH  62  65
ATOM     65  S   UNL     1      -5.502  10.370  17.133  1.00  0.00     0.127 S 
ATOM     66  O   UNL     1      -6.029  10.742  15.820  1.00  0.00    -0.237 OA
ATOM     67  O   UNL     1      -6.474  10.446  18.224  1.00  0.00    -0.237 OA
ATOM     68  O   UNL     1      -4.186  10.905  17.454  1.00  0.00    -0.744 OA
ENDBRANCH  62  65
ENDBRANCH  44  58
BRANCH  45  69
ATOM     69  C   UNL     1       5.032   2.212  15.955  1.00  0.00     0.023 A 
ATOM     70  C   UNL     1       5.333   1.054  16.699  1.00  0.00     0.012 A 
ATOM     71  C   UNL     1       6.008   2.744  15.090  1.00  0.00     0.148 A 
ATOM     72  C   UNL     1       6.591   0.457  16.606  1.00  0.00     0.002 A 
ATOM     73  C   UNL     1       7.239   2.113  14.961  1.00  0.00     0.091 A 
ATOM     74  F   UNL     1       5.709   3.857  14.405  1.00  0.00    -0.205 F 
ATOM     75  C   UNL     1       7.539   0.979  15.730  1.00  0.00     0.022 A 
BRANCH  73  76
ATOM     76  S   UNL     1       8.469   2.643  13.763  1.00  0.00     0.127 S 
ATOM     77  O   UNL     1       9.483   3.246  14.623  1.00  0.00    -0.237 OA
ATOM     78  O   UNL     1       8.857   1.374  13.146  1.00  0.00    -0.237 OA
ATOM     79  O   UNL     1       7.773   3.555  12.866  1.00  0.00    -0.744 OA
ENDBRANCH  73  76
ENDBRANCH  45  69
BRANCH  57  80
ATOM     80  C   UNL     1       1.633   5.321  21.206  1.00  0.00     0.023 A 
ATOM     81  C   UNL     1       2.585   6.313  21.509  1.00  0.00     0.012 A 
ATOM     82  C   UNL     1       0.987   4.638  22.255  1.00  0.00     0.148 A 
ATOM     83  C   UNL     1       2.917   6.595  22.834  1.00  0.00     0.002 A 
ATOM     84  C   UNL     1       1.287   4.958  23.574  1.00  0.00     0.091 A 
ATOM     85  F   UNL     1       0.097   3.683  21.947  1.00  0.00    -0.205 F 
ATOM     86  C   UNL     1       2.261   5.927  23.865  1.00  0.00     0.022 A 
BRANCH  84  87
ATOM     87  S   UNL     1       0.417   4.215  24.959  1.00  0.00     0.127 S 
ATOM     88  O   UNL     1       1.395   3.239  25.436  1.00  0.00    -0.237 OA
ATOM     89  O   UNL     1       0.213   5.358  25.851  1.00  0.00    -0.237 OA
ATOM     90  O   UNL     1      -0.810   3.660  24.405  1.00  0.00    -0.744 OA
ENDBRANCH  84  87
ENDBRANCH  57  80
ENDBRANCH  31  32
ENDBRANCH  24  26
ENDBRANCH  23  24
ENDBRANCH  22  23
ENDBRANCH  21  22
ENDBRANCH   1  21
TORSDOF 22
