REMARK SMILES Cc1nc2sc3c(c2c2nc(CCC(=O)OCCOCCOC(=O)c4ccc(-c5c6nc(c(-c7cccc(S(=O)(=O)[O-])c7F)c7ccc([nH]7)c(-c7cccc(S(=O)(=O)[O-])c7F)c7nc(c(-c8cccc(S(=O)(=O)[O-])c8F)c8ccc5[nH]8)C=C7)C=C6)cc4)nn12)[C@@H](C)CCC3
REMARK SMILES IDX 20 1 19 2 18 3 17 4 16 5 14 6 15 7 13 8 12 9 11 10 1 11 2 12
REMARK SMILES IDX 3 13 89 14 4 15 9 16 88 17 5 18 8 19 10 20 6 21 7 22 94 23
REMARK SMILES IDX 90 24 93 25 91 26 92 27 21 28 22 29 23 30 24 31 25 32 26 33
REMARK SMILES IDX 87 34 27 35 86 36 28 37 29 38 30 39 80 40 31 41 85 42 79 43
REMARK SMILES IDX 81 44 32 45 84 46 78 47 77 48 33 50 65 51 45 52 64 53 46 54
REMARK SMILES IDX 49 55 63 56 82 57 47 58 48 59 62 61 83 62 50 63 34 64 35 65
REMARK SMILES IDX 43 66 36 67 38 68 44 69 37 70 39 71 40 72 41 73 42 74 66 75
REMARK SMILES IDX 67 76 75 77 68 78 70 79 76 80 69 81 71 82 72 83 73 84 74 85
REMARK SMILES IDX 51 86 52 87 60 88 53 89 55 90 61 91 54 92 56 93 57 94 58 95
REMARK SMILES IDX 59 96
REMARK H PARENT 81 49 49 60
REMARK Flexibility Score: inf
ROOT
ATOM      1  C   UNL     1      -3.462  -0.564  -7.643  1.00  0.00     0.202 C 
ENDROOT
BRANCH   1   2
ATOM      2  O   UNL     1      -2.949  -1.575  -8.504  1.00  0.00    -0.374 OA
BRANCH   2   3
ATOM      3  C   UNL     1      -1.763  -2.223  -8.035  1.00  0.00     0.202 C 
BRANCH   3   4
ATOM      4  C   UNL     1      -0.507  -1.371  -8.255  1.00  0.00     0.261 C 
BRANCH   4   5
ATOM      5  O   UNL     1      -0.255  -0.537  -7.099  1.00  0.00    -0.463 OA
BRANCH   5   6
ATOM      6  C   UNL     1      -0.401   0.799  -7.240  1.00  0.00     0.306 C 
ATOM      7  O   UNL     1      -0.655   1.366  -8.297  1.00  0.00    -0.252 OA
BRANCH   6   8
ATOM      8  C   UNL     1      -0.193   1.546  -5.943  1.00  0.00     0.131 C 
BRANCH   8   9
ATOM      9  C   UNL     1      -1.142   1.171  -4.808  1.00  0.00     0.091 C 
BRANCH   9  10
ATOM     10  C   UNL     1      -0.607   0.138  -3.878  1.00  0.00     0.152 A 
ATOM     11  C   UNL     1       1.002   0.056  -0.018  1.00  0.00     0.090 C 
ATOM     12  C   UNL     1       0.694  -1.105  -0.912  1.00  0.00     0.131 A 
ATOM     13  N   UNL     1       0.959  -2.336  -0.554  1.00  0.00    -0.222 NA
ATOM     14  N   UNL     1       0.157  -0.789  -2.169  1.00  0.00    -0.199 N 
ATOM     15  C   UNL     1       0.685  -3.312  -1.480  1.00  0.00     0.129 A 
ATOM     16  C   UNL     1      -0.134  -1.749  -3.102  1.00  0.00     0.168 A 
ATOM     17  N   UNL     1      -0.094   0.444  -2.674  1.00  0.00    -0.150 NA
ATOM     18  S   UNL     1       0.970  -4.965  -1.160  1.00  0.00    -0.120 S 
ATOM     19  C   UNL     1       0.185  -3.150  -2.763  1.00  0.00     0.060 A 
ATOM     20  N   UNL     1      -0.657  -1.201  -4.172  1.00  0.00    -0.211 NA
ATOM     21  C   UNL     1       0.488  -5.421  -2.732  1.00  0.00     0.011 A 
ATOM     22  C   UNL     1       0.141  -4.345  -3.531  1.00  0.00    -0.018 A 
ATOM     23  C   UNL     1       0.512  -6.850  -3.176  1.00  0.00     0.047 C 
ATOM     24  C   UNL     1      -0.209  -4.513  -4.989  1.00  0.00     0.018 C 
ATOM     25  C   UNL     1      -0.341  -7.023  -4.439  1.00  0.00     0.006 C 
ATOM     26  C   UNL     1       0.633  -3.601  -5.878  1.00  0.00     0.013 C 
ATOM     27  C   UNL     1       0.010  -5.963  -5.484  1.00  0.00     0.008 C 
ENDBRANCH   9  10
ENDBRANCH   8   9
ENDBRANCH   6   8
ENDBRANCH   5   6
ENDBRANCH   4   5
ENDBRANCH   3   4
ENDBRANCH   2   3
ENDBRANCH   1   2
BRANCH   1  28
ATOM     28  C   UNL     1      -4.512  -1.077  -6.678  1.00  0.00     0.261 C 
BRANCH  28  29
ATOM     29  O   UNL     1      -3.884  -1.722  -5.575  1.00  0.00    -0.460 OA
BRANCH  29  30
ATOM     30  C   UNL     1      -3.927  -3.069  -5.540  1.00  0.00     0.338 C 
ATOM     31  O   UNL     1      -4.135  -3.832  -6.472  1.00  0.00    -0.246 OA
BRANCH  30  32
ATOM     32  C   UNL     1      -3.893  -3.459  -4.121  1.00  0.00     0.060 A 
ATOM     33  C   UNL     1      -4.270  -4.764  -3.792  1.00  0.00     0.016 A 
ATOM     34  C   UNL     1      -3.703  -2.478  -3.133  1.00  0.00     0.016 A 
ATOM     35  C   UNL     1      -4.610  -5.040  -2.482  1.00  0.00     0.010 A 
ATOM     36  C   UNL     1      -4.063  -2.745  -1.836  1.00  0.00     0.010 A 
ATOM     37  C   UNL     1      -4.573  -4.003  -1.543  1.00  0.00    -0.014 A 
BRANCH  37  38
ATOM     38  C   UNL     1      -5.021  -4.270  -0.196  1.00  0.00     0.031 A 
ATOM     39  C   UNL     1      -3.976  -4.891   0.643  1.00  0.00     0.074 A 
ATOM     40  C   UNL     1      -6.234  -3.880   0.238  1.00  0.00     0.049 A 
ATOM     41  N   UNL     1      -3.881  -6.135   0.978  1.00  0.00    -0.248 NA
ATOM     42  C   UNL     1      -2.793  -4.086   0.985  1.00  0.00     0.031 C 
ATOM     43  C   UNL     1      -7.165  -2.957  -0.424  1.00  0.00     0.029 A 
ATOM     44  N   UNL     1      -6.842  -4.128   1.429  1.00  0.00    -0.354 N 
ATOM     45  C   UNL     1      -2.766  -6.194   1.810  1.00  0.00     0.074 A 
ATOM     46  C   UNL     1      -2.011  -4.998   1.563  1.00  0.00     0.031 C 
ATOM     47  C   UNL     1      -8.090  -2.541   0.472  1.00  0.00     0.029 A 
ATOM     48  C   UNL     1      -7.910  -3.282   1.708  1.00  0.00     0.049 A 
ATOM     49  H   UNL     1      -6.551  -4.843   2.039  1.00  0.00     0.167 HD
ATOM     50  C   UNL     1      -2.745  -7.041   2.874  1.00  0.00     0.034 A 
ATOM     51  C   UNL     1      -8.531  -3.167   2.907  1.00  0.00     0.034 A 
ATOM     52  C   UNL     1      -3.825  -7.990   2.795  1.00  0.00     0.049 A 
ATOM     53  C   UNL     1      -8.271  -4.422   3.649  1.00  0.00     0.074 A 
ATOM     54  C   UNL     1      -4.131  -9.111   2.057  1.00  0.00     0.029 A 
ATOM     55  N   UNL     1      -4.992  -7.521   3.342  1.00  0.00    -0.354 N 
ATOM     56  N   UNL     1      -8.714  -5.588   3.267  1.00  0.00    -0.248 NA
ATOM     57  C   UNL     1      -7.221  -4.450   4.660  1.00  0.00     0.031 C 
ATOM     58  C   UNL     1      -5.556  -9.188   2.034  1.00  0.00     0.029 A 
ATOM     59  C   UNL     1      -6.079  -8.138   2.788  1.00  0.00     0.049 A 
ATOM     60  H   UNL     1      -5.040  -6.830   4.042  1.00  0.00     0.167 HD
ATOM     61  C   UNL     1      -7.709  -6.463   3.637  1.00  0.00     0.074 A 
ATOM     62  C   UNL     1      -6.931  -5.754   4.644  1.00  0.00     0.031 C 
ATOM     63  C   UNL     1      -7.398  -7.541   2.862  1.00  0.00     0.034 A 
BRANCH  50  64
ATOM     64  C   UNL     1      -2.088  -6.745   4.209  1.00  0.00     0.023 A 
ATOM     65  C   UNL     1      -2.045  -7.795   5.152  1.00  0.00     0.012 A 
ATOM     66  C   UNL     1      -1.766  -5.452   4.686  1.00  0.00     0.148 A 
ATOM     67  C   UNL     1      -1.716  -7.569   6.494  1.00  0.00     0.002 A 
ATOM     68  C   UNL     1      -1.352  -5.246   5.997  1.00  0.00     0.091 A 
ATOM     69  F   UNL     1      -1.996  -4.379   3.924  1.00  0.00    -0.205 F 
ATOM     70  C   UNL     1      -1.353  -6.296   6.914  1.00  0.00     0.022 A 
BRANCH  68  71
ATOM     71  S   UNL     1      -0.821  -3.629   6.579  1.00  0.00     0.127 S 
ATOM     72  O   UNL     1      -1.910  -3.268   7.481  1.00  0.00    -0.237 OA
ATOM     73  O   UNL     1       0.446  -3.953   7.235  1.00  0.00    -0.237 OA
ATOM     74  O   UNL     1      -0.680  -2.807   5.384  1.00  0.00    -0.744 OA
ENDBRANCH  68  71
ENDBRANCH  50  64
BRANCH  51  75
ATOM     75  C   UNL     1      -9.043  -1.962   3.604  1.00  0.00     0.023 A 
ATOM     76  C   UNL     1      -9.897  -2.127   4.716  1.00  0.00     0.012 A 
ATOM     77  C   UNL     1      -8.426  -0.707   3.418  1.00  0.00     0.148 A 
ATOM     78  C   UNL     1     -10.066  -1.103   5.655  1.00  0.00     0.002 A 
ATOM     79  C   UNL     1      -8.592   0.306   4.358  1.00  0.00     0.091 A 
ATOM     80  F   UNL     1      -7.597  -0.543   2.378  1.00  0.00    -0.205 F 
ATOM     81  C   UNL     1      -9.396   0.105   5.487  1.00  0.00     0.022 A 
BRANCH  79  82
ATOM     82  S   UNL     1      -7.718   1.873   4.240  1.00  0.00     0.127 S 
ATOM     83  O   UNL     1      -8.795   2.837   4.470  1.00  0.00    -0.237 OA
ATOM     84  O   UNL     1      -6.754   1.760   5.330  1.00  0.00    -0.237 OA
ATOM     85  O   UNL     1      -7.155   1.914   2.897  1.00  0.00    -0.744 OA
ENDBRANCH  79  82
ENDBRANCH  51  75
BRANCH  63  86
ATOM     86  C   UNL     1      -8.435  -8.029   1.891  1.00  0.00     0.023 A 
ATOM     87  C   UNL     1      -8.836  -7.292   0.758  1.00  0.00     0.012 A 
ATOM     88  C   UNL     1      -8.934  -9.329   2.072  1.00  0.00     0.148 A 
ATOM     89  C   UNL     1      -9.729  -7.841  -0.167  1.00  0.00     0.002 A 
ATOM     90  C   UNL     1      -9.781  -9.889   1.126  1.00  0.00     0.091 A 
ATOM     91  F   UNL     1      -8.550 -10.007   3.163  1.00  0.00    -0.205 F 
ATOM     92  C   UNL     1     -10.190  -9.145   0.009  1.00  0.00     0.022 A 
BRANCH  90  93
ATOM     93  S   UNL     1     -10.301 -11.601   1.236  1.00  0.00     0.127 S 
ATOM     94  O   UNL     1     -11.697 -11.472   1.645  1.00  0.00    -0.237 OA
ATOM     95  O   UNL     1     -10.104 -12.076  -0.135  1.00  0.00    -0.237 OA
ATOM     96  O   UNL     1      -9.416 -12.226   2.213  1.00  0.00    -0.744 OA
ENDBRANCH  90  93
ENDBRANCH  63  86
ENDBRANCH  37  38
ENDBRANCH  30  32
ENDBRANCH  29  30
ENDBRANCH  28  29
ENDBRANCH   1  28
TORSDOF 19
