REMARK SMILES Cc1cccc(CC(=O)N2CCC3(CCC(=O)N([C@H](C)C(=O)OCCOCCOC(=O)c4ccc(-c5c6nc(c(-c7cccc(S(=O)(=O)[O-])c7F)c7ccc([nH]7)c(-c7cccc(S(=O)(=O)[O-])c7F)c7nc(c(-c8cccc(S(=O)(=O)[O-])c8F)c8ccc5[nH]8)C=C7)C=C6)cc4)C3)CC2)c1
REMARK SMILES IDX 26 1 25 2 24 3 23 4 21 5 22 6 19 7 20 8 18 9 8 10 9 11 10 12
REMARK SMILES IDX 11 13 97 14 12 15 96 16 13 17 14 18 95 19 15 20 16 21 17 22
REMARK SMILES IDX 7 23 6 24 1 25 2 26 3 27 98 28 4 29 5 30 27 31 28 32 29 33
REMARK SMILES IDX 30 34 31 35 32 36 33 37 94 38 34 39 93 40 35 41 36 42 37 43
REMARK SMILES IDX 87 44 38 45 92 46 86 47 88 48 39 49 91 50 85 51 84 52 40 54
REMARK SMILES IDX 72 55 52 56 71 57 53 58 56 59 70 60 89 61 54 62 55 63 69 65
REMARK SMILES IDX 90 66 57 67 41 68 42 69 50 70 43 71 45 72 51 73 44 74 46 75
REMARK SMILES IDX 47 76 48 77 49 78 73 79 74 80 82 81 75 82 77 83 83 84 76 85
REMARK SMILES IDX 78 86 79 87 80 88 81 89 58 90 59 91 67 92 60 93 62 94 68 95
REMARK SMILES IDX 61 96 63 97 64 98 65 99 66 100
REMARK H PARENT 88 53 56 64
REMARK Flexibility Score: inf
ROOT
ATOM      1  O   UNL     1      -2.251   5.760  -5.292  1.00  0.00    -0.374 OA
ENDROOT
BRANCH   1   2
ATOM      2  C   UNL     1      -2.321   4.924  -6.430  1.00  0.00     0.202 C 
BRANCH   2   3
ATOM      3  C   UNL     1      -1.963   5.727  -7.668  1.00  0.00     0.261 C 
BRANCH   3   4
ATOM      4  O   UNL     1      -0.740   6.484  -7.652  1.00  0.00    -0.462 OA
BRANCH   4   5
ATOM      5  C   UNL     1      -0.102   6.835  -6.515  1.00  0.00     0.328 C 
ATOM      6  O   UNL     1      -0.439   7.715  -5.732  1.00  0.00    -0.250 OA
BRANCH   5   7
ATOM      7  C   UNL     1       1.198   6.065  -6.353  1.00  0.00     0.192 C 
ATOM      8  C   UNL     1       1.006   4.620  -5.903  1.00  0.00     0.044 C 
BRANCH   7   9
ATOM      9  N   UNL     1       2.069   6.199  -7.530  1.00  0.00    -0.329 N 
ATOM     10  C   UNL     1       8.196   5.277  -6.978  1.00  0.00     0.226 C 
ATOM     11  O   UNL     1       8.454   4.087  -6.751  1.00  0.00    -0.275 OA
ATOM     12  N   UNL     1       7.111   5.630  -7.767  1.00  0.00    -0.342 N 
ATOM     13  C   UNL     1       6.046   4.656  -7.940  1.00  0.00     0.120 C 
ATOM     14  C   UNL     1       6.866   6.898  -8.459  1.00  0.00     0.120 C 
ATOM     15  C   UNL     1       4.753   5.261  -7.414  1.00  0.00     0.030 C 
ATOM     16  C   UNL     1       5.594   7.569  -7.948  1.00  0.00     0.030 C 
ATOM     17  C   UNL     1       4.395   6.615  -8.101  1.00  0.00    -0.008 C 
ATOM     18  C   UNL     1       4.018   6.491  -9.589  1.00  0.00     0.019 C 
ATOM     19  C   UNL     1       3.144   7.181  -7.435  1.00  0.00     0.127 C 
ATOM     20  C   UNL     1       2.839   5.570  -9.810  1.00  0.00     0.101 C 
ATOM     21  C   UNL     1       1.796   5.520  -8.713  1.00  0.00     0.223 C 
ATOM     22  O   UNL     1       0.836   4.766  -8.878  1.00  0.00    -0.275 OA
BRANCH  10  23
ATOM     23  C   UNL     1       8.967   6.338  -6.202  1.00  0.00     0.135 C 
BRANCH  23  24
ATOM     24  C   UNL     1       9.515   7.500  -6.979  1.00  0.00    -0.038 A 
ATOM     25  C   UNL     1       8.796  11.230  -7.257  1.00  0.00     0.044 C 
ATOM     26  C   UNL     1       9.379   9.871  -7.514  1.00  0.00    -0.051 A 
ATOM     27  C   UNL     1      10.178   9.644  -8.640  1.00  0.00     0.003 A 
ATOM     28  C   UNL     1       9.079   8.800  -6.668  1.00  0.00     0.007 A 
ATOM     29  C   UNL     1      10.672   8.367  -8.917  1.00  0.00     0.001 A 
ATOM     30  C   UNL     1      10.347   7.295  -8.087  1.00  0.00     0.004 A 
ENDBRANCH  23  24
ENDBRANCH  10  23
ENDBRANCH   7   9
ENDBRANCH   5   7
ENDBRANCH   4   5
ENDBRANCH   3   4
ENDBRANCH   2   3
ENDBRANCH   1   2
BRANCH   1  31
ATOM     31  C   UNL     1      -2.474   5.164  -4.029  1.00  0.00     0.202 C 
BRANCH  31  32
ATOM     32  C   UNL     1      -3.894   4.615  -3.862  1.00  0.00     0.261 C 
BRANCH  32  33
ATOM     33  O   UNL     1      -4.847   5.695  -3.862  1.00  0.00    -0.460 OA
BRANCH  33  34
ATOM     34  C   UNL     1      -5.472   5.901  -5.056  1.00  0.00     0.338 C 
ATOM     35  O   UNL     1      -6.172   5.066  -5.610  1.00  0.00    -0.246 OA
BRANCH  34  36
ATOM     36  C   UNL     1      -5.012   7.185  -5.660  1.00  0.00     0.060 A 
ATOM     37  C   UNL     1      -5.262   7.468  -7.015  1.00  0.00     0.016 A 
ATOM     38  C   UNL     1      -4.107   7.971  -4.950  1.00  0.00     0.016 A 
ATOM     39  C   UNL     1      -4.503   8.441  -7.689  1.00  0.00     0.010 A 
ATOM     40  C   UNL     1      -3.296   8.846  -5.642  1.00  0.00     0.010 A 
ATOM     41  C   UNL     1      -3.464   9.076  -7.018  1.00  0.00    -0.014 A 
BRANCH  41  42
ATOM     42  C   UNL     1      -2.471   9.990  -7.587  1.00  0.00     0.031 A 
ATOM     43  C   UNL     1      -2.391  11.371  -7.044  1.00  0.00     0.074 A 
ATOM     44  C   UNL     1      -1.418   9.544  -8.310  1.00  0.00     0.049 A 
ATOM     45  N   UNL     1      -1.520  12.247  -7.412  1.00  0.00    -0.248 NA
ATOM     46  C   UNL     1      -3.342  11.899  -6.068  1.00  0.00     0.031 C 
ATOM     47  C   UNL     1      -0.046  10.052  -8.218  1.00  0.00     0.029 A 
ATOM     48  N   UNL     1      -1.321   8.558  -9.272  1.00  0.00    -0.354 N 
ATOM     49  C   UNL     1      -1.566  13.284  -6.513  1.00  0.00     0.074 A 
ATOM     50  C   UNL     1      -2.804  13.092  -5.802  1.00  0.00     0.031 C 
ATOM     51  C   UNL     1       0.709   9.494  -9.172  1.00  0.00     0.029 A 
ATOM     52  C   UNL     1      -0.166   8.731 -10.034  1.00  0.00     0.049 A 
ATOM     53  H   UNL     1      -1.976   7.834  -9.402  1.00  0.00     0.167 HD
ATOM     54  C   UNL     1      -0.474  14.090  -6.401  1.00  0.00     0.034 A 
ATOM     55  C   UNL     1      -0.195   8.800 -11.395  1.00  0.00     0.034 A 
ATOM     56  C   UNL     1       0.498  13.814  -7.483  1.00  0.00     0.049 A 
ATOM     57  C   UNL     1       0.242  10.159 -11.895  1.00  0.00     0.074 A 
ATOM     58  C   UNL     1       1.739  13.200  -7.526  1.00  0.00     0.029 A 
ATOM     59  N   UNL     1       0.106  13.983  -8.812  1.00  0.00    -0.354 N 
ATOM     60  N   UNL     1       0.562  11.137 -11.093  1.00  0.00    -0.248 NA
ATOM     61  C   UNL     1       0.381  10.551 -13.294  1.00  0.00     0.031 C 
ATOM     62  C   UNL     1       2.056  12.943  -8.891  1.00  0.00     0.029 A 
ATOM     63  C   UNL     1       1.032  13.434  -9.687  1.00  0.00     0.049 A 
ATOM     64  H   UNL     1      -0.723  14.434  -9.093  1.00  0.00     0.167 HD
ATOM     65  C   UNL     1       0.750  12.291 -11.787  1.00  0.00     0.074 A 
ATOM     66  C   UNL     1       0.722  11.850 -13.173  1.00  0.00     0.031 C 
ATOM     67  C   UNL     1       0.829  13.497 -11.141  1.00  0.00     0.034 A 
BRANCH  54  68
ATOM     68  C   UNL     1      -0.160  15.025  -5.234  1.00  0.00     0.023 A 
ATOM     69  C   UNL     1       1.073  15.718  -5.280  1.00  0.00     0.012 A 
ATOM     70  C   UNL     1      -0.926  15.229  -4.057  1.00  0.00     0.148 A 
ATOM     71  C   UNL     1       1.522  16.538  -4.235  1.00  0.00     0.002 A 
ATOM     72  C   UNL     1      -0.503  16.085  -3.033  1.00  0.00     0.091 A 
ATOM     73  F   UNL     1      -2.056  14.555  -3.861  1.00  0.00    -0.205 F 
ATOM     74  C   UNL     1       0.730  16.731  -3.114  1.00  0.00     0.022 A 
BRANCH  72  75
ATOM     75  S   UNL     1      -1.492  16.401  -1.555  1.00  0.00     0.127 S 
ATOM     76  O   UNL     1      -0.613  15.920  -0.489  1.00  0.00    -0.237 OA
ATOM     77  O   UNL     1      -1.660  17.853  -1.596  1.00  0.00    -0.237 OA
ATOM     78  O   UNL     1      -2.729  15.643  -1.710  1.00  0.00    -0.744 OA
ENDBRANCH  72  75
ENDBRANCH  54  68
BRANCH  55  79
ATOM     79  C   UNL     1      -1.187   7.846 -11.976  1.00  0.00     0.023 A 
ATOM     80  C   UNL     1      -0.814   6.480 -11.890  1.00  0.00     0.012 A 
ATOM     81  C   UNL     1      -2.556   8.169 -12.039  1.00  0.00     0.148 A 
ATOM     82  C   UNL     1      -1.769   5.481 -11.701  1.00  0.00     0.002 A 
ATOM     83  C   UNL     1      -3.504   7.167 -11.825  1.00  0.00     0.091 A 
ATOM     84  F   UNL     1      -2.902   9.453 -12.200  1.00  0.00    -0.205 F 
ATOM     85  C   UNL     1      -3.111   5.831 -11.625  1.00  0.00     0.022 A 
BRANCH  83  86
ATOM     86  S   UNL     1      -5.250   7.531 -11.579  1.00  0.00     0.127 S 
ATOM     87  O   UNL     1      -5.818   7.138 -12.866  1.00  0.00    -0.237 OA
ATOM     88  O   UNL     1      -5.596   6.649 -10.461  1.00  0.00    -0.237 OA
ATOM     89  O   UNL     1      -5.312   8.949 -11.260  1.00  0.00    -0.744 OA
ENDBRANCH  83  86
ENDBRANCH  55  79
BRANCH  67  90
ATOM     90  C   UNL     1       0.698  14.847 -11.820  1.00  0.00     0.023 A 
ATOM     91  C   UNL     1       0.139  14.992 -13.105  1.00  0.00     0.012 A 
ATOM     92  C   UNL     1       0.986  16.046 -11.118  1.00  0.00     0.148 A 
ATOM     93  C   UNL     1      -0.072  16.245 -13.690  1.00  0.00     0.002 A 
ATOM     94  C   UNL     1       0.659  17.289 -11.654  1.00  0.00     0.091 A 
ATOM     95  F   UNL     1       1.602  15.996  -9.929  1.00  0.00    -0.205 F 
ATOM     96  C   UNL     1       0.161  17.395 -12.953  1.00  0.00     0.022 A 
BRANCH  94  97
ATOM     97  S   UNL     1       0.700  18.774 -10.640  1.00  0.00     0.127 S 
ATOM     98  O   UNL     1       2.011  19.327 -10.969  1.00  0.00    -0.237 OA
ATOM     99  O   UNL     1      -0.434  19.540 -11.162  1.00  0.00    -0.237 OA
ATOM    100  O   UNL     1       0.522  18.303  -9.273  1.00  0.00    -0.744 OA
ENDBRANCH  94  97
ENDBRANCH  67  90
ENDBRANCH  41  42
ENDBRANCH  34  36
ENDBRANCH  33  34
ENDBRANCH  32  33
ENDBRANCH  31  32
ENDBRANCH   1  31
TORSDOF 20
