REMARK SMILES Cc1cc(C(=O)OCCOCCOC(=O)c2ccc(-c3c4nc(c(-c5cccc(S(=O)(=O)[O-])c5F)c5ccc([nH]5)c(-c5cccc(S(=O)(=O)[O-])c5F)c5nc(c(-c6cccc(S(=O)(=O)[O-])c6F)c6ccc3[nH]6)C=C5)C=C4)cc2)ccc1NS(=O)(=O)c1ccc2c(c1)CCC2
REMARK SMILES IDX 10 1 9 2 8 3 7 4 5 5 6 6 4 7 1 8 2 9 3 10 81 11 80 12 79 13
REMARK SMILES IDX 82 14 83 16 84 17 85 18 86 19 87 20 91 21 88 22 90 23 89 24
REMARK SMILES IDX 92 25 94 26 93 27 11 28 12 29 13 30 14 31 15 32 16 33 17 34
REMARK SMILES IDX 78 35 18 36 77 37 19 38 20 39 21 40 71 41 22 42 76 43 70 44
REMARK SMILES IDX 72 45 23 46 75 47 69 48 68 49 24 51 56 52 36 53 55 54 37 55
REMARK SMILES IDX 40 56 54 57 73 58 38 59 39 60 53 62 74 63 41 64 25 65 26 66
REMARK SMILES IDX 34 67 27 68 29 69 35 70 28 71 30 72 31 73 32 74 33 75 57 76
REMARK SMILES IDX 58 77 66 78 59 79 61 80 67 81 60 82 62 83 63 84 64 85 65 86
REMARK SMILES IDX 42 87 43 88 51 89 44 90 46 91 52 92 45 93 47 94 48 95 49 96
REMARK SMILES IDX 50 97
REMARK H PARENT 82 15 72 50 40 61
REMARK Flexibility Score: inf
ROOT
ATOM      1  O   UNL     1      -0.353  -3.068  -2.681  1.00  0.00    -0.374 OA
ENDROOT
BRANCH   1   2
ATOM      2  C   UNL     1      -1.046  -3.858  -1.733  1.00  0.00     0.202 C 
BRANCH   2   3
ATOM      3  C   UNL     1      -2.188  -3.140  -0.990  1.00  0.00     0.261 C 
BRANCH   3   4
ATOM      4  O   UNL     1      -1.729  -2.007  -0.284  1.00  0.00    -0.460 OA
BRANCH   4   5
ATOM      5  C   UNL     1      -0.833  -2.310   0.680  1.00  0.00     0.338 C 
ATOM      6  O   UNL     1      -0.375  -3.395   1.000  1.00  0.00    -0.246 OA
BRANCH   5   7
ATOM      7  C   UNL     1      -0.246  -1.021   0.984  1.00  0.00     0.060 A 
ATOM      8  C   UNL     1       2.972   0.432  -0.189  1.00  0.00     0.046 C 
ATOM      9  C   UNL     1       1.572   0.392   0.342  1.00  0.00    -0.026 A 
ATOM     10  C   UNL     1       1.077  -0.882   0.607  1.00  0.00     0.021 A 
ATOM     11  C   UNL     1       0.719   1.508   0.498  1.00  0.00     0.052 A 
ATOM     12  C   UNL     1      -0.497   1.350   1.165  1.00  0.00     0.028 A 
ATOM     13  C   UNL     1      -1.029   0.080   1.311  1.00  0.00     0.018 A 
BRANCH  11  14
ATOM     14  N   UNL     1       0.906   2.621  -0.381  1.00  0.00    -0.279 N 
ATOM     15  H   UNL     1       1.554   2.497  -1.111  1.00  0.00     0.180 HD
BRANCH  14  16
ATOM     16  S   UNL     1       0.147   4.106  -0.308  1.00  0.00     0.261 S 
ATOM     17  O   UNL     1       0.262   4.597   1.050  1.00  0.00    -0.201 OA
ATOM     18  O   UNL     1       0.703   4.864  -1.412  1.00  0.00    -0.201 OA
BRANCH  16  19
ATOM     19  C   UNL     1      -1.607   3.959  -0.654  1.00  0.00     0.088 A 
ATOM     20  C   UNL     1      -2.257   2.732  -0.864  1.00  0.00     0.022 A 
ATOM     21  C   UNL     1      -2.356   5.124  -0.425  1.00  0.00     0.026 A 
ATOM     22  C   UNL     1      -3.621   2.608  -0.556  1.00  0.00     0.005 A 
ATOM     23  C   UNL     1      -3.714   4.997  -0.204  1.00  0.00    -0.043 A 
ATOM     24  C   UNL     1      -4.314   3.737  -0.150  1.00  0.00    -0.045 A 
ATOM     25  C   UNL     1      -4.718   6.064   0.093  1.00  0.00     0.036 C 
ATOM     26  C   UNL     1      -5.691   3.842   0.441  1.00  0.00     0.036 C 
ATOM     27  C   UNL     1      -5.670   5.281   0.998  1.00  0.00     0.010 C 
ENDBRANCH  16  19
ENDBRANCH  14  16
ENDBRANCH  11  14
ENDBRANCH   5   7
ENDBRANCH   4   5
ENDBRANCH   3   4
ENDBRANCH   2   3
ENDBRANCH   1   2
BRANCH   1  28
ATOM     28  C   UNL     1      -1.214  -2.263  -3.479  1.00  0.00     0.202 C 
BRANCH  28  29
ATOM     29  C   UNL     1      -2.602  -2.846  -4.027  1.00  0.00     0.261 C 
BRANCH  29  30
ATOM     30  O   UNL     1      -2.945  -4.189  -3.487  1.00  0.00    -0.460 OA
BRANCH  30  31
ATOM     31  C   UNL     1      -4.104  -4.942  -3.470  1.00  0.00     0.338 C 
ATOM     32  O   UNL     1      -5.023  -4.828  -4.227  1.00  0.00    -0.246 OA
BRANCH  31  33
ATOM     33  C   UNL     1      -4.059  -5.859  -2.217  1.00  0.00     0.060 A 
ATOM     34  C   UNL     1      -5.154  -5.980  -1.362  1.00  0.00     0.016 A 
ATOM     35  C   UNL     1      -2.860  -6.312  -1.698  1.00  0.00     0.016 A 
ATOM     36  C   UNL     1      -4.982  -5.968   0.040  1.00  0.00     0.010 A 
ATOM     37  C   UNL     1      -2.656  -6.219  -0.320  1.00  0.00     0.010 A 
ATOM     38  C   UNL     1      -3.704  -5.859   0.544  1.00  0.00    -0.014 A 
BRANCH  38  39
ATOM     39  C   UNL     1      -3.330  -5.260   1.845  1.00  0.00     0.031 A 
ATOM     40  C   UNL     1      -2.519  -6.095   2.776  1.00  0.00     0.074 A 
ATOM     41  C   UNL     1      -3.425  -3.914   2.081  1.00  0.00     0.049 A 
ATOM     42  N   UNL     1      -2.192  -5.751   3.973  1.00  0.00    -0.248 NA
ATOM     43  C   UNL     1      -2.035  -7.435   2.439  1.00  0.00     0.031 C 
ATOM     44  C   UNL     1      -2.580  -3.160   3.021  1.00  0.00     0.029 A 
ATOM     45  N   UNL     1      -4.223  -2.892   1.529  1.00  0.00    -0.354 N 
ATOM     46  C   UNL     1      -1.215  -6.618   4.407  1.00  0.00     0.074 A 
ATOM     47  C   UNL     1      -1.256  -7.718   3.486  1.00  0.00     0.031 C 
ATOM     48  C   UNL     1      -3.012  -1.899   3.127  1.00  0.00     0.029 A 
ATOM     49  C   UNL     1      -4.277  -1.820   2.437  1.00  0.00     0.049 A 
ATOM     50  H   UNL     1      -4.668  -2.923   0.651  1.00  0.00     0.167 HD
ATOM     51  C   UNL     1      -0.409  -6.240   5.435  1.00  0.00     0.034 A 
ATOM     52  C   UNL     1      -5.399  -1.292   3.010  1.00  0.00     0.034 A 
ATOM     53  C   UNL     1      -0.903  -4.987   6.037  1.00  0.00     0.049 A 
ATOM     54  C   UNL     1      -5.434  -1.595   4.507  1.00  0.00     0.074 A 
ATOM     55  C   UNL     1      -0.476  -3.672   6.000  1.00  0.00     0.029 A 
ATOM     56  N   UNL     1      -2.204  -4.956   6.546  1.00  0.00    -0.354 N 
ATOM     57  N   UNL     1      -4.441  -2.167   5.139  1.00  0.00    -0.248 NA
ATOM     58  C   UNL     1      -6.540  -1.314   5.419  1.00  0.00     0.031 C 
ATOM     59  C   UNL     1      -1.585  -2.847   6.366  1.00  0.00     0.029 A 
ATOM     60  C   UNL     1      -2.668  -3.654   6.688  1.00  0.00     0.049 A 
ATOM     61  H   UNL     1      -2.727  -5.758   6.775  1.00  0.00     0.167 HD
ATOM     62  C   UNL     1      -4.802  -2.528   6.398  1.00  0.00     0.074 A 
ATOM     63  C   UNL     1      -6.093  -1.876   6.560  1.00  0.00     0.031 C 
ATOM     64  C   UNL     1      -4.044  -3.393   7.147  1.00  0.00     0.034 A 
BRANCH  51  65
ATOM     65  C   UNL     1       0.892  -6.919   5.846  1.00  0.00     0.023 A 
ATOM     66  C   UNL     1       1.486  -6.478   7.050  1.00  0.00     0.012 A 
ATOM     67  C   UNL     1       1.623  -7.902   5.122  1.00  0.00     0.148 A 
ATOM     68  C   UNL     1       2.710  -6.977   7.514  1.00  0.00     0.002 A 
ATOM     69  C   UNL     1       2.812  -8.451   5.621  1.00  0.00     0.091 A 
ATOM     70  F   UNL     1       1.234  -8.259   3.895  1.00  0.00    -0.205 F 
ATOM     71  C   UNL     1       3.365  -7.978   6.812  1.00  0.00     0.022 A 
BRANCH  69  72
ATOM     72  S   UNL     1       3.699  -9.795   4.800  1.00  0.00     0.127 S 
ATOM     73  O   UNL     1       4.949  -9.147   4.406  1.00  0.00    -0.237 OA
ATOM     74  O   UNL     1       3.840 -10.780   5.873  1.00  0.00    -0.237 OA
ATOM     75  O   UNL     1       2.854 -10.230   3.694  1.00  0.00    -0.744 OA
ENDBRANCH  69  72
ENDBRANCH  51  65
BRANCH  52  76
ATOM     76  C   UNL     1      -6.534  -1.149   2.062  1.00  0.00     0.023 A 
ATOM     77  C   UNL     1      -6.384  -0.129   1.084  1.00  0.00     0.012 A 
ATOM     78  C   UNL     1      -7.351  -2.250   1.780  1.00  0.00     0.148 A 
ATOM     79  C   UNL     1      -6.879  -0.290  -0.209  1.00  0.00     0.002 A 
ATOM     80  C   UNL     1      -7.784  -2.431   0.471  1.00  0.00     0.091 A 
ATOM     81  F   UNL     1      -7.529  -3.173   2.733  1.00  0.00    -0.205 F 
ATOM     82  C   UNL     1      -7.534  -1.467  -0.525  1.00  0.00     0.022 A 
BRANCH  80  83
ATOM     83  S   UNL     1      -8.222  -4.051  -0.153  1.00  0.00     0.127 S 
ATOM     84  O   UNL     1      -9.598  -3.873  -0.598  1.00  0.00    -0.237 OA
ATOM     85  O   UNL     1      -7.245  -4.153  -1.230  1.00  0.00    -0.237 OA
ATOM     86  O   UNL     1      -8.023  -4.970   0.956  1.00  0.00    -0.744 OA
ENDBRANCH  80  83
ENDBRANCH  52  76
BRANCH  64  87
ATOM     87  C   UNL     1      -4.566  -4.086   8.395  1.00  0.00     0.023 A 
ATOM     88  C   UNL     1      -5.946  -4.220   8.649  1.00  0.00     0.012 A 
ATOM     89  C   UNL     1      -3.693  -4.750   9.292  1.00  0.00     0.148 A 
ATOM     90  C   UNL     1      -6.434  -4.865   9.788  1.00  0.00     0.002 A 
ATOM     91  C   UNL     1      -4.191  -5.517  10.341  1.00  0.00     0.091 A 
ATOM     92  F   UNL     1      -2.366  -4.629   9.152  1.00  0.00    -0.205 F 
ATOM     93  C   UNL     1      -5.556  -5.531  10.627  1.00  0.00     0.022 A 
BRANCH  91  94
ATOM     94  S   UNL     1      -3.132  -6.649  11.252  1.00  0.00     0.127 S 
ATOM     95  O   UNL     1      -2.833  -5.877  12.456  1.00  0.00    -0.237 OA
ATOM     96  O   UNL     1      -4.018  -7.795  11.466  1.00  0.00    -0.237 OA
ATOM     97  O   UNL     1      -2.010  -6.921  10.365  1.00  0.00    -0.744 OA
ENDBRANCH  91  94
ENDBRANCH  64  87
ENDBRANCH  38  39
ENDBRANCH  31  33
ENDBRANCH  30  31
ENDBRANCH  29  30
ENDBRANCH  28  29
ENDBRANCH   1  28
TORSDOF 20
