REMARK SMILES Cc1cc(=O)n2cc(-c3ccccc3)nc2n1[C@H](C)C(=O)OCCOCCOC(=O)c1ccc(-c2c3nc(c(-c4cccc(S(=O)(=O)[O-])c4F)c4ccc([nH]4)c(-c4cccc(S(=O)(=O)[O-])c4F)c4nc(c(-c5cccc(S(=O)(=O)[O-])c5F)c5ccc2[nH]5)C=C4)C=C3)cc1
REMARK SMILES IDX 26 1 25 2 24 3 23 4 22 5 20 6 21 7 18 8 19 9 17 10 1 11 2 12
REMARK SMILES IDX 3 13 4 14 16 15 5 16 6 17 15 18 7 19 8 20 9 21 10 22 14 23
REMARK SMILES IDX 11 24 13 25 12 26 27 27 28 28 29 29 30 30 31 31 32 32 93 33
REMARK SMILES IDX 33 34 92 35 34 36 35 37 36 38 86 39 37 40 91 41 85 42 87 43
REMARK SMILES IDX 38 44 90 45 84 46 83 47 39 49 71 50 51 51 70 52 52 53 55 54
REMARK SMILES IDX 69 55 88 56 53 57 54 58 68 60 89 61 56 62 40 63 41 64 49 65
REMARK SMILES IDX 42 66 44 67 50 68 43 69 45 70 46 71 47 72 48 73 72 74 73 75
REMARK SMILES IDX 81 76 74 77 76 78 82 79 75 80 77 81 78 82 79 83 80 84 57 85
REMARK SMILES IDX 58 86 66 87 59 88 61 89 67 90 60 91 62 92 63 93 64 94 65 95
REMARK H PARENT 87 48 55 59
REMARK Flexibility Score: inf
ROOT
ATOM      1  C   UNL     1      -3.252  -1.528   0.274  1.00  0.00     0.202 C 
ENDROOT
BRANCH   1   2
ATOM      2  O   UNL     1      -4.234  -2.413   0.809  1.00  0.00    -0.374 OA
BRANCH   2   3
ATOM      3  C   UNL     1      -4.454  -2.510   2.217  1.00  0.00     0.202 C 
BRANCH   3   4
ATOM      4  C   UNL     1      -3.348  -3.083   3.098  1.00  0.00     0.261 C 
BRANCH   4   5
ATOM      5  O   UNL     1      -2.148  -2.309   3.023  1.00  0.00    -0.462 OA
BRANCH   5   6
ATOM      6  C   UNL     1      -1.142  -2.903   2.336  1.00  0.00     0.329 C 
ATOM      7  O   UNL     1      -1.221  -4.014   1.810  1.00  0.00    -0.250 OA
BRANCH   6   8
ATOM      8  C   UNL     1       0.141  -2.071   2.259  1.00  0.00     0.197 C 
ATOM      9  C   UNL     1       0.048  -0.549   2.421  1.00  0.00     0.044 C 
BRANCH   8  10
ATOM     10  N   UNL     1       1.136  -2.728   3.145  1.00  0.00    -0.301 N 
ATOM     11  C   UNL     1       2.118  -4.064   1.236  1.00  0.00     0.065 C 
ATOM     12  C   UNL     1       1.995  -3.754   2.710  1.00  0.00     0.024 A 
ATOM     13  C   UNL     1       2.685  -4.508   3.586  1.00  0.00     0.093 A 
ATOM     14  C   UNL     1       2.543  -4.288   5.043  1.00  0.00     0.259 A 
ATOM     15  C   UNL     1       0.935  -2.531   4.487  1.00  0.00     0.218 A 
ATOM     16  O   UNL     1       3.122  -4.945   5.893  1.00  0.00    -0.269 OA
ATOM     17  N   UNL     1       1.655  -3.277   5.395  1.00  0.00    -0.251 N 
ATOM     18  N   UNL     1       0.086  -1.735   5.096  1.00  0.00    -0.212 NA
ATOM     19  C   UNL     1       1.298  -2.837   6.650  1.00  0.00     0.127 A 
ATOM     20  C   UNL     1       0.350  -1.862   6.433  1.00  0.00     0.091 A 
BRANCH  20  21
ATOM     21  C   UNL     1      -0.293  -1.056   7.448  1.00  0.00     0.002 A 
ATOM     22  C   UNL     1       0.476  -0.305   8.346  1.00  0.00     0.010 A 
ATOM     23  C   UNL     1      -1.690  -0.976   7.506  1.00  0.00     0.010 A 
ATOM     24  C   UNL     1      -0.146   0.505   9.299  1.00  0.00     0.001 A 
ATOM     25  C   UNL     1      -2.310  -0.176   8.471  1.00  0.00     0.001 A 
ATOM     26  C   UNL     1      -1.537   0.562   9.366  1.00  0.00     0.000 A 
ENDBRANCH  20  21
ENDBRANCH   8  10
ENDBRANCH   6   8
ENDBRANCH   5   6
ENDBRANCH   4   5
ENDBRANCH   3   4
ENDBRANCH   2   3
ENDBRANCH   1   2
BRANCH   1  27
ATOM     27  C   UNL     1      -3.454  -0.025   0.406  1.00  0.00     0.261 C 
BRANCH  27  28
ATOM     28  O   UNL     1      -3.470   0.368   1.766  1.00  0.00    -0.460 OA
BRANCH  28  29
ATOM     29  C   UNL     1      -4.705   0.616   2.251  1.00  0.00     0.338 C 
ATOM     30  O   UNL     1      -5.770   0.403   1.698  1.00  0.00    -0.246 OA
BRANCH  29  31
ATOM     31  C   UNL     1      -4.577   1.272   3.554  1.00  0.00     0.060 A 
ATOM     32  C   UNL     1      -5.784   1.615   4.167  1.00  0.00     0.016 A 
ATOM     33  C   UNL     1      -3.358   1.874   3.887  1.00  0.00     0.016 A 
ATOM     34  C   UNL     1      -5.825   2.793   4.866  1.00  0.00     0.010 A 
ATOM     35  C   UNL     1      -3.404   3.060   4.564  1.00  0.00     0.010 A 
ATOM     36  C   UNL     1      -4.654   3.550   4.931  1.00  0.00    -0.014 A 
BRANCH  36  37
ATOM     37  C   UNL     1      -4.748   4.902   5.419  1.00  0.00     0.031 A 
ATOM     38  C   UNL     1      -4.781   4.953   6.894  1.00  0.00     0.074 A 
ATOM     39  C   UNL     1      -4.686   5.943   4.566  1.00  0.00     0.049 A 
ATOM     40  N   UNL     1      -5.764   5.321   7.645  1.00  0.00    -0.248 NA
ATOM     41  C   UNL     1      -3.671   4.311   7.620  1.00  0.00     0.031 C 
ATOM     42  C   UNL     1      -4.370   5.921   3.132  1.00  0.00     0.029 A 
ATOM     43  N   UNL     1      -4.731   7.271   4.840  1.00  0.00    -0.354 N 
ATOM     44  C   UNL     1      -5.286   5.181   8.942  1.00  0.00     0.074 A 
ATOM     45  C   UNL     1      -4.127   4.334   8.871  1.00  0.00     0.031 C 
ATOM     46  C   UNL     1      -3.971   7.157   2.751  1.00  0.00     0.029 A 
ATOM     47  C   UNL     1      -4.116   8.065   3.875  1.00  0.00     0.049 A 
ATOM     48  H   UNL     1      -5.158   7.639   5.647  1.00  0.00     0.167 HD
ATOM     49  C   UNL     1      -5.688   6.012   9.937  1.00  0.00     0.034 A 
ATOM     50  C   UNL     1      -3.653   9.328   4.063  1.00  0.00     0.034 A 
ATOM     51  C   UNL     1      -6.868   6.747   9.576  1.00  0.00     0.049 A 
ATOM     52  C   UNL     1      -4.301   9.849   5.294  1.00  0.00     0.074 A 
ATOM     53  C   UNL     1      -8.161   6.400   9.242  1.00  0.00     0.029 A 
ATOM     54  N   UNL     1      -6.680   8.029   9.117  1.00  0.00    -0.354 N 
ATOM     55  N   UNL     1      -5.581  10.075   5.395  1.00  0.00    -0.248 NA
ATOM     56  C   UNL     1      -3.596   9.660   6.554  1.00  0.00     0.031 C 
ATOM     57  C   UNL     1      -8.532   7.311   8.212  1.00  0.00     0.029 A 
ATOM     58  C   UNL     1      -7.476   8.203   8.015  1.00  0.00     0.049 A 
ATOM     59  H   UNL     1      -6.079   8.702   9.510  1.00  0.00     0.167 HD
ATOM     60  C   UNL     1      -5.916   9.604   6.659  1.00  0.00     0.074 A 
ATOM     61  C   UNL     1      -4.641   9.451   7.360  1.00  0.00     0.031 C 
ATOM     62  C   UNL     1      -7.154   9.088   6.914  1.00  0.00     0.034 A 
BRANCH  49  63
ATOM     63  C   UNL     1      -4.806   6.418  11.083  1.00  0.00     0.023 A 
ATOM     64  C   UNL     1      -5.420   7.010  12.203  1.00  0.00     0.012 A 
ATOM     65  C   UNL     1      -3.393   6.462  11.019  1.00  0.00     0.148 A 
ATOM     66  C   UNL     1      -4.663   7.622  13.206  1.00  0.00     0.002 A 
ATOM     67  C   UNL     1      -2.642   6.984  12.062  1.00  0.00     0.091 A 
ATOM     68  F   UNL     1      -2.764   6.123   9.888  1.00  0.00    -0.205 F 
ATOM     69  C   UNL     1      -3.274   7.593  13.146  1.00  0.00     0.022 A 
BRANCH  67  70
ATOM     70  S   UNL     1      -0.847   6.903  12.064  1.00  0.00     0.127 S 
ATOM     71  O   UNL     1      -0.489   8.299  11.833  1.00  0.00    -0.237 OA
ATOM     72  O   UNL     1      -0.574   6.407  13.413  1.00  0.00    -0.237 OA
ATOM     73  O   UNL     1      -0.497   5.966  11.004  1.00  0.00    -0.744 OA
ENDBRANCH  67  70
ENDBRANCH  49  63
BRANCH  50  74
ATOM     74  C   UNL     1      -2.436   9.974   3.503  1.00  0.00     0.023 A 
ATOM     75  C   UNL     1      -2.300  11.377   3.573  1.00  0.00     0.012 A 
ATOM     76  C   UNL     1      -1.287   9.215   3.183  1.00  0.00     0.148 A 
ATOM     77  C   UNL     1      -1.058  11.996   3.370  1.00  0.00     0.002 A 
ATOM     78  C   UNL     1      -0.056   9.834   2.982  1.00  0.00     0.091 A 
ATOM     79  F   UNL     1      -1.377   7.879   3.171  1.00  0.00    -0.205 F 
ATOM     80  C   UNL     1       0.065  11.225   3.086  1.00  0.00     0.022 A 
BRANCH  78  81
ATOM     81  S   UNL     1       1.447   8.899   2.661  1.00  0.00     0.127 S 
ATOM     82  O   UNL     1       1.984   9.584   1.484  1.00  0.00    -0.237 OA
ATOM     83  O   UNL     1       2.203   9.113   3.892  1.00  0.00    -0.237 OA
ATOM     84  O   UNL     1       1.020   7.528   2.413  1.00  0.00    -0.744 OA
ENDBRANCH  78  81
ENDBRANCH  50  74
BRANCH  62  85
ATOM     85  C   UNL     1      -8.220   9.235   5.852  1.00  0.00     0.023 A 
ATOM     86  C   UNL     1      -8.125   8.607   4.590  1.00  0.00     0.012 A 
ATOM     87  C   UNL     1      -9.430   9.846   6.213  1.00  0.00     0.148 A 
ATOM     88  C   UNL     1      -9.210   8.601   3.708  1.00  0.00     0.002 A 
ATOM     89  C   UNL     1     -10.522   9.793   5.355  1.00  0.00     0.091 A 
ATOM     90  F   UNL     1      -9.506  10.436   7.415  1.00  0.00    -0.205 F 
ATOM     91  C   UNL     1     -10.414   9.180   4.097  1.00  0.00     0.022 A 
BRANCH  89  92
ATOM     92  S   UNL     1     -12.137  10.390   5.859  1.00  0.00     0.127 S 
ATOM     93  O   UNL     1     -12.268  11.616   5.073  1.00  0.00    -0.237 OA
ATOM     94  O   UNL     1     -13.019   9.299   5.441  1.00  0.00    -0.237 OA
ATOM     95  O   UNL     1     -12.065  10.576   7.303  1.00  0.00    -0.744 OA
ENDBRANCH  89  92
ENDBRANCH  62  85
ENDBRANCH  36  37
ENDBRANCH  29  31
ENDBRANCH  28  29
ENDBRANCH  27  28
ENDBRANCH   1  27
TORSDOF 19
