REMARK SMILES COc1cc(C)c(S(=O)(=O)Nc2cc(C(=O)OCCOCCOC(=O)c3ccc(-c4c5nc(c(-c6cccc(S(=O)(=O)[O-])c6F)c6ccc([nH]6)c(-c6cccc(S(=O)(=O)[O-])c6F)c6nc(c(-c7cccc(S(=O)(=O)[O-])c7F)c7ccc4[nH]7)C=C6)C=C5)cc3)ccc2F)cc1OC
REMARK SMILES IDX 19 1 18 2 17 3 15 4 16 5 14 6 12 7 13 8 91 9 90 10 92 11
REMARK SMILES IDX 89 12 11 13 8 15 9 16 10 17 7 18 3 19 4 20 94 21 5 22 93 23
REMARK SMILES IDX 6 24 2 25 1 26 95 27 96 28 20 29 21 30 22 31 23 32 24 33
REMARK SMILES IDX 25 34 26 35 27 36 88 37 28 38 87 39 29 40 30 41 31 42 81 43
REMARK SMILES IDX 32 44 86 45 80 46 82 47 33 48 85 49 79 50 78 51 34 53 66 54
REMARK SMILES IDX 46 55 65 56 47 57 50 58 64 59 83 60 48 61 49 62 63 64 84 65
REMARK SMILES IDX 51 66 35 67 36 68 44 69 37 70 39 71 45 72 38 73 40 74 41 75
REMARK SMILES IDX 42 76 43 77 67 78 68 79 76 80 69 81 71 82 77 83 70 84 72 85
REMARK SMILES IDX 73 86 74 87 75 88 52 89 53 90 61 91 54 92 56 93 62 94 55 95
REMARK SMILES IDX 57 96 58 97 59 98 60 99
REMARK H PARENT 11 14 82 52 50 63
REMARK Flexibility Score: inf
ROOT
ATOM      1  C   UNL     1       7.819   1.919  -1.541  1.00  0.00     0.202 C 
ENDROOT
BRANCH   1   2
ATOM      2  C   UNL     1       6.314   2.243  -1.336  1.00  0.00     0.261 C 
BRANCH   2   3
ATOM      3  O   UNL     1       6.019   3.217  -0.356  1.00  0.00    -0.460 OA
BRANCH   3   4
ATOM      4  C   UNL     1       5.805   2.629   0.821  1.00  0.00     0.338 C 
ATOM      5  O   UNL     1       5.708   1.443   1.084  1.00  0.00    -0.246 OA
BRANCH   4   6
ATOM      6  C   UNL     1       6.011   3.619   1.862  1.00  0.00     0.062 A 
ATOM      7  C   UNL     1       5.100   5.243   3.321  1.00  0.00     0.085 A 
ATOM      8  C   UNL     1       5.160   4.723   2.033  1.00  0.00     0.045 A 
ATOM      9  C   UNL     1       6.079   4.870   4.276  1.00  0.00     0.147 A 
ATOM     10  C   UNL     1       6.970   3.829   4.051  1.00  0.00     0.042 A 
ATOM     11  F   UNL     1       6.008   5.378   5.517  1.00  0.00    -0.205 F 
ATOM     12  C   UNL     1       6.902   3.168   2.846  1.00  0.00     0.019 A 
BRANCH   7  13
ATOM     13  N   UNL     1       3.976   5.943   3.850  1.00  0.00    -0.277 N 
ATOM     14  H   UNL     1       4.173   6.589   4.567  1.00  0.00     0.180 HD
BRANCH  13  15
ATOM     15  S   UNL     1       2.369   5.811   3.412  1.00  0.00     0.262 S 
ATOM     16  O   UNL     1       2.270   6.099   1.996  1.00  0.00    -0.201 OA
ATOM     17  O   UNL     1       1.696   6.663   4.376  1.00  0.00    -0.201 OA
BRANCH  15  18
ATOM     18  C   UNL     1       1.642   4.188   3.654  1.00  0.00     0.094 A 
ATOM     19  C   UNL     1       0.377   1.762   3.244  1.00  0.00     0.161 A 
ATOM     20  C   UNL     1       1.554   1.804   3.965  1.00  0.00     0.055 A 
ATOM     21  C   UNL     1      -0.375   2.917   3.111  1.00  0.00     0.162 A 
ATOM     22  C   UNL     1       2.277   2.990   3.999  1.00  0.00    -0.027 A 
ATOM     23  C   UNL     1       0.258   4.137   3.358  1.00  0.00     0.073 A 
ATOM     24  C   UNL     1       3.727   2.724   4.113  1.00  0.00     0.046 C 
BRANCH  19  25
ATOM     25  O   UNL     1       0.177   0.655   2.462  1.00  0.00    -0.493 OA
ATOM     26  C   UNL     1       1.446   0.225   1.896  1.00  0.00     0.278 C 
ENDBRANCH  19  25
BRANCH  21  27
ATOM     27  O   UNL     1      -1.734   2.929   2.974  1.00  0.00    -0.493 OA
ATOM     28  C   UNL     1      -2.203   2.600   1.675  1.00  0.00     0.278 C 
ENDBRANCH  21  27
ENDBRANCH  15  18
ENDBRANCH  13  15
ENDBRANCH   7  13
ENDBRANCH   4   6
ENDBRANCH   3   4
ENDBRANCH   2   3
ENDBRANCH   1   2
BRANCH   1  29
ATOM     29  O   UNL     1       8.744   2.529  -0.683  1.00  0.00    -0.374 OA
BRANCH  29  30
ATOM     30  C   UNL     1       8.605   3.928  -0.696  1.00  0.00     0.202 C 
BRANCH  30  31
ATOM     31  C   UNL     1       8.001   4.702  -1.923  1.00  0.00     0.261 C 
BRANCH  31  32
ATOM     32  O   UNL     1       7.487   4.154  -3.288  1.00  0.00    -0.460 OA
BRANCH  32  33
ATOM     33  C   UNL     1       7.032   3.612  -4.449  1.00  0.00     0.338 C 
ATOM     34  O   UNL     1       7.005   4.348  -5.429  1.00  0.00    -0.246 OA
BRANCH  33  35
ATOM     35  C   UNL     1       6.399   2.221  -4.634  1.00  0.00     0.060 A 
ATOM     36  C   UNL     1       5.196   2.090  -5.319  1.00  0.00     0.016 A 
ATOM     37  C   UNL     1       6.804   1.041  -4.055  1.00  0.00     0.016 A 
ATOM     38  C   UNL     1       4.191   1.250  -4.808  1.00  0.00     0.010 A 
ATOM     39  C   UNL     1       5.813   0.259  -3.459  1.00  0.00     0.010 A 
ATOM     40  C   UNL     1       4.464   0.577  -3.651  1.00  0.00    -0.014 A 
BRANCH  40  41
ATOM     41  C   UNL     1       3.530   0.311  -2.528  1.00  0.00     0.031 A 
ATOM     42  C   UNL     1       3.578  -1.070  -1.966  1.00  0.00     0.074 A 
ATOM     43  C   UNL     1       3.020   1.362  -1.840  1.00  0.00     0.049 A 
ATOM     44  N   UNL     1       3.347  -1.504  -0.772  1.00  0.00    -0.248 NA
ATOM     45  C   UNL     1       3.962  -2.131  -2.905  1.00  0.00     0.031 C 
ATOM     46  C   UNL     1       2.940   1.512  -0.397  1.00  0.00     0.029 A 
ATOM     47  N   UNL     1       2.426   2.527  -2.285  1.00  0.00    -0.354 N 
ATOM     48  C   UNL     1       3.618  -2.875  -0.791  1.00  0.00     0.074 A 
ATOM     49  C   UNL     1       4.106  -3.184  -2.108  1.00  0.00     0.031 C 
ATOM     50  C   UNL     1       2.153   2.552  -0.077  1.00  0.00     0.029 A 
ATOM     51  C   UNL     1       1.611   3.088  -1.292  1.00  0.00     0.049 A 
ATOM     52  H   UNL     1       2.558   2.912  -3.182  1.00  0.00     0.167 HD
ATOM     53  C   UNL     1       3.175  -3.737   0.164  1.00  0.00     0.034 A 
ATOM     54  C   UNL     1       0.259   3.196  -1.438  1.00  0.00     0.034 A 
ATOM     55  C   UNL     1       1.971  -3.196   0.805  1.00  0.00     0.049 A 
ATOM     56  C   UNL     1      -0.520   1.854  -1.281  1.00  0.00     0.074 A 
ATOM     57  C   UNL     1       1.488  -3.021   2.085  1.00  0.00     0.029 A 
ATOM     58  N   UNL     1       0.979  -2.687  -0.040  1.00  0.00    -0.354 N 
ATOM     59  N   UNL     1      -0.143   0.770  -0.621  1.00  0.00    -0.248 NA
ATOM     60  C   UNL     1      -1.859   1.681  -1.849  1.00  0.00     0.031 C 
ATOM     61  C   UNL     1       0.213  -2.370   1.987  1.00  0.00     0.029 A 
ATOM     62  C   UNL     1      -0.023  -2.038   0.654  1.00  0.00     0.049 A 
ATOM     63  H   UNL     1       0.993  -2.780  -1.019  1.00  0.00     0.167 HD
ATOM     64  C   UNL     1      -1.133  -0.221  -0.681  1.00  0.00     0.074 A 
ATOM     65  C   UNL     1      -2.163   0.420  -1.500  1.00  0.00     0.031 C 
ATOM     66  C   UNL     1      -1.153  -1.483  -0.093  1.00  0.00     0.034 A 
BRANCH  53  67
ATOM     67  C   UNL     1       3.782  -5.118   0.487  1.00  0.00     0.023 A 
ATOM     68  C   UNL     1       3.251  -5.801   1.608  1.00  0.00     0.012 A 
ATOM     69  C   UNL     1       4.913  -5.745  -0.115  1.00  0.00     0.148 A 
ATOM     70  C   UNL     1       3.813  -6.971   2.138  1.00  0.00     0.002 A 
ATOM     71  C   UNL     1       5.436  -6.957   0.377  1.00  0.00     0.091 A 
ATOM     72  F   UNL     1       5.546  -5.154  -1.133  1.00  0.00    -0.205 F 
ATOM     73  C   UNL     1       4.904  -7.554   1.521  1.00  0.00     0.022 A 
BRANCH  71  74
ATOM     74  S   UNL     1       6.818  -7.839  -0.386  1.00  0.00     0.127 S 
ATOM     75  O   UNL     1       7.854  -7.737   0.643  1.00  0.00    -0.237 OA
ATOM     76  O   UNL     1       6.274  -9.187  -0.561  1.00  0.00    -0.237 OA
ATOM     77  O   UNL     1       7.113  -7.141  -1.631  1.00  0.00    -0.744 OA
ENDBRANCH  71  74
ENDBRANCH  53  67
BRANCH  54  78
ATOM     78  C   UNL     1       0.044   4.389  -2.356  1.00  0.00     0.023 A 
ATOM     79  C   UNL     1       0.623   5.606  -1.858  1.00  0.00     0.012 A 
ATOM     80  C   UNL     1       0.125   4.138  -3.726  1.00  0.00     0.148 A 
ATOM     81  C   UNL     1       1.561   6.317  -2.617  1.00  0.00     0.002 A 
ATOM     82  C   UNL     1       1.112   4.801  -4.448  1.00  0.00     0.091 A 
ATOM     83  F   UNL     1      -0.561   3.106  -4.231  1.00  0.00    -0.205 F 
ATOM     84  C   UNL     1       1.850   5.870  -3.893  1.00  0.00     0.022 A 
BRANCH  82  85
ATOM     85  S   UNL     1       1.986   3.900  -5.726  1.00  0.00     0.127 S 
ATOM     86  O   UNL     1       1.800   4.712  -6.919  1.00  0.00    -0.237 OA
ATOM     87  O   UNL     1       3.316   3.965  -5.129  1.00  0.00    -0.237 OA
ATOM     88  O   UNL     1       1.389   2.574  -5.760  1.00  0.00    -0.744 OA
ENDBRANCH  82  85
ENDBRANCH  54  78
BRANCH  66  89
ATOM     89  C   UNL     1      -2.339  -2.449  -0.174  1.00  0.00     0.023 A 
ATOM     90  C   UNL     1      -3.666  -1.994  -0.152  1.00  0.00     0.012 A 
ATOM     91  C   UNL     1      -2.147  -3.864  -0.151  1.00  0.00     0.148 A 
ATOM     92  C   UNL     1      -4.741  -2.880  -0.290  1.00  0.00     0.002 A 
ATOM     93  C   UNL     1      -3.220  -4.743  -0.190  1.00  0.00     0.091 A 
ATOM     94  F   UNL     1      -0.912  -4.376  -0.102  1.00  0.00    -0.205 F 
ATOM     95  C   UNL     1      -4.518  -4.252  -0.321  1.00  0.00     0.022 A 
BRANCH  93  96
ATOM     96  S   UNL     1      -3.022  -6.525  -0.018  1.00  0.00     0.127 S 
ATOM     97  O   UNL     1      -3.933  -6.819   1.090  1.00  0.00    -0.237 OA
ATOM     98  O   UNL     1      -3.476  -7.000  -1.323  1.00  0.00    -0.237 OA
ATOM     99  O   UNL     1      -1.617  -6.761   0.280  1.00  0.00    -0.744 OA
ENDBRANCH  93  96
ENDBRANCH  66  89
ENDBRANCH  40  41
ENDBRANCH  33  35
ENDBRANCH  32  33
ENDBRANCH  31  32
ENDBRANCH  30  31
ENDBRANCH  29  30
ENDBRANCH   1  29
TORSDOF 22
