REMARK SMILES COC(=O)c1ccc([C@H]2CC(=O)Nc3c(C(=O)OCCOCCOC(=O)c4ccc(-c5c6nc(c(-c7cccc(S(=O)(=O)[O-])c7F)c7ccc([nH]7)c(-c7cccc(S(=O)(=O)[O-])c7F)c7nc(c(-c8cccc(S(=O)(=O)[O-])c8F)c8ccc5[nH]8)C=C7)C=C6)cc4)cn(-c4ccccc4)c32)cc1
REMARK SMILES IDX 21 1 20 2 19 3 18 4 16 5 17 6 15 7 9 8 10 9 98 10 11 11
REMARK SMILES IDX 14 12 91 13 12 14 13 15 90 16 8 18 5 19 6 20 100 21 7 22
REMARK SMILES IDX 99 23 3 24 4 25 2 26 1 27 92 28 93 29 97 30 94 31 96 32
REMARK SMILES IDX 95 33 22 34 23 35 24 36 25 37 26 38 27 39 28 40 89 41 29 42
REMARK SMILES IDX 88 43 30 44 31 45 32 46 82 47 33 48 87 49 81 50 83 51 34 52
REMARK SMILES IDX 86 53 80 54 79 55 35 57 67 58 47 59 66 60 48 61 51 62 65 63
REMARK SMILES IDX 84 64 49 65 50 66 64 68 85 69 52 70 36 71 37 72 45 73 38 74
REMARK SMILES IDX 40 75 46 76 39 77 41 78 42 79 43 80 44 81 68 82 69 83 77 84
REMARK SMILES IDX 70 85 72 86 78 87 71 88 73 89 74 90 75 91 76 92 53 93 54 94
REMARK SMILES IDX 62 95 55 96 57 97 63 98 56 99 58 100 59 101 60 102 61 103
REMARK H PARENT 13 17 83 56 51 67
REMARK Flexibility Score: inf
ROOT
ATOM      1  O   UNL     1      -5.421  -1.479 -10.850  1.00  0.00    -0.374 OA
ENDROOT
BRANCH   1   2
ATOM      2  C   UNL     1      -6.444  -0.932 -10.019  1.00  0.00     0.202 C 
BRANCH   2   3
ATOM      3  C   UNL     1      -6.198  -0.811  -8.512  1.00  0.00     0.261 C 
BRANCH   3   4
ATOM      4  O   UNL     1      -5.120   0.076  -8.183  1.00  0.00    -0.460 OA
BRANCH   4   5
ATOM      5  C   UNL     1      -3.942  -0.543  -7.900  1.00  0.00     0.341 C 
ATOM      6  O   UNL     1      -3.796  -1.766  -7.818  1.00  0.00    -0.246 OA
BRANCH   5   7
ATOM      7  C   UNL     1      -2.820   0.374  -7.836  1.00  0.00     0.102 A 
ATOM      8  C   UNL     1      -0.961   3.494  -7.000  1.00  0.00     0.078 C 
ATOM      9  C   UNL     1      -2.165   4.446  -6.885  1.00  0.00     0.115 C 
ATOM     10  C   UNL     1      -1.429   2.128  -7.448  1.00  0.00     0.055 A 
ATOM     11  C   UNL     1      -3.453   3.791  -6.415  1.00  0.00     0.225 C 
ATOM     12  C   UNL     1      -2.742   1.710  -7.386  1.00  0.00     0.078 A 
ATOM     13  N   UNL     1      -0.674   1.058  -7.899  1.00  0.00    -0.317 N 
ATOM     14  O   UNL     1      -4.284   4.392  -5.736  1.00  0.00    -0.275 OA
ATOM     15  N   UNL     1      -3.713   2.518  -6.852  1.00  0.00    -0.324 N 
ATOM     16  C   UNL     1      -1.538   0.046  -8.251  1.00  0.00     0.109 A 
ATOM     17  H   UNL     1      -4.632   2.171  -6.780  1.00  0.00     0.170 HD
BRANCH   8  18
ATOM     18  C   UNL     1       0.137   4.175  -7.817  1.00  0.00    -0.038 A 
ATOM     19  C   UNL     1       2.330   5.342  -9.170  1.00  0.00     0.060 A 
ATOM     20  C   UNL     1       2.006   5.748  -7.873  1.00  0.00     0.016 A 
ATOM     21  C   UNL     1       1.512   4.412  -9.817  1.00  0.00     0.016 A 
ATOM     22  C   UNL     1       0.925   5.166  -7.203  1.00  0.00     0.005 A 
ATOM     23  C   UNL     1       0.402   3.870  -9.160  1.00  0.00     0.005 A 
BRANCH  19  24
ATOM     24  C   UNL     1       3.557   5.890  -9.806  1.00  0.00     0.337 C 
ATOM     25  O   UNL     1       4.457   6.436  -9.185  1.00  0.00    -0.246 OA
BRANCH  24  26
ATOM     26  O   UNL     1       3.532   5.666 -11.143  1.00  0.00    -0.465 OA
ATOM     27  C   UNL     1       4.625   6.237 -11.859  1.00  0.00     0.282 C 
ENDBRANCH  24  26
ENDBRANCH  19  24
ENDBRANCH   8  18
BRANCH  13  28
ATOM     28  C   UNL     1       0.730   0.951  -7.974  1.00  0.00     0.045 A 
ATOM     29  C   UNL     1       1.503   1.260  -6.853  1.00  0.00     0.026 A 
ATOM     30  C   UNL     1       1.331   0.619  -9.195  1.00  0.00     0.026 A 
ATOM     31  C   UNL     1       2.890   1.286  -6.965  1.00  0.00     0.002 A 
ATOM     32  C   UNL     1       2.719   0.694  -9.308  1.00  0.00     0.002 A 
ATOM     33  C   UNL     1       3.495   1.030  -8.197  1.00  0.00     0.000 A 
ENDBRANCH  13  28
ENDBRANCH   5   7
ENDBRANCH   4   5
ENDBRANCH   3   4
ENDBRANCH   2   3
ENDBRANCH   1   2
BRANCH   1  34
ATOM     34  C   UNL     1      -4.231  -0.746 -11.126  1.00  0.00     0.202 C 
BRANCH  34  35
ATOM     35  C   UNL     1      -4.301   0.504 -11.989  1.00  0.00     0.261 C 
BRANCH  35  36
ATOM     36  O   UNL     1      -5.204   1.449 -11.451  1.00  0.00    -0.460 OA
BRANCH  36  37
ATOM     37  C   UNL     1      -6.415   1.444 -12.045  1.00  0.00     0.338 C 
ATOM     38  O   UNL     1      -6.856   0.607 -12.825  1.00  0.00    -0.246 OA
BRANCH  37  39
ATOM     39  C   UNL     1      -7.100   2.688 -11.700  1.00  0.00     0.060 A 
ATOM     40  C   UNL     1      -8.296   2.913 -12.380  1.00  0.00     0.016 A 
ATOM     41  C   UNL     1      -6.350   3.720 -11.117  1.00  0.00     0.016 A 
ATOM     42  C   UNL     1      -8.549   4.196 -12.790  1.00  0.00     0.010 A 
ATOM     43  C   UNL     1      -6.596   4.995 -11.539  1.00  0.00     0.010 A 
ATOM     44  C   UNL     1      -7.613   5.184 -12.469  1.00  0.00    -0.014 A 
BRANCH  44  45
ATOM     45  C   UNL     1      -7.780   6.493 -13.044  1.00  0.00     0.031 A 
ATOM     46  C   UNL     1      -8.852   7.221 -12.333  1.00  0.00     0.074 A 
ATOM     47  C   UNL     1      -6.966   6.946 -14.017  1.00  0.00     0.049 A 
ATOM     48  N   UNL     1     -10.059   7.424 -12.745  1.00  0.00    -0.248 NA
ATOM     49  C   UNL     1      -8.661   7.475 -10.893  1.00  0.00     0.031 C 
ATOM     50  C   UNL     1      -5.733   6.344 -14.538  1.00  0.00     0.029 A 
ATOM     51  N   UNL     1      -7.006   8.132 -14.670  1.00  0.00    -0.354 N 
ATOM     52  C   UNL     1     -10.668   8.106 -11.698  1.00  0.00     0.074 A 
ATOM     53  C   UNL     1      -9.896   7.813 -10.525  1.00  0.00     0.031 C 
ATOM     54  C   UNL     1      -5.020   7.292 -15.194  1.00  0.00     0.029 A 
ATOM     55  C   UNL     1      -5.797   8.518 -15.239  1.00  0.00     0.049 A 
ATOM     56  H   UNL     1      -7.824   8.677 -14.736  1.00  0.00     0.167 HD
ATOM     57  C   UNL     1     -11.502   9.150 -11.951  1.00  0.00     0.034 A 
ATOM     58  C   UNL     1      -5.452   9.782 -15.608  1.00  0.00     0.034 A 
ATOM     59  C   UNL     1     -11.945   9.127 -13.324  1.00  0.00     0.049 A 
ATOM     60  C   UNL     1      -6.712  10.563 -15.706  1.00  0.00     0.074 A 
ATOM     61  C   UNL     1     -12.625   8.219 -14.111  1.00  0.00     0.029 A 
ATOM     62  N   UNL     1     -11.295   9.977 -14.188  1.00  0.00    -0.354 N 
ATOM     63  N   UNL     1      -7.638  10.307 -16.588  1.00  0.00    -0.248 NA
ATOM     64  C   UNL     1      -7.159  11.264 -14.510  1.00  0.00     0.031 C 
ATOM     65  C   UNL     1     -11.981   8.283 -15.382  1.00  0.00     0.029 A 
ATOM     66  C   UNL     1     -11.011   9.287 -15.335  1.00  0.00     0.049 A 
ATOM     67  H   UNL     1     -11.072  10.919 -14.011  1.00  0.00     0.167 HD
ATOM     68  C   UNL     1      -8.825  10.376 -15.868  1.00  0.00     0.074 A 
ATOM     69  C   UNL     1      -8.475  11.050 -14.616  1.00  0.00     0.031 C 
ATOM     70  C   UNL     1      -9.895   9.598 -16.201  1.00  0.00     0.034 A 
BRANCH  57  71
ATOM     71  C   UNL     1     -11.550  10.419 -11.126  1.00  0.00     0.023 A 
ATOM     72  C   UNL     1     -12.539  11.362 -11.481  1.00  0.00     0.012 A 
ATOM     73  C   UNL     1     -10.539  10.863 -10.239  1.00  0.00     0.148 A 
ATOM     74  C   UNL     1     -12.482  12.687 -11.038  1.00  0.00     0.002 A 
ATOM     75  C   UNL     1     -10.526  12.159  -9.743  1.00  0.00     0.091 A 
ATOM     76  F   UNL     1      -9.494  10.088  -9.953  1.00  0.00    -0.205 F 
ATOM     77  C   UNL     1     -11.476  13.086 -10.166  1.00  0.00     0.022 A 
BRANCH  75  78
ATOM     78  S   UNL     1      -9.260  12.717  -8.591  1.00  0.00     0.127 S 
ATOM     79  O   UNL     1      -8.490  13.632  -9.428  1.00  0.00    -0.237 OA
ATOM     80  O   UNL     1     -10.069  13.354  -7.552  1.00  0.00    -0.237 OA
ATOM     81  O   UNL     1      -8.563  11.515  -8.152  1.00  0.00    -0.744 OA
ENDBRANCH  75  78
ENDBRANCH  57  71
BRANCH  58  82
ATOM     82  C   UNL     1      -4.128  10.453 -15.503  1.00  0.00     0.023 A 
ATOM     83  C   UNL     1      -3.856  11.623 -16.243  1.00  0.00     0.012 A 
ATOM     84  C   UNL     1      -3.229  10.106 -14.469  1.00  0.00     0.148 A 
ATOM     85  C   UNL     1      -2.738  12.422 -15.954  1.00  0.00     0.002 A 
ATOM     86  C   UNL     1      -2.115  10.895 -14.192  1.00  0.00     0.091 A 
ATOM     87  F   UNL     1      -3.517   9.053 -13.695  1.00  0.00    -0.205 F 
ATOM     88  C   UNL     1      -1.871  12.061 -14.926  1.00  0.00     0.022 A 
BRANCH  86  89
ATOM     89  S   UNL     1      -0.969  10.497 -12.863  1.00  0.00     0.127 S 
ATOM     90  O   UNL     1       0.316  10.514 -13.562  1.00  0.00    -0.237 OA
ATOM     91  O   UNL     1      -1.179  11.608 -11.939  1.00  0.00    -0.237 OA
ATOM     92  O   UNL     1      -1.367   9.184 -12.371  1.00  0.00    -0.744 OA
ENDBRANCH  86  89
ENDBRANCH  58  82
BRANCH  70  93
ATOM     93  C   UNL     1      -9.840   8.828 -17.497  1.00  0.00     0.023 A 
ATOM     94  C   UNL     1      -8.976   7.732 -17.709  1.00  0.00     0.012 A 
ATOM     95  C   UNL     1     -10.845   9.094 -18.438  1.00  0.00     0.148 A 
ATOM     96  C   UNL     1      -9.114   6.923 -18.843  1.00  0.00     0.002 A 
ATOM     97  C   UNL     1     -11.013   8.259 -19.533  1.00  0.00     0.091 A 
ATOM     98  F   UNL     1     -11.658  10.137 -18.211  1.00  0.00    -0.205 F 
ATOM     99  C   UNL     1     -10.145   7.177 -19.746  1.00  0.00     0.022 A 
BRANCH  97 100
ATOM    100  S   UNL     1     -12.406   8.453 -20.644  1.00  0.00     0.127 S 
ATOM    101  O   UNL     1     -11.758   8.939 -21.860  1.00  0.00    -0.237 OA
ATOM    102  O   UNL     1     -12.928   7.088 -20.729  1.00  0.00    -0.237 OA
ATOM    103  O   UNL     1     -13.310   9.397 -19.999  1.00  0.00    -0.744 OA
ENDBRANCH  97 100
ENDBRANCH  70  93
ENDBRANCH  44  45
ENDBRANCH  37  39
ENDBRANCH  36  37
ENDBRANCH  35  36
ENDBRANCH  34  35
ENDBRANCH   1  34
TORSDOF 21
