REMARK SMILES O=C(CC1C[NH+]([C@@H]2CCO[C@]3(CCOC3)C2)C1)OCCOCCOC(=O)c1ccc(-c2c3nc(c(-c4cccc(S(=O)(=O)[O-])c4F)c4ccc([nH]4)c(-c4cccc(S(=O)(=O)[O-])c4F)c4nc(c(-c5cccc(S(=O)(=O)[O-])c5F)c5ccc2[nH]5)C=C4)C=C3)cc1
REMARK SMILES IDX 22 1 21 2 20 3 19 4 18 5 2 6 1 7 3 8 4 9 5 10 17 11 6 12
REMARK SMILES IDX 7 14 8 15 16 16 9 17 11 18 10 19 12 20 15 21 13 22 14 23
REMARK SMILES IDX 23 24 24 25 25 26 26 27 27 28 28 29 89 30 29 31 88 32 30 33
REMARK SMILES IDX 31 34 32 35 82 36 33 37 87 38 81 39 83 40 34 41 86 42 80 43
REMARK SMILES IDX 79 44 35 46 67 47 47 48 66 49 48 50 51 51 65 52 84 53 49 54
REMARK SMILES IDX 50 55 64 57 85 58 52 59 36 60 37 61 45 62 38 63 40 64 46 65
REMARK SMILES IDX 39 66 41 67 42 68 43 69 44 70 68 71 69 72 77 73 70 74 72 75
REMARK SMILES IDX 78 76 71 77 73 78 74 79 75 80 76 81 53 82 54 83 62 84 55 85
REMARK SMILES IDX 57 86 63 87 56 88 58 89 59 90 60 91 61 92
REMARK H PARENT 6 13 83 45 51 56
REMARK Flexibility Score: inf
ROOT
ATOM      1  C   UNL     1       2.572  -1.598  -2.430  1.00  0.00     0.202 C 
ENDROOT
BRANCH   1   2
ATOM      2  O   UNL     1       3.710  -0.778  -2.182  1.00  0.00    -0.374 OA
BRANCH   2   3
ATOM      3  C   UNL     1       4.368  -0.911  -0.935  1.00  0.00     0.202 C 
BRANCH   3   4
ATOM      4  C   UNL     1       3.558  -0.704   0.345  1.00  0.00     0.261 C 
BRANCH   4   5
ATOM      5  O   UNL     1       2.185  -0.265   0.269  1.00  0.00    -0.463 OA
BRANCH   5   6
ATOM      6  C   UNL     1       1.554   0.766  -0.312  1.00  0.00     0.306 C 
ATOM      7  O   UNL     1       0.329   0.842  -0.195  1.00  0.00    -0.252 OA
BRANCH   6   8
ATOM      8  C   UNL     1       2.275   1.810  -1.131  1.00  0.00     0.138 C 
BRANCH   8   9
ATOM      9  C   UNL     1       3.466   2.491  -0.494  1.00  0.00     0.110 C 
ATOM     10  C   UNL     1       3.715   4.027  -0.498  1.00  0.00     0.272 C 
ATOM     11  C   UNL     1       3.293   2.675   1.012  1.00  0.00     0.272 C 
ATOM     12  N   UNL     1       3.959   3.967   0.966  1.00  0.00    -0.331 N 
ATOM     13  H   UNL     1       3.652   4.728   1.571  1.00  0.00     0.348 HD
BRANCH  12  14
ATOM     14  C   UNL     1       5.372   3.997   1.402  1.00  0.00     0.189 C 
ATOM     15  C   UNL     1       6.450   3.188   0.678  1.00  0.00     0.093 C 
ATOM     16  C   UNL     1       5.569   3.759   2.925  1.00  0.00     0.103 C 
ATOM     17  C   UNL     1       6.477   1.734   1.092  1.00  0.00     0.167 C 
ATOM     18  C   UNL     1       5.700   2.281   3.371  1.00  0.00     0.099 C 
ATOM     19  O   UNL     1       6.493   1.490   2.483  1.00  0.00    -0.372 OA
ATOM     20  C   UNL     1       4.348   1.664   3.781  1.00  0.00     0.066 C 
ATOM     21  C   UNL     1       6.431   2.164   4.720  1.00  0.00     0.195 C 
ATOM     22  C   UNL     1       4.302   1.676   5.301  1.00  0.00     0.163 C 
ATOM     23  O   UNL     1       5.453   2.401   5.728  1.00  0.00    -0.378 OA
ENDBRANCH  12  14
ENDBRANCH   8   9
ENDBRANCH   6   8
ENDBRANCH   5   6
ENDBRANCH   4   5
ENDBRANCH   3   4
ENDBRANCH   2   3
ENDBRANCH   1   2
BRANCH   1  24
ATOM     24  C   UNL     1       2.825  -3.081  -2.678  1.00  0.00     0.261 C 
BRANCH  24  25
ATOM     25  O   UNL     1       3.298  -3.749  -1.498  1.00  0.00    -0.460 OA
BRANCH  25  26
ATOM     26  C   UNL     1       4.570  -4.196  -1.574  1.00  0.00     0.338 C 
ATOM     27  O   UNL     1       5.337  -4.070  -2.528  1.00  0.00    -0.246 OA
BRANCH  26  28
ATOM     28  C   UNL     1       5.010  -4.732  -0.278  1.00  0.00     0.060 A 
ATOM     29  C   UNL     1       6.284  -4.365   0.170  1.00  0.00     0.016 A 
ATOM     30  C   UNL     1       4.239  -5.652   0.439  1.00  0.00     0.016 A 
ATOM     31  C   UNL     1       6.828  -4.981   1.290  1.00  0.00     0.010 A 
ATOM     32  C   UNL     1       4.787  -6.269   1.567  1.00  0.00     0.010 A 
ATOM     33  C   UNL     1       6.104  -5.975   1.962  1.00  0.00    -0.014 A 
BRANCH  33  34
ATOM     34  C   UNL     1       6.803  -6.806   2.968  1.00  0.00     0.031 A 
ATOM     35  C   UNL     1       7.280  -8.180   2.579  1.00  0.00     0.074 A 
ATOM     36  C   UNL     1       7.061  -6.313   4.192  1.00  0.00     0.049 A 
ATOM     37  N   UNL     1       7.964  -9.047   3.278  1.00  0.00    -0.248 NA
ATOM     38  C   UNL     1       6.941  -8.638   1.220  1.00  0.00     0.031 C 
ATOM     39  C   UNL     1       6.638  -5.001   4.679  1.00  0.00     0.029 A 
ATOM     40  N   UNL     1       7.732  -6.867   5.251  1.00  0.00    -0.354 N 
ATOM     41  C   UNL     1       8.128 -10.154   2.453  1.00  0.00     0.074 A 
ATOM     42  C   UNL     1       7.447  -9.863   1.211  1.00  0.00     0.031 C 
ATOM     43  C   UNL     1       7.039  -4.860   5.954  1.00  0.00     0.029 A 
ATOM     44  C   UNL     1       7.735  -6.074   6.373  1.00  0.00     0.049 A 
ATOM     45  H   UNL     1       8.170  -7.748   5.212  1.00  0.00     0.167 HD
ATOM     46  C   UNL     1       8.807 -11.300   2.698  1.00  0.00     0.034 A 
ATOM     47  C   UNL     1       8.232  -6.311   7.602  1.00  0.00     0.034 A 
ATOM     48  C   UNL     1       9.490 -11.579   3.933  1.00  0.00     0.049 A 
ATOM     49  C   UNL     1       8.979  -7.594   7.851  1.00  0.00     0.074 A 
ATOM     50  C   UNL     1      10.228 -12.698   4.276  1.00  0.00     0.029 A 
ATOM     51  N   UNL     1       9.511 -10.734   5.032  1.00  0.00    -0.354 N 
ATOM     52  N   UNL     1       9.222  -8.583   7.023  1.00  0.00    -0.248 NA
ATOM     53  C   UNL     1       9.558  -7.776   9.189  1.00  0.00     0.031 C 
ATOM     54  C   UNL     1      10.677 -12.538   5.592  1.00  0.00     0.029 A 
ATOM     55  C   UNL     1      10.246 -11.305   6.056  1.00  0.00     0.049 A 
ATOM     56  H   UNL     1       9.069  -9.855   5.077  1.00  0.00     0.167 HD
ATOM     57  C   UNL     1      10.003  -9.490   7.730  1.00  0.00     0.074 A 
ATOM     58  C   UNL     1      10.222  -8.914   9.042  1.00  0.00     0.031 C 
ATOM     59  C   UNL     1      10.482 -10.699   7.342  1.00  0.00     0.034 A 
BRANCH  46  60
ATOM     60  C   UNL     1       8.875 -12.322   1.592  1.00  0.00     0.023 A 
ATOM     61  C   UNL     1       9.673 -12.066   0.458  1.00  0.00     0.012 A 
ATOM     62  C   UNL     1       8.198 -13.553   1.695  1.00  0.00     0.148 A 
ATOM     63  C   UNL     1       9.773 -13.004  -0.570  1.00  0.00     0.002 A 
ATOM     64  C   UNL     1       8.337 -14.501   0.687  1.00  0.00     0.091 A 
ATOM     65  F   UNL     1       7.427 -13.770   2.769  1.00  0.00    -0.205 F 
ATOM     66  C   UNL     1       9.114 -14.224  -0.450  1.00  0.00     0.022 A 
BRANCH  64  67
ATOM     67  S   UNL     1       7.591 -16.133   0.777  1.00  0.00     0.127 S 
ATOM     68  O   UNL     1       6.593 -16.060  -0.290  1.00  0.00    -0.237 OA
ATOM     69  O   UNL     1       8.729 -17.006   0.489  1.00  0.00    -0.237 OA
ATOM     70  O   UNL     1       7.053 -16.256   2.124  1.00  0.00    -0.744 OA
ENDBRANCH  64  67
ENDBRANCH  46  60
BRANCH  47  71
ATOM     71  C   UNL     1       8.062  -5.297   8.681  1.00  0.00     0.023 A 
ATOM     72  C   UNL     1       9.179  -4.597   9.174  1.00  0.00     0.012 A 
ATOM     73  C   UNL     1       6.786  -5.014   9.207  1.00  0.00     0.148 A 
ATOM     74  C   UNL     1       9.033  -3.658  10.197  1.00  0.00     0.002 A 
ATOM     75  C   UNL     1       6.640  -4.036  10.182  1.00  0.00     0.091 A 
ATOM     76  F   UNL     1       5.738  -5.705   8.737  1.00  0.00    -0.205 F 
ATOM     77  C   UNL     1       7.763  -3.369  10.692  1.00  0.00     0.022 A 
BRANCH  75  78
ATOM     78  S   UNL     1       5.027  -3.513  10.775  1.00  0.00     0.127 S 
ATOM     79  O   UNL     1       4.990  -4.110  12.107  1.00  0.00    -0.237 OA
ATOM     80  O   UNL     1       5.155  -2.055  10.755  1.00  0.00    -0.237 OA
ATOM     81  O   UNL     1       4.069  -4.041   9.813  1.00  0.00    -0.744 OA
ENDBRANCH  75  78
ENDBRANCH  47  71
BRANCH  59  82
ATOM     82  C   UNL     1      11.307 -11.466   8.342  1.00  0.00     0.023 A 
ATOM     83  C   UNL     1      10.688 -12.028   9.477  1.00  0.00     0.012 A 
ATOM     84  C   UNL     1      12.687 -11.663   8.140  1.00  0.00     0.148 A 
ATOM     85  C   UNL     1      11.438 -12.728  10.421  1.00  0.00     0.002 A 
ATOM     86  C   UNL     1      13.419 -12.407   9.059  1.00  0.00     0.091 A 
ATOM     87  F   UNL     1      13.264 -11.108   7.064  1.00  0.00    -0.205 F 
ATOM     88  C   UNL     1      12.800 -12.926  10.207  1.00  0.00     0.022 A 
BRANCH  86  89
ATOM     89  S   UNL     1      15.156 -12.792   8.813  1.00  0.00     0.127 S 
ATOM     90  O   UNL     1      15.800 -11.876   9.752  1.00  0.00    -0.237 OA
ATOM     91  O   UNL     1      15.220 -14.203   9.196  1.00  0.00    -0.237 OA
ATOM     92  O   UNL     1      15.424 -12.539   7.404  1.00  0.00    -0.744 OA
ENDBRANCH  86  89
ENDBRANCH  59  82
ENDBRANCH  33  34
ENDBRANCH  26  28
ENDBRANCH  25  26
ENDBRANCH  24  25
ENDBRANCH   1  24
TORSDOF 19
