REMARK SMILES CCc1ccnc(C(=O)c2[nH]c3ccc(OC(F)(F)F)cc3c2CC(=O)OCCOCCOC(=O)c2ccc(-c3c4nc(c(-c5cccc(S(=O)(=O)[O-])c5F)c5ccc([nH]5)c(-c5cccc(S(=O)(=O)[O-])c5F)c5nc(c(-c6cccc(S(=O)(=O)[O-])c6F)c6ccc3[nH]6)C=C5)C=C4)cc2)c1
REMARK SMILES IDX 29 1 28 2 27 3 25 4 26 5 24 6 23 7 10 8 11 9 12 10 22 12
REMARK SMILES IDX 13 13 21 14 14 15 15 16 8 17 9 18 7 19 3 20 4 21 99 22 5 23
REMARK SMILES IDX 6 24 2 25 1 26 16 27 17 28 18 29 19 30 20 31 30 32 31 33
REMARK SMILES IDX 32 34 33 35 34 36 35 37 36 38 37 39 98 40 38 41 97 42 39 43
REMARK SMILES IDX 40 44 41 45 91 46 42 47 96 48 90 49 92 50 43 51 95 52 89 53
REMARK SMILES IDX 88 54 44 56 76 57 56 58 75 59 57 60 60 61 74 62 93 63 58 64
REMARK SMILES IDX 59 65 73 67 94 68 61 69 45 70 46 71 54 72 47 73 49 74 55 75
REMARK SMILES IDX 48 76 50 77 51 78 52 79 53 80 77 81 78 82 86 83 79 84 81 85
REMARK SMILES IDX 87 86 80 87 82 88 83 89 84 90 85 91 62 92 63 93 71 94 64 95
REMARK SMILES IDX 66 96 72 97 65 98 67 99 68 100 69 101 70 102
REMARK H PARENT 11 11 92 55 60 66
REMARK Flexibility Score: inf
ROOT
ATOM      1  C   UNL     1       0.785   8.987   4.299  1.00  0.00     0.202 C 
ENDROOT
BRANCH   1   2
ATOM      2  C   UNL     1       1.431   9.210   2.926  1.00  0.00     0.261 C 
BRANCH   2   3
ATOM      3  O   UNL     1       1.210   8.104   2.023  1.00  0.00    -0.463 OA
BRANCH   3   4
ATOM      4  C   UNL     1       2.319   7.625   1.399  1.00  0.00     0.310 C 
ATOM      5  O   UNL     1       3.442   8.114   1.518  1.00  0.00    -0.252 OA
BRANCH   4   6
ATOM      6  C   UNL     1       2.077   6.473   0.449  1.00  0.00     0.161 C 
BRANCH   6   7
ATOM      7  C   UNL     1       0.790   5.697   0.558  1.00  0.00     0.000 A 
ATOM      8  C   UNL     1       0.510   4.630   1.417  1.00  0.00     0.093 A 
ATOM      9  N   UNL     1      -0.803   4.272   1.179  1.00  0.00    -0.352 N 
ATOM     10  C   UNL     1      -1.244   4.825   0.001  1.00  0.00     0.046 A 
ATOM     11  H   UNL     1      -1.346   3.702   1.770  1.00  0.00     0.167 HD
ATOM     12  C   UNL     1      -0.284   5.753  -0.391  1.00  0.00     0.008 A 
ATOM     13  C   UNL     1      -2.402   4.579  -0.746  1.00  0.00     0.030 A 
ATOM     14  C   UNL     1      -0.491   6.462  -1.591  1.00  0.00     0.057 A 
ATOM     15  C   UNL     1      -2.556   5.262  -1.962  1.00  0.00     0.049 A 
ATOM     16  C   UNL     1      -1.605   6.184  -2.396  1.00  0.00     0.130 A 
BRANCH   8  17
ATOM     17  C   UNL     1       1.412   4.007   2.381  1.00  0.00     0.227 C 
ATOM     18  O   UNL     1       2.410   4.588   2.804  1.00  0.00    -0.285 OA
BRANCH  17  19
ATOM     19  C   UNL     1       1.218   2.586   2.813  1.00  0.00     0.113 A 
ATOM     20  C   UNL     1       0.874   0.268   2.273  1.00  0.00    -0.044 A 
ATOM     21  C   UNL     1       1.308  -0.043   3.565  1.00  0.00     0.024 A 
ATOM     22  C   UNL     1       0.808   1.616   1.903  1.00  0.00     0.036 A 
ATOM     23  C   UNL     1       1.668   0.989   4.418  1.00  0.00     0.112 A 
ATOM     24  N   UNL     1       1.631   2.291   4.073  1.00  0.00    -0.253 NA
BRANCH  20  25
ATOM     25  C   UNL     1       0.502  -0.833   1.310  1.00  0.00     0.032 C 
ATOM     26  C   UNL     1       1.076  -0.640  -0.089  1.00  0.00     0.009 C 
ENDBRANCH  20  25
ENDBRANCH  17  19
ENDBRANCH   8  17
BRANCH  16  27
ATOM     27  O   UNL     1      -1.623   6.878  -3.572  1.00  0.00    -0.406 OA
BRANCH  27  28
ATOM     28  C   UNL     1      -2.513   6.442  -4.584  1.00  0.00     0.573 C 
ATOM     29  F   UNL     1      -2.351   5.123  -4.841  1.00  0.00    -0.132 F 
ATOM     30  F   UNL     1      -3.796   6.674  -4.242  1.00  0.00    -0.132 F 
ATOM     31  F   UNL     1      -2.243   7.116  -5.724  1.00  0.00    -0.132 F 
ENDBRANCH  27  28
ENDBRANCH  16  27
ENDBRANCH   6   7
ENDBRANCH   4   6
ENDBRANCH   3   4
ENDBRANCH   2   3
ENDBRANCH   1   2
BRANCH   1  32
ATOM     32  O   UNL     1       1.381   7.995   5.141  1.00  0.00    -0.374 OA
BRANCH  32  33
ATOM     33  C   UNL     1       1.244   6.641   4.713  1.00  0.00     0.202 C 
BRANCH  33  34
ATOM     34  C   UNL     1      -0.081   5.951   5.062  1.00  0.00     0.261 C 
BRANCH  34  35
ATOM     35  O   UNL     1      -1.222   6.678   4.583  1.00  0.00    -0.460 OA
BRANCH  35  36
ATOM     36  C   UNL     1      -1.948   7.272   5.557  1.00  0.00     0.338 C 
ATOM     37  O   UNL     1      -1.835   7.112   6.769  1.00  0.00    -0.246 OA
BRANCH  36  38
ATOM     38  C   UNL     1      -2.827   8.303   4.986  1.00  0.00     0.060 A 
ATOM     39  C   UNL     1      -2.738   9.589   5.533  1.00  0.00     0.016 A 
ATOM     40  C   UNL     1      -3.763   8.014   3.990  1.00  0.00     0.016 A 
ATOM     41  C   UNL     1      -3.630  10.577   5.134  1.00  0.00     0.010 A 
ATOM     42  C   UNL     1      -4.663   9.008   3.594  1.00  0.00     0.010 A 
ATOM     43  C   UNL     1      -4.628  10.277   4.197  1.00  0.00    -0.014 A 
BRANCH  43  44
ATOM     44  C   UNL     1      -5.712  11.259   3.969  1.00  0.00     0.031 A 
ATOM     45  C   UNL     1      -7.031  11.062   4.663  1.00  0.00     0.074 A 
ATOM     46  C   UNL     1      -5.511  12.322   3.172  1.00  0.00     0.049 A 
ATOM     47  N   UNL     1      -8.097  11.817   4.643  1.00  0.00    -0.248 NA
ATOM     48  C   UNL     1      -7.168   9.850   5.488  1.00  0.00     0.031 C 
ATOM     49  C   UNL     1      -4.279  12.600   2.438  1.00  0.00     0.029 A 
ATOM     50  N   UNL     1      -6.349  13.353   2.834  1.00  0.00    -0.354 N 
ATOM     51  C   UNL     1      -9.040  11.160   5.424  1.00  0.00     0.074 A 
ATOM     52  C   UNL     1      -8.425   9.938   5.893  1.00  0.00     0.031 C 
ATOM     53  C   UNL     1      -4.450  13.716   1.709  1.00  0.00     0.029 A 
ATOM     54  C   UNL     1      -5.806  14.220   1.917  1.00  0.00     0.049 A 
ATOM     55  H   UNL     1      -7.252  13.462   3.211  1.00  0.00     0.167 HD
ATOM     56  C   UNL     1     -10.300  11.548   5.734  1.00  0.00     0.034 A 
ATOM     57  C   UNL     1      -6.349  15.291   1.304  1.00  0.00     0.034 A 
ATOM     58  C   UNL     1     -10.894  12.776   5.278  1.00  0.00     0.049 A 
ATOM     59  C   UNL     1      -7.746  15.712   1.673  1.00  0.00     0.074 A 
ATOM     60  C   UNL     1     -12.134  13.302   5.593  1.00  0.00     0.029 A 
ATOM     61  N   UNL     1     -10.296  13.661   4.394  1.00  0.00    -0.354 N 
ATOM     62  N   UNL     1      -8.574  15.161   2.530  1.00  0.00    -0.248 NA
ATOM     63  C   UNL     1      -8.271  16.922   1.025  1.00  0.00     0.031 C 
ATOM     64  C   UNL     1     -12.299  14.489   4.870  1.00  0.00     0.029 A 
ATOM     65  C   UNL     1     -11.148  14.719   4.132  1.00  0.00     0.049 A 
ATOM     66  H   UNL     1      -9.396  13.552   4.008  1.00  0.00     0.167 HD
ATOM     67  C   UNL     1      -9.706  15.969   2.544  1.00  0.00     0.074 A 
ATOM     68  C   UNL     1      -9.446  17.060   1.625  1.00  0.00     0.031 C 
ATOM     69  C   UNL     1     -10.858  15.817   3.243  1.00  0.00     0.034 A 
BRANCH  56  70
ATOM     70  C   UNL     1     -11.111  10.637   6.618  1.00  0.00     0.023 A 
ATOM     71  C   UNL     1     -10.790  10.515   7.985  1.00  0.00     0.012 A 
ATOM     72  C   UNL     1     -12.209   9.922   6.101  1.00  0.00     0.148 A 
ATOM     73  C   UNL     1     -11.522   9.666   8.815  1.00  0.00     0.002 A 
ATOM     74  C   UNL     1     -12.961   9.111   6.943  1.00  0.00     0.091 A 
ATOM     75  F   UNL     1     -12.485  10.028   4.793  1.00  0.00    -0.205 F 
ATOM     76  C   UNL     1     -12.612   8.972   8.296  1.00  0.00     0.022 A 
BRANCH  74  77
ATOM     77  S   UNL     1     -14.425   8.234   6.382  1.00  0.00     0.127 S 
ATOM     78  O   UNL     1     -13.937   6.858   6.311  1.00  0.00    -0.237 OA
ATOM     79  O   UNL     1     -15.374   8.488   7.467  1.00  0.00    -0.237 OA
ATOM     80  O   UNL     1     -14.789   8.839   5.108  1.00  0.00    -0.744 OA
ENDBRANCH  74  77
ENDBRANCH  56  70
BRANCH  57  81
ATOM     81  C   UNL     1      -5.542  16.050   0.310  1.00  0.00     0.023 A 
ATOM     82  C   UNL     1      -5.062  17.334   0.630  1.00  0.00     0.012 A 
ATOM     83  C   UNL     1      -5.195  15.474  -0.928  1.00  0.00     0.148 A 
ATOM     84  C   UNL     1      -4.263  18.037  -0.273  1.00  0.00     0.002 A 
ATOM     85  C   UNL     1      -4.354  16.156  -1.798  1.00  0.00     0.091 A 
ATOM     86  F   UNL     1      -5.676  14.257  -1.218  1.00  0.00    -0.205 F 
ATOM     87  C   UNL     1      -3.898  17.444  -1.479  1.00  0.00     0.022 A 
BRANCH  85  88
ATOM     88  S   UNL     1      -3.722  15.416  -3.308  1.00  0.00     0.127 S 
ATOM     89  O   UNL     1      -4.388  16.214  -4.334  1.00  0.00    -0.237 OA
ATOM     90  O   UNL     1      -2.284  15.652  -3.180  1.00  0.00    -0.237 OA
ATOM     91  O   UNL     1      -4.108  14.012  -3.252  1.00  0.00    -0.744 OA
ENDBRANCH  85  88
ENDBRANCH  57  81
BRANCH  69  92
ATOM     92  C   UNL     1     -11.928  16.862   3.062  1.00  0.00     0.023 A 
ATOM     93  C   UNL     1     -12.669  16.905   1.864  1.00  0.00     0.012 A 
ATOM     94  C   UNL     1     -12.254  17.747   4.109  1.00  0.00     0.148 A 
ATOM     95  C   UNL     1     -13.698  17.832   1.700  1.00  0.00     0.002 A 
ATOM     96  C   UNL     1     -13.312  18.634   3.957  1.00  0.00     0.091 A 
ATOM     97  F   UNL     1     -11.525  17.703   5.234  1.00  0.00    -0.205 F 
ATOM     98  C   UNL     1     -14.027  18.687   2.750  1.00  0.00     0.022 A 
BRANCH  96  99
ATOM     99  S   UNL     1     -13.870  19.701   5.290  1.00  0.00     0.127 S 
ATOM    100  O   UNL     1     -13.396  21.010   4.843  1.00  0.00    -0.237 OA
ATOM    101  O   UNL     1     -15.323  19.530   5.239  1.00  0.00    -0.237 OA
ATOM    102  O   UNL     1     -13.245  19.189   6.502  1.00  0.00    -0.744 OA
ENDBRANCH  96  99
ENDBRANCH  69  92
ENDBRANCH  43  44
ENDBRANCH  36  38
ENDBRANCH  35  36
ENDBRANCH  34  35
ENDBRANCH  33  34
ENDBRANCH  32  33
ENDBRANCH   1  32
TORSDOF 23
