REMARK SMILES Cc1nc(C(=O)OCCOCCOC(=O)c2ccc(-c3c4nc(c(-c5cccc(S(=O)(=O)[O-])c5F)c5ccc([nH]5)c(-c5cccc(S(=O)(=O)[O-])c5F)c5nc(c(-c6cccc(S(=O)(=O)[O-])c6F)c6ccc3[nH]6)C=C5)C=C4)cc2)nn1-c1cccc(C(F)(F)F)c1
REMARK SMILES IDX 11 1 10 2 9 3 8 4 7 5 5 6 6 7 4 8 1 9 2 10 3 11 80 12 79 13
REMARK SMILES IDX 81 14 82 15 90 16 83 17 85 18 84 19 86 20 87 21 88 22 89 23
REMARK SMILES IDX 12 24 13 25 14 26 15 27 16 28 17 29 78 30 18 31 77 32 19 33
REMARK SMILES IDX 20 34 21 35 71 36 22 37 76 38 70 39 72 40 23 41 75 42 69 43
REMARK SMILES IDX 68 44 24 46 56 47 36 48 55 49 37 50 40 51 54 52 73 53 38 54
REMARK SMILES IDX 39 55 53 57 74 58 41 59 25 60 26 61 34 62 27 63 29 64 35 65
REMARK SMILES IDX 28 66 30 67 31 68 32 69 33 70 57 71 58 72 66 73 59 74 61 75
REMARK SMILES IDX 67 76 60 77 62 78 63 79 64 80 65 81 42 82 43 83 51 84 44 85
REMARK SMILES IDX 46 86 52 87 45 88 47 89 48 90 49 91 50 92
REMARK H PARENT 72 45 40 56
REMARK Flexibility Score: inf
ROOT
ATOM      1  C   UNL     1      -2.397  -2.766   5.032  1.00  0.00     0.202 C 
ENDROOT
BRANCH   1   2
ATOM      2  O   UNL     1      -2.199  -3.007   6.424  1.00  0.00    -0.374 OA
BRANCH   2   3
ATOM      3  C   UNL     1      -2.014  -1.909   7.319  1.00  0.00     0.202 C 
BRANCH   3   4
ATOM      4  C   UNL     1      -0.670  -1.183   7.290  1.00  0.00     0.261 C 
BRANCH   4   5
ATOM      5  O   UNL     1      -0.478  -0.432   6.083  1.00  0.00    -0.457 OA
BRANCH   5   6
ATOM      6  C   UNL     1       0.398  -0.974   5.182  1.00  0.00     0.378 C 
ATOM      7  O   UNL     1       1.045  -2.001   5.383  1.00  0.00    -0.242 OA
BRANCH   6   8
ATOM      8  C   UNL     1       0.390  -0.269   3.890  1.00  0.00     0.260 A 
ATOM      9  C   UNL     1       0.682  -0.206   0.340  1.00  0.00     0.090 C 
ATOM     10  C   UNL     1       0.405   0.019   1.780  1.00  0.00     0.130 A 
ATOM     11  N   UNL     1       0.428  -0.938   2.686  1.00  0.00    -0.206 NA
ATOM     12  N   UNL     1       0.318   1.246   2.418  1.00  0.00    -0.217 N 
ATOM     13  N   UNL     1       0.375   1.066   3.763  1.00  0.00    -0.138 NA
BRANCH  12  14
ATOM     14  C   UNL     1       0.286   2.556   1.881  1.00  0.00     0.067 A 
ATOM     15  C   UNL     1       0.989   3.567   2.553  1.00  0.00     0.028 A 
ATOM     16  C   UNL     1      -0.446   2.862   0.727  1.00  0.00     0.041 A 
ATOM     17  C   UNL     1       1.014   4.862   2.038  1.00  0.00     0.003 A 
ATOM     18  C   UNL     1      -0.452   4.176   0.223  1.00  0.00     0.058 A 
ATOM     19  C   UNL     1       0.301   5.164   0.880  1.00  0.00     0.013 A 
BRANCH  18  20
ATOM     20  C   UNL     1      -1.262   4.552  -1.000  1.00  0.00     0.416 C 
ATOM     21  F   UNL     1      -2.157   5.538  -0.748  1.00  0.00    -0.166 F 
ATOM     22  F   UNL     1      -0.459   5.017  -2.001  1.00  0.00    -0.166 F 
ATOM     23  F   UNL     1      -1.945   3.506  -1.532  1.00  0.00    -0.166 F 
ENDBRANCH  18  20
ENDBRANCH  12  14
ENDBRANCH   6   8
ENDBRANCH   5   6
ENDBRANCH   4   5
ENDBRANCH   3   4
ENDBRANCH   2   3
ENDBRANCH   1   2
BRANCH   1  24
ATOM     24  C   UNL     1      -3.743  -2.218   4.581  1.00  0.00     0.261 C 
BRANCH  24  25
ATOM     25  O   UNL     1      -4.011  -0.968   5.188  1.00  0.00    -0.460 OA
BRANCH  25  26
ATOM     26  C   UNL     1      -4.806  -1.025   6.275  1.00  0.00     0.338 C 
ATOM     27  O   UNL     1      -5.185  -2.034   6.868  1.00  0.00    -0.246 OA
BRANCH  26  28
ATOM     28  C   UNL     1      -5.274   0.331   6.565  1.00  0.00     0.060 A 
ATOM     29  C   UNL     1      -6.421   0.386   7.355  1.00  0.00     0.016 A 
ATOM     30  C   UNL     1      -4.895   1.372   5.701  1.00  0.00     0.016 A 
ATOM     31  C   UNL     1      -7.374   1.305   7.006  1.00  0.00     0.010 A 
ATOM     32  C   UNL     1      -5.859   2.270   5.332  1.00  0.00     0.010 A 
ATOM     33  C   UNL     1      -7.115   2.140   5.915  1.00  0.00    -0.014 A 
BRANCH  33  34
ATOM     34  C   UNL     1      -8.213   2.923   5.418  1.00  0.00     0.031 A 
ATOM     35  C   UNL     1      -8.468   4.112   6.244  1.00  0.00     0.074 A 
ATOM     36  C   UNL     1      -8.875   2.595   4.296  1.00  0.00     0.049 A 
ATOM     37  N   UNL     1      -9.463   4.301   7.042  1.00  0.00    -0.248 NA
ATOM     38  C   UNL     1      -7.386   5.097   6.367  1.00  0.00     0.031 C 
ATOM     39  C   UNL     1      -8.516   1.603   3.280  1.00  0.00     0.029 A 
ATOM     40  N   UNL     1      -9.953   3.218   3.759  1.00  0.00    -0.354 N 
ATOM     41  C   UNL     1      -9.234   5.549   7.606  1.00  0.00     0.074 A 
ATOM     42  C   UNL     1      -7.856   5.867   7.347  1.00  0.00     0.031 C 
ATOM     43  C   UNL     1      -9.192   1.889   2.143  1.00  0.00     0.029 A 
ATOM     44  C   UNL     1     -10.095   3.000   2.397  1.00  0.00     0.049 A 
ATOM     45  H   UNL     1     -10.574   3.771   4.285  1.00  0.00     0.167 HD
ATOM     46  C   UNL     1     -10.266   6.336   8.006  1.00  0.00     0.034 A 
ATOM     47  C   UNL     1     -10.797   3.790   1.548  1.00  0.00     0.034 A 
ATOM     48  C   UNL     1     -11.496   5.589   8.091  1.00  0.00     0.049 A 
ATOM     49  C   UNL     1     -11.760   4.574   2.367  1.00  0.00     0.074 A 
ATOM     50  C   UNL     1     -11.915   4.490   8.815  1.00  0.00     0.029 A 
ATOM     51  N   UNL     1     -12.379   5.719   7.045  1.00  0.00    -0.354 N 
ATOM     52  N   UNL     1     -12.757   4.033   3.013  1.00  0.00    -0.248 NA
ATOM     53  C   UNL     1     -11.347   5.884   2.851  1.00  0.00     0.031 C 
ATOM     54  C   UNL     1     -12.740   3.752   7.917  1.00  0.00     0.029 A 
ATOM     55  C   UNL     1     -12.822   4.465   6.719  1.00  0.00     0.049 A 
ATOM     56  H   UNL     1     -12.644   6.561   6.609  1.00  0.00     0.167 HD
ATOM     57  C   UNL     1     -12.780   4.694   4.236  1.00  0.00     0.074 A 
ATOM     58  C   UNL     1     -11.971   5.895   4.034  1.00  0.00     0.031 C 
ATOM     59  C   UNL     1     -13.187   4.060   5.377  1.00  0.00     0.034 A 
BRANCH  46  60
ATOM     60  C   UNL     1     -10.254   7.842   7.965  1.00  0.00     0.023 A 
ATOM     61  C   UNL     1     -11.349   8.504   8.560  1.00  0.00     0.012 A 
ATOM     62  C   UNL     1      -9.391   8.624   7.163  1.00  0.00     0.148 A 
ATOM     63  C   UNL     1     -11.605   9.857   8.320  1.00  0.00     0.002 A 
ATOM     64  C   UNL     1      -9.600   9.986   6.996  1.00  0.00     0.091 A 
ATOM     65  F   UNL     1      -8.435   8.044   6.432  1.00  0.00    -0.205 F 
ATOM     66  C   UNL     1     -10.725  10.601   7.544  1.00  0.00     0.022 A 
BRANCH  64  67
ATOM     67  S   UNL     1      -8.460  10.995   6.042  1.00  0.00     0.127 S 
ATOM     68  O   UNL     1      -9.205  11.187   4.801  1.00  0.00    -0.237 OA
ATOM     69  O   UNL     1      -8.337  12.186   6.883  1.00  0.00    -0.237 OA
ATOM     70  O   UNL     1      -7.235  10.212   5.940  1.00  0.00    -0.744 OA
ENDBRANCH  64  67
ENDBRANCH  46  60
BRANCH  47  71
ATOM     71  C   UNL     1     -10.458   4.150   0.150  1.00  0.00     0.023 A 
ATOM     72  C   UNL     1     -11.436   4.730  -0.681  1.00  0.00     0.012 A 
ATOM     73  C   UNL     1      -9.117   4.166  -0.299  1.00  0.00     0.148 A 
ATOM     74  C   UNL     1     -11.088   5.321  -1.903  1.00  0.00     0.002 A 
ATOM     75  C   UNL     1      -8.778   4.736  -1.521  1.00  0.00     0.091 A 
ATOM     76  F   UNL     1      -8.151   3.720   0.513  1.00  0.00    -0.205 F 
ATOM     77  C   UNL     1      -9.760   5.326  -2.323  1.00  0.00     0.022 A 
BRANCH  75  78
ATOM     78  S   UNL     1      -7.075   4.779  -2.099  1.00  0.00     0.127 S 
ATOM     79  O   UNL     1      -7.222   4.435  -3.514  1.00  0.00    -0.237 OA
ATOM     80  O   UNL     1      -6.705   6.167  -1.839  1.00  0.00    -0.237 OA
ATOM     81  O   UNL     1      -6.368   3.773  -1.314  1.00  0.00    -0.744 OA
ENDBRANCH  75  78
ENDBRANCH  47  71
BRANCH  59  82
ATOM     82  C   UNL     1     -13.810   2.689   5.249  1.00  0.00     0.023 A 
ATOM     83  C   UNL     1     -13.094   1.589   4.730  1.00  0.00     0.012 A 
ATOM     84  C   UNL     1     -15.059   2.459   5.848  1.00  0.00     0.148 A 
ATOM     85  C   UNL     1     -13.620   0.295   4.786  1.00  0.00     0.002 A 
ATOM     86  C   UNL     1     -15.556   1.164   5.948  1.00  0.00     0.091 A 
ATOM     87  F   UNL     1     -15.728   3.510   6.346  1.00  0.00    -0.205 F 
ATOM     88  C   UNL     1     -14.845   0.081   5.409  1.00  0.00     0.022 A 
BRANCH  86  89
ATOM     89  S   UNL     1     -17.057   0.807   6.865  1.00  0.00     0.127 S 
ATOM     90  O   UNL     1     -18.028   0.601   5.793  1.00  0.00    -0.237 OA
ATOM     91  O   UNL     1     -16.696  -0.404   7.604  1.00  0.00    -0.237 OA
ATOM     92  O   UNL     1     -17.292   1.970   7.712  1.00  0.00    -0.744 OA
ENDBRANCH  86  89
ENDBRANCH  59  82
ENDBRANCH  33  34
ENDBRANCH  26  28
ENDBRANCH  25  26
ENDBRANCH  24  25
ENDBRANCH   1  24
TORSDOF 19
