REMARK SMILES CCCC#C[C@](C)(O)C[NH2+][C@H](C)C(=O)OCCOCCOC(=O)c1ccc(-c2c3nc(c(-c4cccc(S(=O)(=O)[O-])c4F)c4ccc([nH]4)c(-c4cccc(S(=O)(=O)[O-])c4F)c4nc(c(-c5cccc(S(=O)(=O)[O-])c5F)c5ccc2[nH]5)C=C4)C=C3)cc1
REMARK SMILES IDX 16 1 15 2 13 3 14 4 11 5 12 6 10 7 9 10 6 11 7 12 5 13 4 14
REMARK SMILES IDX 3 15 2 16 1 17 8 18 17 20 18 21 19 22 20 23 21 24 22 25
REMARK SMILES IDX 23 26 24 27 25 28 86 29 26 30 85 31 27 32 28 33 29 34 79 35
REMARK SMILES IDX 30 36 84 37 78 38 80 39 31 40 83 41 77 42 76 43 32 45 64 46
REMARK SMILES IDX 44 47 63 48 45 49 48 50 62 51 81 52 46 53 47 54 61 56 82 57
REMARK SMILES IDX 49 58 33 59 34 60 42 61 35 62 37 63 43 64 36 65 38 66 39 67
REMARK SMILES IDX 40 68 41 69 65 70 66 71 74 72 67 73 69 74 75 75 68 76 70 77
REMARK SMILES IDX 71 78 72 79 73 80 50 81 51 82 59 83 52 84 54 85 60 86 53 87
REMARK SMILES IDX 55 88 56 89 57 90 58 91
REMARK H PARENT 10 8 10 9 8 19 80 44 48 55
REMARK Flexibility Score: inf
ROOT
ATOM      1  C   UNL     1       5.896  -2.844   6.044  1.00  0.00     0.261 C 
ENDROOT
BRANCH   1   2
ATOM      2  O   UNL     1       4.465  -2.798   5.955  1.00  0.00    -0.459 OA
BRANCH   2   3
ATOM      3  C   UNL     1       3.948  -1.544   5.891  1.00  0.00     0.364 C 
ATOM      4  O   UNL     1       4.611  -0.511   5.963  1.00  0.00    -0.245 OA
BRANCH   3   5
ATOM      5  C   UNL     1       2.423  -1.538   5.679  1.00  0.00     0.290 C 
ATOM      6  C   UNL     1       1.893  -2.710   4.851  1.00  0.00     0.088 C 
BRANCH   5   7
ATOM      7  N   UNL     1       1.704  -1.502   6.961  1.00  0.00    -0.332 N 
ATOM      8  H   UNL     1       0.701  -1.539   6.781  1.00  0.00     0.347 HD
ATOM      9  H   UNL     1       2.000  -2.303   7.519  1.00  0.00     0.347 HD
BRANCH   7  10
ATOM     10  C   UNL     1       2.012  -0.275   7.710  1.00  0.00     0.310 C 
BRANCH  10  11
ATOM     11  C   UNL     1       1.783  -0.464   9.220  1.00  0.00     0.171 C 
ATOM     12  C   UNL     1       0.295  -0.643   9.537  1.00  0.00     0.063 C 
BRANCH  11  13
ATOM     13  C   UNL     1       2.313   0.711   9.915  1.00  0.00    -0.063 C 
ATOM     14  C   UNL     1       2.483   1.800  10.613  1.00  0.00    -0.100 C 
BRANCH  14  15
ATOM     15  C   UNL     1       2.680   3.069  11.426  1.00  0.00     0.089 C 
BRANCH  15  16
ATOM     16  C   UNL     1       3.542   2.807  12.660  1.00  0.00     0.010 C 
ATOM     17  C   UNL     1       4.963   2.374  12.318  1.00  0.00     0.005 C 
ENDBRANCH  15  16
ENDBRANCH  14  15
ENDBRANCH  11  13
BRANCH  11  18
ATOM     18  O   UNL     1       2.495  -1.625   9.656  1.00  0.00    -0.372 OA
ATOM     19  H   UNL     1       2.148  -2.407   9.198  1.00  0.00     0.212 HD
ENDBRANCH  11  18
ENDBRANCH  10  11
ENDBRANCH   7  10
ENDBRANCH   5   7
ENDBRANCH   3   5
ENDBRANCH   2   3
ENDBRANCH   1   2
BRANCH   1  20
ATOM     20  C   UNL     1       6.553  -3.068   4.678  1.00  0.00     0.202 C 
BRANCH  20  21
ATOM     21  O   UNL     1       6.435  -2.039   3.695  1.00  0.00    -0.374 OA
BRANCH  21  22
ATOM     22  C   UNL     1       5.207  -1.898   2.986  1.00  0.00     0.202 C 
BRANCH  22  23
ATOM     23  C   UNL     1       4.834  -2.965   1.952  1.00  0.00     0.261 C 
BRANCH  23  24
ATOM     24  O   UNL     1       4.659  -4.266   2.537  1.00  0.00    -0.460 OA
BRANCH  24  25
ATOM     25  C   UNL     1       5.604  -5.166   2.180  1.00  0.00     0.338 C 
ATOM     26  O   UNL     1       6.510  -4.997   1.370  1.00  0.00    -0.246 OA
BRANCH  25  27
ATOM     27  C   UNL     1       5.541  -6.361   3.039  1.00  0.00     0.060 A 
ATOM     28  C   UNL     1       6.733  -6.760   3.659  1.00  0.00     0.016 A 
ATOM     29  C   UNL     1       4.383  -7.131   3.161  1.00  0.00     0.016 A 
ATOM     30  C   UNL     1       6.792  -7.971   4.339  1.00  0.00     0.010 A 
ATOM     31  C   UNL     1       4.447  -8.353   3.840  1.00  0.00     0.010 A 
ATOM     32  C   UNL     1       5.664  -8.800   4.386  1.00  0.00    -0.014 A 
BRANCH  32  33
ATOM     33  C   UNL     1       5.825 -10.196   4.859  1.00  0.00     0.031 A 
ATOM     34  C   UNL     1       5.965 -11.298   3.842  1.00  0.00     0.074 A 
ATOM     35  C   UNL     1       5.894 -10.474   6.173  1.00  0.00     0.049 A 
ATOM     36  N   UNL     1       6.153 -12.578   4.030  1.00  0.00    -0.248 NA
ATOM     37  C   UNL     1       5.883 -10.905   2.425  1.00  0.00     0.031 C 
ATOM     38  C   UNL     1       5.775  -9.493   7.250  1.00  0.00     0.029 A 
ATOM     39  N   UNL     1       6.069 -11.670   6.821  1.00  0.00    -0.354 N 
ATOM     40  C   UNL     1       6.195 -13.146   2.762  1.00  0.00     0.074 A 
ATOM     41  C   UNL     1       5.992 -12.074   1.811  1.00  0.00     0.031 C 
ATOM     42  C   UNL     1       5.854 -10.133   8.430  1.00  0.00     0.029 A 
ATOM     43  C   UNL     1       6.017 -11.565   8.190  1.00  0.00     0.049 A 
ATOM     44  H   UNL     1       6.218 -12.522   6.351  1.00  0.00     0.167 HD
ATOM     45  C   UNL     1       6.406 -14.438   2.417  1.00  0.00     0.034 A 
ATOM     46  C   UNL     1       6.082 -12.520   9.140  1.00  0.00     0.034 A 
ATOM     47  C   UNL     1       6.630 -15.499   3.361  1.00  0.00     0.049 A 
ATOM     48  C   UNL     1       6.310 -13.951   8.730  1.00  0.00     0.074 A 
ATOM     49  C   UNL     1       6.885 -16.835   3.109  1.00  0.00     0.029 A 
ATOM     50  N   UNL     1       6.621 -15.346   4.739  1.00  0.00    -0.354 N 
ATOM     51  N   UNL     1       6.465 -14.452   7.528  1.00  0.00    -0.248 NA
ATOM     52  C   UNL     1       6.415 -14.944   9.809  1.00  0.00     0.031 C 
ATOM     53  C   UNL     1       7.014 -17.494   4.337  1.00  0.00     0.029 A 
ATOM     54  C   UNL     1       6.862 -16.563   5.352  1.00  0.00     0.049 A 
ATOM     55  H   UNL     1       6.465 -14.496   5.211  1.00  0.00     0.167 HD
ATOM     56  C   UNL     1       6.721 -15.807   7.707  1.00  0.00     0.074 A 
ATOM     57  C   UNL     1       6.723 -16.045   9.136  1.00  0.00     0.031 C 
ATOM     58  C   UNL     1       6.920 -16.772   6.775  1.00  0.00     0.034 A 
BRANCH  45  59
ATOM     59  C   UNL     1       6.445 -14.771   0.949  1.00  0.00     0.023 A 
ATOM     60  C   UNL     1       7.567 -14.397   0.182  1.00  0.00     0.012 A 
ATOM     61  C   UNL     1       5.406 -15.504   0.343  1.00  0.00     0.148 A 
ATOM     62  C   UNL     1       7.644 -14.723  -1.171  1.00  0.00     0.002 A 
ATOM     63  C   UNL     1       5.508 -15.861  -0.997  1.00  0.00     0.091 A 
ATOM     64  F   UNL     1       4.337 -15.829   1.083  1.00  0.00    -0.205 F 
ATOM     65  C   UNL     1       6.620 -15.463  -1.757  1.00  0.00     0.022 A 
BRANCH  63  66
ATOM     66  S   UNL     1       4.279 -16.875  -1.825  1.00  0.00     0.127 S 
ATOM     67  O   UNL     1       3.646 -15.904  -2.716  1.00  0.00    -0.237 OA
ATOM     68  O   UNL     1       5.107 -17.874  -2.502  1.00  0.00    -0.237 OA
ATOM     69  O   UNL     1       3.424 -17.408  -0.774  1.00  0.00    -0.744 OA
ENDBRANCH  63  66
ENDBRANCH  45  59
BRANCH  46  70
ATOM     70  C   UNL     1       5.971 -12.145  10.578  1.00  0.00     0.023 A 
ATOM     71  C   UNL     1       7.096 -12.252  11.417  1.00  0.00     0.012 A 
ATOM     72  C   UNL     1       4.758 -11.667  11.113  1.00  0.00     0.148 A 
ATOM     73  C   UNL     1       7.009 -11.921  12.770  1.00  0.00     0.002 A 
ATOM     74  C   UNL     1       4.693 -11.286  12.448  1.00  0.00     0.091 A 
ATOM     75  F   UNL     1       3.692 -11.591  10.304  1.00  0.00    -0.205 F 
ATOM     76  C   UNL     1       5.811 -11.428  13.282  1.00  0.00     0.022 A 
BRANCH  74  77
ATOM     77  S   UNL     1       3.229 -10.520  13.154  1.00  0.00     0.127 S 
ATOM     78  O   UNL     1       2.691 -11.602  13.973  1.00  0.00    -0.237 OA
ATOM     79  O   UNL     1       3.803  -9.403  13.906  1.00  0.00    -0.237 OA
ATOM     80  O   UNL     1       2.414 -10.116  12.016  1.00  0.00    -0.744 OA
ENDBRANCH  74  77
ENDBRANCH  46  70
BRANCH  58  81
ATOM     81  C   UNL     1       7.195 -18.171   7.264  1.00  0.00     0.023 A 
ATOM     82  C   UNL     1       6.152 -18.935   7.823  1.00  0.00     0.012 A 
ATOM     83  C   UNL     1       8.469 -18.753   7.105  1.00  0.00     0.148 A 
ATOM     84  C   UNL     1       6.380 -20.243   8.249  1.00  0.00     0.002 A 
ATOM     85  C   UNL     1       8.677 -20.072   7.489  1.00  0.00     0.091 A 
ATOM     86  F   UNL     1       9.455 -18.005   6.589  1.00  0.00    -0.205 F 
ATOM     87  C   UNL     1       7.638 -20.815   8.072  1.00  0.00     0.022 A 
BRANCH  85  88
ATOM     88  S   UNL     1      10.239 -20.915   7.210  1.00  0.00     0.127 S 
ATOM     89  O   UNL     1      10.825 -20.910   8.549  1.00  0.00    -0.237 OA
ATOM     90  O   UNL     1       9.805 -22.232   6.740  1.00  0.00    -0.237 OA
ATOM     91  O   UNL     1      10.944 -20.124   6.211  1.00  0.00    -0.744 OA
ENDBRANCH  85  88
ENDBRANCH  58  81
ENDBRANCH  32  33
ENDBRANCH  25  27
ENDBRANCH  24  25
ENDBRANCH  23  24
ENDBRANCH  22  23
ENDBRANCH  21  22
ENDBRANCH  20  21
ENDBRANCH   1  20
TORSDOF 24
