REMARK SMILES COCCNc1cc(C)nc2cc(C(=O)OCCOCCOC(=O)c3ccc(-c4c5nc(c(-c6cccc(S(=O)(=O)[O-])c6F)c6ccc([nH]6)c(-c6cccc(S(=O)(=O)[O-])c6F)c6nc(c(-c7cccc(S(=O)(=O)[O-])c7F)c7ccc4[nH]7)C=C6)C=C5)cc3)ccc12
REMARK SMILES IDX 18 1 17 2 16 3 14 4 15 5 13 6 6 7 7 8 90 9 8 10 11 11 89 12
REMARK SMILES IDX 9 13 10 14 12 15 88 16 5 17 4 19 3 20 2 21 1 22 19 23 20 24
REMARK SMILES IDX 21 25 22 26 23 27 24 28 25 29 26 30 87 31 27 32 86 33 28 34
REMARK SMILES IDX 29 35 30 36 80 37 31 38 85 39 79 40 81 41 32 42 84 43 78 44
REMARK SMILES IDX 77 45 33 47 65 48 45 49 64 50 46 51 49 52 63 53 82 54 47 55
REMARK SMILES IDX 48 56 62 58 83 59 50 60 34 61 35 62 43 63 36 64 38 65 44 66
REMARK SMILES IDX 37 67 39 68 40 69 41 70 42 71 66 72 67 73 75 74 68 75 70 76
REMARK SMILES IDX 76 77 69 78 71 79 72 80 73 81 74 82 51 83 52 84 60 85 53 86
REMARK SMILES IDX 55 87 61 88 54 89 56 90 57 91 58 92 59 93
REMARK H PARENT 5 18 81 46 49 57
REMARK Flexibility Score: inf
ROOT
ATOM      1  C   UNL     1       8.153   5.952  -2.528  1.00  0.00     0.202 C 
ENDROOT
BRANCH   1   2
ATOM      2  C   UNL     1       8.529   4.523  -2.931  1.00  0.00     0.261 C 
BRANCH   2   3
ATOM      3  O   UNL     1       7.380   3.776  -3.361  1.00  0.00    -0.460 OA
BRANCH   3   4
ATOM      4  C   UNL     1       6.982   2.811  -2.502  1.00  0.00     0.338 C 
ATOM      5  O   UNL     1       7.552   2.455  -1.480  1.00  0.00    -0.246 OA
BRANCH   4   6
ATOM      6  C   UNL     1       5.627   2.332  -2.847  1.00  0.00     0.062 A 
ATOM      7  C   UNL     1       1.887   0.574  -3.624  1.00  0.00     0.045 A 
ATOM      8  C   UNL     1       1.542   0.350  -4.955  1.00  0.00     0.049 A 
ATOM      9  C   UNL     1       3.103   1.236  -3.345  1.00  0.00     0.023 A 
ATOM     10  C   UNL     1       2.415   0.746  -5.959  1.00  0.00     0.040 A 
ATOM     11  C   UNL     1       3.943   1.587  -4.427  1.00  0.00     0.073 A 
ATOM     12  C   UNL     1       3.524   1.504  -2.029  1.00  0.00     0.013 A 
ATOM     13  C   UNL     1       2.079   0.516  -7.402  1.00  0.00     0.067 C 
ATOM     14  N   UNL     1       3.593   1.361  -5.701  1.00  0.00    -0.253 NA
ATOM     15  C   UNL     1       5.188   2.149  -4.162  1.00  0.00     0.044 A 
ATOM     16  C   UNL     1       4.781   2.033  -1.779  1.00  0.00     0.016 A 
BRANCH   7  17
ATOM     17  N   UNL     1       1.011   0.235  -2.596  1.00  0.00    -0.382 N 
ATOM     18  H   UNL     1       0.732   0.926  -1.954  1.00  0.00     0.160 HD
BRANCH  17  19
ATOM     19  C   UNL     1       0.497  -1.122  -2.452  1.00  0.00     0.141 C 
BRANCH  19  20
ATOM     20  C   UNL     1       1.044  -1.794  -1.181  1.00  0.00     0.181 C 
BRANCH  20  21
ATOM     21  O   UNL     1       0.396  -1.359   0.021  1.00  0.00    -0.383 OA
ATOM     22  C   UNL     1       0.932  -0.155   0.549  1.00  0.00     0.194 C 
ENDBRANCH  20  21
ENDBRANCH  19  20
ENDBRANCH  17  19
ENDBRANCH   7  17
ENDBRANCH   4   6
ENDBRANCH   3   4
ENDBRANCH   2   3
ENDBRANCH   1   2
BRANCH   1  23
ATOM     23  O   UNL     1       7.250   6.093  -1.431  1.00  0.00    -0.374 OA
BRANCH  23  24
ATOM     24  C   UNL     1       5.858   5.926  -1.710  1.00  0.00     0.202 C 
BRANCH  24  25
ATOM     25  C   UNL     1       5.138   7.102  -2.381  1.00  0.00     0.261 C 
BRANCH  25  26
ATOM     26  O   UNL     1       5.584   7.314  -3.731  1.00  0.00    -0.460 OA
BRANCH  26  27
ATOM     27  C   UNL     1       6.337   8.424  -3.918  1.00  0.00     0.338 C 
ATOM     28  O   UNL     1       6.607   9.281  -3.085  1.00  0.00    -0.246 OA
BRANCH  27  29
ATOM     29  C   UNL     1       6.971   8.378  -5.247  1.00  0.00     0.060 A 
ATOM     30  C   UNL     1       8.362   8.538  -5.312  1.00  0.00     0.016 A 
ATOM     31  C   UNL     1       6.217   8.233  -6.413  1.00  0.00     0.016 A 
ATOM     32  C   UNL     1       9.001   8.598  -6.549  1.00  0.00     0.010 A 
ATOM     33  C   UNL     1       6.860   8.303  -7.653  1.00  0.00     0.010 A 
ATOM     34  C   UNL     1       8.248   8.519  -7.726  1.00  0.00    -0.014 A 
BRANCH  34  35
ATOM     35  C   UNL     1       8.887   8.790  -9.037  1.00  0.00     0.031 A 
ATOM     36  C   UNL     1       8.679  10.131  -9.684  1.00  0.00     0.074 A 
ATOM     37  C   UNL     1       9.619   7.845  -9.652  1.00  0.00     0.049 A 
ATOM     38  N   UNL     1       9.077  10.556 -10.854  1.00  0.00    -0.248 NA
ATOM     39  C   UNL     1       7.916  11.125  -8.910  1.00  0.00     0.031 C 
ATOM     40  C   UNL     1       9.892   6.510  -9.122  1.00  0.00     0.029 A 
ATOM     41  N   UNL     1      10.237   7.855 -10.878  1.00  0.00    -0.354 N 
ATOM     42  C   UNL     1       8.582  11.848 -10.976  1.00  0.00     0.074 A 
ATOM     43  C   UNL     1       7.851  12.139  -9.762  1.00  0.00     0.031 C 
ATOM     44  C   UNL     1      10.592   5.815 -10.035  1.00  0.00     0.029 A 
ATOM     45  C   UNL     1      10.790   6.644 -11.222  1.00  0.00     0.049 A 
ATOM     46  H   UNL     1      10.279   8.652 -11.455  1.00  0.00     0.167 HD
ATOM     47  C   UNL     1       8.733  12.719 -12.002  1.00  0.00     0.034 A 
ATOM     48  C   UNL     1      11.362   6.243 -12.375  1.00  0.00     0.034 A 
ATOM     49  C   UNL     1       9.479  12.434 -13.197  1.00  0.00     0.049 A 
ATOM     50  C   UNL     1      11.498   7.224 -13.510  1.00  0.00     0.074 A 
ATOM     51  C   UNL     1       9.739  13.271 -14.268  1.00  0.00     0.029 A 
ATOM     52  N   UNL     1      10.072  11.216 -13.488  1.00  0.00    -0.354 N 
ATOM     53  N   UNL     1      11.133   8.482 -13.563  1.00  0.00    -0.248 NA
ATOM     54  C   UNL     1      12.153   6.740 -14.735  1.00  0.00     0.031 C 
ATOM     55  C   UNL     1      10.463  12.548 -15.221  1.00  0.00     0.029 A 
ATOM     56  C   UNL     1      10.684  11.271 -14.728  1.00  0.00     0.049 A 
ATOM     57  H   UNL     1      10.060  10.427 -12.899  1.00  0.00     0.167 HD
ATOM     58  C   UNL     1      11.546   8.950 -14.806  1.00  0.00     0.074 A 
ATOM     59  C   UNL     1      12.204   7.843 -15.470  1.00  0.00     0.031 C 
ATOM     60  C   UNL     1      11.386  10.180 -15.353  1.00  0.00     0.034 A 
BRANCH  47  61
ATOM     61  C   UNL     1       8.093  14.076 -11.870  1.00  0.00     0.023 A 
ATOM     62  C   UNL     1       8.641  15.025 -10.985  1.00  0.00     0.012 A 
ATOM     63  C   UNL     1       6.987  14.431 -12.668  1.00  0.00     0.148 A 
ATOM     64  C   UNL     1       8.081  16.297 -10.873  1.00  0.00     0.002 A 
ATOM     65  C   UNL     1       6.462  15.715 -12.584  1.00  0.00     0.091 A 
ATOM     66  F   UNL     1       6.467  13.506 -13.487  1.00  0.00    -0.205 F 
ATOM     67  C   UNL     1       7.000  16.645 -11.679  1.00  0.00     0.022 A 
BRANCH  65  68
ATOM     68  S   UNL     1       5.122  16.284 -13.635  1.00  0.00     0.127 S 
ATOM     69  O   UNL     1       4.021  16.392 -12.678  1.00  0.00    -0.237 OA
ATOM     70  O   UNL     1       5.635  17.565 -14.121  1.00  0.00    -0.237 OA
ATOM     71  O   UNL     1       4.957  15.266 -14.663  1.00  0.00    -0.744 OA
ENDBRANCH  65  68
ENDBRANCH  47  61
BRANCH  48  72
ATOM     72  C   UNL     1      11.872   4.848 -12.505  1.00  0.00     0.023 A 
ATOM     73  C   UNL     1      13.259   4.620 -12.583  1.00  0.00     0.012 A 
ATOM     74  C   UNL     1      10.992   3.749 -12.536  1.00  0.00     0.148 A 
ATOM     75  C   UNL     1      13.760   3.325 -12.718  1.00  0.00     0.002 A 
ATOM     76  C   UNL     1      11.500   2.458 -12.615  1.00  0.00     0.091 A 
ATOM     77  F   UNL     1       9.674   3.989 -12.477  1.00  0.00    -0.205 F 
ATOM     78  C   UNL     1      12.883   2.244 -12.723  1.00  0.00     0.022 A 
BRANCH  76  79
ATOM     79  S   UNL     1      10.454   1.001 -12.503  1.00  0.00     0.127 S 
ATOM     80  O   UNL     1      10.539   0.468 -13.860  1.00  0.00    -0.237 OA
ATOM     81  O   UNL     1      11.148   0.211 -11.485  1.00  0.00    -0.237 OA
ATOM     82  O   UNL     1       9.143   1.488 -12.095  1.00  0.00    -0.744 OA
ENDBRANCH  76  79
ENDBRANCH  48  72
BRANCH  60  83
ATOM     83  C   UNL     1      11.967  10.425 -16.722  1.00  0.00     0.023 A 
ATOM     84  C   UNL     1      11.351   9.865 -17.858  1.00  0.00     0.012 A 
ATOM     85  C   UNL     1      13.067  11.290 -16.887  1.00  0.00     0.148 A 
ATOM     86  C   UNL     1      11.838  10.141 -19.136  1.00  0.00     0.002 A 
ATOM     87  C   UNL     1      13.516  11.600 -18.165  1.00  0.00     0.091 A 
ATOM     88  F   UNL     1      13.649  11.800 -15.791  1.00  0.00    -0.205 F 
ATOM     89  C   UNL     1      12.910  11.017 -19.290  1.00  0.00     0.022 A 
BRANCH  87  90
ATOM     90  S   UNL     1      14.825  12.794 -18.466  1.00  0.00     0.127 S 
ATOM     91  O   UNL     1      15.913  11.932 -18.927  1.00  0.00    -0.237 OA
ATOM     92  O   UNL     1      14.238  13.642 -19.503  1.00  0.00    -0.237 OA
ATOM     93  O   UNL     1      15.058  13.466 -17.195  1.00  0.00    -0.744 OA
ENDBRANCH  87  90
ENDBRANCH  60  83
ENDBRANCH  34  35
ENDBRANCH  27  29
ENDBRANCH  26  27
ENDBRANCH  25  26
ENDBRANCH  24  25
ENDBRANCH  23  24
ENDBRANCH   1  23
TORSDOF 21
