REMARK SMILES CC1=C(C)C[C@@H](C(=O)NNC(=O)c2sccc2C)[C@@H](C(=O)OCCOCCOC(=O)c2ccc(-c3c4nc(c(-c5cccc(S(=O)(=O)[O-])c5F)c5ccc([nH]5)c(-c5cccc(S(=O)(=O)[O-])c5F)c5nc(c(-c6cccc(S(=O)(=O)[O-])c6F)c6ccc3[nH]6)C=C5)C=C4)cc2)C1
REMARK SMILES IDX 25 1 24 2 23 3 22 4 20 5 21 6 19 7 1 8 2 9 3 10 94 11 4 12
REMARK SMILES IDX 5 13 6 14 7 15 8 16 9 17 10 19 11 20 12 22 13 23 14 24 17 25
REMARK SMILES IDX 15 26 16 27 18 28 26 29 27 30 28 31 29 32 30 33 31 34 32 35
REMARK SMILES IDX 93 36 33 37 92 38 34 39 35 40 36 41 86 42 37 43 91 44 85 45
REMARK SMILES IDX 87 46 38 47 90 48 84 49 83 50 39 52 71 53 51 54 70 55 52 56
REMARK SMILES IDX 55 57 69 58 88 59 53 60 54 61 68 63 89 64 56 65 40 66 41 67
REMARK SMILES IDX 49 68 42 69 44 70 50 71 43 72 45 73 46 74 47 75 48 76 72 77
REMARK SMILES IDX 73 78 81 79 74 80 76 81 82 82 75 83 77 84 78 85 79 86 80 87
REMARK SMILES IDX 57 88 58 89 66 90 59 91 61 92 67 93 60 94 62 95 63 96 64 97
REMARK SMILES IDX 65 98
REMARK H PARENT 9 18 10 21 87 51 55 62
REMARK Flexibility Score: inf
ROOT
ATOM      1  O   UNL     1      -1.291   6.111   1.902  1.00  0.00    -0.374 OA
ENDROOT
BRANCH   1   2
ATOM      2  C   UNL     1      -1.220   7.094   0.867  1.00  0.00     0.202 C 
BRANCH   2   3
ATOM      3  C   UNL     1      -0.101   6.901  -0.161  1.00  0.00     0.261 C 
BRANCH   3   4
ATOM      4  O   UNL     1      -0.150   5.639  -0.852  1.00  0.00    -0.463 OA
BRANCH   4   5
ATOM      5  C   UNL     1       0.796   4.741  -0.495  1.00  0.00     0.310 C 
ATOM      6  O   UNL     1       1.612   4.916   0.406  1.00  0.00    -0.252 OA
BRANCH   5   7
ATOM      7  C   UNL     1       0.801   3.467  -1.329  1.00  0.00     0.116 C 
ATOM      8  C   UNL     1       1.209  -0.165   0.058  1.00  0.00     0.039 C 
ATOM      9  C   UNL     1       0.818   0.908  -0.929  1.00  0.00    -0.073 C 
ATOM     10  C   UNL     1       0.277   0.702  -2.151  1.00  0.00    -0.074 C 
ATOM     11  C   UNL     1       1.017   2.297  -0.365  1.00  0.00     0.046 C 
ATOM     12  C   UNL     1      -0.032  -0.649  -2.748  1.00  0.00     0.039 C 
ATOM     13  C   UNL     1      -0.168   1.853  -3.037  1.00  0.00     0.045 C 
ATOM     14  C   UNL     1      -0.314   3.222  -2.354  1.00  0.00     0.099 C 
BRANCH  14  15
ATOM     15  C   UNL     1      -1.766   3.576  -2.000  1.00  0.00     0.242 C 
ATOM     16  O   UNL     1      -2.299   4.551  -2.545  1.00  0.00    -0.273 OA
ATOM     17  N   UNL     1      -2.556   2.877  -1.134  1.00  0.00    -0.267 N 
ATOM     18  H   UNL     1      -3.394   3.315  -0.860  1.00  0.00     0.191 HD
BRANCH  17  19
ATOM     19  N   UNL     1      -2.317   1.629  -0.597  1.00  0.00    -0.263 N 
ATOM     20  C   UNL     1      -3.153   0.902   0.235  1.00  0.00     0.280 C 
ATOM     21  H   UNL     1      -1.458   1.208  -0.831  1.00  0.00     0.191 HD
ATOM     22  O   UNL     1      -2.711  -0.159   0.683  1.00  0.00    -0.266 OA
BRANCH  20  23
ATOM     23  C   UNL     1      -4.463   1.425   0.578  1.00  0.00     0.096 A 
ATOM     24  S   UNL     1      -4.871   1.461   2.250  1.00  0.00    -0.138 S 
ATOM     25  C   UNL     1      -5.513   1.870  -0.218  1.00  0.00    -0.027 A 
ATOM     26  C   UNL     1      -6.355   2.237   1.940  1.00  0.00     0.066 A 
ATOM     27  C   UNL     1      -6.587   2.374   0.592  1.00  0.00     0.016 A 
ATOM     28  C   UNL     1      -5.577   1.856  -1.712  1.00  0.00     0.046 C 
ENDBRANCH  20  23
ENDBRANCH  17  19
ENDBRANCH  14  15
ENDBRANCH   5   7
ENDBRANCH   4   5
ENDBRANCH   3   4
ENDBRANCH   2   3
ENDBRANCH   1   2
BRANCH   1  29
ATOM     29  C   UNL     1      -1.999   4.909   1.592  1.00  0.00     0.202 C 
BRANCH  29  30
ATOM     30  C   UNL     1      -3.492   5.100   1.325  1.00  0.00     0.261 C 
BRANCH  30  31
ATOM     31  O   UNL     1      -3.689   5.615   0.000  1.00  0.00    -0.460 OA
BRANCH  31  32
ATOM     32  C   UNL     1      -4.973   5.877  -0.315  1.00  0.00     0.338 C 
ATOM     33  O   UNL     1      -5.973   5.481   0.263  1.00  0.00    -0.246 OA
BRANCH  32  34
ATOM     34  C   UNL     1      -4.985   6.911  -1.353  1.00  0.00     0.060 A 
ATOM     35  C   UNL     1      -4.980   8.243  -0.927  1.00  0.00     0.016 A 
ATOM     36  C   UNL     1      -5.062   6.586  -2.708  1.00  0.00     0.016 A 
ATOM     37  C   UNL     1      -5.087   9.264  -1.865  1.00  0.00     0.010 A 
ATOM     38  C   UNL     1      -5.158   7.616  -3.648  1.00  0.00     0.010 A 
ATOM     39  C   UNL     1      -5.197   8.956  -3.229  1.00  0.00    -0.014 A 
BRANCH  39  40
ATOM     40  C   UNL     1      -5.394  10.057  -4.199  1.00  0.00     0.031 A 
ATOM     41  C   UNL     1      -6.770  10.363  -4.714  1.00  0.00     0.074 A 
ATOM     42  C   UNL     1      -4.338  10.796  -4.584  1.00  0.00     0.049 A 
ATOM     43  N   UNL     1      -7.160  11.337  -5.493  1.00  0.00    -0.248 NA
ATOM     44  C   UNL     1      -7.852   9.456  -4.296  1.00  0.00     0.031 C 
ATOM     45  C   UNL     1      -2.954  10.564  -4.167  1.00  0.00     0.029 A 
ATOM     46  N   UNL     1      -4.261  11.880  -5.420  1.00  0.00    -0.354 N 
ATOM     47  C   UNL     1      -8.527  11.163  -5.663  1.00  0.00     0.074 A 
ATOM     48  C   UNL     1      -8.898   9.975  -4.925  1.00  0.00     0.031 C 
ATOM     49  C   UNL     1      -2.162  11.470  -4.764  1.00  0.00     0.029 A 
ATOM     50  C   UNL     1      -2.979  12.338  -5.608  1.00  0.00     0.049 A 
ATOM     51  H   UNL     1      -5.049  12.291  -5.844  1.00  0.00     0.167 HD
ATOM     52  C   UNL     1      -9.398  11.941  -6.350  1.00  0.00     0.034 A 
ATOM     53  C   UNL     1      -2.518  13.343  -6.379  1.00  0.00     0.034 A 
ATOM     54  C   UNL     1      -9.020  13.126  -7.071  1.00  0.00     0.049 A 
ATOM     55  C   UNL     1      -3.506  14.186  -7.140  1.00  0.00     0.074 A 
ATOM     56  C   UNL     1      -9.832  14.013  -7.756  1.00  0.00     0.029 A 
ATOM     57  N   UNL     1      -7.718  13.583  -7.213  1.00  0.00    -0.354 N 
ATOM     58  N   UNL     1      -4.815  14.101  -7.164  1.00  0.00    -0.248 NA
ATOM     59  C   UNL     1      -2.960  15.283  -7.951  1.00  0.00     0.031 C 
ATOM     60  C   UNL     1      -9.017  14.999  -8.325  1.00  0.00     0.029 A 
ATOM     61  C   UNL     1      -7.699  14.729  -7.988  1.00  0.00     0.049 A 
ATOM     62  H   UNL     1      -6.924  13.154  -6.820  1.00  0.00     0.167 HD
ATOM     63  C   UNL     1      -5.250  15.138  -7.981  1.00  0.00     0.074 A 
ATOM     64  C   UNL     1      -4.066  15.859  -8.403  1.00  0.00     0.031 C 
ATOM     65  C   UNL     1      -6.512  15.452  -8.366  1.00  0.00     0.034 A 
BRANCH  52  66
ATOM     66  C   UNL     1     -10.854  11.563  -6.305  1.00  0.00     0.023 A 
ATOM     67  C   UNL     1     -11.597  11.838  -5.139  1.00  0.00     0.012 A 
ATOM     68  C   UNL     1     -11.499  10.995  -7.420  1.00  0.00     0.148 A 
ATOM     69  C   UNL     1     -12.956  11.532  -5.074  1.00  0.00     0.002 A 
ATOM     70  C   UNL     1     -12.862  10.721  -7.359  1.00  0.00     0.091 A 
ATOM     71  F   UNL     1     -10.770  10.720  -8.510  1.00  0.00    -0.205 F 
ATOM     72  C   UNL     1     -13.589  10.983  -6.186  1.00  0.00     0.022 A 
BRANCH  70  73
ATOM     73  S   UNL     1     -13.782  10.062  -8.755  1.00  0.00     0.127 S 
ATOM     74  O   UNL     1     -14.027   8.687  -8.323  1.00  0.00    -0.237 OA
ATOM     75  O   UNL     1     -14.970  10.916  -8.773  1.00  0.00    -0.237 OA
ATOM     76  O   UNL     1     -12.912  10.210  -9.913  1.00  0.00    -0.744 OA
ENDBRANCH  70  73
ENDBRANCH  52  66
BRANCH  53  77
ATOM     77  C   UNL     1      -1.057  13.627  -6.423  1.00  0.00     0.023 A 
ATOM     78  C   UNL     1      -0.555  14.795  -5.818  1.00  0.00     0.012 A 
ATOM     79  C   UNL     1      -0.156  12.720  -7.015  1.00  0.00     0.148 A 
ATOM     80  C   UNL     1       0.815  15.063  -5.819  1.00  0.00     0.002 A 
ATOM     81  C   UNL     1       1.212  12.966  -6.963  1.00  0.00     0.091 A 
ATOM     82  F   UNL     1      -0.652  11.626  -7.611  1.00  0.00    -0.205 F 
ATOM     83  C   UNL     1       1.699  14.143  -6.377  1.00  0.00     0.022 A 
BRANCH  81  84
ATOM     84  S   UNL     1       2.409  11.753  -7.533  1.00  0.00     0.127 S 
ATOM     85  O   UNL     1       2.738  12.256  -8.863  1.00  0.00    -0.237 OA
ATOM     86  O   UNL     1       3.479  11.882  -6.543  1.00  0.00    -0.237 OA
ATOM     87  O   UNL     1       1.709  10.476  -7.483  1.00  0.00    -0.744 OA
ENDBRANCH  81  84
ENDBRANCH  53  77
BRANCH  65  88
ATOM     88  C   UNL     1      -6.678  16.616  -9.306  1.00  0.00     0.023 A 
ATOM     89  C   UNL     1      -6.343  16.453 -10.665  1.00  0.00     0.012 A 
ATOM     90  C   UNL     1      -7.230  17.835  -8.868  1.00  0.00     0.148 A 
ATOM     91  C   UNL     1      -6.533  17.495 -11.570  1.00  0.00     0.002 A 
ATOM     92  C   UNL     1      -7.453  18.856  -9.785  1.00  0.00     0.091 A 
ATOM     93  F   UNL     1      -7.522  17.976  -7.567  1.00  0.00    -0.205 F 
ATOM     94  C   UNL     1      -7.098  18.691 -11.134  1.00  0.00     0.022 A 
BRANCH  92  95
ATOM     95  S   UNL     1      -8.254  20.397  -9.326  1.00  0.00     0.127 S 
ATOM     96  O   UNL     1      -7.119  21.317  -9.268  1.00  0.00    -0.237 OA
ATOM     97  O   UNL     1      -9.166  20.624 -10.447  1.00  0.00    -0.237 OA
ATOM     98  O   UNL     1      -8.917  20.136  -8.055  1.00  0.00    -0.744 OA
ENDBRANCH  92  95
ENDBRANCH  65  88
ENDBRANCH  39  40
ENDBRANCH  32  34
ENDBRANCH  31  32
ENDBRANCH  30  31
ENDBRANCH  29  30
ENDBRANCH   1  29
TORSDOF 20
