REMARK SMILES CC1=C(C(=O)Nc2ccccc2)[C@@H](c2ccc(C(=O)OCCOCCOC(=O)c3ccc(-c4c5nc(c(-c6cccc(S(=O)(=O)[O-])c6F)c6ccc([nH]6)c(-c6cccc(S(=O)(=O)[O-])c6F)c6nc(c(-c7cccc(S(=O)(=O)[O-])c7F)c7ccc4[nH]7)C=C6)C=C5)cc3)cc2)n2ncnc2N1
REMARK SMILES IDX 23 1 22 2 21 3 20 4 18 5 19 6 17 7 14 8 15 9 93 10 16 11
REMARK SMILES IDX 92 12 13 13 1 14 2 15 3 16 99 17 98 18 94 20 97 21 95 22
REMARK SMILES IDX 96 23 4 24 5 25 6 26 7 28 8 29 12 30 9 31 11 32 10 33 24 34
REMARK SMILES IDX 25 35 26 36 27 37 28 38 29 39 30 40 91 41 31 42 90 43 32 44
REMARK SMILES IDX 33 45 34 46 84 47 35 48 89 49 83 50 85 51 36 52 88 53 82 54
REMARK SMILES IDX 81 55 37 57 69 58 49 59 68 60 50 61 53 62 67 63 86 64 51 65
REMARK SMILES IDX 52 66 66 68 87 69 54 70 38 71 39 72 47 73 40 74 42 75 48 76
REMARK SMILES IDX 41 77 43 78 44 79 45 80 46 81 70 82 71 83 79 84 72 85 74 86
REMARK SMILES IDX 80 87 73 88 75 89 76 90 77 91 78 92 55 93 56 94 64 95 57 96
REMARK SMILES IDX 59 97 65 98 58 99 60 100 61 101 62 102 63 103
REMARK H PARENT 99 19 6 27 85 56 53 67
REMARK Flexibility Score: inf
ROOT
ATOM      1  O   UNL     1      -8.812  -2.096  -0.968  1.00  0.00    -0.374 OA
ENDROOT
BRANCH   1   2
ATOM      2  C   UNL     1      -9.443  -2.518   0.242  1.00  0.00     0.202 C 
BRANCH   2   3
ATOM      3  C   UNL     1      -8.811  -3.671   1.024  1.00  0.00     0.261 C 
BRANCH   3   4
ATOM      4  O   UNL     1      -7.480  -3.372   1.467  1.00  0.00    -0.460 OA
BRANCH   4   5
ATOM      5  C   UNL     1      -6.504  -4.016   0.781  1.00  0.00     0.338 C 
ATOM      6  O   UNL     1      -6.654  -4.858  -0.089  1.00  0.00    -0.246 OA
BRANCH   5   7
ATOM      7  C   UNL     1      -5.182  -3.432   1.098  1.00  0.00     0.060 A 
ATOM      8  C   UNL     1      -2.557  -2.614   1.613  1.00  0.00    -0.019 A 
ATOM      9  C   UNL     1      -2.944  -2.925   0.304  1.00  0.00     0.007 A 
ATOM     10  C   UNL     1      -3.530  -2.613   2.637  1.00  0.00     0.007 A 
ATOM     11  C   UNL     1      -4.248  -3.345   0.054  1.00  0.00     0.016 A 
ATOM     12  C   UNL     1      -4.841  -3.015   2.383  1.00  0.00     0.016 A 
BRANCH   8  13
ATOM     13  C   UNL     1      -1.088  -2.463   1.996  1.00  0.00     0.179 C 
ATOM     14  C   UNL     1       2.095  -0.513   0.814  1.00  0.00     0.065 C 
ATOM     15  C   UNL     1       1.008  -1.542   0.992  1.00  0.00     0.026 C 
ATOM     16  C   UNL     1      -0.284  -1.306   1.356  1.00  0.00     0.065 C 
ATOM     17  N   UNL     1       1.489  -2.843   0.883  1.00  0.00    -0.328 N 
ATOM     18  C   UNL     1       0.805  -3.929   1.262  1.00  0.00     0.226 A 
ATOM     19  H   UNL     1       2.388  -2.972   0.503  1.00  0.00     0.169 HD
ATOM     20  N   UNL     1      -0.425  -3.768   1.826  1.00  0.00    -0.219 N 
ATOM     21  N   UNL     1       1.120  -5.199   1.230  1.00  0.00    -0.200 NA
ATOM     22  N   UNL     1      -0.920  -4.955   2.248  1.00  0.00    -0.157 NA
ATOM     23  C   UNL     1       0.040  -5.787   1.832  1.00  0.00     0.248 A 
BRANCH  16  24
ATOM     24  C   UNL     1      -0.977   0.013   1.527  1.00  0.00     0.255 C 
ATOM     25  O   UNL     1      -1.734   0.141   2.494  1.00  0.00    -0.269 OA
ATOM     26  N   UNL     1      -0.822   1.098   0.717  1.00  0.00    -0.322 N 
ATOM     27  H   UNL     1      -1.380   1.867   0.974  1.00  0.00     0.170 HD
BRANCH  26  28
ATOM     28  C   UNL     1      -0.025   1.333  -0.408  1.00  0.00     0.041 A 
ATOM     29  C   UNL     1       0.754   2.498  -0.374  1.00  0.00     0.026 A 
ATOM     30  C   UNL     1       0.105   0.444  -1.473  1.00  0.00     0.026 A 
ATOM     31  C   UNL     1       1.773   2.687  -1.306  1.00  0.00     0.002 A 
ATOM     32  C   UNL     1       1.092   0.667  -2.442  1.00  0.00     0.002 A 
ATOM     33  C   UNL     1       1.953   1.763  -2.331  1.00  0.00     0.000 A 
ENDBRANCH  26  28
ENDBRANCH  16  24
ENDBRANCH   8  13
ENDBRANCH   5   7
ENDBRANCH   4   5
ENDBRANCH   3   4
ENDBRANCH   2   3
ENDBRANCH   1   2
BRANCH   1  34
ATOM     34  C   UNL     1      -7.577  -1.390  -0.907  1.00  0.00     0.202 C 
BRANCH  34  35
ATOM     35  C   UNL     1      -7.562   0.024  -0.350  1.00  0.00     0.261 C 
BRANCH  35  36
ATOM     36  O   UNL     1      -8.061   0.096   0.973  1.00  0.00    -0.460 OA
BRANCH  36  37
ATOM     37  C   UNL     1      -9.324   0.581   1.033  1.00  0.00     0.338 C 
ATOM     38  O   UNL     1     -10.161   0.566   0.150  1.00  0.00    -0.246 OA
BRANCH  37  39
ATOM     39  C   UNL     1      -9.478   1.319   2.287  1.00  0.00     0.060 A 
ATOM     40  C   UNL     1     -10.723   1.913   2.499  1.00  0.00     0.016 A 
ATOM     41  C   UNL     1      -8.340   1.666   3.029  1.00  0.00     0.016 A 
ATOM     42  C   UNL     1     -10.782   3.010   3.324  1.00  0.00     0.010 A 
ATOM     43  C   UNL     1      -8.394   2.778   3.830  1.00  0.00     0.010 A 
ATOM     44  C   UNL     1      -9.597   3.473   3.908  1.00  0.00    -0.014 A 
BRANCH  44  45
ATOM     45  C   UNL     1      -9.684   4.619   4.781  1.00  0.00     0.031 A 
ATOM     46  C   UNL     1     -10.307   4.256   6.072  1.00  0.00     0.074 A 
ATOM     47  C   UNL     1      -9.172   5.819   4.453  1.00  0.00     0.049 A 
ATOM     48  N   UNL     1     -11.483   4.594   6.481  1.00  0.00    -0.248 NA
ATOM     49  C   UNL     1      -9.671   3.203   6.883  1.00  0.00     0.031 C 
ATOM     50  C   UNL     1      -8.327   6.151   3.304  1.00  0.00     0.029 A 
ATOM     51  N   UNL     1      -9.184   6.976   5.167  1.00  0.00    -0.354 N 
ATOM     52  C   UNL     1     -11.606   4.013   7.738  1.00  0.00     0.074 A 
ATOM     53  C   UNL     1     -10.611   2.981   7.802  1.00  0.00     0.031 C 
ATOM     54  C   UNL     1      -7.703   7.327   3.543  1.00  0.00     0.029 A 
ATOM     55  C   UNL     1      -8.184   7.873   4.801  1.00  0.00     0.049 A 
ATOM     56  H   UNL     1      -9.841   7.163   5.876  1.00  0.00     0.167 HD
ATOM     57  C   UNL     1     -12.290   4.655   8.722  1.00  0.00     0.034 A 
ATOM     58  C   UNL     1      -7.728   8.920   5.537  1.00  0.00     0.034 A 
ATOM     59  C   UNL     1     -13.132   5.688   8.165  1.00  0.00     0.049 A 
ATOM     60  C   UNL     1      -8.755   9.221   6.564  1.00  0.00     0.074 A 
ATOM     61  C   UNL     1     -14.146   5.716   7.226  1.00  0.00     0.029 A 
ATOM     62  N   UNL     1     -12.677   6.980   8.280  1.00  0.00    -0.354 N 
ATOM     63  N   UNL     1      -9.923   9.724   6.279  1.00  0.00    -0.248 NA
ATOM     64  C   UNL     1      -8.667   8.528   7.841  1.00  0.00     0.031 C 
ATOM     65  C   UNL     1     -13.944   6.927   6.503  1.00  0.00     0.029 A 
ATOM     66  C   UNL     1     -12.880   7.616   7.087  1.00  0.00     0.049 A 
ATOM     67  H   UNL     1     -12.274   7.379   9.085  1.00  0.00     0.167 HD
ATOM     68  C   UNL     1     -10.804   8.992   7.064  1.00  0.00     0.074 A 
ATOM     69  C   UNL     1      -9.970   8.357   8.085  1.00  0.00     0.031 C 
ATOM     70  C   UNL     1     -12.067   8.718   6.624  1.00  0.00     0.034 A 
BRANCH  57  71
ATOM     71  C   UNL     1     -11.884   4.673  10.182  1.00  0.00     0.023 A 
ATOM     72  C   UNL     1     -12.735   5.385  11.058  1.00  0.00     0.012 A 
ATOM     73  C   UNL     1     -10.614   4.307  10.687  1.00  0.00     0.148 A 
ATOM     74  C   UNL     1     -12.309   5.796  12.324  1.00  0.00     0.002 A 
ATOM     75  C   UNL     1     -10.220   4.656  11.973  1.00  0.00     0.091 A 
ATOM     76  F   UNL     1      -9.712   3.719   9.901  1.00  0.00    -0.205 F 
ATOM     77  C   UNL     1     -11.049   5.434  12.782  1.00  0.00     0.022 A 
BRANCH  75  78
ATOM     78  S   UNL     1      -8.616   4.181  12.635  1.00  0.00     0.127 S 
ATOM     79  O   UNL     1      -7.944   5.474  12.730  1.00  0.00    -0.237 OA
ATOM     80  O   UNL     1      -8.992   3.580  13.914  1.00  0.00    -0.237 OA
ATOM     81  O   UNL     1      -8.047   3.242  11.676  1.00  0.00    -0.744 OA
ENDBRANCH  75  78
ENDBRANCH  57  71
BRANCH  58  82
ATOM     82  C   UNL     1      -6.375   9.529   5.604  1.00  0.00     0.023 A 
ATOM     83  C   UNL     1      -6.208  10.800   6.193  1.00  0.00     0.012 A 
ATOM     84  C   UNL     1      -5.216   8.763   5.351  1.00  0.00     0.148 A 
ATOM     85  C   UNL     1      -4.939  11.275   6.548  1.00  0.00     0.002 A 
ATOM     86  C   UNL     1      -3.955   9.243   5.696  1.00  0.00     0.091 A 
ATOM     87  F   UNL     1      -5.351   7.523   4.865  1.00  0.00    -0.205 F 
ATOM     88  C   UNL     1      -3.812  10.494   6.307  1.00  0.00     0.022 A 
BRANCH  86  89
ATOM     89  S   UNL     1      -2.464   8.270   5.437  1.00  0.00     0.127 S 
ATOM     90  O   UNL     1      -1.563   9.248   4.826  1.00  0.00    -0.237 OA
ATOM     91  O   UNL     1      -2.114   7.884   6.801  1.00  0.00    -0.237 OA
ATOM     92  O   UNL     1      -2.848   7.179   4.550  1.00  0.00    -0.744 OA
ENDBRANCH  86  89
ENDBRANCH  58  82
BRANCH  70  93
ATOM     93  C   UNL     1     -12.579   9.464   5.419  1.00  0.00     0.023 A 
ATOM     94  C   UNL     1     -11.970   9.389   4.148  1.00  0.00     0.012 A 
ATOM     95  C   UNL     1     -13.805  10.137   5.544  1.00  0.00     0.148 A 
ATOM     96  C   UNL     1     -12.559   9.998   3.037  1.00  0.00     0.002 A 
ATOM     97  C   UNL     1     -14.413  10.695   4.429  1.00  0.00     0.091 A 
ATOM     98  F   UNL     1     -14.372  10.202   6.759  1.00  0.00    -0.205 F 
ATOM     99  C   UNL     1     -13.789  10.640   3.174  1.00  0.00     0.022 A 
BRANCH  97 100
ATOM    100  S   UNL     1     -16.051  11.415   4.538  1.00  0.00     0.127 S 
ATOM    101  O   UNL     1     -15.752  12.844   4.600  1.00  0.00    -0.237 OA
ATOM    102  O   UNL     1     -16.677  10.973   3.290  1.00  0.00    -0.237 OA
ATOM    103  O   UNL     1     -16.656  10.844   5.736  1.00  0.00    -0.744 OA
ENDBRANCH  97 100
ENDBRANCH  70  93
ENDBRANCH  44  45
ENDBRANCH  37  39
ENDBRANCH  36  37
ENDBRANCH  35  36
ENDBRANCH  34  35
ENDBRANCH   1  34
TORSDOF 20
