REMARK SMILES CC(C)OCCS(=O)(=O)Nc1ccc(O)c(C(=O)OCCOCCOC(=O)c2ccc(-c3c4nc(c(-c5cccc(S(=O)(=O)[O-])c5F)c5ccc([nH]5)c(-c5cccc(S(=O)(=O)[O-])c5F)c5nc(c(-c6cccc(S(=O)(=O)[O-])c6F)c6ccc3[nH]6)C=C5)C=C4)cc2)c1
REMARK SMILES IDX 20 1 19 2 17 3 18 4 16 5 11 6 12 7 91 8 13 9 14 10 10 11
REMARK SMILES IDX 7 13 8 14 9 15 6 16 5 17 4 18 2 19 1 20 3 21 15 22 21 24
REMARK SMILES IDX 22 25 23 26 24 27 25 28 26 29 27 30 28 31 29 32 90 33 30 34
REMARK SMILES IDX 89 35 31 36 32 37 33 38 83 39 34 40 88 41 82 42 84 43 35 44
REMARK SMILES IDX 87 45 81 46 80 47 36 49 68 50 48 51 67 52 49 53 52 54 66 55
REMARK SMILES IDX 85 56 50 57 51 58 65 60 86 61 53 62 37 63 38 64 46 65 39 66
REMARK SMILES IDX 41 67 47 68 40 69 42 70 43 71 44 72 45 73 69 74 70 75 78 76
REMARK SMILES IDX 71 77 73 78 79 79 72 80 74 81 75 82 76 83 77 84 54 85 55 86
REMARK SMILES IDX 63 87 56 88 58 89 64 90 57 91 59 92 60 93 61 94 62 95
REMARK H PARENT 10 12 15 23 84 48 52 59
REMARK Flexibility Score: inf
ROOT
ATOM      1  C   UNL     1      -0.528   2.364  -8.641  1.00  0.00     0.261 C 
ENDROOT
BRANCH   1   2
ATOM      2  O   UNL     1      -1.026   1.945  -7.369  1.00  0.00    -0.460 OA
BRANCH   2   3
ATOM      3  C   UNL     1      -0.961   0.624  -7.077  1.00  0.00     0.342 C 
ATOM      4  O   UNL     1      -0.708  -0.282  -7.842  1.00  0.00    -0.246 OA
BRANCH   3   5
ATOM      5  C   UNL     1      -0.934   0.490  -5.597  1.00  0.00     0.103 A 
ATOM      6  C   UNL     1       0.246  -0.470  -3.733  1.00  0.00     0.050 A 
ATOM      7  C   UNL     1      -0.259   0.543  -2.920  1.00  0.00     0.030 A 
ATOM      8  C   UNL     1      -0.071  -0.491  -5.081  1.00  0.00     0.046 A 
ATOM      9  C   UNL     1      -1.202   1.447  -3.395  1.00  0.00     0.049 A 
ATOM     10  C   UNL     1      -1.558   1.406  -4.734  1.00  0.00     0.130 A 
BRANCH   6  11
ATOM     11  N   UNL     1       1.135  -1.424  -3.184  1.00  0.00    -0.283 N 
ATOM     12  H   UNL     1       2.103  -1.246  -3.207  1.00  0.00     0.180 HD
BRANCH  11  13
ATOM     13  S   UNL     1       0.584  -2.844  -2.501  1.00  0.00     0.235 S 
ATOM     14  O   UNL     1       1.621  -3.263  -1.578  1.00  0.00    -0.207 OA
ATOM     15  O   UNL     1       0.208  -3.718  -3.592  1.00  0.00    -0.207 OA
BRANCH  13  16
ATOM     16  C   UNL     1      -0.907  -2.482  -1.564  1.00  0.00     0.188 C 
BRANCH  16  17
ATOM     17  C   UNL     1      -0.708  -2.003  -0.130  1.00  0.00     0.178 C 
BRANCH  17  18
ATOM     18  O   UNL     1      -0.651  -0.580  -0.046  1.00  0.00    -0.378 OA
BRANCH  18  19
ATOM     19  C   UNL     1       0.467   0.030   0.608  1.00  0.00     0.112 C 
ATOM     20  C   UNL     1       0.401  -0.036   2.124  1.00  0.00     0.038 C 
ATOM     21  C   UNL     1       1.812  -0.462   0.099  1.00  0.00     0.038 C 
ENDBRANCH  18  19
ENDBRANCH  17  18
ENDBRANCH  16  17
ENDBRANCH  13  16
ENDBRANCH  11  13
ENDBRANCH   6  11
BRANCH  10  22
ATOM     22  O   UNL     1      -2.493   2.286  -5.193  1.00  0.00    -0.507 OA
ATOM     23  H   UNL     1      -2.898   2.890  -4.602  1.00  0.00     0.293 HD
ENDBRANCH  10  22
ENDBRANCH   3   5
ENDBRANCH   2   3
ENDBRANCH   1   2
BRANCH   1  24
ATOM     24  C   UNL     1       0.598   3.378  -8.425  1.00  0.00     0.202 C 
BRANCH  24  25
ATOM     25  O   UNL     1       1.768   2.884  -7.768  1.00  0.00    -0.374 OA
BRANCH  25  26
ATOM     26  C   UNL     1       1.751   2.908  -6.337  1.00  0.00     0.202 C 
BRANCH  26  27
ATOM     27  C   UNL     1       2.031   4.264  -5.672  1.00  0.00     0.261 C 
BRANCH  27  28
ATOM     28  O   UNL     1       0.927   5.177  -5.816  1.00  0.00    -0.460 OA
BRANCH  28  29
ATOM     29  C   UNL     1       1.133   6.193  -6.689  1.00  0.00     0.338 C 
ATOM     30  O   UNL     1       2.165   6.458  -7.282  1.00  0.00    -0.246 OA
BRANCH  29  31
ATOM     31  C   UNL     1      -0.154   6.846  -6.995  1.00  0.00     0.060 A 
ATOM     32  C   UNL     1      -0.567   6.871  -8.334  1.00  0.00     0.016 A 
ATOM     33  C   UNL     1      -0.914   7.470  -6.005  1.00  0.00     0.016 A 
ATOM     34  C   UNL     1      -1.728   7.550  -8.693  1.00  0.00     0.010 A 
ATOM     35  C   UNL     1      -2.074   8.161  -6.370  1.00  0.00     0.010 A 
ATOM     36  C   UNL     1      -2.470   8.230  -7.719  1.00  0.00    -0.014 A 
BRANCH  36  37
ATOM     37  C   UNL     1      -3.591   9.108  -8.131  1.00  0.00     0.031 A 
ATOM     38  C   UNL     1      -3.393  10.599  -8.137  1.00  0.00     0.074 A 
ATOM     39  C   UNL     1      -4.774   8.581  -8.496  1.00  0.00     0.049 A 
ATOM     40  N   UNL     1      -4.247  11.546  -8.420  1.00  0.00    -0.248 NA
ATOM     41  C   UNL     1      -2.052  11.087  -7.772  1.00  0.00     0.031 C 
ATOM     42  C   UNL     1      -5.083   7.152  -8.539  1.00  0.00     0.029 A 
ATOM     43  N   UNL     1      -5.943   9.191  -8.875  1.00  0.00    -0.354 N 
ATOM     44  C   UNL     1      -3.564  12.742  -8.234  1.00  0.00     0.074 A 
ATOM     45  C   UNL     1      -2.225  12.400  -7.804  1.00  0.00     0.031 C 
ATOM     46  C   UNL     1      -6.369   6.997  -8.895  1.00  0.00     0.029 A 
ATOM     47  C   UNL     1      -6.980   8.312  -9.073  1.00  0.00     0.049 A 
ATOM     48  H   UNL     1      -6.030  10.165  -8.994  1.00  0.00     0.167 HD
ATOM     49  C   UNL     1      -4.007  14.008  -8.416  1.00  0.00     0.034 A 
ATOM     50  C   UNL     1      -8.281   8.543  -9.338  1.00  0.00     0.034 A 
ATOM     51  C   UNL     1      -5.335  14.341  -8.858  1.00  0.00     0.049 A 
ATOM     52  C   UNL     1      -8.757   9.963  -9.505  1.00  0.00     0.074 A 
ATOM     53  C   UNL     1      -5.864  15.593  -9.123  1.00  0.00     0.029 A 
ATOM     54  N   UNL     1      -6.349  13.424  -9.082  1.00  0.00    -0.354 N 
ATOM     55  N   UNL     1      -8.071  11.078  -9.435  1.00  0.00    -0.248 NA
ATOM     56  C   UNL     1     -10.181  10.154  -9.817  1.00  0.00     0.031 C 
ATOM     57  C   UNL     1      -7.210  15.434  -9.464  1.00  0.00     0.029 A 
ATOM     58  C   UNL     1      -7.508  14.081  -9.460  1.00  0.00     0.049 A 
ATOM     59  H   UNL     1      -6.260  12.448  -8.986  1.00  0.00     0.167 HD
ATOM     60  C   UNL     1      -8.969  12.099  -9.732  1.00  0.00     0.074 A 
ATOM     61  C   UNL     1     -10.244  11.466 -10.000  1.00  0.00     0.031 C 
ATOM     62  C   UNL     1      -8.760  13.438  -9.768  1.00  0.00     0.034 A 
BRANCH  49  63
ATOM     63  C   UNL     1      -3.044  15.135  -8.143  1.00  0.00     0.023 A 
ATOM     64  C   UNL     1      -1.962  15.364  -9.017  1.00  0.00     0.012 A 
ATOM     65  C   UNL     1      -3.246  16.002  -7.051  1.00  0.00     0.148 A 
ATOM     66  C   UNL     1      -1.076  16.417  -8.789  1.00  0.00     0.002 A 
ATOM     67  C   UNL     1      -2.388  17.078  -6.858  1.00  0.00     0.091 A 
ATOM     68  F   UNL     1      -4.268  15.755  -6.220  1.00  0.00    -0.205 F 
ATOM     69  C   UNL     1      -1.296  17.279  -7.718  1.00  0.00     0.022 A 
BRANCH  67  70
ATOM     70  S   UNL     1      -2.632  18.291  -5.556  1.00  0.00     0.127 S 
ATOM     71  O   UNL     1      -1.496  18.013  -4.678  1.00  0.00    -0.237 OA
ATOM     72  O   UNL     1      -2.540  19.552  -6.292  1.00  0.00    -0.237 OA
ATOM     73  O   UNL     1      -3.942  18.012  -4.986  1.00  0.00    -0.744 OA
ENDBRANCH  67  70
ENDBRANCH  49  63
BRANCH  50  74
ATOM     74  C   UNL     1      -9.228   7.401  -9.477  1.00  0.00     0.023 A 
ATOM     75  C   UNL     1      -9.796   7.111 -10.732  1.00  0.00     0.012 A 
ATOM     76  C   UNL     1      -9.558   6.593  -8.370  1.00  0.00     0.148 A 
ATOM     77  C   UNL     1     -10.702   6.059 -10.876  1.00  0.00     0.002 A 
ATOM     78  C   UNL     1     -10.415   5.512  -8.532  1.00  0.00     0.091 A 
ATOM     79  F   UNL     1      -9.017   6.895  -7.181  1.00  0.00    -0.205 F 
ATOM     80  C   UNL     1     -11.003   5.254  -9.780  1.00  0.00     0.022 A 
BRANCH  78  81
ATOM     81  S   UNL     1     -10.759   4.349  -7.208  1.00  0.00     0.127 S 
ATOM     82  O   UNL     1     -12.168   4.617  -6.934  1.00  0.00    -0.237 OA
ATOM     83  O   UNL     1     -10.489   3.066  -7.858  1.00  0.00    -0.237 OA
ATOM     84  O   UNL     1      -9.833   4.686  -6.135  1.00  0.00    -0.744 OA
ENDBRANCH  78  81
ENDBRANCH  50  74
BRANCH  62  85
ATOM     85  C   UNL     1      -9.922  14.319 -10.155  1.00  0.00     0.023 A 
ATOM     86  C   UNL     1     -11.003  14.494  -9.268  1.00  0.00     0.012 A 
ATOM     87  C   UNL     1      -9.905  15.030 -11.372  1.00  0.00     0.148 A 
ATOM     88  C   UNL     1     -12.067  15.331  -9.604  1.00  0.00     0.002 A 
ATOM     89  C   UNL     1     -10.942  15.904 -11.675  1.00  0.00     0.091 A 
ATOM     90  F   UNL     1      -8.875  14.840 -12.209  1.00  0.00    -0.205 F 
ATOM     91  C   UNL     1     -12.031  16.044 -10.800  1.00  0.00     0.022 A 
BRANCH  89  92
ATOM     92  S   UNL     1     -10.934  16.939 -13.144  1.00  0.00     0.127 S 
ATOM     93  O   UNL     1     -12.006  16.338 -13.937  1.00  0.00    -0.237 OA
ATOM     94  O   UNL     1     -11.249  18.257 -12.593  1.00  0.00    -0.237 OA
ATOM     95  O   UNL     1      -9.598  16.823 -13.713  1.00  0.00    -0.744 OA
ENDBRANCH  89  92
ENDBRANCH  62  85
ENDBRANCH  36  37
ENDBRANCH  29  31
ENDBRANCH  28  29
ENDBRANCH  27  28
ENDBRANCH  26  27
ENDBRANCH  25  26
ENDBRANCH  24  25
ENDBRANCH   1  24
TORSDOF 24
