REMARK SMILES Cc1cc(N(C)[C@H](C)C(=O)OCCOCCOC(=O)c2ccc(-c3c4nc(c(-c5cccc(S(=O)(=O)[O-])c5F)c5ccc([nH]5)c(-c5cccc(S(=O)(=O)[O-])c5F)c5nc(c(-c6cccc(S(=O)(=O)[O-])c6F)c6ccc3[nH]6)C=C5)C=C4)cc2)ncc1[N+](=O)[O-]
REMARK SMILES IDX 14 1 13 2 12 3 11 4 9 5 10 6 7 7 8 8 5 9 6 10 4 11 1 12 2 13
REMARK SMILES IDX 3 14 85 15 84 16 83 17 86 18 87 19 88 20 15 21 16 22 17 23
REMARK SMILES IDX 18 24 19 25 20 26 21 27 82 28 22 29 81 30 23 31 24 32 25 33
REMARK SMILES IDX 75 34 26 35 80 36 74 37 76 38 27 39 79 40 73 41 72 42 28 44
REMARK SMILES IDX 60 45 40 46 59 47 41 48 44 49 58 50 77 51 42 52 43 53 57 55
REMARK SMILES IDX 78 56 45 57 29 58 30 59 38 60 31 61 33 62 39 63 32 64 34 65
REMARK SMILES IDX 35 66 36 67 37 68 61 69 62 70 70 71 63 72 65 73 71 74 64 75
REMARK SMILES IDX 66 76 67 77 68 78 69 79 46 80 47 81 55 82 48 83 50 84 56 85
REMARK SMILES IDX 49 86 51 87 52 88 53 89 54 90
REMARK H PARENT 76 43 44 54
REMARK Flexibility Score: inf
ROOT
ATOM      1  O   UNL     1       3.968   1.950  -4.183  1.00  0.00    -0.374 OA
ENDROOT
BRANCH   1   2
ATOM      2  C   UNL     1       4.101   0.576  -3.817  1.00  0.00     0.202 C 
BRANCH   2   3
ATOM      3  C   UNL     1       4.757   0.290  -2.464  1.00  0.00     0.261 C 
BRANCH   3   4
ATOM      4  O   UNL     1       3.926   0.734  -1.378  1.00  0.00    -0.462 OA
BRANCH   4   5
ATOM      5  C   UNL     1       4.459   1.695  -0.569  1.00  0.00     0.328 C 
ATOM      6  O   UNL     1       5.609   2.113  -0.657  1.00  0.00    -0.250 OA
BRANCH   5   7
ATOM      7  C   UNL     1       3.454   2.183   0.492  1.00  0.00     0.190 C 
ATOM      8  C   UNL     1       1.977   2.124   0.092  1.00  0.00     0.044 C 
BRANCH   7   9
ATOM      9  N   UNL     1       3.663   1.473   1.771  1.00  0.00    -0.346 N 
ATOM     10  C   UNL     1       3.493   0.026   1.798  1.00  0.00     0.146 C 
BRANCH   9  11
ATOM     11  C   UNL     1       4.311   2.159   2.782  1.00  0.00     0.129 A 
ATOM     12  C   UNL     1       5.857   1.478   6.178  1.00  0.00     0.052 C 
ATOM     13  C   UNL     1       5.404   2.255   4.976  1.00  0.00     0.032 A 
ATOM     14  C   UNL     1       4.780   1.531   3.938  1.00  0.00     0.057 A 
ATOM     15  C   UNL     1       5.511   3.637   4.814  1.00  0.00     0.290 A 
ATOM     16  C   UNL     1       5.049   4.205   3.641  1.00  0.00     0.199 A 
ATOM     17  N   UNL     1       4.459   3.497   2.650  1.00  0.00    -0.232 NA
BRANCH  15  18
ATOM     18  N   UNL     1       6.057   4.537   5.815  1.00  0.00     0.064 N 
ATOM     19  O   UNL     1       6.661   5.542   5.410  1.00  0.00    -0.258 OA
ATOM     20  O   UNL     1       5.855   4.277   7.008  1.00  0.00    -0.258 OA
ENDBRANCH  15  18
ENDBRANCH   9  11
ENDBRANCH   7   9
ENDBRANCH   5   7
ENDBRANCH   4   5
ENDBRANCH   3   4
ENDBRANCH   2   3
ENDBRANCH   1   2
BRANCH   1  21
ATOM     21  C   UNL     1       2.968   2.717  -3.516  1.00  0.00     0.202 C 
BRANCH  21  22
ATOM     22  C   UNL     1       1.512   2.480  -3.939  1.00  0.00     0.261 C 
BRANCH  22  23
ATOM     23  O   UNL     1       1.055   1.147  -3.651  1.00  0.00    -0.460 OA
BRANCH  23  24
ATOM     24  C   UNL     1       0.799   0.390  -4.744  1.00  0.00     0.338 C 
ATOM     25  O   UNL     1       0.860   0.747  -5.917  1.00  0.00    -0.246 OA
BRANCH  24  26
ATOM     26  C   UNL     1       0.591  -1.019  -4.370  1.00  0.00     0.060 A 
ATOM     27  C   UNL     1       1.391  -1.978  -5.001  1.00  0.00     0.016 A 
ATOM     28  C   UNL     1      -0.430  -1.409  -3.499  1.00  0.00     0.016 A 
ATOM     29  C   UNL     1       1.141  -3.335  -4.808  1.00  0.00     0.010 A 
ATOM     30  C   UNL     1      -0.686  -2.773  -3.313  1.00  0.00     0.010 A 
ATOM     31  C   UNL     1       0.074  -3.741  -3.998  1.00  0.00    -0.014 A 
BRANCH  31  32
ATOM     32  C   UNL     1      -0.329  -5.169  -3.985  1.00  0.00     0.031 A 
ATOM     33  C   UNL     1      -1.486  -5.613  -4.838  1.00  0.00     0.074 A 
ATOM     34  C   UNL     1       0.341  -6.064  -3.237  1.00  0.00     0.049 A 
ATOM     35  N   UNL     1      -1.996  -6.808  -4.982  1.00  0.00    -0.248 NA
ATOM     36  C   UNL     1      -2.156  -4.573  -5.637  1.00  0.00     0.031 C 
ATOM     37  C   UNL     1       1.480  -5.758  -2.373  1.00  0.00     0.029 A 
ATOM     38  N   UNL     1       0.145  -7.413  -3.072  1.00  0.00    -0.354 N 
ATOM     39  C   UNL     1      -3.058  -6.664  -5.867  1.00  0.00     0.074 A 
ATOM     40  C   UNL     1      -3.129  -5.261  -6.217  1.00  0.00     0.031 C 
ATOM     41  C   UNL     1       1.865  -6.884  -1.747  1.00  0.00     0.029 A 
ATOM     42  C   UNL     1       0.992  -7.984  -2.153  1.00  0.00     0.049 A 
ATOM     43  H   UNL     1      -0.538  -7.923  -3.566  1.00  0.00     0.167 HD
ATOM     44  C   UNL     1      -3.887  -7.614  -6.361  1.00  0.00     0.034 A 
ATOM     45  C   UNL     1       1.045  -9.246  -1.681  1.00  0.00     0.034 A 
ATOM     46  C   UNL     1      -3.802  -9.011  -6.034  1.00  0.00     0.049 A 
ATOM     47  C   UNL     1       0.096 -10.279  -2.230  1.00  0.00     0.074 A 
ATOM     48  C   UNL     1      -4.567 -10.056  -6.521  1.00  0.00     0.029 A 
ATOM     49  N   UNL     1      -2.907  -9.558  -5.128  1.00  0.00    -0.354 N 
ATOM     50  N   UNL     1      -0.817 -10.150  -3.163  1.00  0.00    -0.248 NA
ATOM     51  C   UNL     1       0.205 -11.641  -1.685  1.00  0.00     0.031 C 
ATOM     52  C   UNL     1      -4.146 -11.234  -5.894  1.00  0.00     0.029 A 
ATOM     53  C   UNL     1      -3.108 -10.924  -5.031  1.00  0.00     0.049 A 
ATOM     54  H   UNL     1      -2.229  -9.050  -4.627  1.00  0.00     0.167 HD
ATOM     55  C   UNL     1      -1.365 -11.416  -3.340  1.00  0.00     0.074 A 
ATOM     56  C   UNL     1      -0.667 -12.304  -2.433  1.00  0.00     0.031 C 
ATOM     57  C   UNL     1      -2.368 -11.806  -4.165  1.00  0.00     0.034 A 
BRANCH  44  58
ATOM     58  C   UNL     1      -4.940  -7.179  -7.345  1.00  0.00     0.023 A 
ATOM     59  C   UNL     1      -4.566  -6.861  -8.666  1.00  0.00     0.012 A 
ATOM     60  C   UNL     1      -6.301  -7.143  -6.982  1.00  0.00     0.148 A 
ATOM     61  C   UNL     1      -5.527  -6.490  -9.606  1.00  0.00     0.002 A 
ATOM     62  C   UNL     1      -7.257  -6.810  -7.935  1.00  0.00     0.091 A 
ATOM     63  F   UNL     1      -6.632  -7.425  -5.714  1.00  0.00    -0.205 F 
ATOM     64  C   UNL     1      -6.871  -6.475  -9.243  1.00  0.00     0.022 A 
BRANCH  62  65
ATOM     65  S   UNL     1      -9.018  -6.829  -7.584  1.00  0.00     0.127 S 
ATOM     66  O   UNL     1      -9.328  -5.400  -7.553  1.00  0.00    -0.237 OA
ATOM     67  O   UNL     1      -9.556  -7.545  -8.741  1.00  0.00    -0.237 OA
ATOM     68  O   UNL     1      -9.166  -7.529  -6.316  1.00  0.00    -0.744 OA
ENDBRANCH  62  65
ENDBRANCH  44  58
BRANCH  45  69
ATOM     69  C   UNL     1       2.062  -9.614  -0.656  1.00  0.00     0.023 A 
ATOM     70  C   UNL     1       3.122 -10.474  -1.004  1.00  0.00     0.012 A 
ATOM     71  C   UNL     1       1.996  -9.103   0.655  1.00  0.00     0.148 A 
ATOM     72  C   UNL     1       4.080 -10.841  -0.058  1.00  0.00     0.002 A 
ATOM     73  C   UNL     1       2.984  -9.427   1.576  1.00  0.00     0.091 A 
ATOM     74  F   UNL     1       0.967  -8.304   0.975  1.00  0.00    -0.205 F 
ATOM     75  C   UNL     1       4.018 -10.309   1.228  1.00  0.00     0.022 A 
BRANCH  73  76
ATOM     76  S   UNL     1       3.053  -8.676   3.207  1.00  0.00     0.127 S 
ATOM     77  O   UNL     1       2.599  -9.770   4.061  1.00  0.00    -0.237 OA
ATOM     78  O   UNL     1       4.473  -8.344   3.331  1.00  0.00    -0.237 OA
ATOM     79  O   UNL     1       2.176  -7.515   3.138  1.00  0.00    -0.744 OA
ENDBRANCH  73  76
ENDBRANCH  45  69
BRANCH  57  80
ATOM     80  C   UNL     1      -2.761 -13.261  -4.153  1.00  0.00     0.023 A 
ATOM     81  C   UNL     1      -3.489 -13.776  -3.062  1.00  0.00     0.012 A 
ATOM     82  C   UNL     1      -2.482 -14.095  -5.254  1.00  0.00     0.148 A 
ATOM     83  C   UNL     1      -3.907 -15.106  -3.053  1.00  0.00     0.002 A 
ATOM     84  C   UNL     1      -2.942 -15.407  -5.258  1.00  0.00     0.091 A 
ATOM     85  F   UNL     1      -1.773 -13.592  -6.274  1.00  0.00    -0.205 F 
ATOM     86  C   UNL     1      -3.645 -15.917  -4.155  1.00  0.00     0.022 A 
BRANCH  84  87
ATOM     87  S   UNL     1      -2.729 -16.494  -6.673  1.00  0.00     0.127 S 
ATOM     88  O   UNL     1      -1.666 -17.384  -6.209  1.00  0.00    -0.237 OA
ATOM     89  O   UNL     1      -4.046 -17.124  -6.784  1.00  0.00    -0.237 OA
ATOM     90  O   UNL     1      -2.380 -15.629  -7.792  1.00  0.00    -0.744 OA
ENDBRANCH  84  87
ENDBRANCH  57  80
ENDBRANCH  31  32
ENDBRANCH  24  26
ENDBRANCH  23  24
ENDBRANCH  22  23
ENDBRANCH  21  22
ENDBRANCH   1  21
TORSDOF 20
