REMARK SMILES C[C@H](NC(=O)c1cc(S(=O)(=O)N(C)C)cs1)C(=O)OCCOCCOC(=O)c1ccc(-c2c3nc(c(-c4cccc(S(=O)(=O)[O-])c4F)c4ccc([nH]4)c(-c4cccc(S(=O)(=O)[O-])c4F)c4nc(c(-c5cccc(S(=O)(=O)[O-])c5F)c5ccc2[nH]5)C=C4)C=C3)cc1
REMARK SMILES IDX 21 1 20 2 19 3 17 4 18 5 2 6 1 7 3 8 4 9 5 11 6 12 7 13
REMARK SMILES IDX 16 14 8 15 15 16 9 17 10 18 11 19 12 20 13 21 14 22 22 23
REMARK SMILES IDX 23 24 24 25 25 26 26 27 27 28 28 29 29 30 90 31 30 32 89 33
REMARK SMILES IDX 31 34 32 35 33 36 83 37 34 38 88 39 82 40 84 41 35 42 87 43
REMARK SMILES IDX 81 44 80 45 36 47 68 48 48 49 67 50 49 51 52 52 66 53 85 54
REMARK SMILES IDX 50 55 51 56 65 58 86 59 53 60 37 61 38 62 46 63 39 64 41 65
REMARK SMILES IDX 47 66 40 67 42 68 43 69 44 70 45 71 69 72 70 73 78 74 71 75
REMARK SMILES IDX 73 76 79 77 72 78 74 79 75 80 76 81 77 82 54 83 55 84 63 85
REMARK SMILES IDX 56 86 58 87 64 88 57 89 59 90 60 91 61 92 62 93
REMARK H PARENT 3 10 84 46 52 57
REMARK Flexibility Score: inf
ROOT
ATOM      1  C   UNL     1      -3.751   0.708  -0.584  1.00  0.00     0.202 C 
ENDROOT
BRANCH   1   2
ATOM      2  C   UNL     1      -3.164   0.104  -1.860  1.00  0.00     0.261 C 
BRANCH   2   3
ATOM      3  O   UNL     1      -1.764  -0.183  -1.729  1.00  0.00    -0.462 OA
BRANCH   3   4
ATOM      4  C   UNL     1      -0.957   0.494  -2.591  1.00  0.00     0.328 C 
ATOM      5  O   UNL     1      -1.341   1.264  -3.466  1.00  0.00    -0.250 OA
BRANCH   4   6
ATOM      6  C   UNL     1       0.521   0.139  -2.410  1.00  0.00     0.189 C 
ATOM      7  C   UNL     1       0.947  -0.738  -3.588  1.00  0.00     0.043 C 
BRANCH   6   8
ATOM      8  N   UNL     1       0.864  -0.467  -1.117  1.00  0.00    -0.338 N 
ATOM      9  C   UNL     1       2.110  -0.725  -0.585  1.00  0.00     0.262 C 
ATOM     10  H   UNL     1       0.100  -0.724  -0.552  1.00  0.00     0.164 HD
ATOM     11  O   UNL     1       2.173  -1.240   0.530  1.00  0.00    -0.268 OA
BRANCH   9  12
ATOM     12  C   UNL     1       3.272  -0.390  -1.384  1.00  0.00     0.093 A 
ATOM     13  C   UNL     1       3.611   0.807  -1.985  1.00  0.00     0.047 A 
ATOM     14  S   UNL     1       4.428  -1.608  -1.730  1.00  0.00    -0.137 S 
ATOM     15  C   UNL     1       4.694   0.658  -2.899  1.00  0.00     0.094 A 
ATOM     16  C   UNL     1       5.240  -0.606  -2.858  1.00  0.00     0.087 A 
BRANCH  15  17
ATOM     17  S   UNL     1       5.189   1.882  -4.020  1.00  0.00     0.243 S 
ATOM     18  O   UNL     1       6.598   2.066  -3.769  1.00  0.00    -0.207 OA
ATOM     19  O   UNL     1       4.687   1.386  -5.285  1.00  0.00    -0.207 OA
BRANCH  17  20
ATOM     20  N   UNL     1       4.372   3.337  -3.651  1.00  0.00    -0.204 NA
ATOM     21  C   UNL     1       4.871   4.037  -2.448  1.00  0.00     0.124 C 
ATOM     22  C   UNL     1       4.247   4.252  -4.807  1.00  0.00     0.124 C 
ENDBRANCH  17  20
ENDBRANCH  15  17
ENDBRANCH   9  12
ENDBRANCH   6   8
ENDBRANCH   4   6
ENDBRANCH   3   4
ENDBRANCH   2   3
ENDBRANCH   1   2
BRANCH   1  23
ATOM     23  O   UNL     1      -3.083   1.861  -0.075  1.00  0.00    -0.374 OA
BRANCH  23  24
ATOM     24  C   UNL     1      -1.879   1.650   0.670  1.00  0.00     0.202 C 
BRANCH  24  25
ATOM     25  C   UNL     1      -2.031   0.953   2.028  1.00  0.00     0.261 C 
BRANCH  25  26
ATOM     26  O   UNL     1      -2.283  -0.458   1.876  1.00  0.00    -0.460 OA
BRANCH  26  27
ATOM     27  C   UNL     1      -3.415  -0.902   2.479  1.00  0.00     0.338 C 
ATOM     28  O   UNL     1      -4.188  -0.249   3.161  1.00  0.00    -0.246 OA
BRANCH  27  29
ATOM     29  C   UNL     1      -3.719  -2.278   2.042  1.00  0.00     0.060 A 
ATOM     30  C   UNL     1      -4.977  -2.513   1.470  1.00  0.00     0.016 A 
ATOM     31  C   UNL     1      -2.837  -3.334   2.276  1.00  0.00     0.016 A 
ATOM     32  C   UNL     1      -5.378  -3.816   1.176  1.00  0.00     0.010 A 
ATOM     33  C   UNL     1      -3.247  -4.642   1.991  1.00  0.00     0.010 A 
ATOM     34  C   UNL     1      -4.532  -4.891   1.475  1.00  0.00    -0.014 A 
BRANCH  34  35
ATOM     35  C   UNL     1      -5.049  -6.278   1.373  1.00  0.00     0.031 A 
ATOM     36  C   UNL     1      -5.575  -6.958   2.607  1.00  0.00     0.074 A 
ATOM     37  C   UNL     1      -5.059  -6.921   0.192  1.00  0.00     0.049 A 
ATOM     38  N   UNL     1      -6.090  -8.153   2.736  1.00  0.00    -0.248 NA
ATOM     39  C   UNL     1      -5.516  -6.189   3.861  1.00  0.00     0.031 C 
ATOM     40  C   UNL     1      -4.574  -6.373  -1.072  1.00  0.00     0.029 A 
ATOM     41  N   UNL     1      -5.478  -8.189  -0.128  1.00  0.00    -0.354 N 
ATOM     42  C   UNL     1      -6.399  -8.289   4.084  1.00  0.00     0.074 A 
ATOM     43  C   UNL     1      -6.004  -7.058   4.736  1.00  0.00     0.031 C 
ATOM     44  C   UNL     1      -4.696  -7.310  -2.029  1.00  0.00     0.029 A 
ATOM     45  C   UNL     1      -5.257  -8.526  -1.442  1.00  0.00     0.049 A 
ATOM     46  H   UNL     1      -5.896  -8.799   0.522  1.00  0.00     0.167 HD
ATOM     47  C   UNL     1      -6.981  -9.333   4.720  1.00  0.00     0.034 A 
ATOM     48  C   UNL     1      -5.472  -9.686  -2.093  1.00  0.00     0.034 A 
ATOM     49  C   UNL     1      -7.395 -10.548   4.073  1.00  0.00     0.049 A 
ATOM     50  C   UNL     1      -6.099 -10.842  -1.357  1.00  0.00     0.074 A 
ATOM     51  C   UNL     1      -8.043 -11.639   4.624  1.00  0.00     0.029 A 
ATOM     52  N   UNL     1      -7.190 -10.838   2.734  1.00  0.00    -0.354 N 
ATOM     53  N   UNL     1      -6.519 -10.900  -0.116  1.00  0.00    -0.248 NA
ATOM     54  C   UNL     1      -6.311 -12.082  -2.119  1.00  0.00     0.031 C 
ATOM     55  C   UNL     1      -8.217 -12.597   3.619  1.00  0.00     0.029 A 
ATOM     56  C   UNL     1      -7.686 -12.097   2.441  1.00  0.00     0.049 A 
ATOM     57  H   UNL     1      -6.755 -10.238   2.086  1.00  0.00     0.167 HD
ATOM     58  C   UNL     1      -7.071 -12.168   0.042  1.00  0.00     0.074 A 
ATOM     59  C   UNL     1      -6.950 -12.838  -1.236  1.00  0.00     0.031 C 
ATOM     60  C   UNL     1      -7.611 -12.732   1.151  1.00  0.00     0.034 A 
BRANCH  47  61
ATOM     61  C   UNL     1      -7.251  -9.186   6.193  1.00  0.00     0.023 A 
ATOM     62  C   UNL     1      -8.334  -8.391   6.618  1.00  0.00     0.012 A 
ATOM     63  C   UNL     1      -6.474  -9.868   7.149  1.00  0.00     0.148 A 
ATOM     64  C   UNL     1      -8.628  -8.259   7.975  1.00  0.00     0.002 A 
ATOM     65  C   UNL     1      -6.794  -9.758   8.498  1.00  0.00     0.091 A 
ATOM     66  F   UNL     1      -5.431 -10.596   6.725  1.00  0.00    -0.205 F 
ATOM     67  C   UNL     1      -7.865  -8.950   8.912  1.00  0.00     0.022 A 
BRANCH  65  68
ATOM     68  S   UNL     1      -5.905 -10.661   9.772  1.00  0.00     0.127 S 
ATOM     69  O   UNL     1      -5.066  -9.611  10.346  1.00  0.00    -0.237 OA
ATOM     70  O   UNL     1      -6.988 -11.119  10.643  1.00  0.00    -0.237 OA
ATOM     71  O   UNL     1      -5.196 -11.728   9.080  1.00  0.00    -0.744 OA
ENDBRANCH  65  68
ENDBRANCH  47  61
BRANCH  48  72
ATOM     72  C   UNL     1      -5.136  -9.797  -3.540  1.00  0.00     0.023 A 
ATOM     73  C   UNL     1      -6.173  -9.879  -4.488  1.00  0.00     0.012 A 
ATOM     74  C   UNL     1      -3.799  -9.793  -3.983  1.00  0.00     0.148 A 
ATOM     75  C   UNL     1      -5.886  -9.977  -5.850  1.00  0.00     0.002 A 
ATOM     76  C   UNL     1      -3.520  -9.839  -5.344  1.00  0.00     0.091 A 
ATOM     77  F   UNL     1      -2.824  -9.740  -3.064  1.00  0.00    -0.205 F 
ATOM     78  C   UNL     1      -4.561  -9.945  -6.279  1.00  0.00     0.022 A 
BRANCH  76  79
ATOM     79  S   UNL     1      -1.849  -9.670  -5.982  1.00  0.00     0.127 S 
ATOM     80  O   UNL     1      -1.527 -11.046  -6.347  1.00  0.00    -0.237 OA
ATOM     81  O   UNL     1      -2.043  -8.761  -7.112  1.00  0.00    -0.237 OA
ATOM     82  O   UNL     1      -1.074  -9.101  -4.888  1.00  0.00    -0.744 OA
ENDBRANCH  76  79
ENDBRANCH  48  72
BRANCH  60  83
ATOM     83  C   UNL     1      -8.130 -14.141   1.038  1.00  0.00     0.023 A 
ATOM     84  C   UNL     1      -7.218 -15.213   0.991  1.00  0.00     0.012 A 
ATOM     85  C   UNL     1      -9.513 -14.410   1.063  1.00  0.00     0.148 A 
ATOM     86  C   UNL     1      -7.673 -16.531   0.947  1.00  0.00     0.002 A 
ATOM     87  C   UNL     1      -9.959 -15.727   1.060  1.00  0.00     0.091 A 
ATOM     88  F   UNL     1     -10.367 -13.376   1.085  1.00  0.00    -0.205 F 
ATOM     89  C   UNL     1      -9.041 -16.788   0.993  1.00  0.00     0.022 A 
BRANCH  87  90
ATOM     90  S   UNL     1     -11.700 -16.146   1.208  1.00  0.00     0.127 S 
ATOM     91  O   UNL     1     -12.050 -16.463  -0.176  1.00  0.00    -0.237 OA
ATOM     92  O   UNL     1     -11.673 -17.299   2.109  1.00  0.00    -0.237 OA
ATOM     93  O   UNL     1     -12.344 -14.964   1.767  1.00  0.00    -0.744 OA
ENDBRANCH  87  90
ENDBRANCH  60  83
ENDBRANCH  34  35
ENDBRANCH  27  29
ENDBRANCH  26  27
ENDBRANCH  25  26
ENDBRANCH  24  25
ENDBRANCH  23  24
ENDBRANCH   1  23
TORSDOF 21
