REMARK SMILES CCN1C(=O)/C(=C/c2cc([N+](=O)[O-])ccc2O)S/C1=[NH+]\c1ccc(C(=O)OCCOCCOC(=O)c2ccc(-c3c4nc(c(-c5cccc(S(=O)(=O)[O-])c5F)c5ccc([nH]5)c(-c5cccc(S(=O)(=O)[O-])c5F)c5nc(c(-c6cccc(S(=O)(=O)[O-])c6F)c6ccc3[nH]6)C=C5)C=C4)cc2)cc1
REMARK SMILES IDX 30 1 29 2 28 3 27 4 25 5 26 6 24 7 21 8 22 9 100 10 23 11
REMARK SMILES IDX 99 12 20 13 3 14 4 15 19 16 5 17 6 18 18 19 7 20 2 22 1 23
REMARK SMILES IDX 8 24 9 25 16 26 10 27 15 28 14 29 17 30 11 32 12 33 13 34
REMARK SMILES IDX 31 35 32 36 33 37 34 38 35 39 36 40 37 41 98 42 38 43 97 44
REMARK SMILES IDX 39 45 40 46 41 47 91 48 42 49 96 50 90 51 92 52 43 53 95 54
REMARK SMILES IDX 89 55 88 56 44 58 76 59 56 60 75 61 57 62 60 63 74 64 93 65
REMARK SMILES IDX 58 66 59 67 73 69 94 70 61 71 45 72 46 73 54 74 47 75 49 76
REMARK SMILES IDX 55 77 48 78 50 79 51 80 52 81 53 82 77 83 78 84 86 85 79 86
REMARK SMILES IDX 81 87 87 88 80 89 82 90 83 91 84 92 85 93 62 94 63 95 71 96
REMARK SMILES IDX 64 97 66 98 72 99 65 100 67 101 68 102 69 103 70 104
REMARK H PARENT 20 21 17 31 92 57 60 68
REMARK Flexibility Score: inf
ROOT
ATOM      1  O   UNL     1      -7.229   8.533   0.748  1.00  0.00    -0.374 OA
ENDROOT
BRANCH   1   2
ATOM      2  C   UNL     1      -6.565   9.558   0.004  1.00  0.00     0.202 C 
BRANCH   2   3
ATOM      3  C   UNL     1      -5.137   9.887   0.448  1.00  0.00     0.261 C 
BRANCH   3   4
ATOM      4  O   UNL     1      -4.266   8.764   0.233  1.00  0.00    -0.460 OA
BRANCH   4   5
ATOM      5  C   UNL     1      -3.798   8.172   1.354  1.00  0.00     0.338 C 
ATOM      6  O   UNL     1      -3.911   8.582   2.502  1.00  0.00    -0.246 OA
BRANCH   5   7
ATOM      7  C   UNL     1      -3.225   6.840   1.039  1.00  0.00     0.060 A 
ATOM      8  C   UNL     1      -1.997   4.351   0.648  1.00  0.00     0.125 A 
ATOM      9  C   UNL     1      -2.570   4.667   1.881  1.00  0.00     0.052 A 
ATOM     10  C   UNL     1      -2.156   5.236  -0.427  1.00  0.00     0.052 A 
ATOM     11  C   UNL     1      -3.176   5.905   2.080  1.00  0.00     0.020 A 
ATOM     12  C   UNL     1      -2.750   6.489  -0.230  1.00  0.00     0.020 A 
BRANCH   8  13
ATOM     13  N   UNL     1      -1.207   3.191   0.568  1.00  0.00    -0.234 N 
ATOM     14  N   UNL     1       0.952   2.258   0.575  1.00  0.00    -0.186 N 
ATOM     15  C   UNL     1       2.301   2.555   0.489  1.00  0.00     0.348 C 
ATOM     16  C   UNL     1       0.081   3.319   0.501  1.00  0.00     0.324 C 
ATOM     17  O   UNL     1       3.225   1.758   0.588  1.00  0.00    -0.240 OA
ATOM     18  C   UNL     1       2.493   4.015   0.284  1.00  0.00     0.110 C 
ATOM     19  S   UNL     1       0.980   4.815   0.348  1.00  0.00     0.007 SA
ATOM     20  C   UNL     1       3.691   4.581   0.079  1.00  0.00     0.036 C 
ATOM     21  H   UNL     1      -1.624   2.299   0.564  1.00  0.00     0.313 HD
BRANCH  14  22
ATOM     22  C   UNL     1       0.513   0.902   0.875  1.00  0.00     0.244 C 
ATOM     23  C   UNL     1       0.757  -0.068  -0.271  1.00  0.00     0.055 C 
ENDBRANCH  14  22
BRANCH  20  24
ATOM     24  C   UNL     1       3.900   6.028  -0.097  1.00  0.00     0.024 A 
ATOM     25  C   UNL     1       4.235   6.519  -1.365  1.00  0.00     0.097 A 
ATOM     26  C   UNL     1       3.743   6.934   0.966  1.00  0.00     0.123 A 
ATOM     27  C   UNL     1       4.402   7.900  -1.554  1.00  0.00     0.270 A 
ATOM     28  C   UNL     1       3.892   8.309   0.772  1.00  0.00     0.054 A 
ATOM     29  C   UNL     1       4.222   8.797  -0.492  1.00  0.00     0.089 A 
BRANCH  26  30
ATOM     30  O   UNL     1       3.439   6.457   2.213  1.00  0.00    -0.507 OA
ATOM     31  H   UNL     1       3.338   5.535   2.350  1.00  0.00     0.293 HD
ENDBRANCH  26  30
BRANCH  27  32
ATOM     32  N   UNL     1       4.803   8.408  -2.872  1.00  0.00     0.062 N 
ATOM     33  O   UNL     1       4.839   7.599  -3.811  1.00  0.00    -0.258 OA
ATOM     34  O   UNL     1       5.123   9.601  -2.952  1.00  0.00    -0.258 OA
ENDBRANCH  27  32
ENDBRANCH  20  24
ENDBRANCH   8  13
ENDBRANCH   5   7
ENDBRANCH   4   5
ENDBRANCH   3   4
ENDBRANCH   2   3
ENDBRANCH   1   2
BRANCH   1  35
ATOM     35  C   UNL     1      -6.917   7.181   0.408  1.00  0.00     0.202 C 
BRANCH  35  36
ATOM     36  C   UNL     1      -7.629   6.604  -0.820  1.00  0.00     0.261 C 
BRANCH  36  37
ATOM     37  O   UNL     1      -7.256   7.285  -2.030  1.00  0.00    -0.460 OA
BRANCH  37  38
ATOM     38  C   UNL     1      -8.231   8.063  -2.558  1.00  0.00     0.338 C 
ATOM     39  O   UNL     1      -9.388   8.154  -2.170  1.00  0.00    -0.246 OA
BRANCH  38  40
ATOM     40  C   UNL     1      -7.677   8.954  -3.594  1.00  0.00     0.060 A 
ATOM     41  C   UNL     1      -8.005  10.312  -3.504  1.00  0.00     0.016 A 
ATOM     42  C   UNL     1      -6.920   8.477  -4.668  1.00  0.00     0.016 A 
ATOM     43  C   UNL     1      -7.638  11.186  -4.523  1.00  0.00     0.010 A 
ATOM     44  C   UNL     1      -6.552   9.360  -5.692  1.00  0.00     0.010 A 
ATOM     45  C   UNL     1      -6.948  10.708  -5.645  1.00  0.00    -0.014 A 
BRANCH  45  46
ATOM     46  C   UNL     1      -6.769  11.612  -6.809  1.00  0.00     0.031 A 
ATOM     47  C   UNL     1      -7.691  11.488  -7.992  1.00  0.00     0.074 A 
ATOM     48  C   UNL     1      -5.832  12.577  -6.785  1.00  0.00     0.049 A 
ATOM     49  N   UNL     1      -7.782  12.248  -9.052  1.00  0.00    -0.248 NA
ATOM     50  C   UNL     1      -8.637  10.360  -7.978  1.00  0.00     0.031 C 
ATOM     51  C   UNL     1      -4.869  12.790  -5.706  1.00  0.00     0.029 A 
ATOM     52  N   UNL     1      -5.539  13.558  -7.698  1.00  0.00    -0.354 N 
ATOM     53  C   UNL     1      -8.783  11.688  -9.838  1.00  0.00     0.074 A 
ATOM     54  C   UNL     1      -9.251  10.507  -9.144  1.00  0.00     0.031 C 
ATOM     55  C   UNL     1      -4.085  13.835  -6.023  1.00  0.00     0.029 A 
ATOM     56  C   UNL     1      -4.487  14.360  -7.327  1.00  0.00     0.049 A 
ATOM     57  H   UNL     1      -6.036  13.675  -8.540  1.00  0.00     0.167 HD
ATOM     58  C   UNL     1      -9.286  12.128 -11.016  1.00  0.00     0.034 A 
ATOM     59  C   UNL     1      -3.918  15.403  -7.963  1.00  0.00     0.034 A 
ATOM     60  C   UNL     1      -8.834  13.311 -11.697  1.00  0.00     0.049 A 
ATOM     61  C   UNL     1      -4.501  15.877  -9.268  1.00  0.00     0.074 A 
ATOM     62  C   UNL     1      -9.310  13.864 -12.874  1.00  0.00     0.029 A 
ATOM     63  N   UNL     1      -7.793  14.121 -11.270  1.00  0.00    -0.354 N 
ATOM     64  N   UNL     1      -5.538  15.419  -9.926  1.00  0.00    -0.248 NA
ATOM     65  C   UNL     1      -3.860  17.043  -9.895  1.00  0.00     0.031 C 
ATOM     66  C   UNL     1      -8.544  14.998 -13.167  1.00  0.00     0.029 A 
ATOM     67  C   UNL     1      -7.606  15.165 -12.161  1.00  0.00     0.049 A 
ATOM     68  H   UNL     1      -7.264  13.976 -10.453  1.00  0.00     0.167 HD
ATOM     69  C   UNL     1      -5.698  16.260 -11.022  1.00  0.00     0.074 A 
ATOM     70  C   UNL     1      -4.665  17.271 -10.925  1.00  0.00     0.031 C 
ATOM     71  C   UNL     1      -6.607  16.195 -12.027  1.00  0.00     0.034 A 
BRANCH  58  72
ATOM     72  C   UNL     1     -10.418  11.341 -11.625  1.00  0.00     0.023 A 
ATOM     73  C   UNL     1     -11.701  11.409 -11.044  1.00  0.00     0.012 A 
ATOM     74  C   UNL     1     -10.228  10.577 -12.792  1.00  0.00     0.148 A 
ATOM     75  C   UNL     1     -12.770  10.703 -11.596  1.00  0.00     0.002 A 
ATOM     76  C   UNL     1     -11.307   9.910 -13.361  1.00  0.00     0.091 A 
ATOM     77  F   UNL     1      -8.996  10.504 -13.316  1.00  0.00    -0.205 F 
ATOM     78  C   UNL     1     -12.575   9.963 -12.759  1.00  0.00     0.022 A 
BRANCH  76  79
ATOM     79  S   UNL     1     -11.172   8.991 -14.899  1.00  0.00     0.127 S 
ATOM     80  O   UNL     1     -11.228   7.610 -14.423  1.00  0.00    -0.237 OA
ATOM     81  O   UNL     1     -12.362   9.432 -15.629  1.00  0.00    -0.237 OA
ATOM     82  O   UNL     1      -9.909   9.399 -15.498  1.00  0.00    -0.744 OA
ENDBRANCH  76  79
ENDBRANCH  58  72
BRANCH  59  83
ATOM     83  C   UNL     1      -2.771  16.116  -7.335  1.00  0.00     0.023 A 
ATOM     84  C   UNL     1      -2.947  17.425  -6.846  1.00  0.00     0.012 A 
ATOM     85  C   UNL     1      -1.514  15.496  -7.200  1.00  0.00     0.148 A 
ATOM     86  C   UNL     1      -1.885  18.114  -6.260  1.00  0.00     0.002 A 
ATOM     87  C   UNL     1      -0.476  16.166  -6.564  1.00  0.00     0.091 A 
ATOM     88  F   UNL     1      -1.362  14.257  -7.689  1.00  0.00    -0.205 F 
ATOM     89  C   UNL     1      -0.654  17.482  -6.109  1.00  0.00     0.022 A 
BRANCH  87  90
ATOM     90  S   UNL     1       1.097  15.379  -6.204  1.00  0.00     0.127 S 
ATOM     91  O   UNL     1       1.989  16.051  -7.144  1.00  0.00    -0.237 OA
ATOM     92  O   UNL     1       1.298  15.735  -4.799  1.00  0.00    -0.237 OA
ATOM     93  O   UNL     1       0.883  13.957  -6.435  1.00  0.00    -0.744 OA
ENDBRANCH  87  90
ENDBRANCH  59  83
BRANCH  71  94
ATOM     94  C   UNL     1      -6.548  17.263 -13.089  1.00  0.00     0.023 A 
ATOM     95  C   UNL     1      -5.488  17.269 -14.019  1.00  0.00     0.012 A 
ATOM     96  C   UNL     1      -7.563  18.234 -13.197  1.00  0.00     0.148 A 
ATOM     97  C   UNL     1      -5.416  18.250 -15.008  1.00  0.00     0.002 A 
ATOM     98  C   UNL     1      -7.510  19.179 -14.215  1.00  0.00     0.091 A 
ATOM     99  F   UNL     1      -8.554  18.229 -12.293  1.00  0.00    -0.205 F 
ATOM    100  C   UNL     1      -6.431  19.198 -15.113  1.00  0.00     0.022 A 
BRANCH  98 101
ATOM    101  S   UNL     1      -8.828  20.374 -14.473  1.00  0.00     0.127 S 
ATOM    102  O   UNL     1      -8.274  21.571 -13.844  1.00  0.00    -0.237 OA
ATOM    103  O   UNL     1      -8.915  20.438 -15.933  1.00  0.00    -0.237 OA
ATOM    104  O   UNL     1     -10.004  19.806 -13.828  1.00  0.00    -0.744 OA
ENDBRANCH  98 101
ENDBRANCH  71  94
ENDBRANCH  45  46
ENDBRANCH  38  40
ENDBRANCH  37  38
ENDBRANCH  36  37
ENDBRANCH  35  36
ENDBRANCH   1  35
TORSDOF 22
