REMARK SMILES NS(=O)(=O)c1ccc(/N=N/c2ccc(O)c(C(=O)OCCOCCOC(=O)c3ccc(-c4c5nc(c(-c6cccc(S(=O)(=O)[O-])c6F)c6ccc([nH]6)c(-c6cccc(S(=O)(=O)[O-])c6F)c6nc(c(-c7cccc(S(=O)(=O)[O-])c7F)c7ccc4[nH]7)C=C6)C=C5)cc3)c2)cc1
REMARK SMILES IDX 21 1 20 2 19 3 17 4 18 5 16 6 11 7 12 8 91 9 13 10 14 11
REMARK SMILES IDX 10 12 9 13 8 14 5 15 6 16 93 17 7 18 92 19 2 20 3 21 4 22
REMARK SMILES IDX 1 23 15 26 22 28 23 29 24 30 25 31 26 32 27 33 28 34 29 35
REMARK SMILES IDX 90 36 30 37 89 38 31 39 32 40 33 41 83 42 34 43 88 44 82 45
REMARK SMILES IDX 84 46 35 47 87 48 81 49 80 50 36 52 68 53 48 54 67 55 49 56
REMARK SMILES IDX 52 57 66 58 85 59 50 60 51 61 65 63 86 64 53 65 37 66 38 67
REMARK SMILES IDX 46 68 39 69 41 70 47 71 40 72 42 73 43 74 44 75 45 76 69 77
REMARK SMILES IDX 70 78 78 79 71 80 73 81 79 82 72 83 74 84 75 85 76 86 77 87
REMARK SMILES IDX 54 88 55 89 63 90 56 91 58 92 64 93 57 94 59 95 60 96 61 97
REMARK SMILES IDX 62 98
REMARK H PARENT 1 24 1 25 15 27 84 51 52 62
REMARK Flexibility Score: inf
ROOT
ATOM      1  C   UNL     1       7.977   1.361  10.576  1.00  0.00     0.202 C 
ENDROOT
BRANCH   1   2
ATOM      2  C   UNL     1       6.692   0.555  10.788  1.00  0.00     0.261 C 
BRANCH   2   3
ATOM      3  O   UNL     1       5.578   1.185  10.134  1.00  0.00    -0.460 OA
BRANCH   3   4
ATOM      4  C   UNL     1       4.702   1.807  10.954  1.00  0.00     0.342 C 
ATOM      5  O   UNL     1       4.692   1.780  12.178  1.00  0.00    -0.246 OA
BRANCH   4   6
ATOM      6  C   UNL     1       3.849   2.751  10.198  1.00  0.00     0.104 A 
ATOM      7  C   UNL     1       2.786   3.509   8.145  1.00  0.00     0.087 A 
ATOM      8  C   UNL     1       2.359   4.663   8.816  1.00  0.00     0.034 A 
ATOM      9  C   UNL     1       3.541   2.554   8.844  1.00  0.00     0.049 A 
ATOM     10  C   UNL     1       2.668   4.868  10.162  1.00  0.00     0.049 A 
ATOM     11  C   UNL     1       3.409   3.914  10.848  1.00  0.00     0.130 A 
BRANCH   7  12
ATOM     12  N   UNL     1       2.512   3.402   6.769  1.00  0.00    -0.151 NA
ATOM     13  N   UNL     1       2.017   2.293   6.477  1.00  0.00    -0.151 NA
BRANCH  13  14
ATOM     14  C   UNL     1       1.710   2.178   5.101  1.00  0.00     0.086 A 
ATOM     15  C   UNL     1       1.013   1.804   2.398  1.00  0.00     0.082 A 
ATOM     16  C   UNL     1       1.269   0.697   3.208  1.00  0.00     0.024 A 
ATOM     17  C   UNL     1       1.114   3.097   2.916  1.00  0.00     0.024 A 
ATOM     18  C   UNL     1       1.614   0.891   4.552  1.00  0.00     0.031 A 
ATOM     19  C   UNL     1       1.452   3.277   4.261  1.00  0.00     0.031 A 
BRANCH  15  20
ATOM     20  S   UNL     1       0.581   1.604   0.694  1.00  0.00     0.238 S 
ATOM     21  O   UNL     1       1.225   2.654  -0.063  1.00  0.00    -0.207 OA
ATOM     22  O   UNL     1      -0.843   1.369   0.615  1.00  0.00    -0.207 OA
BRANCH  20  23
ATOM     23  N   UNL     1       1.341   0.189   0.244  1.00  0.00    -0.225 NA
ATOM     24  H   UNL     1       1.143  -0.006  -0.737  1.00  0.00     0.137 HD
ATOM     25  H   UNL     1       0.996  -0.580   0.820  1.00  0.00     0.137 HD
ENDBRANCH  20  23
ENDBRANCH  15  20
ENDBRANCH  13  14
ENDBRANCH   7  12
BRANCH  11  26
ATOM     26  O   UNL     1       3.704   4.205  12.155  1.00  0.00    -0.507 OA
ATOM     27  H   UNL     1       3.385   4.997  12.542  1.00  0.00     0.293 HD
ENDBRANCH  11  26
ENDBRANCH   4   6
ENDBRANCH   3   4
ENDBRANCH   2   3
ENDBRANCH   1   2
BRANCH   1  28
ATOM     28  O   UNL     1       7.988   2.661  11.170  1.00  0.00    -0.374 OA
BRANCH  28  29
ATOM     29  C   UNL     1       7.442   3.723  10.381  1.00  0.00     0.202 C 
BRANCH  29  30
ATOM     30  C   UNL     1       8.377   4.305   9.313  1.00  0.00     0.261 C 
BRANCH  30  31
ATOM     31  O   UNL     1       8.548   3.388   8.216  1.00  0.00    -0.460 OA
BRANCH  31  32
ATOM     32  C   UNL     1       9.786   2.851   8.095  1.00  0.00     0.338 C 
ATOM     33  O   UNL     1      10.780   3.136   8.741  1.00  0.00    -0.246 OA
BRANCH  32  34
ATOM     34  C   UNL     1       9.726   1.693   7.182  1.00  0.00     0.060 A 
ATOM     35  C   UNL     1      10.228   0.471   7.650  1.00  0.00     0.016 A 
ATOM     36  C   UNL     1       9.212   1.799   5.888  1.00  0.00     0.016 A 
ATOM     37  C   UNL     1      10.239  -0.646   6.816  1.00  0.00     0.010 A 
ATOM     38  C   UNL     1       9.237   0.680   5.049  1.00  0.00     0.010 A 
ATOM     39  C   UNL     1       9.769  -0.541   5.502  1.00  0.00    -0.014 A 
BRANCH  39  40
ATOM     40  C   UNL     1       9.908  -1.681   4.565  1.00  0.00     0.031 A 
ATOM     41  C   UNL     1      11.034  -1.684   3.571  1.00  0.00     0.074 A 
ATOM     42  C   UNL     1       9.012  -2.685   4.576  1.00  0.00     0.049 A 
ATOM     43  N   UNL     1      11.290  -2.538   2.615  1.00  0.00    -0.248 NA
ATOM     44  C   UNL     1      11.998  -0.575   3.664  1.00  0.00     0.031 C 
ATOM     45  C   UNL     1       7.877  -2.791   5.492  1.00  0.00     0.029 A 
ATOM     46  N   UNL     1       8.897  -3.786   3.765  1.00  0.00    -0.354 N 
ATOM     47  C   UNL     1      12.424  -2.058   1.972  1.00  0.00     0.074 A 
ATOM     48  C   UNL     1      12.807  -0.835   2.646  1.00  0.00     0.031 C 
ATOM     49  C   UNL     1       7.153  -3.874   5.162  1.00  0.00     0.029 A 
ATOM     50  C   UNL     1       7.758  -4.519   3.998  1.00  0.00     0.049 A 
ATOM     51  H   UNL     1       9.565  -4.027   3.083  1.00  0.00     0.167 HD
ATOM     52  C   UNL     1      13.093  -2.593   0.924  1.00  0.00     0.034 A 
ATOM     53  C   UNL     1       7.242  -5.568   3.326  1.00  0.00     0.034 A 
ATOM     54  C   UNL     1      12.722  -3.817   0.267  1.00  0.00     0.049 A 
ATOM     55  C   UNL     1       7.989  -6.128   2.144  1.00  0.00     0.074 A 
ATOM     56  C   UNL     1      13.373  -4.471  -0.764  1.00  0.00     0.029 A 
ATOM     57  N   UNL     1      11.590  -4.561   0.560  1.00  0.00    -0.354 N 
ATOM     58  N   UNL     1       9.133  -5.742   1.633  1.00  0.00    -0.248 NA
ATOM     59  C   UNL     1       7.388  -7.284   1.461  1.00  0.00     0.031 C 
ATOM     60  C   UNL     1      12.620  -5.598  -1.112  1.00  0.00     0.029 A 
ATOM     61  C   UNL     1      11.511  -5.657  -0.283  1.00  0.00     0.049 A 
ATOM     62  H   UNL     1      10.938  -4.343   1.265  1.00  0.00     0.167 HD
ATOM     63  C   UNL     1       9.402  -6.620   0.588  1.00  0.00     0.074 A 
ATOM     64  C   UNL     1       8.313  -7.574   0.555  1.00  0.00     0.031 C 
ATOM     65  C   UNL     1      10.446  -6.626  -0.278  1.00  0.00     0.034 A 
BRANCH  52  66
ATOM     66  C   UNL     1      14.317  -1.869   0.433  1.00  0.00     0.023 A 
ATOM     67  C   UNL     1      15.508  -1.927   1.183  1.00  0.00     0.012 A 
ATOM     68  C   UNL     1      14.307  -1.187  -0.799  1.00  0.00     0.148 A 
ATOM     69  C   UNL     1      16.665  -1.296   0.727  1.00  0.00     0.002 A 
ATOM     70  C   UNL     1      15.474  -0.594  -1.266  1.00  0.00     0.091 A 
ATOM     71  F   UNL     1      13.157  -1.123  -1.485  1.00  0.00    -0.205 F 
ATOM     72  C   UNL     1      16.651  -0.640  -0.501  1.00  0.00     0.022 A 
BRANCH  70  73
ATOM     73  S   UNL     1      15.575   0.213  -2.868  1.00  0.00     0.127 S 
ATOM     74  O   UNL     1      15.668   1.621  -2.482  1.00  0.00    -0.237 OA
ATOM     75  O   UNL     1      16.807  -0.351  -3.420  1.00  0.00    -0.237 OA
ATOM     76  O   UNL     1      14.362  -0.160  -3.582  1.00  0.00    -0.744 OA
ENDBRANCH  70  73
ENDBRANCH  52  66
BRANCH  53  77
ATOM     77  C   UNL     1       5.951  -6.166   3.766  1.00  0.00     0.023 A 
ATOM     78  C   UNL     1       5.937  -7.453   4.337  1.00  0.00     0.012 A 
ATOM     79  C   UNL     1       4.740  -5.456   3.642  1.00  0.00     0.148 A 
ATOM     80  C   UNL     1       4.737  -8.032   4.752  1.00  0.00     0.002 A 
ATOM     81  C   UNL     1       3.557  -6.015   4.108  1.00  0.00     0.091 A 
ATOM     82  F   UNL     1       4.770  -4.241   3.075  1.00  0.00    -0.205 F 
ATOM     83  C   UNL     1       3.550  -7.310   4.649  1.00  0.00     0.022 A 
BRANCH  81  84
ATOM     84  S   UNL     1       2.010  -5.101   4.132  1.00  0.00     0.127 S 
ATOM     85  O   UNL     1       1.264  -5.745   3.055  1.00  0.00    -0.237 OA
ATOM     86  O   UNL     1       1.514  -5.378   5.481  1.00  0.00    -0.237 OA
ATOM     87  O   UNL     1       2.370  -3.707   3.905  1.00  0.00    -0.744 OA
ENDBRANCH  81  84
ENDBRANCH  53  77
BRANCH  65  88
ATOM     88  C   UNL     1      10.478  -7.703  -1.331  1.00  0.00     0.023 A 
ATOM     89  C   UNL     1       9.593  -7.633  -2.425  1.00  0.00     0.012 A 
ATOM     90  C   UNL     1      11.434  -8.737  -1.280  1.00  0.00     0.148 A 
ATOM     91  C   UNL     1       9.641  -8.590  -3.438  1.00  0.00     0.002 A 
ATOM     92  C   UNL     1      11.507  -9.660  -2.317  1.00  0.00     0.091 A 
ATOM     93  F   UNL     1      12.256  -8.796  -0.222  1.00  0.00    -0.205 F 
ATOM     94  C   UNL     1      10.604  -9.595  -3.391  1.00  0.00     0.022 A 
BRANCH  92  95
ATOM     95  S   UNL     1      12.773 -10.934  -2.387  1.00  0.00     0.127 S 
ATOM     96  O   UNL     1      12.000 -12.138  -2.086  1.00  0.00    -0.237 OA
ATOM     97  O   UNL     1      13.236 -10.836  -3.771  1.00  0.00    -0.237 OA
ATOM     98  O   UNL     1      13.768 -10.564  -1.390  1.00  0.00    -0.744 OA
ENDBRANCH  92  95
ENDBRANCH  65  88
ENDBRANCH  39  40
ENDBRANCH  32  34
ENDBRANCH  31  32
ENDBRANCH  30  31
ENDBRANCH  29  30
ENDBRANCH  28  29
ENDBRANCH   1  28
TORSDOF 22
