REMARK SMILES C=CCN(CC(=O)OCCOCCOC(=O)c1ccc(-c2c3nc(c(-c4cccc(S(=O)(=O)[O-])c4F)c4ccc([nH]4)c(-c4cccc(S(=O)(=O)[O-])c4F)c4nc(c(-c5cccc(S(=O)(=O)[O-])c5F)c5ccc2[nH]5)C=C4)C=C3)cc1)C(=O)NC1CCCC1
REMARK SMILES IDX 11 1 10 2 9 3 8 4 6 5 7 6 5 7 4 8 3 9 2 10 1 11 80 12 81 13
REMARK SMILES IDX 82 14 83 16 84 17 87 18 85 19 86 20 12 21 13 22 14 23 15 24
REMARK SMILES IDX 16 25 17 26 18 27 79 28 19 29 78 30 20 31 21 32 22 33 72 34
REMARK SMILES IDX 23 35 77 36 71 37 73 38 24 39 76 40 70 41 69 42 25 44 57 45
REMARK SMILES IDX 37 46 56 47 38 48 41 49 55 50 74 51 39 52 40 53 54 55 75 56
REMARK SMILES IDX 42 57 26 58 27 59 35 60 28 61 30 62 36 63 29 64 31 65 32 66
REMARK SMILES IDX 33 67 34 68 58 69 59 70 67 71 60 72 62 73 68 74 61 75 63 76
REMARK SMILES IDX 64 77 65 78 66 79 43 80 44 81 52 82 45 83 47 84 53 85 46 86
REMARK SMILES IDX 48 87 49 88 50 89 51 90
REMARK H PARENT 82 15 73 43 41 54
REMARK Flexibility Score: inf
ROOT
ATOM      1  O   UNL     1      -6.229   4.104  -1.338  1.00  0.00    -0.374 OA
ENDROOT
BRANCH   1   2
ATOM      2  C   UNL     1      -6.535   2.752  -0.970  1.00  0.00     0.202 C 
BRANCH   2   3
ATOM      3  C   UNL     1      -5.991   1.628  -1.864  1.00  0.00     0.261 C 
BRANCH   3   4
ATOM      4  O   UNL     1      -4.558   1.446  -1.714  1.00  0.00    -0.462 OA
BRANCH   4   5
ATOM      5  C   UNL     1      -3.946   0.915  -2.807  1.00  0.00     0.325 C 
ATOM      6  O   UNL     1      -4.548   0.555  -3.817  1.00  0.00    -0.250 OA
BRANCH   5   7
ATOM      7  C   UNL     1      -2.427   0.725  -2.685  1.00  0.00     0.244 C 
BRANCH   7   8
ATOM      8  N   UNL     1      -1.662   1.315  -1.588  1.00  0.00    -0.310 N 
BRANCH   8   9
ATOM      9  C   UNL     1      -1.290   0.374  -0.525  1.00  0.00     0.149 C 
BRANCH   9  10
ATOM     10  C   UNL     1       0.123  -0.103  -0.784  1.00  0.00    -0.013 C 
ATOM     11  C   UNL     1       1.078  -0.169   0.155  1.00  0.00     0.006 C 
ENDBRANCH   9  10
ENDBRANCH   8   9
BRANCH   8  12
ATOM     12  C   UNL     1      -1.031   2.525  -1.541  1.00  0.00     0.318 C 
ATOM     13  O   UNL     1      -0.357   2.872  -0.562  1.00  0.00    -0.249 OA
ATOM     14  N   UNL     1      -0.978   3.407  -2.554  1.00  0.00    -0.335 N 
ATOM     15  H   UNL     1      -0.081   3.803  -2.644  1.00  0.00     0.165 HD
BRANCH  14  16
ATOM     16  C   UNL     1      -1.894   3.931  -3.548  1.00  0.00     0.083 C 
ATOM     17  C   UNL     1      -1.421   5.292  -4.072  1.00  0.00     0.025 C 
ATOM     18  C   UNL     1      -2.121   3.141  -4.829  1.00  0.00     0.025 C 
ATOM     19  C   UNL     1      -2.337   5.530  -5.258  1.00  0.00     0.002 C 
ATOM     20  C   UNL     1      -2.432   4.165  -5.921  1.00  0.00     0.002 C 
ENDBRANCH  14  16
ENDBRANCH   8  12
ENDBRANCH   7   8
ENDBRANCH   5   7
ENDBRANCH   4   5
ENDBRANCH   3   4
ENDBRANCH   2   3
ENDBRANCH   1   2
BRANCH   1  21
ATOM     21  C   UNL     1      -4.860   4.396  -1.575  1.00  0.00     0.202 C 
BRANCH  21  22
ATOM     22  C   UNL     1      -3.949   4.621  -0.360  1.00  0.00     0.261 C 
BRANCH  22  23
ATOM     23  O   UNL     1      -4.226   3.727   0.716  1.00  0.00    -0.460 OA
BRANCH  23  24
ATOM     24  C   UNL     1      -4.977   4.287   1.690  1.00  0.00     0.338 C 
ATOM     25  O   UNL     1      -5.288   5.467   1.808  1.00  0.00    -0.246 OA
BRANCH  24  26
ATOM     26  C   UNL     1      -5.573   3.227   2.506  1.00  0.00     0.060 A 
ATOM     27  C   UNL     1      -6.968   3.244   2.622  1.00  0.00     0.016 A 
ATOM     28  C   UNL     1      -4.801   2.262   3.158  1.00  0.00     0.016 A 
ATOM     29  C   UNL     1      -7.595   2.342   3.464  1.00  0.00     0.010 A 
ATOM     30  C   UNL     1      -5.434   1.357   4.011  1.00  0.00     0.010 A 
ATOM     31  C   UNL     1      -6.824   1.440   4.207  1.00  0.00    -0.014 A 
BRANCH  31  32
ATOM     32  C   UNL     1      -7.483   0.756   5.337  1.00  0.00     0.031 A 
ATOM     33  C   UNL     1      -7.322   1.334   6.713  1.00  0.00     0.074 A 
ATOM     34  C   UNL     1      -8.288  -0.296   5.116  1.00  0.00     0.049 A 
ATOM     35  N   UNL     1      -7.913   0.993   7.827  1.00  0.00    -0.248 NA
ATOM     36  C   UNL     1      -6.369   2.447   6.853  1.00  0.00     0.031 C 
ATOM     37  C   UNL     1      -8.504  -0.931   3.817  1.00  0.00     0.029 A 
ATOM     38  N   UNL     1      -9.069  -1.013   5.981  1.00  0.00    -0.354 N 
ATOM     39  C   UNL     1      -7.385   1.830   8.802  1.00  0.00     0.074 A 
ATOM     40  C   UNL     1      -6.413   2.681   8.155  1.00  0.00     0.031 C 
ATOM     41  C   UNL     1      -9.351  -1.962   3.975  1.00  0.00     0.029 A 
ATOM     42  C   UNL     1      -9.725  -2.060   5.385  1.00  0.00     0.049 A 
ATOM     43  H   UNL     1      -9.152  -0.798   6.939  1.00  0.00     0.167 HD
ATOM     44  C   UNL     1      -7.695   1.892  10.118  1.00  0.00     0.034 A 
ATOM     45  C   UNL     1     -10.527  -2.998   5.923  1.00  0.00     0.034 A 
ATOM     46  C   UNL     1      -8.674   1.046  10.743  1.00  0.00     0.049 A 
ATOM     47  C   UNL     1     -10.874  -2.902   7.383  1.00  0.00     0.074 A 
ATOM     48  C   UNL     1      -9.114   1.058  12.053  1.00  0.00     0.029 A 
ATOM     49  N   UNL     1      -9.351   0.018  10.101  1.00  0.00    -0.354 N 
ATOM     50  N   UNL     1     -10.471  -2.022   8.270  1.00  0.00    -0.248 NA
ATOM     51  C   UNL     1     -11.820  -3.894   7.909  1.00  0.00     0.031 C 
ATOM     52  C   UNL     1     -10.026   0.009  12.213  1.00  0.00     0.029 A 
ATOM     53  C   UNL     1     -10.190  -0.627  10.992  1.00  0.00     0.049 A 
ATOM     54  H   UNL     1      -9.248  -0.217   9.151  1.00  0.00     0.167 HD
ATOM     55  C   UNL     1     -11.134  -2.335   9.450  1.00  0.00     0.074 A 
ATOM     56  C   UNL     1     -11.981  -3.475   9.157  1.00  0.00     0.031 C 
ATOM     57  C   UNL     1     -11.046  -1.742  10.668  1.00  0.00     0.034 A 
BRANCH  44  58
ATOM     58  C   UNL     1      -6.956   2.902  10.956  1.00  0.00     0.023 A 
ATOM     59  C   UNL     1      -7.195   4.282  10.781  1.00  0.00     0.012 A 
ATOM     60  C   UNL     1      -6.018   2.483  11.919  1.00  0.00     0.148 A 
ATOM     61  C   UNL     1      -6.479   5.226  11.516  1.00  0.00     0.002 A 
ATOM     62  C   UNL     1      -5.345   3.428  12.683  1.00  0.00     0.091 A 
ATOM     63  F   UNL     1      -5.780   1.170  12.051  1.00  0.00    -0.205 F 
ATOM     64  C   UNL     1      -5.561   4.800  12.473  1.00  0.00     0.022 A 
BRANCH  62  65
ATOM     65  S   UNL     1      -4.205   2.970  13.993  1.00  0.00     0.127 S 
ATOM     66  O   UNL     1      -2.913   3.287  13.385  1.00  0.00    -0.237 OA
ATOM     67  O   UNL     1      -4.605   3.868  15.077  1.00  0.00    -0.237 OA
ATOM     68  O   UNL     1      -4.446   1.559  14.257  1.00  0.00    -0.744 OA
ENDBRANCH  62  65
ENDBRANCH  44  58
BRANCH  45  69
ATOM     69  C   UNL     1     -11.071  -4.075   5.052  1.00  0.00     0.023 A 
ATOM     70  C   UNL     1     -12.435  -4.088   4.707  1.00  0.00     0.012 A 
ATOM     71  C   UNL     1     -10.211  -5.046   4.500  1.00  0.00     0.148 A 
ATOM     72  C   UNL     1     -12.936  -5.060   3.840  1.00  0.00     0.002 A 
ATOM     73  C   UNL     1     -10.704  -5.973   3.592  1.00  0.00     0.091 A 
ATOM     74  F   UNL     1      -8.918  -5.019   4.853  1.00  0.00    -0.205 F 
ATOM     75  C   UNL     1     -12.070  -5.992   3.272  1.00  0.00     0.022 A 
BRANCH  73  76
ATOM     76  S   UNL     1      -9.637  -7.112   2.704  1.00  0.00     0.127 S 
ATOM     77  O   UNL     1     -10.068  -8.402   3.237  1.00  0.00    -0.237 OA
ATOM     78  O   UNL     1     -10.022  -6.859   1.315  1.00  0.00    -0.237 OA
ATOM     79  O   UNL     1      -8.274  -6.718   3.032  1.00  0.00    -0.744 OA
ENDBRANCH  73  76
ENDBRANCH  45  69
BRANCH  57  80
ATOM     80  C   UNL     1     -11.909  -2.295  11.772  1.00  0.00     0.023 A 
ATOM     81  C   UNL     1     -11.610  -3.549  12.340  1.00  0.00     0.012 A 
ATOM     82  C   UNL     1     -12.978  -1.538  12.291  1.00  0.00     0.148 A 
ATOM     83  C   UNL     1     -12.387  -4.059  13.379  1.00  0.00     0.002 A 
ATOM     84  C   UNL     1     -13.713  -2.027  13.362  1.00  0.00     0.091 A 
ATOM     85  F   UNL     1     -13.258  -0.354  11.725  1.00  0.00    -0.205 F 
ATOM     86  C   UNL     1     -13.430  -3.294  13.898  1.00  0.00     0.022 A 
BRANCH  84  87
ATOM     87  S   UNL     1     -15.004  -1.064  14.158  1.00  0.00     0.127 S 
ATOM     88  O   UNL     1     -16.212  -1.724  13.667  1.00  0.00    -0.237 OA
ATOM     89  O   UNL     1     -14.724  -1.281  15.578  1.00  0.00    -0.237 OA
ATOM     90  O   UNL     1     -14.812   0.308  13.709  1.00  0.00    -0.744 OA
ENDBRANCH  84  87
ENDBRANCH  57  80
ENDBRANCH  31  32
ENDBRANCH  24  26
ENDBRANCH  23  24
ENDBRANCH  22  23
ENDBRANCH  21  22
ENDBRANCH   1  21
TORSDOF 22
