REMARK SMILES C[C@H](NC(=O)CCN1C(=O)/C(=C/c2ccc([N+](=O)[O-])cc2)SC1=S)C(=O)OCCOCCOC(=O)c1ccc(-c2c3nc(c(-c4cccc(S(=O)(=O)[O-])c4F)c4ccc([nH]4)c(-c4cccc(S(=O)(=O)[O-])c4F)c4nc(c(-c5cccc(S(=O)(=O)[O-])c5F)c5ccc2[nH]5)C=C4)C=C3)cc1
REMARK SMILES IDX 28 1 27 2 25 3 26 4 2 5 1 6 3 7 4 8 5 10 6 11 7 12 8 13 9 14
REMARK SMILES IDX 23 15 10 16 11 17 22 18 24 19 12 20 13 21 14 22 21 23 15 24
REMARK SMILES IDX 20 25 16 26 17 27 18 28 19 29 29 30 30 31 31 32 32 33 33 34
REMARK SMILES IDX 34 35 35 36 36 37 37 38 98 39 38 40 97 41 39 42 40 43 41 44
REMARK SMILES IDX 91 45 42 46 96 47 90 48 92 49 43 50 95 51 89 52 88 53 44 55
REMARK SMILES IDX 76 56 56 57 75 58 57 59 60 60 74 61 93 62 58 63 59 64 73 66
REMARK SMILES IDX 94 67 61 68 45 69 46 70 54 71 47 72 49 73 55 74 48 75 50 76
REMARK SMILES IDX 51 77 52 78 53 79 77 80 78 81 86 82 79 83 81 84 87 85 80 86
REMARK SMILES IDX 82 87 83 88 84 89 85 90 62 91 63 92 71 93 64 94 66 95 72 96
REMARK SMILES IDX 65 97 67 98 68 99 69 100 70 101
REMARK H PARENT 3 9 92 54 60 65
REMARK Flexibility Score: inf
ROOT
ATOM      1  C   UNL     1      -2.659   0.515   0.491  1.00  0.00     0.261 C 
ENDROOT
BRANCH   1   2
ATOM      2  O   UNL     1      -1.405   0.017  -0.034  1.00  0.00    -0.462 OA
BRANCH   2   3
ATOM      3  C   UNL     1      -0.457  -0.361   0.873  1.00  0.00     0.328 C 
ATOM      4  O   UNL     1      -0.695  -0.828   1.984  1.00  0.00    -0.250 OA
BRANCH   3   5
ATOM      5  C   UNL     1       1.001  -0.169   0.370  1.00  0.00     0.189 C 
ATOM      6  C   UNL     1       1.920   0.342   1.479  1.00  0.00     0.043 C 
BRANCH   5   7
ATOM      7  N   UNL     1       1.165   0.479  -0.943  1.00  0.00    -0.343 N 
ATOM      8  C   UNL     1       1.336   1.738  -1.425  1.00  0.00     0.222 C 
ATOM      9  H   UNL     1       1.145  -0.182  -1.672  1.00  0.00     0.164 HD
ATOM     10  O   UNL     1       1.119   1.860  -2.637  1.00  0.00    -0.275 OA
BRANCH   8  11
ATOM     11  C   UNL     1       1.902   2.931  -0.648  1.00  0.00     0.122 C 
BRANCH  11  12
ATOM     12  C   UNL     1       0.931   4.120  -0.379  1.00  0.00     0.137 C 
BRANCH  12  13
ATOM     13  N   UNL     1       0.454   4.215   1.030  1.00  0.00    -0.292 N 
ATOM     14  C   UNL     1      -0.174   3.119   1.506  1.00  0.00     0.266 C 
ATOM     15  C   UNL     1       0.304   5.308   1.848  1.00  0.00     0.148 C 
ATOM     16  O   UNL     1      -0.495   2.194   0.790  1.00  0.00    -0.268 OA
ATOM     17  C   UNL     1      -0.541   3.198   2.933  1.00  0.00     0.081 C 
ATOM     18  S   UNL     1      -0.522   4.830   3.383  1.00  0.00    -0.054 SA
ATOM     19  S   UNL     1       0.786   6.873   1.564  1.00  0.00    -0.052 S 
ATOM     20  C   UNL     1      -0.836   2.035   3.525  1.00  0.00     0.029 C 
BRANCH  20  21
ATOM     21  C   UNL     1      -1.491   1.519   4.730  1.00  0.00    -0.024 A 
ATOM     22  C   UNL     1      -0.926   0.400   5.373  1.00  0.00     0.015 A 
ATOM     23  C   UNL     1      -2.833   1.830   4.972  1.00  0.00     0.015 A 
ATOM     24  C   UNL     1      -1.677  -0.385   6.256  1.00  0.00     0.086 A 
ATOM     25  C   UNL     1      -3.598   1.044   5.846  1.00  0.00     0.086 A 
ATOM     26  C   UNL     1      -3.017  -0.059   6.487  1.00  0.00     0.269 A 
BRANCH  26  27
ATOM     27  N   UNL     1      -3.828  -0.898   7.381  1.00  0.00     0.062 N 
ATOM     28  O   UNL     1      -3.286  -1.886   7.899  1.00  0.00    -0.258 OA
ATOM     29  O   UNL     1      -5.003  -0.560   7.582  1.00  0.00    -0.258 OA
ENDBRANCH  26  27
ENDBRANCH  20  21
ENDBRANCH  12  13
ENDBRANCH  11  12
ENDBRANCH   8  11
ENDBRANCH   5   7
ENDBRANCH   3   5
ENDBRANCH   2   3
ENDBRANCH   1   2
BRANCH   1  30
ATOM     30  C   UNL     1      -3.744  -0.519   0.756  1.00  0.00     0.202 C 
BRANCH  30  31
ATOM     31  O   UNL     1      -3.234  -1.609   1.500  1.00  0.00    -0.374 OA
BRANCH  31  32
ATOM     32  C   UNL     1      -3.070  -2.828   0.779  1.00  0.00     0.202 C 
BRANCH  32  33
ATOM     33  C   UNL     1      -2.163  -2.856  -0.472  1.00  0.00     0.261 C 
BRANCH  33  34
ATOM     34  O   UNL     1      -2.451  -1.922  -1.532  1.00  0.00    -0.460 OA
BRANCH  34  35
ATOM     35  C   UNL     1      -3.633  -2.042  -2.174  1.00  0.00     0.338 C 
ATOM     36  O   UNL     1      -4.491  -2.882  -1.954  1.00  0.00    -0.246 OA
BRANCH  35  37
ATOM     37  C   UNL     1      -3.820  -0.879  -3.073  1.00  0.00     0.060 A 
ATOM     38  C   UNL     1      -4.937  -0.051  -2.886  1.00  0.00     0.016 A 
ATOM     39  C   UNL     1      -2.944  -0.641  -4.135  1.00  0.00     0.016 A 
ATOM     40  C   UNL     1      -5.208   0.981  -3.790  1.00  0.00     0.010 A 
ATOM     41  C   UNL     1      -3.228   0.384  -5.048  1.00  0.00     0.010 A 
ATOM     42  C   UNL     1      -4.381   1.176  -4.904  1.00  0.00    -0.014 A 
BRANCH  42  43
ATOM     43  C   UNL     1      -4.789   2.100  -5.996  1.00  0.00     0.031 A 
ATOM     44  C   UNL     1      -5.417   1.523  -7.238  1.00  0.00     0.074 A 
ATOM     45  C   UNL     1      -4.574   3.426  -5.907  1.00  0.00     0.049 A 
ATOM     46  N   UNL     1      -5.759   2.121  -8.350  1.00  0.00    -0.248 NA
ATOM     47  C   UNL     1      -5.696   0.076  -7.226  1.00  0.00     0.031 C 
ATOM     48  C   UNL     1      -3.985   4.110  -4.758  1.00  0.00     0.029 A 
ATOM     49  N   UNL     1      -4.788   4.429  -6.824  1.00  0.00    -0.354 N 
ATOM     50  C   UNL     1      -6.245   1.122  -9.186  1.00  0.00     0.074 A 
ATOM     51  C   UNL     1      -6.172  -0.120  -8.448  1.00  0.00     0.031 C 
ATOM     52  C   UNL     1      -3.833   5.412  -5.057  1.00  0.00     0.029 A 
ATOM     53  C   UNL     1      -4.279   5.646  -6.430  1.00  0.00     0.049 A 
ATOM     54  H   UNL     1      -5.258   4.290  -7.678  1.00  0.00     0.167 HD
ATOM     55  C   UNL     1      -6.708   1.230 -10.453  1.00  0.00     0.034 A 
ATOM     56  C   UNL     1      -4.142   6.801  -7.115  1.00  0.00     0.034 A 
ATOM     57  C   UNL     1      -6.804   2.468 -11.177  1.00  0.00     0.049 A 
ATOM     58  C   UNL     1      -4.639   6.883  -8.537  1.00  0.00     0.074 A 
ATOM     59  C   UNL     1      -7.342   2.687 -12.433  1.00  0.00     0.029 A 
ATOM     60  N   UNL     1      -6.327   3.688 -10.727  1.00  0.00    -0.354 N 
ATOM     61  N   UNL     1      -5.237   5.966  -9.258  1.00  0.00    -0.248 NA
ATOM     62  C   UNL     1      -4.462   8.167  -9.235  1.00  0.00     0.031 C 
ATOM     63  C   UNL     1      -7.146   4.031 -12.763  1.00  0.00     0.029 A 
ATOM     64  C   UNL     1      -6.524   4.657 -11.695  1.00  0.00     0.049 A 
ATOM     65  H   UNL     1      -5.910   3.843  -9.848  1.00  0.00     0.167 HD
ATOM     66  C   UNL     1      -5.530   6.568 -10.478  1.00  0.00     0.074 A 
ATOM     67  C   UNL     1      -5.071   7.937 -10.390  1.00  0.00     0.031 C 
ATOM     68  C   UNL     1      -6.110   6.031 -11.579  1.00  0.00     0.034 A 
BRANCH  55  69
ATOM     69  C   UNL     1      -7.152  -0.023 -11.159  1.00  0.00     0.023 A 
ATOM     70  C   UNL     1      -8.382  -0.623 -10.825  1.00  0.00     0.012 A 
ATOM     71  C   UNL     1      -6.395  -0.541 -12.230  1.00  0.00     0.148 A 
ATOM     72  C   UNL     1      -8.844  -1.731 -11.536  1.00  0.00     0.002 A 
ATOM     73  C   UNL     1      -6.883  -1.617 -12.960  1.00  0.00     0.091 A 
ATOM     74  F   UNL     1      -5.220   0.036 -12.517  1.00  0.00    -0.205 F 
ATOM     75  C   UNL     1      -8.102  -2.218 -12.609  1.00  0.00     0.022 A 
BRANCH  73  76
ATOM     76  S   UNL     1      -6.043  -2.267 -14.409  1.00  0.00     0.127 S 
ATOM     77  O   UNL     1      -5.649  -3.598 -13.948  1.00  0.00    -0.237 OA
ATOM     78  O   UNL     1      -7.111  -2.259 -15.409  1.00  0.00    -0.237 OA
ATOM     79  O   UNL     1      -4.942  -1.355 -14.682  1.00  0.00    -0.744 OA
ENDBRANCH  73  76
ENDBRANCH  55  69
BRANCH  56  80
ATOM     80  C   UNL     1      -3.481   7.978  -6.478  1.00  0.00     0.023 A 
ATOM     81  C   UNL     1      -4.225   9.144  -6.215  1.00  0.00     0.012 A 
ATOM     82  C   UNL     1      -2.112   7.950  -6.147  1.00  0.00     0.148 A 
ATOM     83  C   UNL     1      -3.609  10.273  -5.670  1.00  0.00     0.002 A 
ATOM     84  C   UNL     1      -1.520   9.055  -5.547  1.00  0.00     0.091 A 
ATOM     85  F   UNL     1      -1.410   6.843  -6.430  1.00  0.00    -0.205 F 
ATOM     86  C   UNL     1      -2.261  10.225  -5.327  1.00  0.00     0.022 A 
BRANCH  84  87
ATOM     87  S   UNL     1       0.174   9.024  -4.949  1.00  0.00     0.127 S 
ATOM     88  O   UNL     1       0.864   9.823  -5.957  1.00  0.00    -0.237 OA
ATOM     89  O   UNL     1       0.044   9.662  -3.638  1.00  0.00    -0.237 OA
ATOM     90  O   UNL     1       0.540   7.615  -4.889  1.00  0.00    -0.744 OA
ENDBRANCH  84  87
ENDBRANCH  56  80
BRANCH  68  91
ATOM     91  C   UNL     1      -6.317   6.921 -12.778  1.00  0.00     0.023 A 
ATOM     92  C   UNL     1      -5.213   7.304 -13.564  1.00  0.00     0.012 A 
ATOM     93  C   UNL     1      -7.615   7.296 -13.179  1.00  0.00     0.148 A 
ATOM     94  C   UNL     1      -5.394   8.069 -14.716  1.00  0.00     0.002 A 
ATOM     95  C   UNL     1      -7.793   8.015 -14.355  1.00  0.00     0.091 A 
ATOM     96  F   UNL     1      -8.651   6.931 -12.411  1.00  0.00    -0.205 F 
ATOM     97  C   UNL     1      -6.683   8.413 -15.118  1.00  0.00     0.022 A 
BRANCH  95  98
ATOM     98  S   UNL     1      -9.417   8.420 -15.006  1.00  0.00     0.127 S 
ATOM     99  O   UNL     1      -9.442   9.875 -14.860  1.00  0.00    -0.237 OA
ATOM    100  O   UNL     1      -9.323   7.948 -16.387  1.00  0.00    -0.237 OA
ATOM    101  O   UNL     1     -10.376   7.698 -14.181  1.00  0.00    -0.744 OA
ENDBRANCH  95  98
ENDBRANCH  68  91
ENDBRANCH  42  43
ENDBRANCH  35  37
ENDBRANCH  34  35
ENDBRANCH  33  34
ENDBRANCH  32  33
ENDBRANCH  31  32
ENDBRANCH  30  31
ENDBRANCH   1  30
TORSDOF 23
