REMARK SMILES CN(C)C(=O)c1ccc2c(c1)N(CC(=O)OCCOCCOC(=O)c1ccc(-c3c4nc(c(-c5cccc(S(=O)(=O)[O-])c5F)c5ccc([nH]5)c(-c5cccc(S(=O)(=O)[O-])c5F)c5nc(c(-c6cccc(S(=O)(=O)[O-])c6F)c6ccc3[nH]6)C=C5)C=C4)cc1)C(=O)[C@@H]1CCCCN21
REMARK SMILES IDX 20 1 19 2 18 3 17 4 16 5 14 6 15 7 13 8 12 9 6 10 7 11 11 12
REMARK SMILES IDX 8 13 10 14 9 15 95 16 88 17 90 18 94 19 89 20 91 21 93 22
REMARK SMILES IDX 92 23 4 24 1 25 2 26 3 27 5 28 21 29 22 30 23 31 24 32 25 33
REMARK SMILES IDX 26 34 87 35 27 36 86 37 28 38 29 39 30 40 80 41 31 42 85 43
REMARK SMILES IDX 79 44 81 45 32 46 84 47 78 48 77 49 33 51 65 52 45 53 64 54
REMARK SMILES IDX 46 55 49 56 63 57 82 58 47 59 48 60 62 62 83 63 50 64 34 65
REMARK SMILES IDX 35 66 43 67 36 68 38 69 44 70 37 71 39 72 40 73 41 74 42 75
REMARK SMILES IDX 66 76 67 77 75 78 68 79 70 80 76 81 69 82 71 83 72 84 73 85
REMARK SMILES IDX 74 86 51 87 52 88 60 89 53 90 55 91 61 92 54 93 56 94 57 95
REMARK SMILES IDX 58 96 59 97
REMARK H PARENT 81 50 49 61
REMARK Flexibility Score: inf
ROOT
ATOM      1  C   UNL     1      -1.375   3.064   2.340  1.00  0.00     0.202 C 
ENDROOT
BRANCH   1   2
ATOM      2  O   UNL     1      -1.827   3.664   1.138  1.00  0.00    -0.374 OA
BRANCH   2   3
ATOM      3  C   UNL     1      -2.677   4.801   1.333  1.00  0.00     0.202 C 
BRANCH   3   4
ATOM      4  C   UNL     1      -4.077   4.515   1.927  1.00  0.00     0.261 C 
BRANCH   4   5
ATOM      5  O   UNL     1      -4.010   3.801   3.187  1.00  0.00    -0.462 OA
BRANCH   5   6
ATOM      6  C   UNL     1      -4.520   2.541   3.195  1.00  0.00     0.326 C 
ATOM      7  O   UNL     1      -5.307   2.118   2.350  1.00  0.00    -0.250 OA
BRANCH   6   8
ATOM      8  C   UNL     1      -4.043   1.629   4.350  1.00  0.00     0.248 C 
BRANCH   8   9
ATOM      9  N   UNL     1      -2.941   1.946   5.273  1.00  0.00    -0.297 N 
ATOM     10  C   UNL     1       0.129   0.239   3.815  1.00  0.00     0.042 A 
ATOM     11  C   UNL     1       1.092   0.686   4.717  1.00  0.00     0.016 A 
ATOM     12  C   UNL     1      -1.224   0.524   4.091  1.00  0.00     0.042 A 
ATOM     13  C   UNL     1       0.724   1.436   5.844  1.00  0.00     0.029 A 
ATOM     14  C   UNL     1      -1.607   1.383   5.176  1.00  0.00     0.069 A 
ATOM     15  C   UNL     1      -0.610   1.820   6.107  1.00  0.00     0.062 A 
ATOM     16  N   UNL     1      -0.920   2.620   7.212  1.00  0.00    -0.358 N 
ATOM     17  C   UNL     1      -3.266   2.829   6.304  1.00  0.00     0.250 C 
ATOM     18  C   UNL     1      -2.343   2.821   7.529  1.00  0.00     0.172 C 
ATOM     19  C   UNL     1       0.088   3.385   7.964  1.00  0.00     0.117 C 
ATOM     20  O   UNL     1      -4.327   3.461   6.300  1.00  0.00    -0.272 OA
ATOM     21  C   UNL     1      -2.558   4.093   8.361  1.00  0.00     0.035 C 
ATOM     22  C   UNL     1      -0.301   3.720   9.410  1.00  0.00     0.022 C 
ATOM     23  C   UNL     1      -1.774   4.006   9.656  1.00  0.00     0.004 C 
BRANCH  10  24
ATOM     24  C   UNL     1       0.607  -0.701   2.754  1.00  0.00     0.253 C 
ATOM     25  C   UNL     1       1.480  -1.296   0.547  1.00  0.00     0.146 C 
ATOM     26  N   UNL     1       0.761  -0.363   1.398  1.00  0.00    -0.345 N 
ATOM     27  C   UNL     1       0.418   0.875   0.722  1.00  0.00     0.146 C 
ATOM     28  O   UNL     1       0.960  -1.802   3.186  1.00  0.00    -0.269 OA
ENDBRANCH  10  24
ENDBRANCH   8   9
ENDBRANCH   6   8
ENDBRANCH   5   6
ENDBRANCH   4   5
ENDBRANCH   3   4
ENDBRANCH   2   3
ENDBRANCH   1   2
BRANCH   1  29
ATOM     29  C   UNL     1      -0.042   3.482   2.933  1.00  0.00     0.261 C 
BRANCH  29  30
ATOM     30  O   UNL     1       0.073   4.869   2.940  1.00  0.00    -0.460 OA
BRANCH  30  31
ATOM     31  C   UNL     1       0.799   5.382   1.931  1.00  0.00     0.338 C 
ATOM     32  O   UNL     1       1.360   4.821   1.012  1.00  0.00    -0.246 OA
BRANCH  31  33
ATOM     33  C   UNL     1       0.586   6.802   2.155  1.00  0.00     0.060 A 
ATOM     34  C   UNL     1       0.625   7.262   3.483  1.00  0.00     0.016 A 
ATOM     35  C   UNL     1       0.134   7.581   1.096  1.00  0.00     0.016 A 
ATOM     36  C   UNL     1       0.151   8.516   3.764  1.00  0.00     0.010 A 
ATOM     37  C   UNL     1      -0.271   8.872   1.372  1.00  0.00     0.010 A 
ATOM     38  C   UNL     1      -0.248   9.332   2.699  1.00  0.00    -0.014 A 
BRANCH  38  39
ATOM     39  C   UNL     1      -0.438  10.752   2.982  1.00  0.00     0.031 A 
ATOM     40  C   UNL     1      -1.795  11.354   2.982  1.00  0.00     0.074 A 
ATOM     41  C   UNL     1       0.685  11.443   3.240  1.00  0.00     0.049 A 
ATOM     42  N   UNL     1      -2.122  12.587   3.238  1.00  0.00    -0.248 NA
ATOM     43  C   UNL     1      -2.930  10.476   2.647  1.00  0.00     0.031 C 
ATOM     44  C   UNL     1       2.042  10.878   3.223  1.00  0.00     0.029 A 
ATOM     45  N   UNL     1       0.873  12.749   3.575  1.00  0.00    -0.354 N 
ATOM     46  C   UNL     1      -3.494  12.650   3.067  1.00  0.00     0.074 A 
ATOM     47  C   UNL     1      -3.945  11.331   2.686  1.00  0.00     0.031 C 
ATOM     48  C   UNL     1       2.919  11.829   3.563  1.00  0.00     0.029 A 
ATOM     49  C   UNL     1       2.193  13.071   3.772  1.00  0.00     0.049 A 
ATOM     50  H   UNL     1       0.138  13.397   3.666  1.00  0.00     0.167 HD
ATOM     51  C   UNL     1      -4.288  13.729   3.233  1.00  0.00     0.034 A 
ATOM     52  C   UNL     1       2.751  14.252   4.079  1.00  0.00     0.034 A 
ATOM     53  C   UNL     1      -3.791  15.016   3.637  1.00  0.00     0.049 A 
ATOM     54  C   UNL     1       1.839  15.421   4.267  1.00  0.00     0.074 A 
ATOM     55  C   UNL     1      -4.506  16.171   3.885  1.00  0.00     0.029 A 
ATOM     56  N   UNL     1      -2.451  15.314   3.845  1.00  0.00    -0.354 N 
ATOM     57  N   UNL     1       0.529  15.451   4.194  1.00  0.00    -0.248 NA
ATOM     58  C   UNL     1       2.462  16.706   4.590  1.00  0.00     0.031 C 
ATOM     59  C   UNL     1      -3.595  17.174   4.228  1.00  0.00     0.029 A 
ATOM     60  C   UNL     1      -2.314  16.639   4.210  1.00  0.00     0.049 A 
ATOM     61  H   UNL     1      -1.708  14.676   3.747  1.00  0.00     0.167 HD
ATOM     62  C   UNL     1       0.165  16.757   4.472  1.00  0.00     0.074 A 
ATOM     63  C   UNL     1       1.395  17.483   4.734  1.00  0.00     0.031 C 
ATOM     64  C   UNL     1      -1.071  17.311   4.494  1.00  0.00     0.034 A 
BRANCH  51  65
ATOM     65  C   UNL     1      -5.763  13.565   3.021  1.00  0.00     0.023 A 
ATOM     66  C   UNL     1      -6.541  12.959   4.026  1.00  0.00     0.012 A 
ATOM     67  C   UNL     1      -6.390  14.094   1.878  1.00  0.00     0.148 A 
ATOM     68  C   UNL     1      -7.927  12.881   3.896  1.00  0.00     0.002 A 
ATOM     69  C   UNL     1      -7.774  14.039   1.768  1.00  0.00     0.091 A 
ATOM     70  F   UNL     1      -5.623  14.647   0.928  1.00  0.00    -0.205 F 
ATOM     71  C   UNL     1      -8.543  13.431   2.775  1.00  0.00     0.022 A 
BRANCH  69  72
ATOM     72  S   UNL     1      -8.672  14.756   0.388  1.00  0.00     0.127 S 
ATOM     73  O   UNL     1      -9.300  13.573  -0.202  1.00  0.00    -0.237 OA
ATOM     74  O   UNL     1      -9.596  15.665   1.065  1.00  0.00    -0.237 OA
ATOM     75  O   UNL     1      -7.674  15.405  -0.451  1.00  0.00    -0.744 OA
ENDBRANCH  69  72
ENDBRANCH  51  65
BRANCH  52  76
ATOM     76  C   UNL     1       4.220  14.325   4.271  1.00  0.00     0.023 A 
ATOM     77  C   UNL     1       4.737  14.391   5.577  1.00  0.00     0.012 A 
ATOM     78  C   UNL     1       5.102  14.191   3.181  1.00  0.00     0.148 A 
ATOM     79  C   UNL     1       6.113  14.329   5.796  1.00  0.00     0.002 A 
ATOM     80  C   UNL     1       6.469  14.091   3.408  1.00  0.00     0.091 A 
ATOM     81  F   UNL     1       4.579  14.112   1.949  1.00  0.00    -0.205 F 
ATOM     82  C   UNL     1       6.977  14.169   4.715  1.00  0.00     0.022 A 
BRANCH  80  83
ATOM     83  S   UNL     1       7.649  13.768   2.093  1.00  0.00     0.127 S 
ATOM     84  O   UNL     1       8.427  15.005   2.084  1.00  0.00    -0.237 OA
ATOM     85  O   UNL     1       8.359  12.597   2.609  1.00  0.00    -0.237 OA
ATOM     86  O   UNL     1       6.855  13.518   0.899  1.00  0.00    -0.744 OA
ENDBRANCH  80  83
ENDBRANCH  52  76
BRANCH  64  87
ATOM     87  C   UNL     1      -1.161  18.773   4.810  1.00  0.00     0.023 A 
ATOM     88  C   UNL     1      -0.894  19.711   3.796  1.00  0.00     0.012 A 
ATOM     89  C   UNL     1      -1.642  19.202   6.060  1.00  0.00     0.148 A 
ATOM     90  C   UNL     1      -1.107  21.068   4.025  1.00  0.00     0.002 A 
ATOM     91  C   UNL     1      -1.886  20.551   6.268  1.00  0.00     0.091 A 
ATOM     92  F   UNL     1      -1.877  18.279   7.004  1.00  0.00    -0.205 F 
ATOM     93  C   UNL     1      -1.615  21.485   5.253  1.00  0.00     0.022 A 
BRANCH  91  94
ATOM     94  S   UNL     1      -2.613  21.178   7.785  1.00  0.00     0.127 S 
ATOM     95  O   UNL     1      -1.530  22.007   8.312  1.00  0.00    -0.237 OA
ATOM     96  O   UNL     1      -3.768  21.923   7.285  1.00  0.00    -0.237 OA
ATOM     97  O   UNL     1      -2.942  20.009   8.590  1.00  0.00    -0.744 OA
ENDBRANCH  91  94
ENDBRANCH  64  87
ENDBRANCH  38  39
ENDBRANCH  31  33
ENDBRANCH  30  31
ENDBRANCH  29  30
ENDBRANCH   1  29
TORSDOF 19
