REMARK SMILES CC(=O)Nc1ccc2sc(C(=O)OCCOCCOC(=O)c3ccc(-c4c5nc(c(-c6cccc(S(=O)(=O)[O-])c6F)c6ccc([nH]6)c(-c6cccc(S(=O)(=O)[O-])c6F)c6nc(c(-c7cccc(S(=O)(=O)[O-])c7F)c7ccc4[nH]7)C=C6)C=C5)cc3)cc2c1
REMARK SMILES IDX 17 1 16 2 15 3 14 4 13 5 11 6 12 7 10 8 5 9 6 10 87 11 7 12
REMARK SMILES IDX 86 13 8 14 85 15 9 16 4 17 1 18 2 19 3 20 18 22 19 23 20 24
REMARK SMILES IDX 21 25 22 26 23 27 84 28 24 29 83 30 25 31 26 32 27 33 77 34
REMARK SMILES IDX 28 35 82 36 76 37 78 38 29 39 81 40 75 41 74 42 30 44 62 45
REMARK SMILES IDX 42 46 61 47 43 48 46 49 60 50 79 51 44 52 45 53 59 55 80 56
REMARK SMILES IDX 47 57 31 58 32 59 40 60 33 61 35 62 41 63 34 64 36 65 37 66
REMARK SMILES IDX 38 67 39 68 63 69 64 70 72 71 65 72 67 73 73 74 66 75 68 76
REMARK SMILES IDX 69 77 70 78 71 79 48 80 49 81 57 82 50 83 52 84 58 85 51 86
REMARK SMILES IDX 53 87 54 88 55 89 56 90
REMARK H PARENT 4 21 78 43 46 54
REMARK Flexibility Score: inf
ROOT
ATOM      1  C   UNL     1       3.456   0.571  -9.479  1.00  0.00     0.202 C 
ENDROOT
BRANCH   1   2
ATOM      2  O   UNL     1       2.988   1.571 -10.390  1.00  0.00    -0.374 OA
BRANCH   2   3
ATOM      3  C   UNL     1       3.636   2.844 -10.312  1.00  0.00     0.202 C 
BRANCH   3   4
ATOM      4  C   UNL     1       2.997   3.825  -9.326  1.00  0.00     0.261 C 
BRANCH   4   5
ATOM      5  O   UNL     1       3.098   3.323  -7.986  1.00  0.00    -0.459 OA
BRANCH   5   6
ATOM      6  C   UNL     1       1.949   2.801  -7.475  1.00  0.00     0.348 C 
ATOM      7  O   UNL     1       0.841   2.911  -7.989  1.00  0.00    -0.245 OA
BRANCH   6   8
ATOM      8  C   UNL     1       2.212   1.974  -6.315  1.00  0.00     0.113 A 
ATOM      9  C   UNL     1       1.700  -0.907  -2.588  1.00  0.00     0.041 A 
ATOM     10  C   UNL     1       2.889  -0.328  -2.157  1.00  0.00     0.027 A 
ATOM     11  C   UNL     1       1.220  -0.641  -3.871  1.00  0.00     0.035 A 
ATOM     12  C   UNL     1       3.578   0.584  -2.966  1.00  0.00     0.022 A 
ATOM     13  C   UNL     1       1.833   0.358  -4.658  1.00  0.00    -0.005 A 
ATOM     14  C   UNL     1       3.007   0.956  -4.197  1.00  0.00     0.035 A 
ATOM     15  C   UNL     1       1.403   0.943  -5.886  1.00  0.00     0.036 A 
ATOM     16  S   UNL     1       3.578   2.144  -5.310  1.00  0.00    -0.128 S 
BRANCH   9  17
ATOM     17  N   UNL     1       0.922  -1.748  -1.782  1.00  0.00    -0.326 N 
ATOM     18  C   UNL     1       0.959  -0.327   0.256  1.00  0.00     0.114 C 
ATOM     19  C   UNL     1       0.604  -1.607  -0.459  1.00  0.00     0.221 C 
ATOM     20  O   UNL     1      -0.043  -2.491   0.105  1.00  0.00    -0.275 OA
ATOM     21  H   UNL     1       0.557  -2.547  -2.226  1.00  0.00     0.169 HD
ENDBRANCH   9  17
ENDBRANCH   6   8
ENDBRANCH   5   6
ENDBRANCH   4   5
ENDBRANCH   3   4
ENDBRANCH   2   3
ENDBRANCH   1   2
BRANCH   1  22
ATOM     22  C   UNL     1       4.709  -0.188  -9.927  1.00  0.00     0.261 C 
BRANCH  22  23
ATOM     23  O   UNL     1       5.876   0.648  -9.828  1.00  0.00    -0.460 OA
BRANCH  23  24
ATOM     24  C   UNL     1       6.403   1.041 -11.013  1.00  0.00     0.338 C 
ATOM     25  O   UNL     1       6.067   0.667 -12.124  1.00  0.00    -0.246 OA
BRANCH  24  26
ATOM     26  C   UNL     1       7.348   2.156 -10.795  1.00  0.00     0.060 A 
ATOM     27  C   UNL     1       7.244   3.260 -11.652  1.00  0.00     0.016 A 
ATOM     28  C   UNL     1       8.337   2.117  -9.809  1.00  0.00     0.016 A 
ATOM     29  C   UNL     1       8.164   4.303 -11.563  1.00  0.00     0.010 A 
ATOM     30  C   UNL     1       9.264   3.163  -9.726  1.00  0.00     0.010 A 
ATOM     31  C   UNL     1       9.203   4.242 -10.626  1.00  0.00    -0.014 A 
BRANCH  31  32
ATOM     32  C   UNL     1      10.303   5.234 -10.689  1.00  0.00     0.031 A 
ATOM     33  C   UNL     1      11.583   4.857 -11.386  1.00  0.00     0.074 A 
ATOM     34  C   UNL     1      10.159   6.459 -10.152  1.00  0.00     0.049 A 
ATOM     35  N   UNL     1      12.671   5.562 -11.556  1.00  0.00    -0.248 NA
ATOM     36  C   UNL     1      11.644   3.507 -11.972  1.00  0.00     0.031 C 
ATOM     37  C   UNL     1       8.965   6.944  -9.462  1.00  0.00     0.029 A 
ATOM     38  N   UNL     1      11.035   7.513 -10.091  1.00  0.00    -0.354 N 
ATOM     39  C   UNL     1      13.549   4.742 -12.256  1.00  0.00     0.074 A 
ATOM     40  C   UNL     1      12.876   3.478 -12.461  1.00  0.00     0.031 C 
ATOM     41  C   UNL     1       9.191   8.196  -9.027  1.00  0.00     0.029 A 
ATOM     42  C   UNL     1      10.550   8.593  -9.392  1.00  0.00     0.049 A 
ATOM     43  H   UNL     1      11.927   7.498 -10.509  1.00  0.00     0.167 HD
ATOM     44  C   UNL     1      14.793   5.023 -12.710  1.00  0.00     0.034 A 
ATOM     45  C   UNL     1      11.142   9.762  -9.074  1.00  0.00     0.034 A 
ATOM     46  C   UNL     1      15.457   6.283 -12.519  1.00  0.00     0.049 A 
ATOM     47  C   UNL     1      12.545  10.031  -9.556  1.00  0.00     0.074 A 
ATOM     48  C   UNL     1      16.714   6.668 -12.952  1.00  0.00     0.029 A 
ATOM     49  N   UNL     1      14.921   7.364 -11.837  1.00  0.00    -0.354 N 
ATOM     50  N   UNL     1      13.318   9.286 -10.309  1.00  0.00    -0.248 NA
ATOM     51  C   UNL     1      13.145  11.319  -9.173  1.00  0.00     0.031 C 
ATOM     52  C   UNL     1      16.941   7.980 -12.524  1.00  0.00     0.029 A 
ATOM     53  C   UNL     1      15.820   8.416 -11.836  1.00  0.00     0.049 A 
ATOM     54  H   UNL     1      14.031   7.381 -11.416  1.00  0.00     0.167 HD
ATOM     55  C   UNL     1      14.475  10.029 -10.521  1.00  0.00     0.074 A 
ATOM     56  C   UNL     1      14.294  11.291  -9.834  1.00  0.00     0.031 C 
ATOM     57  C   UNL     1      15.595   9.691 -11.207  1.00  0.00     0.034 A 
BRANCH  44  58
ATOM     58  C   UNL     1      15.501   3.961 -13.505  1.00  0.00     0.023 A 
ATOM     59  C   UNL     1      15.105   3.723 -14.837  1.00  0.00     0.012 A 
ATOM     60  C   UNL     1      16.589   3.247 -12.967  1.00  0.00     0.148 A 
ATOM     61  C   UNL     1      15.767   2.775 -15.616  1.00  0.00     0.002 A 
ATOM     62  C   UNL     1      17.267   2.329 -13.762  1.00  0.00     0.091 A 
ATOM     63  F   UNL     1      16.933   3.472 -11.692  1.00  0.00    -0.205 F 
ATOM     64  C   UNL     1      16.854   2.087 -15.082  1.00  0.00     0.022 A 
BRANCH  62  65
ATOM     65  S   UNL     1      18.719   1.439 -13.190  1.00  0.00     0.127 S 
ATOM     66  O   UNL     1      18.198   0.080 -13.057  1.00  0.00    -0.237 OA
ATOM     67  O   UNL     1      19.654   1.628 -14.300  1.00  0.00    -0.237 OA
ATOM     68  O   UNL     1      19.118   2.080 -11.944  1.00  0.00    -0.744 OA
ENDBRANCH  62  65
ENDBRANCH  44  58
BRANCH  45  69
ATOM     69  C   UNL     1      10.401  10.793  -8.293  1.00  0.00     0.023 A 
ATOM     70  C   UNL     1      10.032  12.001  -8.918  1.00  0.00     0.012 A 
ATOM     71  C   UNL     1      10.067  10.592  -6.941  1.00  0.00     0.148 A 
ATOM     72  C   UNL     1       9.375  13.002  -8.201  1.00  0.00     0.002 A 
ATOM     73  C   UNL     1       9.365  11.571  -6.246  1.00  0.00     0.091 A 
ATOM     74  F   UNL     1      10.448   9.448  -6.353  1.00  0.00    -0.205 F 
ATOM     75  C   UNL     1       9.033  12.784  -6.869  1.00  0.00     0.022 A 
BRANCH  73  76
ATOM     76  S   UNL     1       8.781  11.311  -4.567  1.00  0.00     0.127 S 
ATOM     77  O   UNL     1       9.770  12.049  -3.787  1.00  0.00    -0.237 OA
ATOM     78  O   UNL     1       7.449  11.917  -4.606  1.00  0.00    -0.237 OA
ATOM     79  O   UNL     1       8.771   9.865  -4.386  1.00  0.00    -0.744 OA
ENDBRANCH  73  76
ENDBRANCH  45  69
BRANCH  57  80
ATOM     80  C   UNL     1      16.701  10.711 -11.289  1.00  0.00     0.023 A 
ATOM     81  C   UNL     1      17.505  10.959 -10.159  1.00  0.00     0.012 A 
ATOM     82  C   UNL     1      16.993  11.363 -12.504  1.00  0.00     0.148 A 
ATOM     83  C   UNL     1      18.565  11.862 -10.229  1.00  0.00     0.002 A 
ATOM     84  C   UNL     1      18.078  12.228 -12.577  1.00  0.00     0.091 A 
ATOM     85  F   UNL     1      16.204  11.128 -13.562  1.00  0.00    -0.205 F 
ATOM     86  C   UNL     1      18.859  12.486 -11.439  1.00  0.00     0.022 A 
BRANCH  84  87
ATOM     87  S   UNL     1      18.583  13.005 -14.117  1.00  0.00     0.127 S 
ATOM     88  O   UNL     1      18.110  14.375 -13.929  1.00  0.00    -0.237 OA
ATOM     89  O   UNL     1      20.038  12.852 -14.082  1.00  0.00    -0.237 OA
ATOM     90  O   UNL     1      17.925  12.252 -15.177  1.00  0.00    -0.744 OA
ENDBRANCH  84  87
ENDBRANCH  57  80
ENDBRANCH  31  32
ENDBRANCH  24  26
ENDBRANCH  23  24
ENDBRANCH  22  23
ENDBRANCH   1  22
TORSDOF 18
