REMARK SMILES C[C@H]1[C@H](C(=O)OCCOCCOC(=O)c2ccc(-c3c4nc(c(-c5cccc(S(=O)(=O)[O-])c5F)c5ccc([nH]5)c(-c5cccc(S(=O)(=O)[O-])c5F)c5nc(c(-c6cccc(S(=O)(=O)[O-])c6F)c6ccc3[nH]6)C=C5)C=C4)cc2)CCN1C(=O)COc1ccccc1F
REMARK SMILES IDX 8 1 7 2 6 3 4 4 5 5 3 6 1 7 2 8 80 9 78 10 79 11 81 12 82 13
REMARK SMILES IDX 83 14 84 15 85 16 86 17 90 18 87 19 89 20 91 21 88 22 9 23
REMARK SMILES IDX 10 24 11 25 12 26 13 27 14 28 15 29 16 30 77 31 17 32 76 33
REMARK SMILES IDX 18 34 19 35 20 36 70 37 21 38 75 39 69 40 71 41 22 42 74 43
REMARK SMILES IDX 68 44 67 45 23 47 55 48 35 49 54 50 36 51 39 52 53 53 72 54
REMARK SMILES IDX 37 55 38 56 52 58 73 59 40 60 24 61 25 62 33 63 26 64 28 65
REMARK SMILES IDX 34 66 27 67 29 68 30 69 31 70 32 71 56 72 57 73 65 74 58 75
REMARK SMILES IDX 60 76 66 77 59 78 61 79 62 80 63 81 64 82 41 83 42 84 50 85
REMARK SMILES IDX 43 86 45 87 51 88 44 89 46 90 47 91 48 92 49 93
REMARK H PARENT 71 46 39 57
REMARK Flexibility Score: inf
ROOT
ATOM      1  C   UNL     1       0.463   3.818   3.408  1.00  0.00     0.202 C 
ENDROOT
BRANCH   1   2
ATOM      2  C   UNL     1      -0.875   3.444   2.764  1.00  0.00     0.261 C 
BRANCH   2   3
ATOM      3  O   UNL     1      -0.769   2.254   1.961  1.00  0.00    -0.463 OA
BRANCH   3   4
ATOM      4  C   UNL     1      -0.923   2.419   0.622  1.00  0.00     0.311 C 
ATOM      5  O   UNL     1      -1.167   3.483   0.064  1.00  0.00    -0.252 OA
BRANCH   4   6
ATOM      6  C   UNL     1      -0.806   1.123  -0.141  1.00  0.00     0.123 C 
ATOM      7  C   UNL     1       1.532   0.287  -0.468  1.00  0.00     0.032 C 
ATOM      8  C   UNL     1       0.257   0.117   0.362  1.00  0.00     0.096 C 
ATOM      9  N   UNL     1      -0.398  -1.195   0.213  1.00  0.00    -0.336 N 
ATOM     10  C   UNL     1      -2.124   0.366  -0.095  1.00  0.00     0.039 C 
ATOM     11  C   UNL     1      -1.709  -1.055  -0.395  1.00  0.00     0.121 C 
BRANCH   9  12
ATOM     12  C   UNL     1      -0.005  -2.450   0.640  1.00  0.00     0.260 C 
ATOM     13  O   UNL     1      -0.801  -3.397   0.670  1.00  0.00    -0.271 OA
BRANCH  12  14
ATOM     14  C   UNL     1       1.445  -2.693   1.067  1.00  0.00     0.329 C 
BRANCH  14  15
ATOM     15  O   UNL     1       2.532  -2.408   0.203  1.00  0.00    -0.481 OA
BRANCH  15  16
ATOM     16  C   UNL     1       2.693  -3.149  -0.933  1.00  0.00     0.155 A 
ATOM     17  C   UNL     1       4.014  -3.510  -1.216  1.00  0.00     0.049 A 
ATOM     18  C   UNL     1       1.717  -3.417  -1.895  1.00  0.00     0.165 A 
ATOM     19  C   UNL     1       4.343  -4.141  -2.421  1.00  0.00     0.004 A 
ATOM     20  C   UNL     1       2.037  -4.054  -3.093  1.00  0.00     0.043 A 
ATOM     21  F   UNL     1       0.457  -2.994  -1.766  1.00  0.00    -0.203 F 
ATOM     22  C   UNL     1       3.353  -4.414  -3.361  1.00  0.00     0.003 A 
ENDBRANCH  15  16
ENDBRANCH  14  15
ENDBRANCH  12  14
ENDBRANCH   9  12
ENDBRANCH   4   6
ENDBRANCH   3   4
ENDBRANCH   2   3
ENDBRANCH   1   2
BRANCH   1  23
ATOM     23  O   UNL     1       1.499   4.235   2.517  1.00  0.00    -0.374 OA
BRANCH  23  24
ATOM     24  C   UNL     1       2.178   3.216   1.786  1.00  0.00     0.202 C 
BRANCH  24  25
ATOM     25  C   UNL     1       3.243   2.416   2.544  1.00  0.00     0.261 C 
BRANCH  25  26
ATOM     26  O   UNL     1       2.678   1.638   3.615  1.00  0.00    -0.460 OA
BRANCH  26  27
ATOM     27  C   UNL     1       3.019   2.066   4.852  1.00  0.00     0.338 C 
ATOM     28  O   UNL     1       3.811   2.966   5.123  1.00  0.00    -0.246 OA
BRANCH  27  29
ATOM     29  C   UNL     1       2.188   1.427   5.886  1.00  0.00     0.060 A 
ATOM     30  C   UNL     1       1.608   2.270   6.842  1.00  0.00     0.016 A 
ATOM     31  C   UNL     1       2.062   0.039   5.995  1.00  0.00     0.016 A 
ATOM     32  C   UNL     1       0.978   1.730   7.958  1.00  0.00     0.010 A 
ATOM     33  C   UNL     1       1.427  -0.503   7.121  1.00  0.00     0.010 A 
ATOM     34  C   UNL     1       0.935   0.340   8.133  1.00  0.00    -0.014 A 
BRANCH  34  35
ATOM     35  C   UNL     1       0.543  -0.192   9.462  1.00  0.00     0.031 A 
ATOM     36  C   UNL     1       1.621  -0.601  10.432  1.00  0.00     0.074 A 
ATOM     37  C   UNL     1      -0.750  -0.245   9.831  1.00  0.00     0.049 A 
ATOM     38  N   UNL     1       1.512  -0.995  11.674  1.00  0.00    -0.248 NA
ATOM     39  C   UNL     1       3.008  -0.557   9.937  1.00  0.00     0.031 C 
ATOM     40  C   UNL     1      -1.885   0.117   8.984  1.00  0.00     0.029 A 
ATOM     41  N   UNL     1      -1.322  -0.630  11.017  1.00  0.00    -0.354 N 
ATOM     42  C   UNL     1       2.806  -1.262  12.103  1.00  0.00     0.074 A 
ATOM     43  C   UNL     1       3.685  -1.008  10.983  1.00  0.00     0.031 C 
ATOM     44  C   UNL     1      -3.022  -0.075   9.675  1.00  0.00     0.029 A 
ATOM     45  C   UNL     1      -2.695  -0.577  11.009  1.00  0.00     0.049 A 
ATOM     46  H   UNL     1      -0.798  -0.916  11.800  1.00  0.00     0.167 HD
ATOM     47  C   UNL     1       3.232  -1.657  13.327  1.00  0.00     0.034 A 
ATOM     48  C   UNL     1      -3.586  -0.897  11.969  1.00  0.00     0.034 A 
ATOM     49  C   UNL     1       2.364  -1.884  14.450  1.00  0.00     0.049 A 
ATOM     50  C   UNL     1      -3.086  -1.331  13.323  1.00  0.00     0.074 A 
ATOM     51  C   UNL     1       2.704  -2.243  15.742  1.00  0.00     0.029 A 
ATOM     52  N   UNL     1       0.983  -1.780  14.414  1.00  0.00    -0.354 N 
ATOM     53  N   UNL     1      -1.852  -1.446  13.751  1.00  0.00    -0.248 NA
ATOM     54  C   UNL     1      -4.103  -1.638  14.340  1.00  0.00     0.031 C 
ATOM     55  C   UNL     1       1.525  -2.372  16.485  1.00  0.00     0.029 A 
ATOM     56  C   UNL     1       0.453  -2.074  15.659  1.00  0.00     0.049 A 
ATOM     57  H   UNL     1       0.456  -1.533  13.620  1.00  0.00     0.167 HD
ATOM     58  C   UNL     1      -1.944  -1.802  15.093  1.00  0.00     0.074 A 
ATOM     59  C   UNL     1      -3.356  -1.860  15.413  1.00  0.00     0.031 C 
ATOM     60  C   UNL     1      -0.952  -2.072  15.978  1.00  0.00     0.034 A 
BRANCH  47  61
ATOM     61  C   UNL     1       4.715  -1.831  13.524  1.00  0.00     0.023 A 
ATOM     62  C   UNL     1       5.540  -0.692  13.618  1.00  0.00     0.012 A 
ATOM     63  C   UNL     1       5.285  -3.111  13.665  1.00  0.00     0.148 A 
ATOM     64  C   UNL     1       6.914  -0.824  13.820  1.00  0.00     0.002 A 
ATOM     65  C   UNL     1       6.649  -3.234  13.905  1.00  0.00     0.091 A 
ATOM     66  F   UNL     1       4.488  -4.183  13.546  1.00  0.00    -0.205 F 
ATOM     67  C   UNL     1       7.465  -2.093  13.974  1.00  0.00     0.022 A 
BRANCH  65  68
ATOM     68  S   UNL     1       7.440  -4.822  14.187  1.00  0.00     0.127 S 
ATOM     69  O   UNL     1       8.169  -5.014  12.934  1.00  0.00    -0.237 OA
ATOM     70  O   UNL     1       8.287  -4.545  15.348  1.00  0.00    -0.237 OA
ATOM     71  O   UNL     1       6.361  -5.767  14.437  1.00  0.00    -0.744 OA
ENDBRANCH  65  68
ENDBRANCH  47  61
BRANCH  48  72
ATOM     72  C   UNL     1      -5.046  -0.758  11.704  1.00  0.00     0.023 A 
ATOM     73  C   UNL     1      -5.779   0.251  12.357  1.00  0.00     0.012 A 
ATOM     74  C   UNL     1      -5.705  -1.608  10.796  1.00  0.00     0.148 A 
ATOM     75  C   UNL     1      -7.150   0.392  12.133  1.00  0.00     0.002 A 
ATOM     76  C   UNL     1      -7.059  -1.428  10.536  1.00  0.00     0.091 A 
ATOM     77  F   UNL     1      -4.994  -2.576  10.201  1.00  0.00    -0.205 F 
ATOM     78  C   UNL     1      -7.787  -0.439  11.215  1.00  0.00     0.022 A 
BRANCH  76  79
ATOM     79  S   UNL     1      -7.927  -2.368   9.276  1.00  0.00     0.127 S 
ATOM     80  O   UNL     1      -8.746  -3.267  10.085  1.00  0.00    -0.237 OA
ATOM     81  O   UNL     1      -8.670  -1.321   8.574  1.00  0.00    -0.237 OA
ATOM     82  O   UNL     1      -6.887  -3.001   8.477  1.00  0.00    -0.744 OA
ENDBRANCH  76  79
ENDBRANCH  48  72
BRANCH  60  83
ATOM     83  C   UNL     1      -1.349  -2.427  17.387  1.00  0.00     0.023 A 
ATOM     84  C   UNL     1      -1.926  -3.684  17.655  1.00  0.00     0.012 A 
ATOM     85  C   UNL     1      -1.091  -1.545  18.455  1.00  0.00     0.148 A 
ATOM     86  C   UNL     1      -2.273  -4.043  18.957  1.00  0.00     0.002 A 
ATOM     87  C   UNL     1      -1.397  -1.928  19.756  1.00  0.00     0.091 A 
ATOM     88  F   UNL     1      -0.559  -0.344  18.181  1.00  0.00    -0.205 F 
ATOM     89  C   UNL     1      -1.999  -3.171  20.008  1.00  0.00     0.022 A 
BRANCH  87  90
ATOM     90  S   UNL     1      -0.988  -0.901  21.173  1.00  0.00     0.127 S 
ATOM     91  O   UNL     1      -2.277  -0.284  21.478  1.00  0.00    -0.237 OA
ATOM     92  O   UNL     1      -0.536  -1.886  22.157  1.00  0.00    -0.237 OA
ATOM     93  O   UNL     1       0.054   0.007  20.713  1.00  0.00    -0.744 OA
ENDBRANCH  87  90
ENDBRANCH  60  83
ENDBRANCH  34  35
ENDBRANCH  27  29
ENDBRANCH  26  27
ENDBRANCH  25  26
ENDBRANCH  24  25
ENDBRANCH  23  24
ENDBRANCH   1  23
TORSDOF 21
