REMARK SMILES O=C(/C=C/c1ccc(C(=O)NC2CC2)cc1)NC1(C(=O)OCCOCCOC(=O)c2ccc(-c3c4nc(c(-c5cccc(S(=O)(=O)[O-])c5F)c5ccc([nH]5)c(-c5cccc(S(=O)(=O)[O-])c5F)c5nc(c(-c6cccc(S(=O)(=O)[O-])c6F)c6ccc3[nH]6)C=C5)C=C4)cc2)CCCC1
REMARK SMILES IDX 23 1 22 2 21 3 19 4 20 5 18 6 93 7 96 8 94 9 95 10 17 11
REMARK SMILES IDX 1 12 2 13 3 15 4 16 5 17 6 18 16 19 7 20 15 21 8 22 9 23
REMARK SMILES IDX 10 24 11 25 12 27 13 28 14 29 24 30 25 31 26 32 27 33 28 34
REMARK SMILES IDX 29 35 30 36 31 37 92 38 32 39 91 40 33 41 34 42 35 43 85 44
REMARK SMILES IDX 36 45 90 46 84 47 86 48 37 49 89 50 83 51 82 52 38 54 70 55
REMARK SMILES IDX 50 56 69 57 51 58 54 59 68 60 87 61 52 62 53 63 67 65 88 66
REMARK SMILES IDX 55 67 39 68 40 69 48 70 41 71 43 72 49 73 42 74 44 75 45 76
REMARK SMILES IDX 46 77 47 78 71 79 72 80 80 81 73 82 75 83 81 84 74 85 76 86
REMARK SMILES IDX 77 87 78 88 79 89 56 90 57 91 65 92 58 93 60 94 66 95 59 96
REMARK SMILES IDX 61 97 62 98 63 99 64 100
REMARK H PARENT 17 14 11 26 86 53 54 64
REMARK Flexibility Score: inf
ROOT
ATOM      1  C   UNL     1      -2.028  -1.712  -0.662  1.00  0.00     0.202 C 
ENDROOT
BRANCH   1   2
ATOM      2  C   UNL     1      -1.341  -1.196  -1.933  1.00  0.00     0.261 C 
BRANCH   2   3
ATOM      3  O   UNL     1      -0.040  -1.781  -2.098  1.00  0.00    -0.461 OA
BRANCH   3   4
ATOM      4  C   UNL     1       0.898  -0.957  -2.646  1.00  0.00     0.331 C 
ATOM      5  O   UNL     1       0.646   0.094  -3.230  1.00  0.00    -0.249 OA
BRANCH   4   6
ATOM      6  C   UNL     1       2.352  -1.460  -2.365  1.00  0.00     0.138 C 
ATOM      7  C   UNL     1       3.038  -1.629  -3.731  1.00  0.00     0.040 C 
ATOM      8  C   UNL     1       2.482  -2.884  -1.790  1.00  0.00     0.040 C 
ATOM      9  C   UNL     1       2.527  -2.969  -4.234  1.00  0.00     0.003 C 
ATOM     10  C   UNL     1       2.419  -3.838  -2.988  1.00  0.00     0.003 C 
BRANCH   6  11
ATOM     11  N   UNL     1       3.115  -0.472  -1.572  1.00  0.00    -0.337 N 
ATOM     12  O   UNL     1       1.374   0.214  -0.244  1.00  0.00    -0.270 OA
ATOM     13  C   UNL     1       2.561   0.228  -0.544  1.00  0.00     0.244 C 
ATOM     14  H   UNL     1       4.061  -0.314  -1.797  1.00  0.00     0.164 HD
BRANCH  13  15
ATOM     15  C   UNL     1       3.441   1.101   0.255  1.00  0.00     0.072 C 
ATOM     16  C   UNL     1       4.769   1.035   0.437  1.00  0.00     0.014 C 
BRANCH  16  17
ATOM     17  C   UNL     1       5.406   1.857   1.480  1.00  0.00    -0.025 A 
ATOM     18  C   UNL     1       6.716   2.319   1.363  1.00  0.00     0.009 A 
ATOM     19  C   UNL     1       4.713   2.149   2.658  1.00  0.00     0.009 A 
ATOM     20  C   UNL     1       7.305   3.048   2.414  1.00  0.00     0.014 A 
ATOM     21  C   UNL     1       5.285   2.923   3.666  1.00  0.00     0.014 A 
ATOM     22  C   UNL     1       6.599   3.344   3.600  1.00  0.00     0.039 A 
BRANCH  22  23
ATOM     23  C   UNL     1       7.294   4.127   4.657  1.00  0.00     0.251 C 
ATOM     24  O   UNL     1       8.362   4.670   4.342  1.00  0.00    -0.269 OA
ATOM     25  N   UNL     1       6.910   4.329   5.965  1.00  0.00    -0.349 N 
ATOM     26  H   UNL     1       7.539   4.957   6.390  1.00  0.00     0.164 HD
BRANCH  25  27
ATOM     27  C   UNL     1       5.920   3.946   6.919  1.00  0.00     0.082 C 
ATOM     28  C   UNL     1       4.454   4.205   6.735  1.00  0.00     0.027 C 
ATOM     29  C   UNL     1       4.972   2.795   6.916  1.00  0.00     0.027 C 
ENDBRANCH  25  27
ENDBRANCH  22  23
ENDBRANCH  16  17
ENDBRANCH  13  15
ENDBRANCH   6  11
ENDBRANCH   4   6
ENDBRANCH   3   4
ENDBRANCH   2   3
ENDBRANCH   1   2
BRANCH   1  30
ATOM     30  O   UNL     1      -1.438  -1.389   0.598  1.00  0.00    -0.374 OA
BRANCH  30  31
ATOM     31  C   UNL     1      -0.196  -2.014   0.916  1.00  0.00     0.202 C 
BRANCH  31  32
ATOM     32  C   UNL     1      -0.251  -3.464   1.408  1.00  0.00     0.261 C 
BRANCH  32  33
ATOM     33  O   UNL     1      -0.732  -4.369   0.402  1.00  0.00    -0.460 OA
BRANCH  33  34
ATOM     34  C   UNL     1      -1.988  -4.824   0.607  1.00  0.00     0.338 C 
ATOM     35  O   UNL     1      -2.709  -4.604   1.575  1.00  0.00    -0.246 OA
BRANCH  34  36
ATOM     36  C   UNL     1      -2.478  -5.496  -0.606  1.00  0.00     0.060 A 
ATOM     37  C   UNL     1      -3.683  -5.042  -1.163  1.00  0.00     0.016 A 
ATOM     38  C   UNL     1      -1.812  -6.598  -1.142  1.00  0.00     0.016 A 
ATOM     39  C   UNL     1      -4.259  -5.725  -2.229  1.00  0.00     0.010 A 
ATOM     40  C   UNL     1      -2.399  -7.292  -2.200  1.00  0.00     0.010 A 
ATOM     41  C   UNL     1      -3.645  -6.884  -2.715  1.00  0.00    -0.014 A 
BRANCH  41  42
ATOM     42  C   UNL     1      -4.388  -7.792  -3.615  1.00  0.00     0.031 A 
ATOM     43  C   UNL     1      -5.021  -9.017  -3.021  1.00  0.00     0.074 A 
ATOM     44  C   UNL     1      -4.459  -7.554  -4.935  1.00  0.00     0.049 A 
ATOM     45  N   UNL     1      -5.592 -10.028  -3.618  1.00  0.00    -0.248 NA
ATOM     46  C   UNL     1      -4.988  -9.121  -1.552  1.00  0.00     0.031 C 
ATOM     47  C   UNL     1      -3.900  -6.388  -5.613  1.00  0.00     0.029 A 
ATOM     48  N   UNL     1      -4.994  -8.314  -5.944  1.00  0.00    -0.354 N 
ATOM     49  C   UNL     1      -5.941 -10.912  -2.605  1.00  0.00     0.074 A 
ATOM     50  C   UNL     1      -5.516 -10.319  -1.356  1.00  0.00     0.031 C 
ATOM     51  C   UNL     1      -4.072  -6.534  -6.937  1.00  0.00     0.029 A 
ATOM     52  C   UNL     1      -4.719  -7.820  -7.197  1.00  0.00     0.049 A 
ATOM     53  H   UNL     1      -5.522  -9.130  -5.787  1.00  0.00     0.167 HD
ATOM     54  C   UNL     1      -6.563 -12.110  -2.706  1.00  0.00     0.034 A 
ATOM     55  C   UNL     1      -4.922  -8.367  -8.411  1.00  0.00     0.034 A 
ATOM     56  C   UNL     1      -6.992 -12.681  -3.953  1.00  0.00     0.049 A 
ATOM     57  C   UNL     1      -5.597  -9.710  -8.509  1.00  0.00     0.074 A 
ATOM     58  C   UNL     1      -7.679 -13.862  -4.167  1.00  0.00     0.029 A 
ATOM     59  N   UNL     1      -6.758 -12.120  -5.199  1.00  0.00    -0.354 N 
ATOM     60  N   UNL     1      -6.013 -10.495  -7.544  1.00  0.00    -0.248 NA
ATOM     61  C   UNL     1      -5.861 -10.230  -9.858  1.00  0.00     0.031 C 
ATOM     62  C   UNL     1      -7.826 -14.033  -5.547  1.00  0.00     0.029 A 
ATOM     63  C   UNL     1      -7.273 -12.935  -6.190  1.00  0.00     0.049 A 
ATOM     64  H   UNL     1      -6.294 -11.265  -5.355  1.00  0.00     0.167 HD
ATOM     65  C   UNL     1      -6.624 -11.578  -8.165  1.00  0.00     0.074 A 
ATOM     66  C   UNL     1      -6.524 -11.349  -9.592  1.00  0.00     0.031 C 
ATOM     67  C   UNL     1      -7.214 -12.663  -7.604  1.00  0.00     0.034 A 
BRANCH  54  68
ATOM     68  C   UNL     1      -6.803 -12.878  -1.433  1.00  0.00     0.023 A 
ATOM     69  C   UNL     1      -7.745 -12.412  -0.494  1.00  0.00     0.012 A 
ATOM     70  C   UNL     1      -6.101 -14.071  -1.172  1.00  0.00     0.148 A 
ATOM     71  C   UNL     1      -7.948 -13.092   0.707  1.00  0.00     0.002 A 
ATOM     72  C   UNL     1      -6.345 -14.770   0.004  1.00  0.00     0.091 A 
ATOM     73  F   UNL     1      -5.190 -14.487  -2.062  1.00  0.00    -0.205 F 
ATOM     74  C   UNL     1      -7.255 -14.274   0.951  1.00  0.00     0.022 A 
BRANCH  72  75
ATOM     75  S   UNL     1      -5.561 -16.345   0.365  1.00  0.00     0.127 S 
ATOM     76  O   UNL     1      -4.571 -15.959   1.370  1.00  0.00    -0.237 OA
ATOM     77  O   UNL     1      -6.678 -17.136   0.883  1.00  0.00    -0.237 OA
ATOM     78  O   UNL     1      -5.021 -16.821  -0.900  1.00  0.00    -0.744 OA
ENDBRANCH  72  75
ENDBRANCH  54  68
BRANCH  55  79
ATOM     79  C   UNL     1      -4.487  -7.624  -9.625  1.00  0.00     0.023 A 
ATOM     80  C   UNL     1      -5.450  -7.039 -10.468  1.00  0.00     0.012 A 
ATOM     81  C   UNL     1      -3.119  -7.435  -9.905  1.00  0.00     0.148 A 
ATOM     82  C   UNL     1      -5.058  -6.290 -11.578  1.00  0.00     0.002 A 
ATOM     83  C   UNL     1      -2.736  -6.643 -10.980  1.00  0.00     0.091 A 
ATOM     84  F   UNL     1      -2.220  -8.009  -9.092  1.00  0.00    -0.205 F 
ATOM     85  C   UNL     1      -3.704  -6.081 -11.827  1.00  0.00     0.022 A 
BRANCH  83  86
ATOM     86  S   UNL     1      -1.022  -6.209 -11.301  1.00  0.00     0.127 S 
ATOM     87  O   UNL     1      -0.789  -6.846 -12.595  1.00  0.00    -0.237 OA
ATOM     88  O   UNL     1      -1.087  -4.748 -11.335  1.00  0.00    -0.237 OA
ATOM     89  O   UNL     1      -0.258  -6.754 -10.187  1.00  0.00    -0.744 OA
ENDBRANCH  83  86
ENDBRANCH  55  79
BRANCH  67  90
ATOM     90  C   UNL     1      -7.864 -13.670  -8.516  1.00  0.00     0.023 A 
ATOM     91  C   UNL     1      -7.075 -14.567  -9.261  1.00  0.00     0.012 A 
ATOM     92  C   UNL     1      -9.267 -13.806  -8.527  1.00  0.00     0.148 A 
ATOM     93  C   UNL     1      -7.674 -15.577 -10.014  1.00  0.00     0.002 A 
ATOM     94  C   UNL     1      -9.854 -14.845  -9.238  1.00  0.00     0.091 A 
ATOM     95  F   UNL     1      -9.998 -12.930  -7.822  1.00  0.00    -0.205 F 
ATOM     96  C   UNL     1      -9.060 -15.725  -9.990  1.00  0.00     0.022 A 
BRANCH  94  97
ATOM     97  S   UNL     1     -11.618 -15.179  -9.180  1.00  0.00     0.127 S 
ATOM     98  O   UNL     1     -12.027 -14.859 -10.547  1.00  0.00    -0.237 OA
ATOM     99  O   UNL     1     -11.652 -16.604  -8.850  1.00  0.00    -0.237 OA
ATOM    100  O   UNL     1     -12.163 -14.305  -8.150  1.00  0.00    -0.744 OA
ENDBRANCH  94  97
ENDBRANCH  67  90
ENDBRANCH  41  42
ENDBRANCH  34  36
ENDBRANCH  33  34
ENDBRANCH  32  33
ENDBRANCH  31  32
ENDBRANCH  30  31
ENDBRANCH   1  30
TORSDOF 22
