REMARK SMILES C[C@H]([NH2+]CC1(O)CCCC1)[C@H](C)C(=O)OCCOCCOC(=O)c1ccc(-c2c3nc(c(-c4cccc(S(=O)(=O)[O-])c4F)c4ccc([nH]4)c(-c4cccc(S(=O)(=O)[O-])c4F)c4nc(c(-c5cccc(S(=O)(=O)[O-])c5F)c5ccc2[nH]5)C=C4)C=C3)cc1
REMARK SMILES IDX 17 1 16 2 15 3 13 4 14 5 11 6 12 7 2 8 1 9 3 10 4 13 5 14
REMARK SMILES IDX 7 15 10 16 8 17 9 18 6 19 18 21 19 22 20 23 21 24 22 25
REMARK SMILES IDX 23 26 24 27 25 28 86 29 26 30 85 31 27 32 28 33 29 34 79 35
REMARK SMILES IDX 30 36 84 37 78 38 80 39 31 40 83 41 77 42 76 43 32 45 64 46
REMARK SMILES IDX 44 47 63 48 45 49 48 50 62 51 81 52 46 53 47 54 61 56 82 57
REMARK SMILES IDX 49 58 33 59 34 60 42 61 35 62 37 63 43 64 36 65 38 66 39 67
REMARK SMILES IDX 40 68 41 69 65 70 66 71 74 72 67 73 69 74 75 75 68 76 70 77
REMARK SMILES IDX 71 78 72 79 73 80 50 81 51 82 59 83 52 84 54 85 60 86 53 87
REMARK SMILES IDX 55 88 56 89 57 90 58 91
REMARK H PARENT 3 11 3 12 6 20 80 44 48 55
REMARK Flexibility Score: inf
ROOT
ATOM      1  C   UNL     1      -1.754   2.930   4.736  1.00  0.00     0.202 C 
ENDROOT
BRANCH   1   2
ATOM      2  C   UNL     1      -2.472   1.646   4.302  1.00  0.00     0.261 C 
BRANCH   2   3
ATOM      3  O   UNL     1      -1.712   0.876   3.350  1.00  0.00    -0.463 OA
BRANCH   3   4
ATOM      4  C   UNL     1      -2.105   0.993   2.052  1.00  0.00     0.314 C 
ATOM      5  O   UNL     1      -3.022   1.710   1.668  1.00  0.00    -0.252 OA
BRANCH   4   6
ATOM      6  C   UNL     1      -1.236   0.173   1.108  1.00  0.00     0.154 C 
ATOM      7  C   UNL     1       0.248   0.482   1.345  1.00  0.00     0.026 C 
BRANCH   6   8
ATOM      8  C   UNL     1      -1.646  -1.322   1.183  1.00  0.00     0.193 C 
ATOM      9  C   UNL     1      -0.455  -2.288   1.089  1.00  0.00     0.076 C 
BRANCH   8  10
ATOM     10  N   UNL     1      -2.562  -1.669   0.067  1.00  0.00    -0.341 N 
ATOM     11  H   UNL     1      -2.570  -2.682  -0.047  1.00  0.00     0.346 HD
ATOM     12  H   UNL     1      -2.220  -1.199  -0.772  1.00  0.00     0.346 HD
BRANCH  10  13
ATOM     13  C   UNL     1      -3.941  -1.210   0.305  1.00  0.00     0.296 C 
BRANCH  13  14
ATOM     14  C   UNL     1      -4.897  -1.327  -0.900  1.00  0.00     0.113 C 
ATOM     15  C   UNL     1      -4.989  -2.722  -1.517  1.00  0.00     0.041 C 
ATOM     16  C   UNL     1      -4.491  -0.456  -2.094  1.00  0.00     0.041 C 
ATOM     17  C   UNL     1      -5.606  -2.485  -2.895  1.00  0.00     0.003 C 
ATOM     18  C   UNL     1      -5.259  -1.045  -3.279  1.00  0.00     0.003 C 
BRANCH  14  19
ATOM     19  O   UNL     1      -6.201  -0.939  -0.440  1.00  0.00    -0.384 OA
ATOM     20  H   UNL     1      -6.455  -1.492   0.316  1.00  0.00     0.211 HD
ENDBRANCH  14  19
ENDBRANCH  13  14
ENDBRANCH  10  13
ENDBRANCH   8  10
ENDBRANCH   6   8
ENDBRANCH   4   6
ENDBRANCH   3   4
ENDBRANCH   2   3
ENDBRANCH   1   2
BRANCH   1  21
ATOM     21  O   UNL     1      -1.679   3.995   3.788  1.00  0.00    -0.374 OA
BRANCH  21  22
ATOM     22  C   UNL     1      -0.721   3.876   2.740  1.00  0.00     0.202 C 
BRANCH  22  23
ATOM     23  C   UNL     1       0.739   4.183   3.086  1.00  0.00     0.261 C 
BRANCH  23  24
ATOM     24  O   UNL     1       1.253   3.312   4.108  1.00  0.00    -0.460 OA
BRANCH  24  25
ATOM     25  C   UNL     1       1.474   3.925   5.293  1.00  0.00     0.338 C 
ATOM     26  O   UNL     1       1.393   5.127   5.526  1.00  0.00    -0.246 OA
BRANCH  25  27
ATOM     27  C   UNL     1       1.669   2.938   6.370  1.00  0.00     0.060 A 
ATOM     28  C   UNL     1       0.888   3.099   7.520  1.00  0.00     0.016 A 
ATOM     29  C   UNL     1       2.649   1.944   6.310  1.00  0.00     0.016 A 
ATOM     30  C   UNL     1       1.139   2.324   8.647  1.00  0.00     0.010 A 
ATOM     31  C   UNL     1       2.901   1.165   7.447  1.00  0.00     0.010 A 
ATOM     32  C   UNL     1       2.183   1.390   8.636  1.00  0.00    -0.014 A 
BRANCH  32  33
ATOM     33  C   UNL     1       2.605   0.788   9.925  1.00  0.00     0.031 A 
ATOM     34  C   UNL     1       3.797   1.359  10.646  1.00  0.00     0.074 A 
ATOM     35  C   UNL     1       1.891  -0.205  10.485  1.00  0.00     0.049 A 
ATOM     36  N   UNL     1       4.268   1.062  11.829  1.00  0.00    -0.248 NA
ATOM     37  C   UNL     1       4.556   2.408   9.944  1.00  0.00     0.031 C 
ATOM     38  C   UNL     1       0.721  -0.845   9.885  1.00  0.00     0.029 A 
ATOM     39  N   UNL     1       2.050  -0.848  11.686  1.00  0.00    -0.354 N 
ATOM     40  C   UNL     1       5.383   1.872  12.008  1.00  0.00     0.074 A 
ATOM     41  C   UNL     1       5.534   2.657  10.803  1.00  0.00     0.031 C 
ATOM     42  C   UNL     1       0.273  -1.800  10.718  1.00  0.00     0.029 A 
ATOM     43  C   UNL     1       1.126  -1.842  11.905  1.00  0.00     0.049 A 
ATOM     44  H   UNL     1       2.759  -0.620  12.330  1.00  0.00     0.167 HD
ATOM     45  C   UNL     1       6.195   1.974  13.088  1.00  0.00     0.034 A 
ATOM     46  C   UNL     1       0.984  -2.687  12.945  1.00  0.00     0.034 A 
ATOM     47  C   UNL     1       6.033   1.212  14.296  1.00  0.00     0.049 A 
ATOM     48  C   UNL     1       1.901  -2.554  14.134  1.00  0.00     0.074 A 
ATOM     49  C   UNL     1       6.778   1.276  15.461  1.00  0.00     0.029 A 
ATOM     50  N   UNL     1       5.065   0.240  14.494  1.00  0.00    -0.354 N 
ATOM     51  N   UNL     1       2.866  -1.690  14.341  1.00  0.00    -0.248 NA
ATOM     52  C   UNL     1       1.681  -3.485  15.250  1.00  0.00     0.031 C 
ATOM     53  C   UNL     1       6.271   0.328  16.357  1.00  0.00     0.029 A 
ATOM     54  C   UNL     1       5.197  -0.311  15.758  1.00  0.00     0.049 A 
ATOM     55  H   UNL     1       4.383  -0.021  13.833  1.00  0.00     0.167 HD
ATOM     56  C   UNL     1       3.344  -1.950  15.621  1.00  0.00     0.074 A 
ATOM     57  C   UNL     1       2.545  -3.036  16.151  1.00  0.00     0.031 C 
ATOM     58  C   UNL     1       4.362  -1.356  16.293  1.00  0.00     0.034 A 
BRANCH  45  59
ATOM     59  C   UNL     1       7.315   2.979  13.025  1.00  0.00     0.023 A 
ATOM     60  C   UNL     1       7.020   4.354  13.130  1.00  0.00     0.012 A 
ATOM     61  C   UNL     1       8.656   2.566  12.915  1.00  0.00     0.148 A 
ATOM     62  C   UNL     1       8.040   5.304  13.099  1.00  0.00     0.002 A 
ATOM     63  C   UNL     1       9.671   3.517  12.925  1.00  0.00     0.091 A 
ATOM     64  F   UNL     1       8.914   1.257  12.789  1.00  0.00    -0.205 F 
ATOM     65  C   UNL     1       9.365   4.885  13.008  1.00  0.00     0.022 A 
BRANCH  63  66
ATOM     66  S   UNL     1      11.411   3.072  12.884  1.00  0.00     0.127 S 
ATOM     67  O   UNL     1      11.782   3.457  11.523  1.00  0.00    -0.237 OA
ATOM     68  O   UNL     1      11.973   3.923  13.933  1.00  0.00    -0.237 OA
ATOM     69  O   UNL     1      11.466   1.645  13.168  1.00  0.00    -0.744 OA
ENDBRANCH  63  66
ENDBRANCH  45  59
BRANCH  46  70
ATOM     70  C   UNL     1      -0.109  -3.699  12.935  1.00  0.00     0.023 A 
ATOM     71  C   UNL     1      -1.194  -3.564  13.823  1.00  0.00     0.012 A 
ATOM     72  C   UNL     1      -0.089  -4.782  12.035  1.00  0.00     0.148 A 
ATOM     73  C   UNL     1      -2.224  -4.505  13.836  1.00  0.00     0.002 A 
ATOM     74  C   UNL     1      -1.145  -5.685  12.014  1.00  0.00     0.091 A 
ATOM     75  F   UNL     1       0.962  -4.905  11.212  1.00  0.00    -0.205 F 
ATOM     76  C   UNL     1      -2.205  -5.559  12.925  1.00  0.00     0.022 A 
BRANCH  74  77
ATOM     77  S   UNL     1      -1.265  -6.990  10.786  1.00  0.00     0.127 S 
ATOM     78  O   UNL     1      -0.960  -8.178  11.580  1.00  0.00    -0.237 OA
ATOM     79  O   UNL     1      -2.659  -6.877  10.357  1.00  0.00    -0.237 OA
ATOM     80  O   UNL     1      -0.294  -6.647   9.756  1.00  0.00    -0.744 OA
ENDBRANCH  74  77
ENDBRANCH  46  70
BRANCH  58  81
ATOM     81  C   UNL     1       4.660  -1.848  17.686  1.00  0.00     0.023 A 
ATOM     82  C   UNL     1       5.264  -3.107  17.868  1.00  0.00     0.012 A 
ATOM     83  C   UNL     1       4.396  -1.040  18.810  1.00  0.00     0.148 A 
ATOM     84  C   UNL     1       5.566  -3.572  19.148  1.00  0.00     0.002 A 
ATOM     85  C   UNL     1       4.742  -1.491  20.080  1.00  0.00     0.091 A 
ATOM     86  F   UNL     1       3.802   0.147  18.623  1.00  0.00    -0.205 F 
ATOM     87  C   UNL     1       5.315  -2.761  20.251  1.00  0.00     0.022 A 
BRANCH  85  88
ATOM     88  S   UNL     1       4.538  -0.468  21.543  1.00  0.00     0.127 S 
ATOM     89  O   UNL     1       3.317  -1.020  22.126  1.00  0.00    -0.237 OA
ATOM     90  O   UNL     1       5.758  -0.754  22.300  1.00  0.00    -0.237 OA
ATOM     91  O   UNL     1       4.443   0.902  21.057  1.00  0.00    -0.744 OA
ENDBRANCH  85  88
ENDBRANCH  58  81
ENDBRANCH  32  33
ENDBRANCH  25  27
ENDBRANCH  24  25
ENDBRANCH  23  24
ENDBRANCH  22  23
ENDBRANCH  21  22
ENDBRANCH   1  21
TORSDOF 22
