REMARK SMILES CC1(C)[C@H](C(=O)OCCOCCOC(=O)c2ccc(-c3c4nc(c(-c5cccc(S(=O)(=O)[O-])c5F)c5ccc([nH]5)c(-c5cccc(S(=O)(=O)[O-])c5F)c5nc(c(-c6cccc(S(=O)(=O)[O-])c6F)c6ccc3[nH]6)C=C5)C=C4)cc2)[C@@H]1C(=O)Nc1ccc(Cl)c(Br)c1
REMARK SMILES IDX 11 1 10 2 9 3 8 4 7 5 5 6 6 7 4 8 1 9 2 10 3 11 79 12 80 13
REMARK SMILES IDX 81 14 82 15 83 17 84 18 90 19 85 20 88 21 86 22 89 23 87 24
REMARK SMILES IDX 12 25 13 26 14 27 15 28 16 29 17 30 78 31 18 32 77 33 19 34
REMARK SMILES IDX 20 35 21 36 71 37 22 38 76 39 70 40 72 41 23 42 75 43 69 44
REMARK SMILES IDX 68 45 24 47 56 48 36 49 55 50 37 51 40 52 54 53 73 54 38 55
REMARK SMILES IDX 39 56 53 58 74 59 41 60 25 61 26 62 34 63 27 64 29 65 35 66
REMARK SMILES IDX 28 67 30 68 31 69 32 70 33 71 57 72 58 73 66 74 59 75 61 76
REMARK SMILES IDX 67 77 60 78 62 79 63 80 64 81 65 82 42 83 43 84 51 85 44 86
REMARK SMILES IDX 46 87 52 88 45 89 47 90 48 91 49 92 50 93
REMARK H PARENT 82 16 72 46 40 57
REMARK Flexibility Score: inf
ROOT
ATOM      1  C   UNL     1      -0.264   0.815  -4.273  1.00  0.00     0.202 C 
ENDROOT
BRANCH   1   2
ATOM      2  O   UNL     1      -1.522   1.349  -4.665  1.00  0.00    -0.374 OA
BRANCH   2   3
ATOM      3  C   UNL     1      -1.969   2.585  -4.131  1.00  0.00     0.202 C 
BRANCH   3   4
ATOM      4  C   UNL     1      -2.188   2.759  -2.618  1.00  0.00     0.261 C 
BRANCH   4   5
ATOM      5  O   UNL     1      -1.428   1.920  -1.747  1.00  0.00    -0.463 OA
BRANCH   5   6
ATOM      6  C   UNL     1      -1.963   0.686  -1.586  1.00  0.00     0.310 C 
ATOM      7  O   UNL     1      -2.911   0.246  -2.223  1.00  0.00    -0.252 OA
BRANCH   6   8
ATOM      8  C   UNL     1      -1.256  -0.201  -0.636  1.00  0.00     0.118 C 
ATOM      9  C   UNL     1       0.990  -1.069   0.226  1.00  0.00     0.013 C 
ATOM     10  C   UNL     1       0.006   0.076   0.148  1.00  0.00    -0.009 C 
ATOM     11  C   UNL     1       0.692   1.422   0.085  1.00  0.00     0.013 C 
ATOM     12  C   UNL     1      -1.353  -0.076   0.869  1.00  0.00     0.100 C 
BRANCH  12  13
ATOM     13  C   UNL     1      -1.867   1.076   1.658  1.00  0.00     0.228 C 
ATOM     14  O   UNL     1      -1.167   1.512   2.568  1.00  0.00    -0.274 OA
ATOM     15  N   UNL     1      -3.070   1.677   1.387  1.00  0.00    -0.326 N 
ATOM     16  H   UNL     1      -3.209   2.534   1.851  1.00  0.00     0.169 HD
BRANCH  15  17
ATOM     17  C   UNL     1      -4.136   1.286   0.567  1.00  0.00     0.042 A 
ATOM     18  C   UNL     1      -4.892   2.307  -0.017  1.00  0.00     0.028 A 
ATOM     19  C   UNL     1      -4.437  -0.045   0.274  1.00  0.00     0.043 A 
ATOM     20  C   UNL     1      -5.833   2.006  -1.006  1.00  0.00     0.024 A 
ATOM     21  C   UNL     1      -5.393  -0.350  -0.707  1.00  0.00     0.038 A 
ATOM     22  C   UNL     1      -6.064   0.679  -1.376  1.00  0.00     0.055 A 
ATOM     23  Br  UNL     1      -5.651  -2.185  -1.130  1.00  0.00    -0.049 Br
ATOM     24  Cl  UNL     1      -7.159   0.393  -2.681  1.00  0.00    -0.083 Cl
ENDBRANCH  15  17
ENDBRANCH  12  13
ENDBRANCH   6   8
ENDBRANCH   5   6
ENDBRANCH   4   5
ENDBRANCH   3   4
ENDBRANCH   2   3
ENDBRANCH   1   2
BRANCH   1  25
ATOM     25  C   UNL     1       0.998   1.673  -4.382  1.00  0.00     0.261 C 
BRANCH  25  26
ATOM     26  O   UNL     1       0.928   2.898  -3.635  1.00  0.00    -0.460 OA
BRANCH  26  27
ATOM     27  C   UNL     1       1.008   4.014  -4.399  1.00  0.00     0.338 C 
ATOM     28  O   UNL     1       1.133   4.068  -5.612  1.00  0.00    -0.246 OA
BRANCH  27  29
ATOM     29  C   UNL     1       0.748   5.218  -3.593  1.00  0.00     0.060 A 
ATOM     30  C   UNL     1      -0.274   6.073  -4.025  1.00  0.00     0.016 A 
ATOM     31  C   UNL     1       1.587   5.579  -2.538  1.00  0.00     0.016 A 
ATOM     32  C   UNL     1      -0.411   7.333  -3.452  1.00  0.00     0.010 A 
ATOM     33  C   UNL     1       1.453   6.850  -1.971  1.00  0.00     0.010 A 
ATOM     34  C   UNL     1       0.491   7.749  -2.465  1.00  0.00    -0.014 A 
BRANCH  34  35
ATOM     35  C   UNL     1       0.540   9.185  -2.102  1.00  0.00     0.031 A 
ATOM     36  C   UNL     1       1.579  10.061  -2.750  1.00  0.00     0.074 A 
ATOM     37  C   UNL     1      -0.351   9.708  -1.242  1.00  0.00     0.049 A 
ATOM     38  N   UNL     1       1.783  11.345  -2.608  1.00  0.00    -0.248 NA
ATOM     39  C   UNL     1       2.510   9.404  -3.682  1.00  0.00     0.031 C 
ATOM     40  C   UNL     1      -1.405   8.960  -0.560  1.00  0.00     0.029 A 
ATOM     41  N   UNL     1      -0.498  10.993  -0.788  1.00  0.00    -0.354 N 
ATOM     42  C   UNL     1       2.877  11.645  -3.411  1.00  0.00     0.074 A 
ATOM     43  C   UNL     1       3.304  10.407  -4.026  1.00  0.00     0.031 C 
ATOM     44  C   UNL     1      -2.077   9.797   0.249  1.00  0.00     0.029 A 
ATOM     45  C   UNL     1      -1.491  11.133   0.151  1.00  0.00     0.049 A 
ATOM     46  H   UNL     1       0.055  11.744  -1.104  1.00  0.00     0.167 HD
ATOM     47  C   UNL     1       3.462  12.845  -3.633  1.00  0.00     0.034 A 
ATOM     48  C   UNL     1      -1.873  12.215   0.859  1.00  0.00     0.034 A 
ATOM     49  C   UNL     1       3.022  14.078  -3.039  1.00  0.00     0.049 A 
ATOM     50  C   UNL     1      -1.192  13.536   0.607  1.00  0.00     0.074 A 
ATOM     51  C   UNL     1       3.518  15.354  -3.238  1.00  0.00     0.029 A 
ATOM     52  N   UNL     1       1.990  14.187  -2.120  1.00  0.00    -0.354 N 
ATOM     53  N   UNL     1      -0.245  13.827  -0.251  1.00  0.00    -0.248 NA
ATOM     54  C   UNL     1      -1.660  14.685   1.396  1.00  0.00     0.031 C 
ATOM     55  C   UNL     1       2.799  16.233  -2.420  1.00  0.00     0.029 A 
ATOM     56  C   UNL     1       1.840  15.507  -1.731  1.00  0.00     0.049 A 
ATOM     57  H   UNL     1       1.444  13.436  -1.793  1.00  0.00     0.167 HD
ATOM     58  C   UNL     1      -0.027  15.196  -0.131  1.00  0.00     0.074 A 
ATOM     59  C   UNL     1      -0.959  15.679   0.867  1.00  0.00     0.031 C 
ATOM     60  C   UNL     1       0.872  15.980  -0.776  1.00  0.00     0.034 A 
BRANCH  47  61
ATOM     61  C   UNL     1       4.628  12.887  -4.585  1.00  0.00     0.023 A 
ATOM     62  C   UNL     1       4.403  12.751  -5.970  1.00  0.00     0.012 A 
ATOM     63  C   UNL     1       5.937  13.112  -4.116  1.00  0.00     0.148 A 
ATOM     64  C   UNL     1       5.465  12.808  -6.871  1.00  0.00     0.002 A 
ATOM     65  C   UNL     1       6.986  13.208  -5.024  1.00  0.00     0.091 A 
ATOM     66  F   UNL     1       6.134  13.213  -2.794  1.00  0.00    -0.205 F 
ATOM     67  C   UNL     1       6.753  13.046  -6.399  1.00  0.00     0.022 A 
BRANCH  65  68
ATOM     68  S   UNL     1       8.668  13.585  -4.521  1.00  0.00     0.127 S 
ATOM     69  O   UNL     1       9.333  12.300  -4.729  1.00  0.00    -0.237 OA
ATOM     70  O   UNL     1       9.048  14.629  -5.473  1.00  0.00    -0.237 OA
ATOM     71  O   UNL     1       8.583  14.029  -3.137  1.00  0.00    -0.744 OA
ENDBRANCH  65  68
ENDBRANCH  47  61
BRANCH  48  72
ATOM     72  C   UNL     1      -2.982  12.102   1.847  1.00  0.00     0.023 A 
ATOM     73  C   UNL     1      -4.210  12.743   1.592  1.00  0.00     0.012 A 
ATOM     74  C   UNL     1      -2.832  11.351   3.029  1.00  0.00     0.148 A 
ATOM     75  C   UNL     1      -5.258  12.662   2.510  1.00  0.00     0.002 A 
ATOM     76  C   UNL     1      -3.898  11.227   3.911  1.00  0.00     0.091 A 
ATOM     77  F   UNL     1      -1.649  10.764   3.262  1.00  0.00    -0.205 F 
ATOM     78  C   UNL     1      -5.106  11.896   3.663  1.00  0.00     0.022 A 
BRANCH  76  79
ATOM     79  S   UNL     1      -3.837  10.152   5.348  1.00  0.00     0.127 S 
ATOM     80  O   UNL     1      -3.781  11.117   6.442  1.00  0.00    -0.237 OA
ATOM     81  O   UNL     1      -5.099   9.421   5.232  1.00  0.00    -0.237 OA
ATOM     82  O   UNL     1      -2.650   9.326   5.168  1.00  0.00    -0.744 OA
ENDBRANCH  76  79
ENDBRANCH  48  72
BRANCH  60  83
ATOM     83  C   UNL     1       0.879  17.451  -0.448  1.00  0.00     0.023 A 
ATOM     84  C   UNL     1       1.389  17.890   0.789  1.00  0.00     0.012 A 
ATOM     85  C   UNL     1       0.449  18.402  -1.395  1.00  0.00     0.148 A 
ATOM     86  C   UNL     1       1.440  19.250   1.093  1.00  0.00     0.002 A 
ATOM     87  C   UNL     1       0.547  19.758  -1.104  1.00  0.00     0.091 A 
ATOM     88  F   UNL     1      -0.052  17.966  -2.560  1.00  0.00    -0.205 F 
ATOM     89  C   UNL     1       1.031  20.183   0.144  1.00  0.00     0.022 A 
BRANCH  87  90
ATOM     90  S   UNL     1       0.133  21.030  -2.304  1.00  0.00     0.127 S 
ATOM     91  O   UNL     1      -1.149  21.513  -1.796  1.00  0.00    -0.237 OA
ATOM     92  O   UNL     1       1.243  21.973  -2.155  1.00  0.00    -0.237 OA
ATOM     93  O   UNL     1       0.084  20.358  -3.595  1.00  0.00    -0.744 OA
ENDBRANCH  87  90
ENDBRANCH  60  83
ENDBRANCH  34  35
ENDBRANCH  27  29
ENDBRANCH  26  27
ENDBRANCH  25  26
ENDBRANCH   1  25
TORSDOF 19
