REMARK SMILES O=C(OCCOCCOC(=O)c1ccc(-c2c3nc(c(-c4cccc(S(=O)(=O)[O-])c4F)c4ccc([nH]4)c(-c4cccc(S(=O)(=O)[O-])c4F)c4nc(c(-c5cccc(S(=O)(=O)[O-])c5F)c5ccc2[nH]5)C=C4)C=C3)cc1)c1ccc(NS(=O)(=O)Cc2c(Cl)cccc2Cl)cc1
REMARK SMILES IDX 5 1 4 2 3 3 2 4 1 5 75 6 76 7 93 8 77 9 92 10 78 11 79 12
REMARK SMILES IDX 80 14 81 15 82 16 83 17 84 18 85 19 90 20 86 21 87 22 89 23
REMARK SMILES IDX 91 24 88 25 6 26 7 27 8 28 9 29 10 30 11 31 12 32 13 33
REMARK SMILES IDX 74 34 14 35 73 36 15 37 16 38 17 39 67 40 18 41 72 42 66 43
REMARK SMILES IDX 68 44 19 45 71 46 65 47 64 48 20 50 52 51 32 52 51 53 33 54
REMARK SMILES IDX 36 55 50 56 69 57 34 58 35 59 49 61 70 62 37 63 21 64 22 65
REMARK SMILES IDX 30 66 23 67 25 68 31 69 24 70 26 71 27 72 28 73 29 74 53 75
REMARK SMILES IDX 54 76 62 77 55 78 57 79 63 80 56 81 58 82 59 83 60 84 61 85
REMARK SMILES IDX 38 86 39 87 47 88 40 89 42 90 48 91 41 92 43 93 44 94 45 95
REMARK SMILES IDX 46 96
REMARK H PARENT 79 13 68 49 36 60
REMARK Flexibility Score: inf
ROOT
ATOM      1  C   UNL     1       4.147  -1.270   0.742  1.00  0.00     0.202 C 
ENDROOT
BRANCH   1   2
ATOM      2  C   UNL     1       3.882   0.207   1.017  1.00  0.00     0.261 C 
BRANCH   2   3
ATOM      3  O   UNL     1       2.467   0.485   0.917  1.00  0.00    -0.460 OA
BRANCH   3   4
ATOM      4  C   UNL     1       1.876   1.239  -0.042  1.00  0.00     0.338 C 
ATOM      5  O   UNL     1       0.680   1.502  -0.005  1.00  0.00    -0.246 OA
BRANCH   4   6
ATOM      6  C   UNL     1       2.688   1.804  -1.139  1.00  0.00     0.060 A 
ATOM      7  C   UNL     1       3.282   0.993  -2.105  1.00  0.00     0.018 A 
ATOM      8  C   UNL     1       2.781   3.190  -1.257  1.00  0.00     0.018 A 
ATOM      9  C   UNL     1       4.064   1.544  -3.114  1.00  0.00     0.027 A 
ATOM     10  C   UNL     1       3.569   3.743  -2.271  1.00  0.00     0.027 A 
ATOM     11  C   UNL     1       4.248   2.918  -3.176  1.00  0.00     0.049 A 
BRANCH  11  12
ATOM     12  N   UNL     1       5.232   3.520  -3.997  1.00  0.00    -0.283 N 
ATOM     13  H   UNL     1       5.411   4.476  -3.849  1.00  0.00     0.180 HD
BRANCH  12  14
ATOM     14  S   UNL     1       6.108   2.769  -5.181  1.00  0.00     0.237 S 
ATOM     15  O   UNL     1       5.183   2.021  -6.010  1.00  0.00    -0.206 OA
ATOM     16  O   UNL     1       6.884   3.836  -5.786  1.00  0.00    -0.206 OA
BRANCH  14  17
ATOM     17  C   UNL     1       7.282   1.612  -4.433  1.00  0.00     0.198 C 
BRANCH  17  18
ATOM     18  C   UNL     1       7.377   1.516  -2.922  1.00  0.00     0.006 A 
ATOM     19  C   UNL     1       7.392   0.238  -2.304  1.00  0.00     0.046 A 
ATOM     20  C   UNL     1       7.616   2.612  -2.072  1.00  0.00     0.046 A 
ATOM     21  Cl  UNL     1       7.318  -1.238  -3.211  1.00  0.00    -0.084 Cl
ATOM     22  C   UNL     1       7.541   0.080  -0.918  1.00  0.00     0.021 A 
ATOM     23  C   UNL     1       7.718   2.453  -0.679  1.00  0.00     0.021 A 
ATOM     24  Cl  UNL     1       7.928   4.206  -2.663  1.00  0.00    -0.084 Cl
ATOM     25  C   UNL     1       7.677   1.190  -0.100  1.00  0.00     0.003 A 
ENDBRANCH  17  18
ENDBRANCH  14  17
ENDBRANCH  12  14
ENDBRANCH  11  12
ENDBRANCH   4   6
ENDBRANCH   3   4
ENDBRANCH   2   3
ENDBRANCH   1   2
BRANCH   1  26
ATOM     26  O   UNL     1       3.738  -1.648  -0.569  1.00  0.00    -0.374 OA
BRANCH  26  27
ATOM     27  C   UNL     1       2.390  -2.134  -0.671  1.00  0.00     0.202 C 
BRANCH  27  28
ATOM     28  C   UNL     1       2.375  -3.320  -1.636  1.00  0.00     0.261 C 
BRANCH  28  29
ATOM     29  O   UNL     1       3.031  -4.413  -0.983  1.00  0.00    -0.460 OA
BRANCH  29  30
ATOM     30  C   UNL     1       4.387  -4.368  -1.058  1.00  0.00     0.338 C 
ATOM     31  O   UNL     1       5.055  -3.868  -1.938  1.00  0.00    -0.246 OA
BRANCH  30  32
ATOM     32  C   UNL     1       4.936  -4.865   0.226  1.00  0.00     0.060 A 
ATOM     33  C   UNL     1       6.202  -4.408   0.616  1.00  0.00     0.016 A 
ATOM     34  C   UNL     1       4.217  -5.741   1.046  1.00  0.00     0.016 A 
ATOM     35  C   UNL     1       6.783  -4.895   1.783  1.00  0.00     0.010 A 
ATOM     36  C   UNL     1       4.791  -6.215   2.223  1.00  0.00     0.010 A 
ATOM     37  C   UNL     1       6.098  -5.838   2.561  1.00  0.00    -0.014 A 
BRANCH  37  38
ATOM     38  C   UNL     1       6.822  -6.569   3.621  1.00  0.00     0.031 A 
ATOM     39  C   UNL     1       7.286  -7.971   3.334  1.00  0.00     0.074 A 
ATOM     40  C   UNL     1       7.068  -5.985   4.806  1.00  0.00     0.049 A 
ATOM     41  N   UNL     1       7.956  -8.792   4.096  1.00  0.00    -0.248 NA
ATOM     42  C   UNL     1       6.943  -8.523   2.011  1.00  0.00     0.031 C 
ATOM     43  C   UNL     1       6.630  -4.644   5.193  1.00  0.00     0.029 A 
ATOM     44  N   UNL     1       7.729  -6.457   5.908  1.00  0.00    -0.354 N 
ATOM     45  C   UNL     1       8.104  -9.959   3.354  1.00  0.00     0.074 A 
ATOM     46  C   UNL     1       7.424  -9.754   2.096  1.00  0.00     0.031 C 
ATOM     47  C   UNL     1       7.017  -4.409   6.458  1.00  0.00     0.029 A 
ATOM     48  C   UNL     1       7.713  -5.587   6.970  1.00  0.00     0.049 A 
ATOM     49  H   UNL     1       8.172  -7.336   5.936  1.00  0.00     0.167 HD
ATOM     50  C   UNL     1       8.772 -11.089   3.681  1.00  0.00     0.034 A 
ATOM     51  C   UNL     1       8.195  -5.738   8.219  1.00  0.00     0.034 A 
ATOM     52  C   UNL     1       9.447 -11.278   4.936  1.00  0.00     0.049 A 
ATOM     53  C   UNL     1       8.934  -7.005   8.559  1.00  0.00     0.074 A 
ATOM     54  C   UNL     1      10.180 -12.369   5.365  1.00  0.00     0.029 A 
ATOM     55  N   UNL     1       9.462 -10.353   5.969  1.00  0.00    -0.354 N 
ATOM     56  N   UNL     1       9.170  -8.053   7.805  1.00  0.00    -0.248 NA
ATOM     57  C   UNL     1       9.511  -7.093   9.907  1.00  0.00     0.031 C 
ATOM     58  C   UNL     1      10.616 -12.114   6.670  1.00  0.00     0.029 A 
ATOM     59  C   UNL     1      10.187 -10.848   7.038  1.00  0.00     0.049 A 
ATOM     60  H   UNL     1       9.021  -9.473   5.945  1.00  0.00     0.167 HD
ATOM     61  C   UNL     1       9.947  -8.911   8.575  1.00  0.00     0.074 A 
ATOM     62  C   UNL     1      10.169  -8.242   9.841  1.00  0.00     0.031 C 
ATOM     63  C   UNL     1      10.421 -10.146   8.275  1.00  0.00     0.034 A 
BRANCH  50  64
ATOM     64  C   UNL     1       8.831 -12.188   2.652  1.00  0.00     0.023 A 
ATOM     65  C   UNL     1       9.608 -12.011   1.488  1.00  0.00     0.012 A 
ATOM     66  C   UNL     1       8.157 -13.408   2.852  1.00  0.00     0.148 A 
ATOM     67  C   UNL     1       9.689 -13.017   0.526  1.00  0.00     0.002 A 
ATOM     68  C   UNL     1       8.280 -14.424   1.911  1.00  0.00     0.091 A 
ATOM     69  F   UNL     1       7.404 -13.549   3.952  1.00  0.00    -0.205 F 
ATOM     70  C   UNL     1       9.035 -14.226   0.743  1.00  0.00     0.022 A 
BRANCH  68  71
ATOM     71  S   UNL     1       7.540 -16.046   2.129  1.00  0.00     0.127 S 
ATOM     72  O   UNL     1       6.541 -16.061   1.061  1.00  0.00    -0.237 OA
ATOM     73  O   UNL     1       8.682 -16.934   1.909  1.00  0.00    -0.237 OA
ATOM     74  O   UNL     1       7.002 -16.066   3.482  1.00  0.00    -0.744 OA
ENDBRANCH  68  71
ENDBRANCH  50  64
BRANCH  51  75
ATOM     75  C   UNL     1       8.021  -4.651   9.223  1.00  0.00     0.023 A 
ATOM     76  C   UNL     1       9.138  -3.929   9.682  1.00  0.00     0.012 A 
ATOM     77  C   UNL     1       6.742  -4.319   9.710  1.00  0.00     0.148 A 
ATOM     78  C   UNL     1       8.990  -2.921  10.637  1.00  0.00     0.002 A 
ATOM     79  C   UNL     1       6.593  -3.274  10.614  1.00  0.00     0.091 A 
ATOM     80  F   UNL     1       5.691  -5.027   9.271  1.00  0.00    -0.205 F 
ATOM     81  C   UNL     1       7.718  -2.587  11.095  1.00  0.00     0.022 A 
BRANCH  79  82
ATOM     82  S   UNL     1       4.981  -2.685  11.142  1.00  0.00     0.127 S 
ATOM     83  O   UNL     1       4.939  -3.135  12.530  1.00  0.00    -0.237 OA
ATOM     84  O   UNL     1       5.118  -1.238  10.964  1.00  0.00    -0.237 OA
ATOM     85  O   UNL     1       4.022  -3.309  10.241  1.00  0.00    -0.744 OA
ENDBRANCH  79  82
ENDBRANCH  51  75
BRANCH  63  86
ATOM     86  C   UNL     1      11.251 -10.837   9.326  1.00  0.00     0.023 A 
ATOM     87  C   UNL     1      10.643 -11.304  10.509  1.00  0.00     0.012 A 
ATOM     88  C   UNL     1      12.628 -11.054   9.124  1.00  0.00     0.148 A 
ATOM     89  C   UNL     1      11.403 -11.926  11.498  1.00  0.00     0.002 A 
ATOM     90  C   UNL     1      13.368 -11.726  10.089  1.00  0.00     0.091 A 
ATOM     91  F   UNL     1      13.193 -10.589   8.000  1.00  0.00    -0.205 F 
ATOM     92  C   UNL     1      12.762 -12.146  11.284  1.00  0.00     0.022 A 
BRANCH  90  93
ATOM     93  S   UNL     1      15.100 -12.138   9.854  1.00  0.00     0.127 S 
ATOM     94  O   UNL     1      15.757 -11.176  10.736  1.00  0.00    -0.237 OA
ATOM     95  O   UNL     1      15.154 -13.526  10.317  1.00  0.00    -0.237 OA
ATOM     96  O   UNL     1      15.362 -11.967   8.432  1.00  0.00    -0.744 OA
ENDBRANCH  90  93
ENDBRANCH  63  86
ENDBRANCH  37  38
ENDBRANCH  30  32
ENDBRANCH  29  30
ENDBRANCH  28  29
ENDBRANCH  27  28
ENDBRANCH  26  27
ENDBRANCH   1  26
TORSDOF 21
