REMARK SMILES C=CC[C@H](CNC(=O)OC(C)(C)C)C(=O)OCCOCCOC(=O)c1ccc(-c2c3nc(c(-c4cccc(S(=O)(=O)[O-])c4F)c4ccc([nH]4)c(-c4cccc(S(=O)(=O)[O-])c4F)c4nc(c(-c5cccc(S(=O)(=O)[O-])c5F)c5ccc2[nH]5)C=C4)C=C3)cc1
REMARK SMILES IDX 18 1 17 2 16 3 14 4 15 5 4 6 3 7 2 8 1 9 5 10 6 11 7 12 8 14
REMARK SMILES IDX 9 15 10 16 11 17 12 18 13 19 19 20 20 21 21 22 22 23 23 24
REMARK SMILES IDX 24 25 25 26 26 27 87 28 27 29 86 30 28 31 29 32 30 33 80 34
REMARK SMILES IDX 31 35 85 36 79 37 81 38 32 39 84 40 78 41 77 42 33 44 65 45
REMARK SMILES IDX 45 46 64 47 46 48 49 49 63 50 82 51 47 52 48 53 62 55 83 56
REMARK SMILES IDX 50 57 34 58 35 59 43 60 36 61 38 62 44 63 37 64 39 65 40 66
REMARK SMILES IDX 41 67 42 68 66 69 67 70 75 71 68 72 70 73 76 74 69 75 71 76
REMARK SMILES IDX 72 77 73 78 74 79 51 80 52 81 60 82 53 83 55 84 61 85 54 86
REMARK SMILES IDX 56 87 57 88 58 89 59 90
REMARK H PARENT 6 13 81 43 49 54
REMARK Flexibility Score: inf
ROOT
ATOM      1  C   UNL     1      -5.850  -1.290   0.750  1.00  0.00     0.202 C 
ENDROOT
BRANCH   1   2
ATOM      2  C   UNL     1      -5.212  -2.476   1.479  1.00  0.00     0.261 C 
BRANCH   2   3
ATOM      3  O   UNL     1      -3.801  -2.287   1.704  1.00  0.00    -0.463 OA
BRANCH   3   4
ATOM      4  C   UNL     1      -2.959  -2.967   0.879  1.00  0.00     0.311 C 
ATOM      5  O   UNL     1      -3.312  -3.686  -0.047  1.00  0.00    -0.252 OA
BRANCH   4   6
ATOM      6  C   UNL     1      -1.504  -2.756   1.261  1.00  0.00     0.122 C 
BRANCH   6   7
ATOM      7  C   UNL     1      -1.190  -3.556   2.534  1.00  0.00     0.044 C 
BRANCH   7   8
ATOM      8  C   UNL     1      -1.461  -5.028   2.376  1.00  0.00    -0.034 C 
ATOM      9  C   UNL     1      -0.518  -5.936   2.095  1.00  0.00     0.004 C 
ENDBRANCH   7   8
ENDBRANCH   6   7
BRANCH   6  10
ATOM     10  C   UNL     1      -1.171  -1.256   1.369  1.00  0.00     0.135 C 
BRANCH  10  11
ATOM     11  N   UNL     1       0.075  -0.995   2.066  1.00  0.00    -0.321 N 
ATOM     12  C   UNL     1       1.339  -1.105   1.580  1.00  0.00     0.407 C 
ATOM     13  H   UNL     1      -0.005  -0.702   3.003  1.00  0.00     0.167 HD
ATOM     14  O   UNL     1       2.297  -1.117   2.348  1.00  0.00    -0.225 OA
BRANCH  12  15
ATOM     15  O   UNL     1       1.398  -1.212   0.234  1.00  0.00    -0.444 OA
BRANCH  15  16
ATOM     16  C   UNL     1       2.666  -1.470  -0.430  1.00  0.00     0.106 C 
ATOM     17  C   UNL     1       3.827  -0.589   0.059  1.00  0.00     0.056 C 
ATOM     18  C   UNL     1       2.999  -2.958  -0.290  1.00  0.00     0.056 C 
ATOM     19  C   UNL     1       2.424  -1.143  -1.911  1.00  0.00     0.056 C 
ENDBRANCH  15  16
ENDBRANCH  12  15
ENDBRANCH  10  11
ENDBRANCH   6  10
ENDBRANCH   4   6
ENDBRANCH   3   4
ENDBRANCH   2   3
ENDBRANCH   1   2
BRANCH   1  20
ATOM     20  O   UNL     1      -5.490  -1.143  -0.624  1.00  0.00    -0.374 OA
BRANCH  20  21
ATOM     21  C   UNL     1      -4.250  -0.491  -0.894  1.00  0.00     0.202 C 
BRANCH  21  22
ATOM     22  C   UNL     1      -4.287   1.040  -0.883  1.00  0.00     0.261 C 
BRANCH  22  23
ATOM     23  O   UNL     1      -4.584   1.553   0.428  1.00  0.00    -0.460 OA
BRANCH  23  24
ATOM     24  C   UNL     1      -5.808   2.125   0.537  1.00  0.00     0.338 C 
ATOM     25  O   UNL     1      -6.602   2.332  -0.366  1.00  0.00    -0.246 OA
BRANCH  24  26
ATOM     26  C   UNL     1      -6.158   2.341   1.956  1.00  0.00     0.060 A 
ATOM     27  C   UNL     1      -7.436   1.934   2.357  1.00  0.00     0.016 A 
ATOM     28  C   UNL     1      -5.311   2.999   2.851  1.00  0.00     0.016 A 
ATOM     29  C   UNL     1      -7.902   2.253   3.629  1.00  0.00     0.010 A 
ATOM     30  C   UNL     1      -5.782   3.320   4.132  1.00  0.00     0.010 A 
ATOM     31  C   UNL     1      -7.097   2.991   4.508  1.00  0.00    -0.014 A 
BRANCH  31  32
ATOM     32  C   UNL     1      -7.710   3.530   5.747  1.00  0.00     0.031 A 
ATOM     33  C   UNL     1      -8.178   4.961   5.774  1.00  0.00     0.074 A 
ATOM     34  C   UNL     1      -7.914   2.735   6.813  1.00  0.00     0.049 A 
ATOM     35  N   UNL     1      -8.831   5.600   6.710  1.00  0.00    -0.248 NA
ATOM     36  C   UNL     1      -7.873   5.781   4.589  1.00  0.00     0.031 C 
ATOM     37  C   UNL     1      -7.493   1.339   6.916  1.00  0.00     0.029 A 
ATOM     38  N   UNL     1      -8.521   2.995   8.015  1.00  0.00    -0.354 N 
ATOM     39  C   UNL     1      -9.015   6.892   6.231  1.00  0.00     0.074 A 
ATOM     40  C   UNL     1      -8.376   6.957   4.935  1.00  0.00     0.031 C 
ATOM     41  C   UNL     1      -7.838   0.870   8.128  1.00  0.00     0.029 A 
ATOM     42  C   UNL     1      -8.502   1.931   8.883  1.00  0.00     0.049 A 
ATOM     43  H   UNL     1      -8.932   3.863   8.235  1.00  0.00     0.167 HD
ATOM     44  C   UNL     1      -9.683   7.923   6.802  1.00  0.00     0.034 A 
ATOM     45  C   UNL     1      -8.968   1.824  10.144  1.00  0.00     0.034 A 
ATOM     46  C   UNL     1     -10.331   7.857   8.084  1.00  0.00     0.049 A 
ATOM     47  C   UNL     1      -9.708   2.985  10.757  1.00  0.00     0.074 A 
ATOM     48  C   UNL     1     -11.052   8.842   8.736  1.00  0.00     0.029 A 
ATOM     49  N   UNL     1     -10.335   6.745   8.911  1.00  0.00    -0.354 N 
ATOM     50  N   UNL     1      -9.986   4.155  10.235  1.00  0.00    -0.248 NA
ATOM     51  C   UNL     1     -10.239   2.793  12.115  1.00  0.00     0.031 C 
ATOM     52  C   UNL     1     -11.483   8.328   9.964  1.00  0.00     0.029 A 
ATOM     53  C   UNL     1     -11.044   7.018  10.069  1.00  0.00     0.049 A 
ATOM     54  H   UNL     1      -9.898   5.888   8.706  1.00  0.00     0.167 HD
ATOM     55  C   UNL     1     -10.746   4.827  11.187  1.00  0.00     0.074 A 
ATOM     56  C   UNL     1     -10.911   3.921  12.304  1.00  0.00     0.031 C 
ATOM     57  C   UNL     1     -11.245   6.088  11.150  1.00  0.00     0.034 A 
BRANCH  44  58
ATOM     58  C   UNL     1      -9.794   9.200   6.012  1.00  0.00     0.023 A 
ATOM     59  C   UNL     1     -10.677   9.254   4.914  1.00  0.00     0.012 A 
ATOM     60  C   UNL     1      -9.078  10.355   6.381  1.00  0.00     0.148 A 
ATOM     61  C   UNL     1     -10.827  10.429   4.179  1.00  0.00     0.002 A 
ATOM     62  C   UNL     1      -9.261  11.534   5.666  1.00  0.00     0.091 A 
ATOM     63  F   UNL     1      -8.226  10.277   7.413  1.00  0.00    -0.205 F 
ATOM     64  C   UNL     1     -10.128  11.570   4.561  1.00  0.00     0.022 A 
BRANCH  62  65
ATOM     65  S   UNL     1      -8.458  13.075   6.119  1.00  0.00     0.127 S 
ATOM     66  O   UNL     1      -7.474  13.221   5.047  1.00  0.00    -0.237 OA
ATOM     67  O   UNL     1      -9.566  14.030   6.064  1.00  0.00    -0.237 OA
ATOM     68  O   UNL     1      -7.906  12.864   7.450  1.00  0.00    -0.744 OA
ENDBRANCH  62  65
ENDBRANCH  44  58
BRANCH  45  69
ATOM     69  C   UNL     1      -8.790   0.549  10.894  1.00  0.00     0.023 A 
ATOM     70  C   UNL     1      -9.908  -0.258  11.180  1.00  0.00     0.012 A 
ATOM     71  C   UNL     1      -7.513   0.124  11.308  1.00  0.00     0.148 A 
ATOM     72  C   UNL     1      -9.761  -1.450  11.892  1.00  0.00     0.002 A 
ATOM     73  C   UNL     1      -7.366  -1.091  11.966  1.00  0.00     0.091 A 
ATOM     74  F   UNL     1      -6.463   0.916  11.048  1.00  0.00    -0.205 F 
ATOM     75  C   UNL     1      -8.490  -1.872  12.274  1.00  0.00     0.022 A 
BRANCH  73  76
ATOM     76  S   UNL     1      -5.749  -1.766  12.363  1.00  0.00     0.127 S 
ATOM     77  O   UNL     1      -5.646  -1.479  13.790  1.00  0.00    -0.237 OA
ATOM     78  O   UNL     1      -5.916  -3.181  12.027  1.00  0.00    -0.237 OA
ATOM     79  O   UNL     1      -4.815  -1.058  11.497  1.00  0.00    -0.744 OA
ENDBRANCH  73  76
ENDBRANCH  45  69
BRANCH  57  80
ATOM     80  C   UNL     1     -12.031   6.561  12.346  1.00  0.00     0.023 A 
ATOM     81  C   UNL     1     -11.357   6.862  13.546  1.00  0.00     0.012 A 
ATOM     82  C   UNL     1     -13.423   6.763  12.267  1.00  0.00     0.148 A 
ATOM     83  C   UNL     1     -12.059   7.320  14.660  1.00  0.00     0.002 A 
ATOM     84  C   UNL     1     -14.111   7.262  13.367  1.00  0.00     0.091 A 
ATOM     85  F   UNL     1     -14.053   6.452  11.124  1.00  0.00    -0.205 F 
ATOM     86  C   UNL     1     -13.433   7.530  14.568  1.00  0.00     0.022 A 
BRANCH  84  87
ATOM     87  S   UNL     1     -15.865   7.644  13.302  1.00  0.00     0.127 S 
ATOM     88  O   UNL     1     -16.450   6.477  13.961  1.00  0.00    -0.237 OA
ATOM     89  O   UNL     1     -15.948   8.884  14.074  1.00  0.00    -0.237 OA
ATOM     90  O   UNL     1     -16.182   7.796  11.888  1.00  0.00    -0.744 OA
ENDBRANCH  84  87
ENDBRANCH  57  80
ENDBRANCH  31  32
ENDBRANCH  24  26
ENDBRANCH  23  24
ENDBRANCH  22  23
ENDBRANCH  21  22
ENDBRANCH  20  21
ENDBRANCH   1  20
TORSDOF 23
