REMARK SMILES C[C@H](CN(Cc1ccccc1)C(=O)c1cc2ccccc2oc1=O)C(=O)OCCOCCOC(=O)c1ccc(-c2c3nc(c(-c4cccc(S(=O)(=O)[O-])c4F)c4ccc([nH]4)c(-c4cccc(S(=O)(=O)[O-])c4F)c4nc(c(-c5cccc(S(=O)(=O)[O-])c5F)c5ccc2[nH]5)C=C4)C=C3)cc1
REMARK SMILES IDX 29 1 28 2 27 3 25 4 26 5 2 6 1 7 3 8 4 9 5 10 6 11 7 12
REMARK SMILES IDX 11 13 8 14 10 15 9 16 12 17 13 18 14 19 15 20 23 21 16 22
REMARK SMILES IDX 22 23 24 24 17 25 21 26 18 27 20 28 19 29 30 30 31 31 32 32
REMARK SMILES IDX 33 33 34 34 35 35 36 36 37 37 98 38 38 39 97 40 39 41 40 42
REMARK SMILES IDX 41 43 91 44 42 45 96 46 90 47 92 48 43 49 95 50 89 51 88 52
REMARK SMILES IDX 44 54 76 55 56 56 75 57 57 58 60 59 74 60 93 61 58 62 59 63
REMARK SMILES IDX 73 65 94 66 61 67 45 68 46 69 54 70 47 71 49 72 55 73 48 74
REMARK SMILES IDX 50 75 51 76 52 77 53 78 77 79 78 80 86 81 79 82 81 83 87 84
REMARK SMILES IDX 80 85 82 86 83 87 84 88 85 89 62 90 63 91 71 92 64 93 66 94
REMARK SMILES IDX 72 95 65 96 67 97 68 98 69 99 70 100
REMARK H PARENT 92 53 60 64
REMARK Flexibility Score: inf
ROOT
ATOM      1  C   UNL     1      -3.018  -1.501   0.908  1.00  0.00     0.202 C 
ENDROOT
BRANCH   1   2
ATOM      2  C   UNL     1      -2.216  -1.175   2.179  1.00  0.00     0.261 C 
BRANCH   2   3
ATOM      3  O   UNL     1      -1.087  -0.310   1.920  1.00  0.00    -0.463 OA
BRANCH   3   4
ATOM      4  C   UNL     1       0.145  -0.876   1.931  1.00  0.00     0.310 C 
ATOM      5  O   UNL     1       0.366  -2.063   2.152  1.00  0.00    -0.252 OA
BRANCH   4   6
ATOM      6  C   UNL     1       1.266   0.121   1.671  1.00  0.00     0.115 C 
ATOM      7  C   UNL     1       1.353   1.208   2.731  1.00  0.00     0.022 C 
BRANCH   6   8
ATOM      8  C   UNL     1       1.311   0.654   0.227  1.00  0.00     0.135 C 
BRANCH   8   9
ATOM      9  N   UNL     1       0.459   1.828  -0.042  1.00  0.00    -0.333 N 
BRANCH   9  10
ATOM     10  C   UNL     1       1.064   2.996  -0.677  1.00  0.00     0.155 C 
BRANCH  10  11
ATOM     11  C   UNL     1       1.010   2.963  -2.202  1.00  0.00    -0.029 A 
ATOM     12  C   UNL     1       1.345   1.826  -2.960  1.00  0.00     0.005 A 
ATOM     13  C   UNL     1       0.641   4.127  -2.895  1.00  0.00     0.005 A 
ATOM     14  C   UNL     1       1.286   1.846  -4.359  1.00  0.00     0.000 A 
ATOM     15  C   UNL     1       0.590   4.148  -4.293  1.00  0.00     0.000 A 
ATOM     16  C   UNL     1       0.907   3.008  -5.025  1.00  0.00     0.000 A 
ENDBRANCH  10  11
ENDBRANCH   9  10
BRANCH   9  17
ATOM     17  C   UNL     1      -0.875   1.605  -0.287  1.00  0.00     0.261 C 
ATOM     18  O   UNL     1      -1.202   0.535  -0.802  1.00  0.00    -0.269 OA
BRANCH  17  19
ATOM     19  C   UNL     1      -1.944   2.535   0.193  1.00  0.00     0.126 A 
ATOM     20  C   UNL     1      -3.090   2.352  -0.477  1.00  0.00     0.033 A 
ATOM     21  C   UNL     1      -2.016   3.041   1.573  1.00  0.00     0.349 A 
ATOM     22  C   UNL     1      -4.250   1.912   0.280  1.00  0.00     0.018 A 
ATOM     23  O   UNL     1      -3.263   2.956   2.212  1.00  0.00    -0.422 OA
ATOM     24  O   UNL     1      -1.050   3.552   2.126  1.00  0.00    -0.246 OA
ATOM     25  C   UNL     1      -5.168   0.987  -0.236  1.00  0.00     0.012 A 
ATOM     26  C   UNL     1      -4.322   2.244   1.617  1.00  0.00     0.138 A 
ATOM     27  C   UNL     1      -6.202   0.486   0.551  1.00  0.00     0.001 A 
ATOM     28  C   UNL     1      -5.372   1.789   2.411  1.00  0.00     0.048 A 
ATOM     29  C   UNL     1      -6.321   0.915   1.869  1.00  0.00     0.004 A 
ENDBRANCH  17  19
ENDBRANCH   9  17
ENDBRANCH   8   9
ENDBRANCH   6   8
ENDBRANCH   4   6
ENDBRANCH   3   4
ENDBRANCH   2   3
ENDBRANCH   1   2
BRANCH   1  30
ATOM     30  O   UNL     1      -2.574  -2.663   0.207  1.00  0.00    -0.374 OA
BRANCH  30  31
ATOM     31  C   UNL     1      -1.724  -2.403  -0.917  1.00  0.00     0.202 C 
BRANCH  31  32
ATOM     32  C   UNL     1      -2.457  -2.054  -2.241  1.00  0.00     0.261 C 
BRANCH  32  33
ATOM     33  O   UNL     1      -2.879  -0.676  -2.396  1.00  0.00    -0.460 OA
BRANCH  33  34
ATOM     34  C   UNL     1      -3.297  -0.345  -3.659  1.00  0.00     0.338 C 
ATOM     35  O   UNL     1      -3.420  -1.103  -4.592  1.00  0.00    -0.246 OA
BRANCH  34  36
ATOM     36  C   UNL     1      -3.690   1.094  -3.737  1.00  0.00     0.060 A 
ATOM     37  C   UNL     1      -5.037   1.443  -3.588  1.00  0.00     0.016 A 
ATOM     38  C   UNL     1      -2.744   2.107  -3.929  1.00  0.00     0.016 A 
ATOM     39  C   UNL     1      -5.421   2.795  -3.516  1.00  0.00     0.010 A 
ATOM     40  C   UNL     1      -3.138   3.464  -3.898  1.00  0.00     0.010 A 
ATOM     41  C   UNL     1      -4.476   3.825  -3.666  1.00  0.00    -0.014 A 
BRANCH  41  42
ATOM     42  C   UNL     1      -4.934   5.247  -3.780  1.00  0.00     0.031 A 
ATOM     43  C   UNL     1      -5.564   5.675  -5.080  1.00  0.00     0.074 A 
ATOM     44  C   UNL     1      -4.821   6.157  -2.787  1.00  0.00     0.049 A 
ATOM     45  N   UNL     1      -6.124   6.814  -5.398  1.00  0.00    -0.248 NA
ATOM     46  C   UNL     1      -5.580   4.672  -6.157  1.00  0.00     0.031 C 
ATOM     47  C   UNL     1      -4.266   5.911  -1.459  1.00  0.00     0.029 A 
ATOM     48  N   UNL     1      -5.167   7.493  -2.752  1.00  0.00    -0.354 N 
ATOM     49  C   UNL     1      -6.576   6.657  -6.701  1.00  0.00     0.074 A 
ATOM     50  C   UNL     1      -6.225   5.316  -7.117  1.00  0.00     0.031 C 
ATOM     51  C   UNL     1      -4.278   7.058  -0.753  1.00  0.00     0.029 A 
ATOM     52  C   UNL     1      -4.836   8.131  -1.576  1.00  0.00     0.049 A 
ATOM     53  H   UNL     1      -5.612   7.950  -3.502  1.00  0.00     0.167 HD
ATOM     54  C   UNL     1      -7.225   7.540  -7.494  1.00  0.00     0.034 A 
ATOM     55  C   UNL     1      -4.958   9.427  -1.208  1.00  0.00     0.034 A 
ATOM     56  C   UNL     1      -7.516   8.899  -7.144  1.00  0.00     0.049 A 
ATOM     57  C   UNL     1      -5.585  10.423  -2.160  1.00  0.00     0.074 A 
ATOM     58  C   UNL     1      -8.144   9.865  -7.910  1.00  0.00     0.029 A 
ATOM     59  N   UNL     1      -7.157   9.501  -5.951  1.00  0.00    -0.354 N 
ATOM     60  N   UNL     1      -6.154  10.212  -3.322  1.00  0.00    -0.248 NA
ATOM     61  C   UNL     1      -5.606  11.835  -1.738  1.00  0.00     0.031 C 
ATOM     62  C   UNL     1      -8.130  11.066  -7.192  1.00  0.00     0.029 A 
ATOM     63  C   UNL     1      -7.518  10.836  -5.971  1.00  0.00     0.049 A 
ATOM     64  H   UNL     1      -6.710   9.046  -5.201  1.00  0.00     0.167 HD
ATOM     65  C   UNL     1      -6.625  11.451  -3.750  1.00  0.00     0.074 A 
ATOM     66  C   UNL     1      -6.301  12.406  -2.713  1.00  0.00     0.031 C 
ATOM     67  C   UNL     1      -7.251  11.772  -4.910  1.00  0.00     0.034 A 
BRANCH  54  68
ATOM     68  C   UNL     1      -7.649   7.043  -8.845  1.00  0.00     0.023 A 
ATOM     69  C   UNL     1      -8.799   6.236  -8.952  1.00  0.00     0.012 A 
ATOM     70  C   UNL     1      -6.910   7.367  -9.996  1.00  0.00     0.148 A 
ATOM     71  C   UNL     1      -9.195   5.736 -10.191  1.00  0.00     0.002 A 
ATOM     72  C   UNL     1      -7.326   6.888 -11.230  1.00  0.00     0.091 A 
ATOM     73  F   UNL     1      -5.804   8.112  -9.856  1.00  0.00    -0.205 F 
ATOM     74  C   UNL     1      -8.463   6.066 -11.329  1.00  0.00     0.022 A 
BRANCH  72  75
ATOM     75  S   UNL     1      -6.471   7.280 -12.758  1.00  0.00     0.127 S 
ATOM     76  O   UNL     1      -5.933   5.973 -13.137  1.00  0.00    -0.237 OA
ATOM     77  O   UNL     1      -7.563   7.760 -13.605  1.00  0.00    -0.237 OA
ATOM     78  O   UNL     1      -5.474   8.285 -12.417  1.00  0.00    -0.744 OA
ENDBRANCH  72  75
ENDBRANCH  54  68
BRANCH  55  79
ATOM     79  C   UNL     1      -4.490   9.900   0.134  1.00  0.00     0.023 A 
ATOM     80  C   UNL     1      -5.428  10.391   1.067  1.00  0.00     0.012 A 
ATOM     81  C   UNL     1      -3.121   9.944   0.462  1.00  0.00     0.148 A 
ATOM     82  C   UNL     1      -5.010  10.950   2.277  1.00  0.00     0.002 A 
ATOM     83  C   UNL     1      -2.714  10.458   1.690  1.00  0.00     0.091 A 
ATOM     84  F   UNL     1      -2.236   9.510  -0.447  1.00  0.00    -0.205 F 
ATOM     85  C   UNL     1      -3.655  10.977   2.592  1.00  0.00     0.022 A 
BRANCH  83  86
ATOM     86  S   UNL     1      -0.994  10.444   2.208  1.00  0.00     0.127 S 
ATOM     87  O   UNL     1      -0.606  11.836   1.999  1.00  0.00    -0.237 OA
ATOM     88  O   UNL     1      -1.098  10.039   3.611  1.00  0.00    -0.237 OA
ATOM     89  O   UNL     1      -0.342   9.464   1.349  1.00  0.00    -0.744 OA
ENDBRANCH  83  86
ENDBRANCH  55  79
BRANCH  67  90
ATOM     90  C   UNL     1      -7.653  13.207  -5.136  1.00  0.00     0.023 A 
ATOM     91  C   UNL     1      -6.667  14.168  -5.436  1.00  0.00     0.012 A 
ATOM     92  C   UNL     1      -9.012  13.580  -5.171  1.00  0.00     0.148 A 
ATOM     93  C   UNL     1      -7.025  15.479  -5.751  1.00  0.00     0.002 A 
ATOM     94  C   UNL     1      -9.364  14.876  -5.532  1.00  0.00     0.091 A 
ATOM     95  F   UNL     1      -9.936  12.658  -4.863  1.00  0.00    -0.205 F 
ATOM     96  C   UNL     1      -8.372  15.829  -5.813  1.00  0.00     0.022 A 
BRANCH  94  97
ATOM     97  S   UNL     1     -11.076  15.382  -5.741  1.00  0.00     0.127 S 
ATOM     98  O   UNL     1     -11.301  16.180  -4.537  1.00  0.00    -0.237 OA
ATOM     99  O   UNL     1     -11.025  16.154  -6.983  1.00  0.00    -0.237 OA
ATOM    100  O   UNL     1     -11.847  14.150  -5.831  1.00  0.00    -0.744 OA
ENDBRANCH  94  97
ENDBRANCH  67  90
ENDBRANCH  41  42
ENDBRANCH  34  36
ENDBRANCH  33  34
ENDBRANCH  32  33
ENDBRANCH  31  32
ENDBRANCH  30  31
ENDBRANCH   1  30
TORSDOF 23
