REMARK SMILES Cc1c(CC(=O)OCCOCCOC(=O)c2ccc(-c3c4nc(c(-c5cccc(S(=O)(=O)[O-])c5F)c5ccc([nH]5)c(-c5cccc(S(=O)(=O)[O-])c5F)c5nc(c(-c6cccc(S(=O)(=O)[O-])c6F)c6ccc3[nH]6)C=C5)C=C4)cc2)cccc1-c1ccn(C(F)F)c(=O)c1
REMARK SMILES IDX 10 1 9 2 8 3 7 4 5 5 6 6 4 7 3 8 1 9 2 10 82 11 79 12 81 13
REMARK SMILES IDX 80 14 83 15 84 16 92 17 85 18 90 19 86 20 91 21 87 22 88 23
REMARK SMILES IDX 89 24 11 25 12 26 13 27 14 28 15 29 16 30 17 31 78 32 18 33
REMARK SMILES IDX 77 34 19 35 20 36 21 37 71 38 22 39 76 40 70 41 72 42 23 43
REMARK SMILES IDX 75 44 69 45 68 46 24 48 56 49 36 50 55 51 37 52 40 53 54 54
REMARK SMILES IDX 73 55 38 56 39 57 53 59 74 60 41 61 25 62 26 63 34 64 27 65
REMARK SMILES IDX 29 66 35 67 28 68 30 69 31 70 32 71 33 72 57 73 58 74 66 75
REMARK SMILES IDX 59 76 61 77 67 78 60 79 62 80 63 81 64 82 65 83 42 84 43 85
REMARK SMILES IDX 51 86 44 87 46 88 52 89 45 90 47 91 48 92 49 93 50 94
REMARK H PARENT 72 47 40 58
REMARK Flexibility Score: inf
ROOT
ATOM      1  O   UNL     1      -1.976  -2.954   1.161  1.00  0.00    -0.374 OA
ENDROOT
BRANCH   1   2
ATOM      2  C   UNL     1      -1.587  -1.964   2.103  1.00  0.00     0.202 C 
BRANCH   2   3
ATOM      3  C   UNL     1      -0.137  -2.204   2.388  1.00  0.00     0.261 C 
BRANCH   3   4
ATOM      4  O   UNL     1       0.697  -1.931   1.249  1.00  0.00    -0.463 OA
BRANCH   4   5
ATOM      5  C   UNL     1       0.822  -2.872   0.254  1.00  0.00     0.310 C 
ATOM      6  O   UNL     1       0.711  -4.070   0.368  1.00  0.00    -0.252 OA
BRANCH   5   7
ATOM      7  C   UNL     1       1.118  -2.180  -1.067  1.00  0.00     0.158 C 
BRANCH   7   8
ATOM      8  C   UNL     1       0.468  -0.808  -1.072  1.00  0.00    -0.033 A 
ATOM      9  C   UNL     1       2.628   0.234  -0.261  1.00  0.00     0.045 C 
ATOM     10  C   UNL     1       1.153   0.332  -0.596  1.00  0.00    -0.039 A 
ATOM     11  C   UNL     1       0.415   1.514  -0.369  1.00  0.00    -0.015 A 
ATOM     12  C   UNL     1      -0.923  -0.760  -1.280  1.00  0.00     0.004 A 
ATOM     13  C   UNL     1      -0.982   1.515  -0.503  1.00  0.00     0.009 A 
ATOM     14  C   UNL     1      -1.647   0.382  -0.960  1.00  0.00     0.001 A 
BRANCH  11  15
ATOM     15  C   UNL     1       1.112   2.790  -0.137  1.00  0.00    -0.011 A 
ATOM     16  C   UNL     1       1.956   3.327  -1.186  1.00  0.00     0.027 A 
ATOM     17  C   UNL     1       1.023   3.434   1.039  1.00  0.00     0.080 A 
ATOM     18  C   UNL     1       2.721   4.395  -0.964  1.00  0.00     0.095 A 
ATOM     19  C   UNL     1       1.819   4.676   1.273  1.00  0.00     0.255 A 
ATOM     20  N   UNL     1       2.678   5.051   0.248  1.00  0.00    -0.258 N 
ATOM     21  O   UNL     1       1.682   5.275   2.335  1.00  0.00    -0.269 OA
BRANCH  20  22
ATOM     22  C   UNL     1       3.534   6.181   0.479  1.00  0.00     0.451 C 
ATOM     23  F   UNL     1       2.815   7.315   0.663  1.00  0.00    -0.185 F 
ATOM     24  F   UNL     1       4.318   5.994   1.568  1.00  0.00    -0.185 F 
ENDBRANCH  20  22
ENDBRANCH  11  15
ENDBRANCH   7   8
ENDBRANCH   5   7
ENDBRANCH   4   5
ENDBRANCH   3   4
ENDBRANCH   2   3
ENDBRANCH   1   2
BRANCH   1  25
ATOM     25  C   UNL     1      -3.325  -2.915   0.741  1.00  0.00     0.202 C 
BRANCH  25  26
ATOM     26  C   UNL     1      -4.353  -2.926   1.878  1.00  0.00     0.261 C 
BRANCH  26  27
ATOM     27  O   UNL     1      -4.313  -4.200   2.545  1.00  0.00    -0.460 OA
BRANCH  27  28
ATOM     28  C   UNL     1      -3.830  -4.164   3.820  1.00  0.00     0.338 C 
ATOM     29  O   UNL     1      -4.281  -3.449   4.699  1.00  0.00    -0.246 OA
BRANCH  28  30
ATOM     30  C   UNL     1      -2.550  -4.928   3.884  1.00  0.00     0.060 A 
ATOM     31  C   UNL     1      -1.716  -4.811   5.006  1.00  0.00     0.016 A 
ATOM     32  C   UNL     1      -2.058  -5.511   2.716  1.00  0.00     0.016 A 
ATOM     33  C   UNL     1      -0.348  -5.100   4.902  1.00  0.00     0.010 A 
ATOM     34  C   UNL     1      -0.700  -5.716   2.593  1.00  0.00     0.010 A 
ATOM     35  C   UNL     1       0.172  -5.455   3.665  1.00  0.00    -0.014 A 
BRANCH  35  36
ATOM     36  C   UNL     1       1.588  -5.652   3.356  1.00  0.00     0.031 A 
ATOM     37  C   UNL     1       2.027  -7.055   3.240  1.00  0.00     0.074 A 
ATOM     38  C   UNL     1       2.419  -4.656   2.960  1.00  0.00     0.049 A 
ATOM     39  N   UNL     1       3.256  -7.432   3.247  1.00  0.00    -0.248 NA
ATOM     40  C   UNL     1       1.083  -8.169   3.189  1.00  0.00     0.031 C 
ATOM     41  C   UNL     1       3.586  -4.780   2.087  1.00  0.00     0.029 A 
ATOM     42  N   UNL     1       2.379  -3.279   3.216  1.00  0.00    -0.354 N 
ATOM     43  C   UNL     1       3.271  -8.755   2.870  1.00  0.00     0.074 A 
ATOM     44  C   UNL     1       1.913  -9.199   3.027  1.00  0.00     0.031 C 
ATOM     45  C   UNL     1       4.266  -3.620   2.074  1.00  0.00     0.029 A 
ATOM     46  C   UNL     1       3.669  -2.755   3.077  1.00  0.00     0.049 A 
ATOM     47  H   UNL     1       1.574  -2.764   3.454  1.00  0.00     0.167 HD
ATOM     48  C   UNL     1       4.401  -9.247   2.291  1.00  0.00     0.034 A 
ATOM     49  C   UNL     1       4.282  -2.072   4.083  1.00  0.00     0.034 A 
ATOM     50  C   UNL     1       5.472  -8.222   2.311  1.00  0.00     0.049 A 
ATOM     51  C   UNL     1       5.518  -2.814   4.508  1.00  0.00     0.074 A 
ATOM     52  C   UNL     1       5.966  -7.367   1.338  1.00  0.00     0.029 A 
ATOM     53  N   UNL     1       5.950  -7.732   3.530  1.00  0.00    -0.354 N 
ATOM     54  N   UNL     1       5.827  -3.979   4.013  1.00  0.00    -0.248 NA
ATOM     55  C   UNL     1       6.498  -2.360   5.487  1.00  0.00     0.031 C 
ATOM     56  C   UNL     1       6.668  -6.313   1.991  1.00  0.00     0.029 A 
ATOM     57  C   UNL     1       6.641  -6.537   3.359  1.00  0.00     0.049 A 
ATOM     58  H   UNL     1       5.814  -8.176   4.398  1.00  0.00     0.167 HD
ATOM     59  C   UNL     1       6.878  -4.512   4.674  1.00  0.00     0.074 A 
ATOM     60  C   UNL     1       7.325  -3.424   5.532  1.00  0.00     0.031 C 
ATOM     61  C   UNL     1       7.218  -5.824   4.506  1.00  0.00     0.034 A 
BRANCH  48  62
ATOM     62  C   UNL     1       4.474 -10.518   1.441  1.00  0.00     0.023 A 
ATOM     63  C   UNL     1       5.646 -10.697   0.672  1.00  0.00     0.012 A 
ATOM     64  C   UNL     1       3.489 -11.527   1.280  1.00  0.00     0.148 A 
ATOM     65  C   UNL     1       5.810 -11.759  -0.227  1.00  0.00     0.002 A 
ATOM     66  C   UNL     1       3.642 -12.583   0.374  1.00  0.00     0.091 A 
ATOM     67  F   UNL     1       2.387 -11.526   2.023  1.00  0.00    -0.205 F 
ATOM     68  C   UNL     1       4.803 -12.698  -0.387  1.00  0.00     0.022 A 
BRANCH  66  69
ATOM     69  S   UNL     1       2.367 -13.839   0.114  1.00  0.00     0.127 S 
ATOM     70  O   UNL     1       2.175 -13.787  -1.337  1.00  0.00    -0.237 OA
ATOM     71  O   UNL     1       3.025 -15.052   0.596  1.00  0.00    -0.237 OA
ATOM     72  O   UNL     1       1.203 -13.419   0.885  1.00  0.00    -0.744 OA
ENDBRANCH  66  69
ENDBRANCH  48  62
BRANCH  49  73
ATOM     73  C   UNL     1       3.315  -1.319   4.946  1.00  0.00     0.023 A 
ATOM     74  C   UNL     1       2.665  -0.201   4.358  1.00  0.00     0.012 A 
ATOM     75  C   UNL     1       2.723  -1.923   6.070  1.00  0.00     0.148 A 
ATOM     76  C   UNL     1       1.403   0.215   4.794  1.00  0.00     0.002 A 
ATOM     77  C   UNL     1       1.444  -1.532   6.468  1.00  0.00     0.091 A 
ATOM     78  F   UNL     1       3.386  -2.909   6.688  1.00  0.00    -0.205 F 
ATOM     79  C   UNL     1       0.771  -0.485   5.815  1.00  0.00     0.022 A 
BRANCH  77  80
ATOM     80  S   UNL     1       0.510  -2.456   7.699  1.00  0.00     0.127 S 
ATOM     81  O   UNL     1       0.662  -1.614   8.882  1.00  0.00    -0.237 OA
ATOM     82  O   UNL     1      -0.836  -2.465   7.125  1.00  0.00    -0.237 OA
ATOM     83  O   UNL     1       1.142  -3.765   7.764  1.00  0.00    -0.744 OA
ENDBRANCH  77  80
ENDBRANCH  49  73
BRANCH  61  84
ATOM     84  C   UNL     1       8.153  -6.530   5.442  1.00  0.00     0.023 A 
ATOM     85  C   UNL     1       8.294  -6.128   6.786  1.00  0.00     0.012 A 
ATOM     86  C   UNL     1       8.815  -7.709   5.041  1.00  0.00     0.148 A 
ATOM     87  C   UNL     1       9.140  -6.801   7.665  1.00  0.00     0.002 A 
ATOM     88  C   UNL     1       9.553  -8.447   5.955  1.00  0.00     0.091 A 
ATOM     89  F   UNL     1       8.746  -8.112   3.763  1.00  0.00    -0.205 F 
ATOM     90  C   UNL     1       9.757  -7.973   7.254  1.00  0.00     0.022 A 
BRANCH  88  91
ATOM     91  S   UNL     1      10.133 -10.096   5.552  1.00  0.00     0.127 S 
ATOM     92  O   UNL     1      11.513  -9.839   5.148  1.00  0.00    -0.237 OA
ATOM     93  O   UNL     1       9.989 -10.796   6.830  1.00  0.00    -0.237 OA
ATOM     94  O   UNL     1       9.236 -10.574   4.507  1.00  0.00    -0.744 OA
ENDBRANCH  88  91
ENDBRANCH  61  84
ENDBRANCH  35  36
ENDBRANCH  28  30
ENDBRANCH  27  28
ENDBRANCH  26  27
ENDBRANCH  25  26
ENDBRANCH   1  25
TORSDOF 20
