REMARK SMILES C[C@@H]1CCC[C@H](C)[N@H+]1Cc1cc2c(cc1Cl)C=C(C(=O)OCCOCCOC(=O)c1ccc(-c3c4nc(c(-c5cccc(S(=O)(=O)[O-])c5F)c5ccc([nH]5)c(-c5cccc(S(=O)(=O)[O-])c5F)c5nc(c(-c6cccc(S(=O)(=O)[O-])c6F)c6ccc3[nH]6)C=C5)C=C4)cc1)[C@@H](C(F)(F)F)O2
REMARK SMILES IDX 25 1 24 2 23 3 22 4 21 5 19 6 20 7 18 8 10 9 11 10 15 11
REMARK SMILES IDX 12 12 14 13 16 14 13 15 98 16 17 17 93 18 9 19 8 20 7 21
REMARK SMILES IDX 6 22 5 23 4 24 2 25 3 27 1 28 94 29 95 30 96 31 97 32 26 33
REMARK SMILES IDX 27 34 28 35 29 36 30 37 31 38 92 39 32 40 91 41 33 42 34 43
REMARK SMILES IDX 35 44 85 45 36 46 90 47 84 48 86 49 37 50 89 51 83 52 82 53
REMARK SMILES IDX 38 55 70 56 50 57 69 58 51 59 54 60 68 61 87 62 52 63 53 64
REMARK SMILES IDX 67 66 88 67 55 68 39 69 40 70 48 71 41 72 43 73 49 74 42 75
REMARK SMILES IDX 44 76 45 77 46 78 47 79 71 80 72 81 80 82 73 83 75 84 81 85
REMARK SMILES IDX 74 86 76 87 77 88 78 89 79 90 56 91 57 92 65 93 58 94 60 95
REMARK SMILES IDX 66 96 59 97 61 98 62 99 63 100 64 101
REMARK H PARENT 8 26 86 54 54 65
REMARK Flexibility Score: inf
ROOT
ATOM      1  C   UNL     1       3.724   8.650   3.208  1.00  0.00     0.202 C 
ENDROOT
BRANCH   1   2
ATOM      2  O   UNL     1       3.610   9.988   3.690  1.00  0.00    -0.374 OA
BRANCH   2   3
ATOM      3  C   UNL     1       3.780  10.229   5.083  1.00  0.00     0.202 C 
BRANCH   3   4
ATOM      4  C   UNL     1       2.639   9.841   6.028  1.00  0.00     0.261 C 
BRANCH   4   5
ATOM      5  O   UNL     1       2.217   8.479   5.857  1.00  0.00    -0.460 OA
BRANCH   5   6
ATOM      6  C   UNL     1       1.027   8.361   5.226  1.00  0.00     0.338 C 
ATOM      7  O   UNL     1       0.293   9.277   4.884  1.00  0.00    -0.246 OA
BRANCH   6   8
ATOM      8  C   UNL     1       0.746   6.955   4.887  1.00  0.00     0.087 C 
ATOM      9  C   UNL     1      -1.374   2.894   2.823  1.00  0.00     0.029 A 
ATOM     10  C   UNL     1      -0.387   3.082   3.818  1.00  0.00     0.058 A 
ATOM     11  C   UNL     1      -2.038   4.031   2.335  1.00  0.00     0.050 A 
ATOM     12  C   UNL     1       0.026   4.366   4.186  1.00  0.00     0.128 A 
ATOM     13  C   UNL     1      -1.563   5.306   2.632  1.00  0.00     0.033 A 
ATOM     14  Cl  UNL     1      -3.462   3.959   1.357  1.00  0.00    -0.084 Cl
ATOM     15  C   UNL     1      -0.510   5.467   3.527  1.00  0.00     0.019 A 
ATOM     16  O   UNL     1       0.995   4.487   5.147  1.00  0.00    -0.475 OA
ATOM     17  C   UNL     1      -0.006   6.794   3.793  1.00  0.00     0.027 C 
ATOM     18  C   UNL     1       1.171   5.809   5.763  1.00  0.00     0.316 C 
BRANCH   9  19
ATOM     19  C   UNL     1      -1.629   1.504   2.268  1.00  0.00     0.301 C 
BRANCH  19  20
ATOM     20  N   UNL     1      -0.839   1.090   1.080  1.00  0.00    -0.327 N 
ATOM     21  C   UNL     1       1.087  -0.366   0.509  1.00  0.00     0.075 C 
ATOM     22  C   UNL     1       0.583   0.822   1.345  1.00  0.00     0.181 C 
ATOM     23  C   UNL     1       1.497   2.039   1.138  1.00  0.00     0.065 C 
ATOM     24  C   UNL     1       1.256   2.758  -0.183  1.00  0.00     0.012 C 
ATOM     25  C   UNL     1      -1.135   1.827  -0.160  1.00  0.00     0.181 C 
ATOM     26  H   UNL     1      -1.201   0.160   0.866  1.00  0.00     0.348 HD
ATOM     27  C   UNL     1      -0.223   3.040  -0.414  1.00  0.00     0.065 C 
ATOM     28  C   UNL     1      -1.163   0.910  -1.392  1.00  0.00     0.075 C 
ENDBRANCH  19  20
ENDBRANCH   9  19
BRANCH  18  29
ATOM     29  C   UNL     1       0.463   5.862   7.125  1.00  0.00     0.430 C 
ATOM     30  F   UNL     1       0.789   4.799   7.896  1.00  0.00    -0.167 F 
ATOM     31  F   UNL     1       0.809   6.973   7.817  1.00  0.00    -0.167 F 
ATOM     32  F   UNL     1      -0.883   5.872   6.994  1.00  0.00    -0.167 F 
ENDBRANCH  18  29
ENDBRANCH   6   8
ENDBRANCH   5   6
ENDBRANCH   4   5
ENDBRANCH   3   4
ENDBRANCH   2   3
ENDBRANCH   1   2
BRANCH   1  33
ATOM     33  C   UNL     1       5.098   7.965   3.240  1.00  0.00     0.261 C 
BRANCH  33  34
ATOM     34  O   UNL     1       5.586   7.748   4.574  1.00  0.00    -0.460 OA
BRANCH  34  35
ATOM     35  C   UNL     1       6.648   8.519   4.926  1.00  0.00     0.338 C 
ATOM     36  O   UNL     1       7.227   9.336   4.228  1.00  0.00    -0.246 OA
BRANCH  35  37
ATOM     37  C   UNL     1       6.877   8.382   6.377  1.00  0.00     0.060 A 
ATOM     38  C   UNL     1       7.104   7.132   6.951  1.00  0.00     0.016 A 
ATOM     39  C   UNL     1       6.890   9.542   7.163  1.00  0.00     0.016 A 
ATOM     40  C   UNL     1       7.364   7.049   8.320  1.00  0.00     0.010 A 
ATOM     41  C   UNL     1       7.150   9.456   8.531  1.00  0.00     0.010 A 
ATOM     42  C   UNL     1       7.407   8.210   9.117  1.00  0.00    -0.014 A 
BRANCH  42  43
ATOM     43  C   UNL     1       7.858   8.121  10.527  1.00  0.00     0.031 A 
ATOM     44  C   UNL     1       6.908   8.294  11.674  1.00  0.00     0.074 A 
ATOM     45  C   UNL     1       9.165   7.894  10.763  1.00  0.00     0.049 A 
ATOM     46  N   UNL     1       7.141   8.149  12.952  1.00  0.00    -0.248 NA
ATOM     47  C   UNL     1       5.525   8.682  11.354  1.00  0.00     0.031 C 
ATOM     48  C   UNL     1      10.196   7.779   9.728  1.00  0.00     0.029 A 
ATOM     49  N   UNL     1       9.850   7.720  11.938  1.00  0.00    -0.354 N 
ATOM     50  C   UNL     1       5.942   8.430  13.594  1.00  0.00     0.074 A 
ATOM     51  C   UNL     1       4.984   8.774  12.564  1.00  0.00     0.031 C 
ATOM     52  C   UNL     1      11.377   7.527  10.313  1.00  0.00     0.029 A 
ATOM     53  C   UNL     1      11.193   7.484  11.760  1.00  0.00     0.049 A 
ATOM     54  H   UNL     1       9.422   7.759  12.823  1.00  0.00     0.167 HD
ATOM     55  C   UNL     1       5.664   8.379  14.918  1.00  0.00     0.034 A 
ATOM     56  C   UNL     1      12.170   7.251  12.658  1.00  0.00     0.034 A 
ATOM     57  C   UNL     1       6.616   8.021  15.935  1.00  0.00     0.049 A 
ATOM     58  C   UNL     1      11.831   7.191  14.119  1.00  0.00     0.074 A 
ATOM     59  C   UNL     1       6.399   7.877  17.295  1.00  0.00     0.029 A 
ATOM     60  N   UNL     1       7.960   7.769  15.716  1.00  0.00    -0.354 N 
ATOM     61  N   UNL     1      10.660   7.317  14.693  1.00  0.00    -0.248 NA
ATOM     62  C   UNL     1      12.936   6.931  15.053  1.00  0.00     0.031 C 
ATOM     63  C   UNL     1       7.617   7.560  17.901  1.00  0.00     0.029 A 
ATOM     64  C   UNL     1       8.587   7.483  16.916  1.00  0.00     0.049 A 
ATOM     65  H   UNL     1       8.403   7.789  14.837  1.00  0.00     0.167 HD
ATOM     66  C   UNL     1      10.881   7.133  16.052  1.00  0.00     0.074 A 
ATOM     67  C   UNL     1      12.297   6.873  16.216  1.00  0.00     0.031 C 
ATOM     68  C   UNL     1       9.988   7.186  17.068  1.00  0.00     0.034 A 
BRANCH  55  69
ATOM     69  C   UNL     1       4.254   8.655  15.362  1.00  0.00     0.023 A 
ATOM     70  C   UNL     1       3.282   7.646  15.216  1.00  0.00     0.012 A 
ATOM     71  C   UNL     1       3.928   9.842  16.045  1.00  0.00     0.148 A 
ATOM     72  C   UNL     1       2.002   7.815  15.741  1.00  0.00     0.002 A 
ATOM     73  C   UNL     1       2.658   9.993  16.589  1.00  0.00     0.091 A 
ATOM     74  F   UNL     1       4.871  10.787  16.167  1.00  0.00    -0.205 F 
ATOM     75  C   UNL     1       1.694   8.982  16.436  1.00  0.00     0.022 A 
BRANCH  73  76
ATOM     76  S   UNL     1       2.171  11.433  17.546  1.00  0.00     0.127 S 
ATOM     77  O   UNL     1       1.118  12.001  16.705  1.00  0.00    -0.237 OA
ATOM     78  O   UNL     1       1.699  10.829  18.791  1.00  0.00    -0.237 OA
ATOM     79  O   UNL     1       3.366  12.255  17.676  1.00  0.00    -0.744 OA
ENDBRANCH  73  76
ENDBRANCH  55  69
BRANCH  56  80
ATOM     80  C   UNL     1      13.551   6.990  12.173  1.00  0.00     0.023 A 
ATOM     81  C   UNL     1      14.046   5.673  12.174  1.00  0.00     0.012 A 
ATOM     82  C   UNL     1      14.338   8.027  11.636  1.00  0.00     0.148 A 
ATOM     83  C   UNL     1      15.309   5.392  11.654  1.00  0.00     0.002 A 
ATOM     84  C   UNL     1      15.579   7.735  11.086  1.00  0.00     0.091 A 
ATOM     85  F   UNL     1      13.837   9.270  11.645  1.00  0.00    -0.205 F 
ATOM     86  C   UNL     1      16.070   6.420  11.101  1.00  0.00     0.022 A 
BRANCH  84  87
ATOM     87  S   UNL     1      16.593   8.972  10.270  1.00  0.00     0.127 S 
ATOM     88  O   UNL     1      17.786   8.983  11.113  1.00  0.00    -0.237 OA
ATOM     89  O   UNL     1      16.778   8.377   8.946  1.00  0.00    -0.237 OA
ATOM     90  O   UNL     1      15.810  10.199  10.281  1.00  0.00    -0.744 OA
ENDBRANCH  84  87
ENDBRANCH  56  80
BRANCH  68  91
ATOM     91  C   UNL     1      10.484   6.950  18.468  1.00  0.00     0.023 A 
ATOM     92  C   UNL     1      11.140   7.990  19.153  1.00  0.00     0.012 A 
ATOM     93  C   UNL     1      10.165   5.759  19.149  1.00  0.00     0.148 A 
ATOM     94  C   UNL     1      11.473   7.848  20.500  1.00  0.00     0.002 A 
ATOM     95  C   UNL     1      10.469   5.637  20.499  1.00  0.00     0.091 A 
ATOM     96  F   UNL     1       9.542   4.785  18.470  1.00  0.00    -0.205 F 
ATOM     97  C   UNL     1      11.125   6.679  21.175  1.00  0.00     0.022 A 
BRANCH  95  98
ATOM     98  S   UNL     1      10.001   4.202  21.474  1.00  0.00     0.127 S 
ATOM     99  O   UNL     1      11.307   3.667  21.860  1.00  0.00    -0.237 OA
ATOM    100  O   UNL     1       9.242   4.808  22.568  1.00  0.00    -0.237 OA
ATOM    101  O   UNL     1       9.223   3.346  20.589  1.00  0.00    -0.744 OA
ENDBRANCH  95  98
ENDBRANCH  68  91
ENDBRANCH  42  43
ENDBRANCH  35  37
ENDBRANCH  34  35
ENDBRANCH  33  34
ENDBRANCH   1  33
TORSDOF 20
