REMARK SMILES COC(=O)[C@H]1CC[C@]2(C)[C@H](CC[C@]3(C)[C@H]2CC=C2[C@@H]4CC(C)(C)CC[C@]4(C(=O)OCCOCCOC(=O)c4ccc(-c5c6nc(c(-c7cccc(S(=O)(=O)[O-])c7F)c7ccc([nH]7)c(-c7cccc(S(=O)(=O)[O-])c7F)c7nc(c(-c8cccc(S(=O)(=O)[O-])c8F)c8ccc5[nH]8)C=C7)C=C6)cc4)CC[C@@]23C)C1(C)C
REMARK SMILES IDX 33 1 32 2 31 3 30 4 29 5 27 6 28 7 26 8 5 9 6 10 105 11 7 12
REMARK SMILES IDX 10 13 106 14 107 15 8 16 11 17 15 18 9 19 12 20 16 21 13 22
REMARK SMILES IDX 17 23 103 24 14 25 18 26 102 27 104 28 19 29 101 30 20 31
REMARK SMILES IDX 21 32 25 33 24 34 22 35 23 36 3 37 4 38 2 39 1 40 34 41
REMARK SMILES IDX 35 42 36 43 37 44 38 45 39 46 100 47 40 48 99 49 41 50 42 51
REMARK SMILES IDX 43 52 93 53 44 54 98 55 92 56 94 57 45 58 97 59 91 60 90 61
REMARK SMILES IDX 46 63 78 64 58 65 77 66 59 67 62 68 76 69 95 70 60 71 61 72
REMARK SMILES IDX 75 74 96 75 63 76 47 77 48 78 56 79 49 80 51 81 57 82 50 83
REMARK SMILES IDX 52 84 53 85 54 86 55 87 79 88 80 89 88 90 81 91 83 92 89 93
REMARK SMILES IDX 82 94 84 95 85 96 86 97 87 98 64 99 65 100 73 101 66 102
REMARK SMILES IDX 68 103 74 104 67 105 69 106 70 107 71 108 72 109
REMARK H PARENT 94 62 62 73
REMARK Flexibility Score: inf
ROOT
ATOM      1  C   UNL     1      -1.753  10.286  -5.342  1.00  0.00     0.202 C 
ENDROOT
BRANCH   1   2
ATOM      2  O   UNL     1      -2.187  10.512  -3.997  1.00  0.00    -0.374 OA
BRANCH   2   3
ATOM      3  C   UNL     1      -2.532   9.371  -3.200  1.00  0.00     0.202 C 
BRANCH   3   4
ATOM      4  C   UNL     1      -3.982   8.692  -3.358  1.00  0.00     0.261 C 
BRANCH   4   5
ATOM      5  O   UNL     1      -4.307   8.082  -4.682  1.00  0.00    -0.463 OA
BRANCH   5   6
ATOM      6  C   UNL     1      -5.473   7.334  -4.927  1.00  0.00     0.312 C 
ATOM      7  O   UNL     1      -6.560   7.613  -4.438  1.00  0.00    -0.252 OA
BRANCH   6   8
ATOM      8  C   UNL     1      -5.183   5.969  -5.774  1.00  0.00     0.075 C 
ATOM      9  C   UNL     1      -0.011   0.915  -3.081  1.00  0.00     0.105 C 
ATOM     10  C   UNL     1       0.569   2.191  -2.392  1.00  0.00     0.016 C 
ATOM     11  C   UNL     1      -1.512   1.265  -3.381  1.00  0.00    -0.019 C 
ATOM     12  C   UNL     1       0.557   3.446  -3.244  1.00  0.00     0.008 C 
ATOM     13  C   UNL     1      -1.352   2.482  -4.448  1.00  0.00     0.002 C 
ATOM     14  C   UNL     1      -2.217   1.479  -1.998  1.00  0.00     0.012 C 
ATOM     15  C   UNL     1      -2.274   0.022  -3.897  1.00  0.00     0.012 C 
ATOM     16  C   UNL     1      -0.823   3.804  -3.852  1.00  0.00    -0.026 C 
ATOM     17  C   UNL     1      -2.247   2.553  -5.682  1.00  0.00     0.005 C 
ATOM     18  C   UNL     1      -0.416   4.838  -4.999  1.00  0.00     0.006 C 
ATOM     19  C   UNL     1      -1.639   4.359  -2.622  1.00  0.00     0.012 C 
ATOM     20  C   UNL     1      -1.690   3.354  -6.846  1.00  0.00     0.008 C 
ATOM     21  C   UNL     1      -0.574   6.223  -4.369  1.00  0.00     0.032 C 
ATOM     22  C   UNL     1      -1.072   4.726  -6.536  1.00  0.00    -0.020 C 
ATOM     23  C   UNL     1      -2.009   6.620  -4.486  1.00  0.00    -0.027 C 
ATOM     24  C   UNL     1      -2.127   5.929  -6.716  1.00  0.00    -0.006 C 
ATOM     25  C   UNL     1       0.128   4.855  -7.553  1.00  0.00     0.012 C 
ATOM     26  C   UNL     1      -2.741   5.875  -5.327  1.00  0.00    -0.063 C 
ATOM     27  C   UNL     1      -3.280   6.102  -7.725  1.00  0.00     0.013 C 
ATOM     28  C   UNL     1      -1.237   7.186  -7.161  1.00  0.00     0.017 C 
ATOM     29  C   UNL     1      -4.123   5.310  -4.904  1.00  0.00     0.033 C 
ATOM     30  C   UNL     1      -4.725   6.312  -7.232  1.00  0.00     0.020 C 
ATOM     31  C   UNL     1      -4.587   4.036  -4.044  1.00  0.00     0.015 C 
ATOM     32  C   UNL     1      -5.787   3.124  -4.426  1.00  0.00    -0.035 C 
ATOM     33  C   UNL     1      -6.393   5.002  -6.058  1.00  0.00     0.020 C 
ATOM     34  C   UNL     1      -6.888   3.977  -5.049  1.00  0.00     0.007 C 
ATOM     35  C   UNL     1      -6.365   2.478  -3.132  1.00  0.00     0.011 C 
ATOM     36  C   UNL     1      -5.404   1.912  -5.310  1.00  0.00     0.011 C 
BRANCH   9  37
ATOM     37  C   UNL     1       0.608   0.340  -4.418  1.00  0.00     0.309 C 
ATOM     38  O   UNL     1      -0.040   0.078  -5.430  1.00  0.00    -0.252 OA
BRANCH  37  39
ATOM     39  O   UNL     1       1.938   0.172  -4.401  1.00  0.00    -0.469 OA
ATOM     40  C   UNL     1       2.449  -0.505  -5.556  1.00  0.00     0.282 C 
ENDBRANCH  37  39
ENDBRANCH   9  37
ENDBRANCH   6   8
ENDBRANCH   5   6
ENDBRANCH   4   5
ENDBRANCH   3   4
ENDBRANCH   2   3
ENDBRANCH   1   2
BRANCH   1  41
ATOM     41  C   UNL     1      -0.210  10.165  -5.654  1.00  0.00     0.261 C 
BRANCH  41  42
ATOM     42  O   UNL     1       0.495   8.999  -5.130  1.00  0.00    -0.460 OA
BRANCH  42  43
ATOM     43  C   UNL     1       1.864   8.952  -5.298  1.00  0.00     0.338 C 
ATOM     44  O   UNL     1       2.538   9.877  -5.729  1.00  0.00    -0.246 OA
BRANCH  43  45
ATOM     45  C   UNL     1       2.509   7.633  -4.891  1.00  0.00     0.060 A 
ATOM     46  C   UNL     1       2.608   7.289  -3.540  1.00  0.00     0.016 A 
ATOM     47  C   UNL     1       3.152   6.781  -5.811  1.00  0.00     0.016 A 
ATOM     48  C   UNL     1       3.347   6.147  -3.114  1.00  0.00     0.010 A 
ATOM     49  C   UNL     1       3.882   5.624  -5.380  1.00  0.00     0.010 A 
ATOM     50  C   UNL     1       4.027   5.302  -4.016  1.00  0.00    -0.014 A 
BRANCH  50  51
ATOM     51  C   UNL     1       5.062   4.302  -3.488  1.00  0.00     0.031 A 
ATOM     52  C   UNL     1       6.492   4.714  -3.424  1.00  0.00     0.074 A 
ATOM     53  C   UNL     1       4.839   3.045  -3.032  1.00  0.00     0.049 A 
ATOM     54  N   UNL     1       7.516   3.991  -3.058  1.00  0.00    -0.248 NA
ATOM     55  C   UNL     1       6.822   6.061  -3.896  1.00  0.00     0.031 C 
ATOM     56  C   UNL     1       3.595   2.381  -3.223  1.00  0.00     0.029 A 
ATOM     57  N   UNL     1       5.577   2.083  -2.349  1.00  0.00    -0.354 N 
ATOM     58  C   UNL     1       8.627   4.750  -3.348  1.00  0.00     0.074 A 
ATOM     59  C   UNL     1       8.146   6.014  -3.875  1.00  0.00     0.031 C 
ATOM     60  C   UNL     1       3.553   1.256  -2.499  1.00  0.00     0.029 A 
ATOM     61  C   UNL     1       4.839   0.970  -1.961  1.00  0.00     0.049 A 
ATOM     62  H   UNL     1       6.537   2.181  -2.156  1.00  0.00     0.167 HD
ATOM     63  C   UNL     1       9.925   4.401  -3.220  1.00  0.00     0.034 A 
ATOM     64  C   UNL     1       5.079  -0.219  -1.361  1.00  0.00     0.034 A 
ATOM     65  C   UNL     1      10.400   3.141  -2.709  1.00  0.00     0.049 A 
ATOM     66  C   UNL     1       6.510  -0.557  -1.189  1.00  0.00     0.074 A 
ATOM     67  C   UNL     1      11.712   2.748  -2.513  1.00  0.00     0.029 A 
ATOM     68  N   UNL     1       9.606   2.063  -2.337  1.00  0.00    -0.354 N 
ATOM     69  N   UNL     1       7.536   0.207  -1.439  1.00  0.00    -0.248 NA
ATOM     70  C   UNL     1       6.835  -1.917  -0.744  1.00  0.00     0.031 C 
ATOM     71  C   UNL     1      11.715   1.431  -2.043  1.00  0.00     0.029 A 
ATOM     72  C   UNL     1      10.404   1.011  -1.907  1.00  0.00     0.049 A 
ATOM     73  H   UNL     1       8.622   2.047  -2.373  1.00  0.00     0.167 HD
ATOM     74  C   UNL     1       8.640  -0.583  -1.217  1.00  0.00     0.074 A 
ATOM     75  C   UNL     1       8.160  -1.871  -0.750  1.00  0.00     0.031 C 
ATOM     76  C   UNL     1       9.932  -0.262  -1.427  1.00  0.00     0.034 A 
BRANCH  63  77
ATOM     77  C   UNL     1      10.922   5.417  -3.689  1.00  0.00     0.023 A 
ATOM     78  C   UNL     1      11.108   6.608  -2.961  1.00  0.00     0.012 A 
ATOM     79  C   UNL     1      11.657   5.194  -4.868  1.00  0.00     0.148 A 
ATOM     80  C   UNL     1      11.981   7.588  -3.426  1.00  0.00     0.002 A 
ATOM     81  C   UNL     1      12.565   6.150  -5.295  1.00  0.00     0.091 A 
ATOM     82  F   UNL     1      11.436   4.065  -5.557  1.00  0.00    -0.205 F 
ATOM     83  C   UNL     1      12.715   7.354  -4.587  1.00  0.00     0.022 A 
BRANCH  81  84
ATOM     84  S   UNL     1      13.610   5.916  -6.734  1.00  0.00     0.127 S 
ATOM     85  O   UNL     1      13.125   6.969  -7.625  1.00  0.00    -0.237 OA
ATOM     86  O   UNL     1      14.942   6.152  -6.177  1.00  0.00    -0.237 OA
ATOM     87  O   UNL     1      13.370   4.556  -7.194  1.00  0.00    -0.744 OA
ENDBRANCH  81  84
ENDBRANCH  63  77
BRANCH  64  88
ATOM     88  C   UNL     1       4.017  -1.235  -0.989  1.00  0.00     0.023 A 
ATOM     89  C   UNL     1       3.798  -1.535   0.372  1.00  0.00     0.012 A 
ATOM     90  C   UNL     1       3.254  -1.941  -1.944  1.00  0.00     0.148 A 
ATOM     91  C   UNL     1       2.859  -2.499   0.765  1.00  0.00     0.002 A 
ATOM     92  C   UNL     1       2.259  -2.837  -1.545  1.00  0.00     0.091 A 
ATOM     93  F   UNL     1       3.509  -1.723  -3.238  1.00  0.00    -0.205 F 
ATOM     94  C   UNL     1       2.076  -3.138  -0.191  1.00  0.00     0.022 A 
BRANCH  92  95
ATOM     95  S   UNL     1       1.121  -3.598  -2.713  1.00  0.00     0.127 S 
ATOM     96  O   UNL     1       0.964  -4.948  -2.176  1.00  0.00    -0.237 OA
ATOM     97  O   UNL     1      -0.049  -2.737  -2.571  1.00  0.00    -0.237 OA
ATOM     98  O   UNL     1       1.800  -3.538  -4.006  1.00  0.00    -0.744 OA
ENDBRANCH  92  95
ENDBRANCH  64  88
BRANCH  76  99
ATOM     99  C   UNL     1      10.930  -1.319  -1.084  1.00  0.00     0.023 A 
ATOM    100  C   UNL     1      11.107  -2.432  -1.928  1.00  0.00     0.012 A 
ATOM    101  C   UNL     1      11.699  -1.190   0.084  1.00  0.00     0.148 A 
ATOM    102  C   UNL     1      12.035  -3.416  -1.600  1.00  0.00     0.002 A 
ATOM    103  C   UNL     1      12.657  -2.145   0.376  1.00  0.00     0.091 A 
ATOM    104  F   UNL     1      11.468  -0.141   0.886  1.00  0.00    -0.205 F 
ATOM    105  C   UNL     1      12.820  -3.265  -0.457  1.00  0.00     0.022 A 
BRANCH 103 106
ATOM    106  S   UNL     1      13.766  -1.984   1.775  1.00  0.00     0.127 S 
ATOM    107  O   UNL     1      13.356  -3.112   2.611  1.00  0.00    -0.237 OA
ATOM    108  O   UNL     1      15.076  -2.135   1.142  1.00  0.00    -0.237 OA
ATOM    109  O   UNL     1      13.512  -0.668   2.345  1.00  0.00    -0.744 OA
ENDBRANCH 103 106
ENDBRANCH  76  99
ENDBRANCH  50  51
ENDBRANCH  43  45
ENDBRANCH  42  43
ENDBRANCH  41  42
ENDBRANCH   1  41
TORSDOF 19
