REMARK SMILES COC(=O)[C@H]1CCN(S(=O)(=O)N2CCC[C@H](C(=O)OCCOCCOC(=O)c3ccc(-c4c5nc(c(-c6cccc(S(=O)(=O)[O-])c6F)c6ccc([nH]6)c(-c6cccc(S(=O)(=O)[O-])c6F)c6nc(c(-c7cccc(S(=O)(=O)[O-])c7F)c7ccc4[nH]7)C=C6)C=C5)cc3)C2)C1
REMARK SMILES IDX 21 1 20 2 19 3 17 4 18 5 16 6 12 7 13 8 91 9 14 10 15 11
REMARK SMILES IDX 9 12 10 13 11 14 8 15 5 16 6 17 92 18 7 19 3 20 4 21 2 22
REMARK SMILES IDX 1 23 22 24 23 25 24 26 25 27 26 28 27 29 28 30 29 31 90 32
REMARK SMILES IDX 30 33 89 34 31 35 32 36 33 37 83 38 34 39 88 40 82 41 84 42
REMARK SMILES IDX 35 43 87 44 81 45 80 46 36 48 68 49 48 50 67 51 49 52 52 53
REMARK SMILES IDX 66 54 85 55 50 56 51 57 65 59 86 60 53 61 37 62 38 63 46 64
REMARK SMILES IDX 39 65 41 66 47 67 40 68 42 69 43 70 44 71 45 72 69 73 70 74
REMARK SMILES IDX 78 75 71 76 73 77 79 78 72 79 74 80 75 81 76 82 77 83 54 84
REMARK SMILES IDX 55 85 63 86 56 87 58 88 64 89 57 90 59 91 60 92 61 93 62 94
REMARK H PARENT 84 47 52 58
REMARK Flexibility Score: inf
ROOT
ATOM      1  C   UNL     1       2.490  -1.107 -12.857  1.00  0.00     0.202 C 
ENDROOT
BRANCH   1   2
ATOM      2  C   UNL     1       1.654  -0.608 -11.678  1.00  0.00     0.261 C 
BRANCH   2   3
ATOM      3  O   UNL     1       2.482  -0.371 -10.532  1.00  0.00    -0.463 OA
BRANCH   3   4
ATOM      4  C   UNL     1       2.339  -1.256  -9.519  1.00  0.00     0.310 C 
ATOM      5  O   UNL     1       1.515  -2.165  -9.481  1.00  0.00    -0.252 OA
BRANCH   4   6
ATOM      6  C   UNL     1       3.366  -1.074  -8.424  1.00  0.00     0.114 C 
ATOM      7  N   UNL     1       2.481   0.997  -7.467  1.00  0.00    -0.188 NA
ATOM      8  C   UNL     1       3.726   1.768  -7.650  1.00  0.00     0.103 C 
ATOM      9  C   UNL     1       2.675  -0.441  -7.248  1.00  0.00     0.118 C 
ATOM     10  C   UNL     1       4.532   1.176  -8.809  1.00  0.00     0.018 C 
ATOM     11  C   UNL     1       4.679  -0.341  -8.715  1.00  0.00     0.018 C 
BRANCH   7  12
ATOM     12  S   UNL     1       1.193   1.747  -6.703  1.00  0.00     0.282 S 
ATOM     13  O   UNL     1       0.031   0.899  -6.823  1.00  0.00    -0.195 OA
ATOM     14  O   UNL     1       1.164   3.124  -7.132  1.00  0.00    -0.195 OA
BRANCH  12  15
ATOM     15  N   UNL     1       1.654   1.736  -5.062  1.00  0.00    -0.188 NA
ATOM     16  C   UNL     1       0.008   1.603  -3.257  1.00  0.00     0.116 C 
ATOM     17  C   UNL     1       0.410   0.217  -3.728  1.00  0.00     0.033 C 
ATOM     18  C   UNL     1       0.710   2.566  -4.223  1.00  0.00     0.118 C 
ATOM     19  C   UNL     1       1.760   0.446  -4.348  1.00  0.00     0.104 C 
BRANCH  16  20
ATOM     20  C   UNL     1      -1.496   1.720  -3.245  1.00  0.00     0.310 C 
ATOM     21  O   UNL     1      -2.251   0.770  -3.073  1.00  0.00    -0.252 OA
BRANCH  20  22
ATOM     22  O   UNL     1      -1.893   3.014  -3.342  1.00  0.00    -0.469 OA
ATOM     23  C   UNL     1      -3.308   3.177  -3.417  1.00  0.00     0.282 C 
ENDBRANCH  20  22
ENDBRANCH  16  20
ENDBRANCH  12  15
ENDBRANCH   7  12
ENDBRANCH   4   6
ENDBRANCH   3   4
ENDBRANCH   2   3
ENDBRANCH   1   2
BRANCH   1  24
ATOM     24  O   UNL     1       3.187  -2.344 -12.713  1.00  0.00    -0.374 OA
BRANCH  24  25
ATOM     25  C   UNL     1       4.339  -2.382 -11.874  1.00  0.00     0.202 C 
BRANCH  25  26
ATOM     26  C   UNL     1       5.606  -1.640 -12.326  1.00  0.00     0.261 C 
BRANCH  26  27
ATOM     27  O   UNL     1       5.426  -0.220 -12.461  1.00  0.00    -0.460 OA
BRANCH  27  28
ATOM     28  C   UNL     1       5.479   0.228 -13.742  1.00  0.00     0.338 C 
ATOM     29  O   UNL     1       5.716  -0.433 -14.739  1.00  0.00    -0.246 OA
BRANCH  28  30
ATOM     30  C   UNL     1       5.011   1.623 -13.824  1.00  0.00     0.060 A 
ATOM     31  C   UNL     1       3.889   1.877 -14.625  1.00  0.00     0.016 A 
ATOM     32  C   UNL     1       5.711   2.672 -13.229  1.00  0.00     0.016 A 
ATOM     33  C   UNL     1       3.486   3.186 -14.870  1.00  0.00     0.010 A 
ATOM     34  C   UNL     1       5.310   3.989 -13.487  1.00  0.00     0.010 A 
ATOM     35  C   UNL     1       4.218   4.252 -14.336  1.00  0.00    -0.014 A 
BRANCH  35  36
ATOM     36  C   UNL     1       3.905   5.638 -14.758  1.00  0.00     0.031 A 
ATOM     37  C   UNL     1       4.795   6.326 -15.757  1.00  0.00     0.074 A 
ATOM     38  C   UNL     1       2.829   6.274 -14.260  1.00  0.00     0.049 A 
ATOM     39  N   UNL     1       4.734   7.548 -16.216  1.00  0.00    -0.248 NA
ATOM     40  C   UNL     1       5.903   5.530 -16.310  1.00  0.00     0.031 C 
ATOM     41  C   UNL     1       1.881   5.705 -13.304  1.00  0.00     0.029 A 
ATOM     42  N   UNL     1       2.372   7.551 -14.470  1.00  0.00    -0.354 N 
ATOM     43  C   UNL     1       5.812   7.683 -17.083  1.00  0.00     0.074 A 
ATOM     44  C   UNL     1       6.514   6.418 -17.083  1.00  0.00     0.031 C 
ATOM     45  C   UNL     1       0.972   6.640 -12.983  1.00  0.00     0.029 A 
ATOM     46  C   UNL     1       1.296   7.882 -13.682  1.00  0.00     0.049 A 
ATOM     47  H   UNL     1       2.776   8.169 -15.122  1.00  0.00     0.167 HD
ATOM     48  C   UNL     1       6.179   8.761 -17.817  1.00  0.00     0.034 A 
ATOM     49  C   UNL     1       0.667   9.062 -13.515  1.00  0.00     0.034 A 
ATOM     50  C   UNL     1       5.468  10.012 -17.824  1.00  0.00     0.049 A 
ATOM     51  C   UNL     1       1.124  10.257 -14.310  1.00  0.00     0.074 A 
ATOM     52  C   UNL     1       5.732  11.146 -18.573  1.00  0.00     0.029 A 
ATOM     53  N   UNL     1       4.368  10.304 -17.032  1.00  0.00    -0.354 N 
ATOM     54  N   UNL     1       2.077  10.341 -15.206  1.00  0.00    -0.248 NA
ATOM     55  C   UNL     1       0.399  11.517 -14.088  1.00  0.00     0.031 C 
ATOM     56  C   UNL     1       4.819  12.138 -18.200  1.00  0.00     0.029 A 
ATOM     57  C   UNL     1       3.957  11.608 -17.253  1.00  0.00     0.049 A 
ATOM     58  H   UNL     1       3.942   9.677 -16.405  1.00  0.00     0.167 HD
ATOM     59  C   UNL     1       2.047  11.650 -15.676  1.00  0.00     0.074 A 
ATOM     60  C   UNL     1       0.963  12.316 -14.984  1.00  0.00     0.031 C 
ATOM     61  C   UNL     1       2.852  12.250 -16.588  1.00  0.00     0.034 A 
BRANCH  48  62
ATOM     62  C   UNL     1       7.407   8.637 -18.683  1.00  0.00     0.023 A 
ATOM     63  C   UNL     1       7.372   7.841 -19.846  1.00  0.00     0.012 A 
ATOM     64  C   UNL     1       8.577   9.361 -18.376  1.00  0.00     0.148 A 
ATOM     65  C   UNL     1       8.492   7.742 -20.671  1.00  0.00     0.002 A 
ATOM     66  C   UNL     1       9.672   9.293 -19.228  1.00  0.00     0.091 A 
ATOM     67  F   UNL     1       8.597  10.096 -17.255  1.00  0.00    -0.205 F 
ATOM     68  C   UNL     1       9.636   8.475 -20.369  1.00  0.00     0.022 A 
BRANCH  66  69
ATOM     69  S   UNL     1      11.164  10.261 -18.969  1.00  0.00     0.127 S 
ATOM     70  O   UNL     1      12.134   9.221 -18.632  1.00  0.00    -0.237 OA
ATOM     71  O   UNL     1      11.361  10.876 -20.282  1.00  0.00    -0.237 OA
ATOM     72  O   UNL     1      10.857  11.197 -17.897  1.00  0.00    -0.744 OA
ENDBRANCH  66  69
ENDBRANCH  48  62
BRANCH  49  73
ATOM     73  C   UNL     1      -0.468   9.172 -12.557  1.00  0.00     0.023 A 
ATOM     74  C   UNL     1      -1.770   9.399 -13.043  1.00  0.00     0.012 A 
ATOM     75  C   UNL     1      -0.264   9.049 -11.168  1.00  0.00     0.148 A 
ATOM     76  C   UNL     1      -2.844   9.531 -12.161  1.00  0.00     0.002 A 
ATOM     77  C   UNL     1      -1.345   9.129 -10.300  1.00  0.00     0.091 A 
ATOM     78  F   UNL     1       0.986   8.848 -10.727  1.00  0.00    -0.205 F 
ATOM     79  C   UNL     1      -2.633   9.386 -10.793  1.00  0.00     0.022 A 
BRANCH  77  80
ATOM     80  S   UNL     1      -1.189   8.854  -8.531  1.00  0.00     0.127 S 
ATOM     81  O   UNL     1      -1.498  10.178  -7.996  1.00  0.00    -0.237 OA
ATOM     82  O   UNL     1      -2.218   7.841  -8.294  1.00  0.00    -0.237 OA
ATOM     83  O   UNL     1       0.177   8.397  -8.321  1.00  0.00    -0.744 OA
ENDBRANCH  77  80
ENDBRANCH  49  73
BRANCH  61  84
ATOM     84  C   UNL     1       2.578  13.696 -16.919  1.00  0.00     0.023 A 
ATOM     85  C   UNL     1       2.858  14.701 -15.971  1.00  0.00     0.012 A 
ATOM     86  C   UNL     1       2.102  14.064 -18.194  1.00  0.00     0.148 A 
ATOM     87  C   UNL     1       2.634  16.044 -16.273  1.00  0.00     0.002 A 
ATOM     88  C   UNL     1       1.932  15.408 -18.506  1.00  0.00     0.091 A 
ATOM     89  F   UNL     1       1.828  13.094 -19.078  1.00  0.00    -0.205 F 
ATOM     90  C   UNL     1       2.182  16.398 -17.542  1.00  0.00     0.022 A 
BRANCH  88  91
ATOM     91  S   UNL     1       1.446  15.967 -20.143  1.00  0.00     0.127 S 
ATOM     92  O   UNL     1       0.100  16.481 -19.895  1.00  0.00    -0.237 OA
ATOM     93  O   UNL     1       2.449  16.994 -20.427  1.00  0.00    -0.237 OA
ATOM     94  O   UNL     1       1.516  14.796 -21.007  1.00  0.00    -0.744 OA
ENDBRANCH  88  91
ENDBRANCH  61  84
ENDBRANCH  35  36
ENDBRANCH  28  30
ENDBRANCH  27  28
ENDBRANCH  26  27
ENDBRANCH  25  26
ENDBRANCH  24  25
ENDBRANCH   1  24
TORSDOF 21
