REMARK SMILES O=C(Cn1cc(/C=C2\SC(N3CCOCC3)=[NH+]C2=O)c2ccccc21)OCCOCCOC(=O)c1ccc(-c2c3nc(c(-c4cccc(S(=O)(=O)[O-])c4F)c4ccc([nH]4)c(-c4cccc(S(=O)(=O)[O-])c4F)c4nc(c(-c5cccc(S(=O)(=O)[O-])c5F)c5ccc2[nH]5)C=C4)C=C3)cc1
REMARK SMILES IDX 30 1 29 2 28 3 27 4 26 5 2 6 1 7 3 8 4 9 5 10 25 11 6 12
REMARK SMILES IDX 20 13 24 14 21 15 23 16 22 17 7 18 8 19 9 20 18 21 10 22
REMARK SMILES IDX 17 23 19 24 11 25 12 27 16 28 13 29 15 30 14 31 31 32 32 33
REMARK SMILES IDX 33 34 34 35 35 36 36 37 97 38 37 39 96 40 38 41 39 42 40 43
REMARK SMILES IDX 90 44 41 45 95 46 89 47 91 48 42 49 94 50 88 51 87 52 43 54
REMARK SMILES IDX 75 55 55 56 74 57 56 58 59 59 73 60 92 61 57 62 58 63 72 65
REMARK SMILES IDX 93 66 60 67 44 68 45 69 53 70 46 71 48 72 54 73 47 74 49 75
REMARK SMILES IDX 50 76 51 77 52 78 76 79 77 80 85 81 78 82 80 83 86 84 79 85
REMARK SMILES IDX 81 86 82 87 83 88 84 89 61 90 62 91 70 92 63 93 65 94 71 95
REMARK SMILES IDX 64 96 66 97 67 98 68 99 69 100
REMARK H PARENT 17 26 91 53 59 64
REMARK Flexibility Score: inf
ROOT
ATOM      1  C   UNL     1       2.459  -1.762  -2.393  1.00  0.00     0.202 C 
ENDROOT
BRANCH   1   2
ATOM      2  O   UNL     1       3.451  -0.747  -2.263  1.00  0.00    -0.374 OA
BRANCH   2   3
ATOM      3  C   UNL     1       4.125  -0.681  -1.008  1.00  0.00     0.202 C 
BRANCH   3   4
ATOM      4  C   UNL     1       3.233  -0.819   0.235  1.00  0.00     0.261 C 
BRANCH   4   5
ATOM      5  O   UNL     1       2.021  -0.045   0.203  1.00  0.00    -0.462 OA
BRANCH   5   6
ATOM      6  C   UNL     1       1.992   1.302   0.311  1.00  0.00     0.326 C 
ATOM      7  O   UNL     1       1.078   1.835   0.941  1.00  0.00    -0.250 OA
BRANCH   6   8
ATOM      8  C   UNL     1       2.928   2.105  -0.555  1.00  0.00     0.244 C 
BRANCH   8   9
ATOM      9  N   UNL     1       3.971   2.833   0.152  1.00  0.00    -0.336 N 
ATOM     10  C   UNL     1       4.069   4.201   0.059  1.00  0.00     0.095 A 
ATOM     11  C   UNL     1       4.746   2.403   1.210  1.00  0.00     0.049 A 
ATOM     12  C   UNL     1       4.567   4.636   1.264  1.00  0.00     0.001 A 
ATOM     13  C   UNL     1       4.882   3.507   2.055  1.00  0.00     0.007 A 
ATOM     14  C   UNL     1       5.288   1.173   1.578  1.00  0.00     0.027 A 
ATOM     15  C   UNL     1       5.282   3.303   3.387  1.00  0.00     0.011 A 
ATOM     16  C   UNL     1       5.603   0.963   2.913  1.00  0.00     0.002 A 
ATOM     17  C   UNL     1       5.558   2.006   3.812  1.00  0.00     0.001 A 
BRANCH  12  18
ATOM     18  C   UNL     1       4.558   6.000   1.647  1.00  0.00     0.034 C 
ATOM     19  C   UNL     1       3.570   6.535   2.371  1.00  0.00     0.110 C 
ATOM     20  S   UNL     1       2.225   5.707   3.041  1.00  0.00     0.006 SA
ATOM     21  C   UNL     1       3.382   7.991   2.541  1.00  0.00     0.346 C 
ATOM     22  C   UNL     1       1.396   7.233   3.193  1.00  0.00     0.319 C 
ATOM     23  N   UNL     1       2.087   8.289   2.900  1.00  0.00    -0.200 N 
ATOM     24  O   UNL     1       4.259   8.824   2.308  1.00  0.00    -0.240 OA
ATOM     25  N   UNL     1       0.068   7.206   3.499  1.00  0.00    -0.251 N 
ATOM     26  H   UNL     1       1.726   9.205   2.931  1.00  0.00     0.316 HD
ATOM     27  C   UNL     1      -0.519   6.364   4.545  1.00  0.00     0.265 C 
ATOM     28  C   UNL     1      -0.875   8.096   2.830  1.00  0.00     0.265 C 
ATOM     29  C   UNL     1      -1.753   5.632   4.004  1.00  0.00     0.206 C 
ATOM     30  C   UNL     1      -2.075   7.271   2.337  1.00  0.00     0.206 C 
ATOM     31  O   UNL     1      -2.694   6.551   3.416  1.00  0.00    -0.373 OA
ENDBRANCH  12  18
ENDBRANCH   8   9
ENDBRANCH   6   8
ENDBRANCH   5   6
ENDBRANCH   4   5
ENDBRANCH   3   4
ENDBRANCH   2   3
ENDBRANCH   1   2
BRANCH   1  32
ATOM     32  C   UNL     1       2.983  -3.206  -2.385  1.00  0.00     0.261 C 
BRANCH  32  33
ATOM     33  O   UNL     1       3.723  -3.494  -1.185  1.00  0.00    -0.460 OA
BRANCH  33  34
ATOM     34  C   UNL     1       4.954  -4.048  -1.368  1.00  0.00     0.338 C 
ATOM     35  O   UNL     1       5.341  -4.635  -2.362  1.00  0.00    -0.246 OA
BRANCH  34  36
ATOM     36  C   UNL     1       5.843  -3.543  -0.291  1.00  0.00     0.060 A 
ATOM     37  C   UNL     1       5.416  -3.461   1.036  1.00  0.00     0.016 A 
ATOM     38  C   UNL     1       7.055  -2.947  -0.683  1.00  0.00     0.016 A 
ATOM     39  C   UNL     1       6.196  -2.759   1.954  1.00  0.00     0.010 A 
ATOM     40  C   UNL     1       7.823  -2.229   0.236  1.00  0.00     0.010 A 
ATOM     41  C   UNL     1       7.394  -2.128   1.558  1.00  0.00    -0.014 A 
BRANCH  41  42
ATOM     42  C   UNL     1       8.267  -1.614   2.628  1.00  0.00     0.031 A 
ATOM     43  C   UNL     1       8.736  -2.697   3.531  1.00  0.00     0.074 A 
ATOM     44  C   UNL     1       8.739  -0.359   2.798  1.00  0.00     0.049 A 
ATOM     45  N   UNL     1       8.430  -2.907   4.771  1.00  0.00    -0.248 NA
ATOM     46  C   UNL     1       9.528  -3.768   2.904  1.00  0.00     0.031 C 
ATOM     47  C   UNL     1       8.665   0.746   1.845  1.00  0.00     0.029 A 
ATOM     48  N   UNL     1       9.441   0.183   3.850  1.00  0.00    -0.354 N 
ATOM     49  C   UNL     1       9.198  -4.008   5.138  1.00  0.00     0.074 A 
ATOM     50  C   UNL     1       9.694  -4.606   3.924  1.00  0.00     0.031 C 
ATOM     51  C   UNL     1       9.411   1.778   2.293  1.00  0.00     0.029 A 
ATOM     52  C   UNL     1      10.004   1.429   3.571  1.00  0.00     0.049 A 
ATOM     53  H   UNL     1       9.537  -0.268   4.721  1.00  0.00     0.167 HD
ATOM     54  C   UNL     1       9.636  -4.197   6.409  1.00  0.00     0.034 A 
ATOM     55  C   UNL     1      10.963   2.088   4.274  1.00  0.00     0.034 A 
ATOM     56  C   UNL     1       8.910  -3.440   7.383  1.00  0.00     0.049 A 
ATOM     57  C   UNL     1      11.002   1.517   5.641  1.00  0.00     0.074 A 
ATOM     58  C   UNL     1       7.592  -3.350   7.775  1.00  0.00     0.029 A 
ATOM     59  N   UNL     1       9.554  -2.359   7.927  1.00  0.00    -0.354 N 
ATOM     60  N   UNL     1      10.092   1.694   6.558  1.00  0.00    -0.248 NA
ATOM     61  C   UNL     1      11.952   0.449   5.900  1.00  0.00     0.031 C 
ATOM     62  C   UNL     1       7.417  -2.000   8.188  1.00  0.00     0.029 A 
ATOM     63  C   UNL     1       8.644  -1.346   8.058  1.00  0.00     0.049 A 
ATOM     64  H   UNL     1      10.505  -2.319   8.180  1.00  0.00     0.167 HD
ATOM     65  C   UNL     1      10.096   0.512   7.288  1.00  0.00     0.074 A 
ATOM     66  C   UNL     1      11.331  -0.163   6.908  1.00  0.00     0.031 C 
ATOM     67  C   UNL     1       8.972   0.060   7.917  1.00  0.00     0.034 A 
BRANCH  54  68
ATOM     68  C   UNL     1      10.996  -4.767   6.694  1.00  0.00     0.023 A 
ATOM     69  C   UNL     1      11.248  -5.336   7.955  1.00  0.00     0.012 A 
ATOM     70  C   UNL     1      12.105  -4.530   5.848  1.00  0.00     0.148 A 
ATOM     71  C   UNL     1      12.549  -5.677   8.344  1.00  0.00     0.002 A 
ATOM     72  C   UNL     1      13.376  -4.955   6.198  1.00  0.00     0.091 A 
ATOM     73  F   UNL     1      11.952  -3.770   4.756  1.00  0.00    -0.205 F 
ATOM     74  C   UNL     1      13.609  -5.511   7.457  1.00  0.00     0.022 A 
BRANCH  72  75
ATOM     75  S   UNL     1      14.746  -4.816   5.049  1.00  0.00     0.127 S 
ATOM     76  O   UNL     1      15.452  -3.653   5.577  1.00  0.00    -0.237 OA
ATOM     77  O   UNL     1      15.428  -6.097   5.236  1.00  0.00    -0.237 OA
ATOM     78  O   UNL     1      14.127  -4.659   3.739  1.00  0.00    -0.744 OA
ENDBRANCH  72  75
ENDBRANCH  54  68
BRANCH  55  79
ATOM     79  C   UNL     1      12.033   3.010   3.785  1.00  0.00     0.023 A 
ATOM     80  C   UNL     1      12.827   3.724   4.711  1.00  0.00     0.012 A 
ATOM     81  C   UNL     1      12.461   3.016   2.438  1.00  0.00     0.148 A 
ATOM     82  C   UNL     1      14.007   4.377   4.317  1.00  0.00     0.002 A 
ATOM     83  C   UNL     1      13.606   3.703   2.042  1.00  0.00     0.091 A 
ATOM     84  F   UNL     1      11.824   2.258   1.539  1.00  0.00    -0.205 F 
ATOM     85  C   UNL     1      14.396   4.369   2.981  1.00  0.00     0.022 A 
BRANCH  83  86
ATOM     86  S   UNL     1      14.101   3.733   0.314  1.00  0.00     0.127 S 
ATOM     87  O   UNL     1      14.716   5.056   0.182  1.00  0.00    -0.237 OA
ATOM     88  O   UNL     1      15.034   2.615   0.240  1.00  0.00    -0.237 OA
ATOM     89  O   UNL     1      12.859   3.586  -0.438  1.00  0.00    -0.744 OA
ENDBRANCH  83  86
ENDBRANCH  55  79
BRANCH  67  90
ATOM     90  C   UNL     1       7.850   1.024   8.208  1.00  0.00     0.023 A 
ATOM     91  C   UNL     1       7.172   1.714   7.189  1.00  0.00     0.012 A 
ATOM     92  C   UNL     1       7.339   1.079   9.518  1.00  0.00     0.148 A 
ATOM     93  C   UNL     1       5.999   2.424   7.465  1.00  0.00     0.002 A 
ATOM     94  C   UNL     1       6.154   1.756   9.779  1.00  0.00     0.091 A 
ATOM     95  F   UNL     1       7.999   0.417  10.481  1.00  0.00    -0.205 F 
ATOM     96  C   UNL     1       5.476   2.424   8.751  1.00  0.00     0.022 A 
BRANCH  94  97
ATOM     97  S   UNL     1       5.394   1.780  11.402  1.00  0.00     0.127 S 
ATOM     98  O   UNL     1       5.326   3.213  11.685  1.00  0.00    -0.237 OA
ATOM     99  O   UNL     1       4.101   1.146  11.142  1.00  0.00    -0.237 OA
ATOM    100  O   UNL     1       6.280   1.024  12.278  1.00  0.00    -0.744 OA
ENDBRANCH  94  97
ENDBRANCH  67  90
ENDBRANCH  41  42
ENDBRANCH  34  36
ENDBRANCH  33  34
ENDBRANCH  32  33
ENDBRANCH   1  32
TORSDOF 19
