REMARK SMILES CC(C)(C[N@H+]1C[C@@H]2C[NH2+]C[C@H]2C1(C)C)C(=O)OCCOCCOC(=O)c1ccc(-c2c3nc(c(-c4cccc(S(=O)(=O)[O-])c4F)c4ccc([nH]4)c(-c4cccc(S(=O)(=O)[O-])c4F)c4nc(c(-c5cccc(S(=O)(=O)[O-])c5F)c5ccc2[nH]5)C=C4)C=C3)cc1
REMARK SMILES IDX 21 1 20 2 19 3 18 4 17 5 15 6 16 7 2 8 1 9 3 10 4 11 5 12
REMARK SMILES IDX 6 13 12 14 7 16 11 17 13 18 14 19 8 20 10 21 9 22 22 25
REMARK SMILES IDX 23 26 24 27 25 28 26 29 27 30 88 31 28 32 87 33 29 34 30 35
REMARK SMILES IDX 31 36 81 37 32 38 86 39 80 40 82 41 33 42 85 43 79 44 78 45
REMARK SMILES IDX 34 47 66 48 46 49 65 50 47 51 50 52 64 53 83 54 48 55 49 56
REMARK SMILES IDX 63 58 84 59 51 60 35 61 36 62 44 63 37 64 39 65 45 66 38 67
REMARK SMILES IDX 40 68 41 69 42 70 43 71 67 72 68 73 76 74 69 75 71 76 77 77
REMARK SMILES IDX 70 78 72 79 73 80 74 81 75 82 52 83 53 84 61 85 54 86 56 87
REMARK SMILES IDX 62 88 55 89 57 90 58 91 59 92 60 93
REMARK H PARENT 5 15 9 23 9 24 82 46 50 57
REMARK Flexibility Score: inf
ROOT
ATOM      1  C   UNL     1       0.576   2.476   3.113  1.00  0.00     0.202 C 
ENDROOT
BRANCH   1   2
ATOM      2  O   UNL     1       1.717   3.340   3.150  1.00  0.00    -0.374 OA
BRANCH   2   3
ATOM      3  C   UNL     1       1.617   4.574   2.444  1.00  0.00     0.202 C 
BRANCH   3   4
ATOM      4  C   UNL     1       1.753   4.529   0.916  1.00  0.00     0.261 C 
BRANCH   4   5
ATOM      5  O   UNL     1       0.968   3.505   0.280  1.00  0.00    -0.463 OA
BRANCH   5   6
ATOM      6  C   UNL     1       1.677   2.404  -0.086  1.00  0.00     0.317 C 
ATOM      7  O   UNL     1       2.890   2.290   0.083  1.00  0.00    -0.251 OA
BRANCH   6   8
ATOM      8  C   UNL     1       0.856   1.320  -0.803  1.00  0.00     0.111 C 
ATOM      9  C   UNL     1       1.500  -0.010  -0.400  1.00  0.00     0.029 C 
ATOM     10  C   UNL     1       1.131   1.549  -2.309  1.00  0.00     0.029 C 
BRANCH   8  11
ATOM     11  C   UNL     1      -0.702   1.369  -0.622  1.00  0.00     0.280 C 
BRANCH  11  12
ATOM     12  N   UNL     1      -1.398   0.938   0.617  1.00  0.00    -0.329 N 
ATOM     13  C   UNL     1      -2.709   1.694   0.743  1.00  0.00     0.272 C 
ATOM     14  C   UNL     1      -1.718  -0.533   0.824  1.00  0.00     0.101 C 
ATOM     15  H   UNL     1      -0.699   1.146   1.329  1.00  0.00     0.348 HD
ATOM     16  C   UNL     1      -3.773   0.632   0.803  1.00  0.00     0.114 C 
ATOM     17  C   UNL     1      -3.050  -0.430   1.572  1.00  0.00     0.119 C 
ATOM     18  C   UNL     1      -1.852  -1.399  -0.443  1.00  0.00     0.079 C 
ATOM     19  C   UNL     1      -0.727  -1.201   1.792  1.00  0.00     0.079 C 
ATOM     20  C   UNL     1      -5.052   0.724   1.595  1.00  0.00     0.270 C 
ATOM     21  C   UNL     1      -4.115  -1.492   1.676  1.00  0.00     0.271 C 
ATOM     22  N   UNL     1      -5.357  -0.705   1.897  1.00  0.00    -0.345 N 
ATOM     23  H   UNL     1      -6.095  -1.040   1.278  1.00  0.00     0.346 HD
ATOM     24  H   UNL     1      -5.675  -0.805   2.861  1.00  0.00     0.346 HD
ENDBRANCH  11  12
ENDBRANCH   8  11
ENDBRANCH   6   8
ENDBRANCH   5   6
ENDBRANCH   4   5
ENDBRANCH   3   4
ENDBRANCH   2   3
ENDBRANCH   1   2
BRANCH   1  25
ATOM     25  C   UNL     1      -0.697   3.020   3.767  1.00  0.00     0.261 C 
BRANCH  25  26
ATOM     26  O   UNL     1      -1.287   4.055   2.956  1.00  0.00    -0.460 OA
BRANCH  26  27
ATOM     27  C   UNL     1      -1.829   5.078   3.655  1.00  0.00     0.338 C 
ATOM     28  O   UNL     1      -2.013   5.132   4.862  1.00  0.00    -0.246 OA
BRANCH  27  29
ATOM     29  C   UNL     1      -2.010   6.236   2.763  1.00  0.00     0.060 A 
ATOM     30  C   UNL     1      -1.179   7.346   2.955  1.00  0.00     0.016 A 
ATOM     31  C   UNL     1      -3.033   6.268   1.814  1.00  0.00     0.016 A 
ATOM     32  C   UNL     1      -1.397   8.513   2.224  1.00  0.00     0.010 A 
ATOM     33  C   UNL     1      -3.253   7.444   1.087  1.00  0.00     0.010 A 
ATOM     34  C   UNL     1      -2.458   8.582   1.311  1.00  0.00    -0.014 A 
BRANCH  34  35
ATOM     35  C   UNL     1      -2.796   9.881   0.677  1.00  0.00     0.031 A 
ATOM     36  C   UNL     1      -3.909  10.717   1.246  1.00  0.00     0.074 A 
ATOM     37  C   UNL     1      -2.110  10.318  -0.395  1.00  0.00     0.049 A 
ATOM     38  N   UNL     1      -4.345  11.887   0.857  1.00  0.00    -0.248 NA
ATOM     39  C   UNL     1      -4.624  10.165   2.409  1.00  0.00     0.031 C 
ATOM     40  C   UNL     1      -1.015   9.599  -1.045  1.00  0.00     0.029 A 
ATOM     41  N   UNL     1      -2.250  11.464  -1.138  1.00  0.00    -0.354 N 
ATOM     42  C   UNL     1      -5.391  12.207   1.713  1.00  0.00     0.074 A 
ATOM     43  C   UNL     1      -5.537  11.100   2.634  1.00  0.00     0.031 C 
ATOM     44  C   UNL     1      -0.599  10.310  -2.107  1.00  0.00     0.029 A 
ATOM     45  C   UNL     1      -1.406  11.524  -2.221  1.00  0.00     0.049 A 
ATOM     46  H   UNL     1      -2.893  12.175  -0.915  1.00  0.00     0.167 HD
ATOM     47  C   UNL     1      -6.148  13.330   1.747  1.00  0.00     0.034 A 
ATOM     48  C   UNL     1      -1.308  12.442  -3.203  1.00  0.00     0.034 A 
ATOM     49  C   UNL     1      -5.993  14.441   0.847  1.00  0.00     0.049 A 
ATOM     50  C   UNL     1      -2.192  13.661  -3.169  1.00  0.00     0.074 A 
ATOM     51  C   UNL     1      -6.665  15.651   0.851  1.00  0.00     0.029 A 
ATOM     52  N   UNL     1      -5.122  14.472  -0.230  1.00  0.00    -0.354 N 
ATOM     53  N   UNL     1      -3.070  14.019  -2.263  1.00  0.00    -0.248 NA
ATOM     54  C   UNL     1      -2.055  14.616  -4.280  1.00  0.00     0.031 C 
ATOM     55  C   UNL     1      -6.215  16.405  -0.240  1.00  0.00     0.029 A 
ATOM     56  C   UNL     1      -5.256  15.668  -0.915  1.00  0.00     0.049 A 
ATOM     57  H   UNL     1      -4.498  13.749  -0.472  1.00  0.00     0.167 HD
ATOM     58  C   UNL     1      -3.575  15.246  -2.683  1.00  0.00     0.074 A 
ATOM     59  C   UNL     1      -2.884  15.583  -3.911  1.00  0.00     0.031 C 
ATOM     60  C   UNL     1      -4.538  16.012  -2.115  1.00  0.00     0.034 A 
BRANCH  47  61
ATOM     61  C   UNL     1      -7.191  13.435   2.826  1.00  0.00     0.023 A 
ATOM     62  C   UNL     1      -6.791  13.722   4.146  1.00  0.00     0.012 A 
ATOM     63  C   UNL     1      -8.562  13.311   2.528  1.00  0.00     0.148 A 
ATOM     64  C   UNL     1      -7.738  13.864   5.160  1.00  0.00     0.002 A 
ATOM     65  C   UNL     1      -9.502  13.487   3.537  1.00  0.00     0.091 A 
ATOM     66  F   UNL     1      -8.919  13.011   1.271  1.00  0.00    -0.205 F 
ATOM     67  C   UNL     1      -9.092  13.756   4.853  1.00  0.00     0.022 A 
BRANCH  65  68
ATOM     68  S   UNL     1     -11.271  13.429   3.226  1.00  0.00     0.127 S 
ATOM     69  O   UNL     1     -11.625  12.124   3.782  1.00  0.00    -0.237 OA
ATOM     70  O   UNL     1     -11.760  14.573   3.997  1.00  0.00    -0.237 OA
ATOM     71  O   UNL     1     -11.425  13.562   1.784  1.00  0.00    -0.744 OA
ENDBRANCH  65  68
ENDBRANCH  47  61
BRANCH  48  72
ATOM     72  C   UNL     1      -0.307  12.256  -4.291  1.00  0.00     0.023 A 
ATOM     73  C   UNL     1       0.814  13.104  -4.357  1.00  0.00     0.012 A 
ATOM     74  C   UNL     1      -0.447  11.225  -5.241  1.00  0.00     0.148 A 
ATOM     75  C   UNL     1       1.770  12.940  -5.360  1.00  0.00     0.002 A 
ATOM     76  C   UNL     1       0.536  11.033  -6.204  1.00  0.00     0.091 A 
ATOM     77  F   UNL     1      -1.536  10.446  -5.178  1.00  0.00    -0.205 F 
ATOM     78  C   UNL     1       1.639  11.898  -6.275  1.00  0.00     0.022 A 
BRANCH  76  79
ATOM     79  S   UNL     1       0.508   9.636  -7.332  1.00  0.00     0.127 S 
ATOM     80  O   UNL     1       0.111  10.270  -8.586  1.00  0.00    -0.237 OA
ATOM     81  O   UNL     1       1.897   9.177  -7.286  1.00  0.00    -0.237 OA
ATOM     82  O   UNL     1      -0.449   8.696  -6.762  1.00  0.00    -0.744 OA
ENDBRANCH  76  79
ENDBRANCH  48  72
BRANCH  60  83
ATOM     83  C   UNL     1      -4.918  17.292  -2.814  1.00  0.00     0.023 A 
ATOM     84  C   UNL     1      -5.697  17.232  -3.987  1.00  0.00     0.012 A 
ATOM     85  C   UNL     1      -4.577  18.549  -2.275  1.00  0.00     0.148 A 
ATOM     86  C   UNL     1      -6.110  18.400  -4.626  1.00  0.00     0.002 A 
ATOM     87  C   UNL     1      -5.027  19.709  -2.895  1.00  0.00     0.091 A 
ATOM     88  F   UNL     1      -3.821  18.586  -1.168  1.00  0.00    -0.205 F 
ATOM     89  C   UNL     1      -5.786  19.637  -4.075  1.00  0.00     0.022 A 
BRANCH  87  90
ATOM     90  S   UNL     1      -4.732  21.345  -2.211  1.00  0.00     0.127 S 
ATOM     91  O   UNL     1      -3.715  21.869  -3.121  1.00  0.00    -0.237 OA
ATOM     92  O   UNL     1      -6.046  21.977  -2.334  1.00  0.00    -0.237 OA
ATOM     93  O   UNL     1      -4.293  21.130  -0.838  1.00  0.00    -0.744 OA
ENDBRANCH  87  90
ENDBRANCH  60  83
ENDBRANCH  34  35
ENDBRANCH  27  29
ENDBRANCH  26  27
ENDBRANCH  25  26
ENDBRANCH   1  25
TORSDOF 19
