REMARK SMILES CC(=O)Nc1ccc(/N=C2\C(=O)N(c3ccc(NC(C)=O)cc3)[C@H](c3ccccc3)[C@H]2CC(=O)OCCOCCOC(=O)c2ccc(-c3c4nc(c(-c5cccc(S(=O)(=O)[O-])c5F)c5ccc([nH]5)c(-c5cccc(S(=O)(=O)[O-])c5F)c5nc(c(-c6cccc(S(=O)(=O)[O-])c6F)c6ccc3[nH]6)C=C5)C=C4)cc2)cc1
REMARK SMILES IDX 38 1 37 2 36 3 35 4 33 5 34 6 32 7 31 8 9 9 10 10 11 11
REMARK SMILES IDX 12 12 13 13 24 14 8 15 5 16 6 17 108 18 7 19 107 20 4 21
REMARK SMILES IDX 1 22 2 23 3 24 14 26 15 27 23 28 16 29 22 30 17 31 18 32
REMARK SMILES IDX 19 33 20 35 21 36 25 37 26 38 30 39 27 40 29 41 28 42 39 43
REMARK SMILES IDX 40 44 41 45 42 46 43 47 44 48 45 49 106 50 46 51 105 52
REMARK SMILES IDX 47 53 48 54 49 55 99 56 50 57 104 58 98 59 100 60 51 61
REMARK SMILES IDX 103 62 97 63 96 64 52 66 84 67 64 68 83 69 65 70 68 71 82 72
REMARK SMILES IDX 101 73 66 74 67 75 81 77 102 78 69 79 53 80 54 81 62 82
REMARK SMILES IDX 55 83 57 84 63 85 56 86 58 87 59 88 60 89 61 90 85 91 86 92
REMARK SMILES IDX 94 93 87 94 89 95 95 96 88 97 90 98 91 99 92 100 93 101
REMARK SMILES IDX 70 102 71 103 79 104 72 105 74 106 80 107 73 108 75 109
REMARK SMILES IDX 76 110 77 111 78 112
REMARK H PARENT 4 25 18 34 100 65 68 76
REMARK Flexibility Score: inf
ROOT
ATOM      1  O   UNL     1       5.884   0.595  -9.139  1.00  0.00    -0.374 OA
ENDROOT
BRANCH   1   2
ATOM      2  C   UNL     1       5.723  -0.567  -8.319  1.00  0.00     0.202 C 
BRANCH   2   3
ATOM      3  C   UNL     1       7.045  -0.929  -7.640  1.00  0.00     0.261 C 
BRANCH   3   4
ATOM      4  O   UNL     1       7.175  -0.255  -6.373  1.00  0.00    -0.463 OA
BRANCH   4   5
ATOM      5  C   UNL     1       7.946   0.856  -6.323  1.00  0.00     0.306 C 
ATOM      6  O   UNL     1       8.549   1.366  -7.257  1.00  0.00    -0.252 OA
BRANCH   5   7
ATOM      7  C   UNL     1       7.943   1.436  -4.928  1.00  0.00     0.135 C 
BRANCH   7   8
ATOM      8  C   UNL     1       6.676   2.261  -4.718  1.00  0.00     0.083 C 
ATOM      9  N   UNL     1       4.879   0.621  -4.452  1.00  0.00    -0.247 NA
ATOM     10  C   UNL     1       5.686   1.480  -3.907  1.00  0.00     0.112 C 
ATOM     11  C   UNL     1       5.737   1.946  -2.472  1.00  0.00     0.273 C 
ATOM     12  O   UNL     1       5.345   1.291  -1.533  1.00  0.00    -0.267 OA
ATOM     13  N   UNL     1       6.278   3.223  -2.516  1.00  0.00    -0.299 N 
ATOM     14  C   UNL     1       6.872   3.514  -3.819  1.00  0.00     0.131 C 
BRANCH   9  15
ATOM     15  C   UNL     1       3.921  -0.017  -3.646  1.00  0.00     0.064 A 
ATOM     16  C   UNL     1       2.062  -1.290  -1.937  1.00  0.00     0.041 A 
ATOM     17  C   UNL     1       3.107  -2.011  -2.528  1.00  0.00     0.028 A 
ATOM     18  C   UNL     1       1.911   0.054  -2.277  1.00  0.00     0.028 A 
ATOM     19  C   UNL     1       4.033  -1.378  -3.369  1.00  0.00     0.030 A 
ATOM     20  C   UNL     1       2.825   0.682  -3.134  1.00  0.00     0.030 A 
BRANCH  16  21
ATOM     21  N   UNL     1       1.215  -1.993  -1.062  1.00  0.00    -0.326 N 
ATOM     22  C   UNL     1       0.271  -0.147   0.333  1.00  0.00     0.114 C 
ATOM     23  C   UNL     1       0.337  -1.585  -0.099  1.00  0.00     0.221 C 
ATOM     24  O   UNL     1      -0.378  -2.419   0.461  1.00  0.00    -0.275 OA
ATOM     25  H   UNL     1       1.264  -2.971  -1.164  1.00  0.00     0.169 HD
ENDBRANCH  16  21
ENDBRANCH   9  15
BRANCH  13  26
ATOM     26  C   UNL     1       6.337   4.066  -1.371  1.00  0.00     0.045 A 
ATOM     27  C   UNL     1       6.483   3.518  -0.090  1.00  0.00     0.028 A 
ATOM     28  C   UNL     1       6.129   5.445  -1.457  1.00  0.00     0.028 A 
ATOM     29  C   UNL     1       6.382   4.306   1.066  1.00  0.00     0.028 A 
ATOM     30  C   UNL     1       5.988   6.229  -0.303  1.00  0.00     0.028 A 
ATOM     31  C   UNL     1       6.097   5.662   0.969  1.00  0.00     0.041 A 
BRANCH  31  32
ATOM     32  N   UNL     1       5.830   6.492   2.076  1.00  0.00    -0.326 N 
ATOM     33  C   UNL     1       5.959   6.164   3.412  1.00  0.00     0.221 C 
ATOM     34  H   UNL     1       5.518   7.404   1.876  1.00  0.00     0.169 HD
ATOM     35  C   UNL     1       5.343   7.189   4.332  1.00  0.00     0.114 C 
ATOM     36  O   UNL     1       6.517   5.175   3.873  1.00  0.00    -0.275 OA
ENDBRANCH  31  32
ENDBRANCH  13  26
BRANCH  14  37
ATOM     37  C   UNL     1       6.377   4.754  -4.543  1.00  0.00    -0.024 A 
ATOM     38  C   UNL     1       7.285   5.786  -4.842  1.00  0.00     0.006 A 
ATOM     39  C   UNL     1       5.038   4.901  -4.939  1.00  0.00     0.006 A 
ATOM     40  C   UNL     1       6.863   6.938  -5.506  1.00  0.00     0.000 A 
ATOM     41  C   UNL     1       4.623   6.050  -5.615  1.00  0.00     0.000 A 
ATOM     42  C   UNL     1       5.533   7.068  -5.895  1.00  0.00     0.000 A 
ENDBRANCH  14  37
ENDBRANCH   7   8
ENDBRANCH   5   7
ENDBRANCH   4   5
ENDBRANCH   3   4
ENDBRANCH   2   3
ENDBRANCH   1   2
BRANCH   1  43
ATOM     43  C   UNL     1       5.314   1.785  -8.595  1.00  0.00     0.202 C 
BRANCH  43  44
ATOM     44  C   UNL     1       3.885   2.005  -9.088  1.00  0.00     0.261 C 
BRANCH  44  45
ATOM     45  O   UNL     1       2.974   1.205  -8.315  1.00  0.00    -0.460 OA
BRANCH  45  46
ATOM     46  C   UNL     1       2.332   0.205  -8.966  1.00  0.00     0.338 C 
ATOM     47  O   UNL     1       2.434  -0.067 -10.152  1.00  0.00    -0.246 OA
BRANCH  46  48
ATOM     48  C   UNL     1       1.450  -0.539  -8.027  1.00  0.00     0.060 A 
ATOM     49  C   UNL     1       0.644  -1.560  -8.548  1.00  0.00     0.016 A 
ATOM     50  C   UNL     1       1.403  -0.258  -6.655  1.00  0.00     0.016 A 
ATOM     51  C   UNL     1      -0.205  -2.286  -7.709  1.00  0.00     0.010 A 
ATOM     52  C   UNL     1       0.550  -0.983  -5.817  1.00  0.00     0.010 A 
ATOM     53  C   UNL     1      -0.260  -1.998  -6.339  1.00  0.00    -0.014 A 
BRANCH  53  54
ATOM     54  C   UNL     1      -1.168  -2.771  -5.465  1.00  0.00     0.031 A 
ATOM     55  C   UNL     1      -2.619  -2.409  -5.383  1.00  0.00     0.074 A 
ATOM     56  C   UNL     1      -0.697  -3.822  -4.771  1.00  0.00     0.049 A 
ATOM     57  N   UNL     1      -3.618  -3.116  -4.926  1.00  0.00    -0.248 NA
ATOM     58  C   UNL     1      -2.995  -1.086  -5.901  1.00  0.00     0.031 C 
ATOM     59  C   UNL     1       0.698  -4.258  -4.737  1.00  0.00     0.029 A 
ATOM     60  N   UNL     1      -1.353  -4.721  -3.970  1.00  0.00    -0.354 N 
ATOM     61  C   UNL     1      -4.753  -2.347  -5.143  1.00  0.00     0.074 A 
ATOM     62  C   UNL     1      -4.311  -1.100  -5.732  1.00  0.00     0.031 C 
ATOM     63  C   UNL     1       0.792  -5.354  -3.965  1.00  0.00     0.029 A 
ATOM     64  C   UNL     1      -0.537  -5.704  -3.468  1.00  0.00     0.049 A 
ATOM     65  H   UNL     1      -2.316  -4.667  -3.774  1.00  0.00     0.167 HD
ATOM     66  C   UNL     1      -6.047  -2.685  -4.924  1.00  0.00     0.034 A 
ATOM     67  C   UNL     1      -0.839  -6.786  -2.726  1.00  0.00     0.034 A 
ATOM     68  C   UNL     1      -6.466  -3.946  -4.367  1.00  0.00     0.049 A 
ATOM     69  C   UNL     1      -2.276  -7.071  -2.390  1.00  0.00     0.074 A 
ATOM     70  C   UNL     1      -7.740  -4.479  -4.266  1.00  0.00     0.029 A 
ATOM     71  N   UNL     1      -5.606  -4.859  -3.777  1.00  0.00    -0.354 N 
ATOM     72  N   UNL     1      -3.357  -6.486  -2.845  1.00  0.00    -0.248 NA
ATOM     73  C   UNL     1      -2.534  -8.185  -1.466  1.00  0.00     0.031 C 
ATOM     74  C   UNL     1      -7.648  -5.717  -3.615  1.00  0.00     0.029 A 
ATOM     75  C   UNL     1      -6.323  -5.933  -3.277  1.00  0.00     0.049 A 
ATOM     76  H   UNL     1      -4.628  -4.759  -3.721  1.00  0.00     0.167 HD
ATOM     77  C   UNL     1      -4.424  -7.198  -2.313  1.00  0.00     0.074 A 
ATOM     78  C   UNL     1      -3.860  -8.242  -1.480  1.00  0.00     0.031 C 
ATOM     79  C   UNL     1      -5.751  -7.005  -2.506  1.00  0.00     0.034 A 
BRANCH  66  80
ATOM     80  C   UNL     1      -7.091  -1.729  -5.427  1.00  0.00     0.023 A 
ATOM     81  C   UNL     1      -7.739  -2.034  -6.641  1.00  0.00     0.012 A 
ATOM     82  C   UNL     1      -7.417  -0.538  -4.757  1.00  0.00     0.148 A 
ATOM     83  C   UNL     1      -8.694  -1.172  -7.177  1.00  0.00     0.002 A 
ATOM     84  C   UNL     1      -8.352   0.332  -5.313  1.00  0.00     0.091 A 
ATOM     85  F   UNL     1      -6.782  -0.239  -3.613  1.00  0.00    -0.205 F 
ATOM     86  C   UNL     1      -8.998   0.015  -6.516  1.00  0.00     0.022 A 
BRANCH  84  87
ATOM     87  S   UNL     1      -8.671   1.909  -4.520  1.00  0.00     0.127 S 
ATOM     88  O   UNL     1      -7.354   2.540  -4.516  1.00  0.00    -0.237 OA
ATOM     89  O   UNL     1      -9.636   2.550  -5.417  1.00  0.00    -0.237 OA
ATOM     90  O   UNL     1      -9.219   1.526  -3.224  1.00  0.00    -0.744 OA
ENDBRANCH  84  87
ENDBRANCH  66  80
BRANCH  67  91
ATOM     91  C   UNL     1       0.231  -7.749  -2.362  1.00  0.00     0.023 A 
ATOM     92  C   UNL     1       0.285  -8.992  -3.021  1.00  0.00     0.012 A 
ATOM     93  C   UNL     1       1.218  -7.431  -1.415  1.00  0.00     0.148 A 
ATOM     94  C   UNL     1       1.302  -9.905  -2.732  1.00  0.00     0.002 A 
ATOM     95  C   UNL     1       2.244  -8.333  -1.155  1.00  0.00     0.091 A 
ATOM     96  F   UNL     1       1.166  -6.240  -0.799  1.00  0.00    -0.205 F 
ATOM     97  C   UNL     1       2.286  -9.574  -1.803  1.00  0.00     0.022 A 
BRANCH  95  98
ATOM     98  S   UNL     1       3.566  -7.857  -0.041  1.00  0.00     0.127 S 
ATOM     99  O   UNL     1       2.886  -7.773   1.247  1.00  0.00    -0.237 OA
ATOM    100  O   UNL     1       4.518  -8.963  -0.155  1.00  0.00    -0.237 OA
ATOM    101  O   UNL     1       4.038  -6.601  -0.618  1.00  0.00    -0.744 OA
ENDBRANCH  95  98
ENDBRANCH  67  91
BRANCH  79 102
ATOM    102  C   UNL     1      -6.689  -7.962  -1.831  1.00  0.00     0.023 A 
ATOM    103  C   UNL     1      -7.139  -7.672  -0.530  1.00  0.00     0.012 A 
ATOM    104  C   UNL     1      -7.156  -9.115  -2.484  1.00  0.00     0.148 A 
ATOM    105  C   UNL     1      -8.036  -8.525   0.115  1.00  0.00     0.002 A 
ATOM    106  C   UNL     1      -8.058  -9.955  -1.839  1.00  0.00     0.091 A 
ATOM    107  F   UNL     1      -6.724  -9.381  -3.727  1.00  0.00    -0.205 F 
ATOM    108  C   UNL     1      -8.498  -9.667  -0.539  1.00  0.00     0.022 A 
BRANCH 106 109
ATOM    109  S   UNL     1      -8.668 -11.415  -2.686  1.00  0.00     0.127 S 
ATOM    110  O   UNL     1      -7.451 -12.180  -2.941  1.00  0.00    -0.237 OA
ATOM    111  O   UNL     1      -9.565 -12.028  -1.704  1.00  0.00    -0.237 OA
ATOM    112  O   UNL     1      -9.348 -10.863  -3.853  1.00  0.00    -0.744 OA
ENDBRANCH 106 109
ENDBRANCH  79 102
ENDBRANCH  53  54
ENDBRANCH  46  48
ENDBRANCH  45  46
ENDBRANCH  44  45
ENDBRANCH  43  44
ENDBRANCH   1  43
TORSDOF 23
