REMARK SMILES O=C(OCCOCCOC(=O)c1ccc(-c2c3nc(c(-c4cccc(S(=O)(=O)[O-])c4F)c4ccc([nH]4)c(-c4cccc(S(=O)(=O)[O-])c4F)c4nc(c(-c5cccc(S(=O)(=O)[O-])c5F)c5ccc2[nH]5)C=C4)C=C3)cc1)C1=Cc2c(ccc(Cl)c2-c2ccccc2)O[C@H]1C(F)(F)F
REMARK SMILES IDX 7 1 6 2 5 3 4 4 3 5 2 6 1 7 75 8 76 9 91 10 77 11 90 12
REMARK SMILES IDX 78 13 83 14 79 15 81 16 80 17 82 18 92 19 93 20 94 21 95 22
REMARK SMILES IDX 84 23 85 24 89 25 86 26 88 27 87 28 8 29 9 30 10 31 11 32
REMARK SMILES IDX 12 33 13 34 74 35 14 36 73 37 15 38 16 39 17 40 67 41 18 42
REMARK SMILES IDX 72 43 66 44 68 45 19 46 71 47 65 48 64 49 20 51 52 52 32 53
REMARK SMILES IDX 51 54 33 55 36 56 50 57 69 58 34 59 35 60 49 62 70 63 37 64
REMARK SMILES IDX 21 65 22 66 30 67 23 68 25 69 31 70 24 71 26 72 27 73 28 74
REMARK SMILES IDX 29 75 53 76 54 77 62 78 55 79 57 80 63 81 56 82 58 83 59 84
REMARK SMILES IDX 60 85 61 86 38 87 39 88 47 89 40 90 42 91 48 92 41 93 43 94
REMARK SMILES IDX 44 95 45 96 46 97
REMARK H PARENT 68 50 36 61
REMARK Flexibility Score: inf
ROOT
ATOM      1  C   UNL     1       0.841  -2.590   1.339  1.00  0.00     0.202 C 
ENDROOT
BRANCH   1   2
ATOM      2  O   UNL     1       1.162  -2.995   0.016  1.00  0.00    -0.374 OA
BRANCH   2   3
ATOM      3  C   UNL     1       1.922  -2.105  -0.764  1.00  0.00     0.202 C 
BRANCH   3   4
ATOM      4  C   UNL     1       1.553  -0.604  -0.789  1.00  0.00     0.261 C 
BRANCH   4   5
ATOM      5  O   UNL     1       1.563  -0.075  -2.122  1.00  0.00    -0.460 OA
BRANCH   5   6
ATOM      6  C   UNL     1       2.693   0.154  -2.822  1.00  0.00     0.338 C 
ATOM      7  O   UNL     1       2.630   0.674  -3.933  1.00  0.00    -0.246 OA
BRANCH   6   8
ATOM      8  C   UNL     1       4.015  -0.265  -2.305  1.00  0.00     0.087 C 
ATOM      9  C   UNL     1       4.317  -0.951  -1.190  1.00  0.00     0.028 C 
ATOM     10  C   UNL     1       5.154  -0.144  -3.268  1.00  0.00     0.316 C 
ATOM     11  C   UNL     1       5.224  -0.166  -0.364  1.00  0.00     0.027 A 
ATOM     12  O   UNL     1       6.410   0.100  -2.529  1.00  0.00    -0.475 OA
ATOM     13  C   UNL     1       6.273   0.394  -1.171  1.00  0.00     0.128 A 
ATOM     14  C   UNL     1       4.979   0.117   1.020  1.00  0.00     0.011 A 
ATOM     15  C   UNL     1       7.160   1.278  -0.609  1.00  0.00     0.049 A 
ATOM     16  C   UNL     1       5.824   1.156   1.470  1.00  0.00     0.049 A 
ATOM     17  C   UNL     1       6.907   1.680   0.699  1.00  0.00     0.025 A 
ATOM     18  Cl  UNL     1       5.547   2.031   2.923  1.00  0.00    -0.084 Cl
BRANCH  10  19
ATOM     19  C   UNL     1       5.151  -1.446  -4.116  1.00  0.00     0.430 C 
ATOM     20  F   UNL     1       3.954  -2.097  -4.047  1.00  0.00    -0.167 F 
ATOM     21  F   UNL     1       5.382  -1.216  -5.426  1.00  0.00    -0.167 F 
ATOM     22  F   UNL     1       6.074  -2.334  -3.679  1.00  0.00    -0.167 F 
ENDBRANCH  10  19
BRANCH  14  23
ATOM     23  C   UNL     1       3.897  -0.607   1.915  1.00  0.00    -0.016 A 
ATOM     24  C   UNL     1       2.842   0.315   3.071  1.00  0.00     0.009 A 
ATOM     25  C   UNL     1       3.716  -2.411   1.883  1.00  0.00     0.009 A 
ATOM     26  C   UNL     1       1.698  -0.519   4.210  1.00  0.00     0.001 A 
ATOM     27  C   UNL     1       2.558  -3.282   2.994  1.00  0.00     0.001 A 
ATOM     28  C   UNL     1       1.540  -2.328   4.165  1.00  0.00     0.000 A 
ENDBRANCH  14  23
ENDBRANCH   6   8
ENDBRANCH   5   6
ENDBRANCH   4   5
ENDBRANCH   3   4
ENDBRANCH   2   3
ENDBRANCH   1   2
BRANCH   1  29
ATOM     29  C   UNL     1       1.706  -1.452   2.149  1.00  0.00     0.261 C 
BRANCH  29  30
ATOM     30  O   UNL     1       3.180  -1.536   3.521  1.00  0.00    -0.460 OA
BRANCH  30  31
ATOM     31  C   UNL     1       4.117  -2.019   4.453  1.00  0.00     0.338 C 
ATOM     32  O   UNL     1       4.417  -3.173   4.750  1.00  0.00    -0.246 OA
BRANCH  31  33
ATOM     33  C   UNL     1       4.753  -0.903   5.138  1.00  0.00     0.060 A 
ATOM     34  C   UNL     1       6.080  -0.628   4.822  1.00  0.00     0.016 A 
ATOM     35  C   UNL     1       4.035  -0.166   6.088  1.00  0.00     0.016 A 
ATOM     36  C   UNL     1       6.705   0.419   5.471  1.00  0.00     0.010 A 
ATOM     37  C   UNL     1       4.631   0.925   6.684  1.00  0.00     0.010 A 
ATOM     38  C   UNL     1       5.983   1.169   6.411  1.00  0.00    -0.014 A 
BRANCH  38  39
ATOM     39  C   UNL     1       6.736   1.940   7.398  1.00  0.00     0.031 A 
ATOM     40  C   UNL     1       7.143   1.188   8.626  1.00  0.00     0.074 A 
ATOM     41  C   UNL     1       7.000   3.236   7.196  1.00  0.00     0.049 A 
ATOM     42  N   UNL     1       7.809   1.604   9.662  1.00  0.00    -0.248 NA
ATOM     43  C   UNL     1       6.733  -0.231   8.701  1.00  0.00     0.031 C 
ATOM     44  C   UNL     1       6.603   4.014   6.025  1.00  0.00     0.029 A 
ATOM     45  N   UNL     1       7.652   4.131   7.994  1.00  0.00    -0.354 N 
ATOM     46  C   UNL     1       7.874   0.512  10.517  1.00  0.00     0.074 A 
ATOM     47  C   UNL     1       7.171  -0.582   9.896  1.00  0.00     0.031 C 
ATOM     48  C   UNL     1       7.014   5.283   6.183  1.00  0.00     0.029 A 
ATOM     49  C   UNL     1       7.669   5.403   7.481  1.00  0.00     0.049 A 
ATOM     50  H   UNL     1       8.068   3.887   8.852  1.00  0.00     0.167 HD
ATOM     51  C   UNL     1       8.477   0.437  11.720  1.00  0.00     0.034 A 
ATOM     52  C   UNL     1       8.149   6.531   8.033  1.00  0.00     0.034 A 
ATOM     53  C   UNL     1       9.135   1.558  12.320  1.00  0.00     0.049 A 
ATOM     54  C   UNL     1       8.799   6.422   9.386  1.00  0.00     0.074 A 
ATOM     55  C   UNL     1       9.803   1.623  13.525  1.00  0.00     0.029 A 
ATOM     56  N   UNL     1       9.177   2.828  11.758  1.00  0.00    -0.354 N 
ATOM     57  N   UNL     1       8.961   5.361  10.143  1.00  0.00    -0.248 NA
ATOM     58  C   UNL     1       9.366   7.653   9.945  1.00  0.00     0.031 C 
ATOM     59  C   UNL     1      10.210   2.948  13.713  1.00  0.00     0.029 A 
ATOM     60  C   UNL     1       9.849   3.691  12.598  1.00  0.00     0.049 A 
ATOM     61  H   UNL     1       8.786   3.074  10.889  1.00  0.00     0.167 HD
ATOM     62  C   UNL     1       9.691   5.784  11.245  1.00  0.00     0.074 A 
ATOM     63  C   UNL     1       9.949   7.199  11.046  1.00  0.00     0.031 C 
ATOM     64  C   UNL     1      10.113   5.082  12.327  1.00  0.00     0.034 A 
BRANCH  51  65
ATOM     65  C   UNL     1       8.408  -0.876  12.444  1.00  0.00     0.023 A 
ATOM     66  C   UNL     1       9.109  -1.998  11.952  1.00  0.00     0.012 A 
ATOM     67  C   UNL     1       7.629  -1.004  13.608  1.00  0.00     0.148 A 
ATOM     68  C   UNL     1       9.007  -3.234  12.589  1.00  0.00     0.002 A 
ATOM     69  C   UNL     1       7.575  -2.224  14.267  1.00  0.00     0.091 A 
ATOM     70  F   UNL     1       6.935   0.061  14.032  1.00  0.00    -0.205 F 
ATOM     71  C   UNL     1       8.250  -3.344  13.752  1.00  0.00     0.022 A 
BRANCH  69  72
ATOM     72  S   UNL     1       6.689  -2.448  15.812  1.00  0.00     0.127 S 
ATOM     73  O   UNL     1       5.623  -3.366  15.412  1.00  0.00    -0.237 OA
ATOM     74  O   UNL     1       7.717  -3.040  16.667  1.00  0.00    -0.237 OA
ATOM     75  O   UNL     1       6.245  -1.122  16.219  1.00  0.00    -0.744 OA
ENDBRANCH  69  72
ENDBRANCH  51  65
BRANCH  52  76
ATOM     76  C   UNL     1       8.075   7.822   7.296  1.00  0.00     0.023 A 
ATOM     77  C   UNL     1       9.260   8.425   6.834  1.00  0.00     0.012 A 
ATOM     78  C   UNL     1       6.840   8.445   7.035  1.00  0.00     0.148 A 
ATOM     79  C   UNL     1       9.221   9.648   6.162  1.00  0.00     0.002 A 
ATOM     80  C   UNL     1       6.803   9.636   6.319  1.00  0.00     0.091 A 
ATOM     81  F   UNL     1       5.723   7.855   7.483  1.00  0.00    -0.205 F 
ATOM     82  C   UNL     1       7.993  10.249   5.899  1.00  0.00     0.022 A 
BRANCH  80  83
ATOM     83  S   UNL     1       5.264  10.421   5.829  1.00  0.00     0.127 S 
ATOM     84  O   UNL     1       5.282  11.640   6.633  1.00  0.00    -0.237 OA
ATOM     85  O   UNL     1       5.474  10.624   4.395  1.00  0.00    -0.237 OA
ATOM     86  O   UNL     1       4.212   9.467   6.153  1.00  0.00    -0.744 OA
ENDBRANCH  80  83
ENDBRANCH  52  76
BRANCH  64  87
ATOM     87  C   UNL     1      10.954   5.817  13.334  1.00  0.00     0.023 A 
ATOM     88  C   UNL     1      10.377   6.794  14.166  1.00  0.00     0.012 A 
ATOM     89  C   UNL     1      12.311   5.477  13.492  1.00  0.00     0.148 A 
ATOM     90  C   UNL     1      11.154   7.459  15.112  1.00  0.00     0.002 A 
ATOM     91  C   UNL     1      13.062   6.097  14.479  1.00  0.00     0.091 A 
ATOM     92  F   UNL     1      12.841   4.553  12.677  1.00  0.00    -0.205 F 
ATOM     93  C   UNL     1      12.491   7.102  15.277  1.00  0.00     0.022 A 
BRANCH  91  94
ATOM     94  S   UNL     1      14.753   5.614  14.835  1.00  0.00     0.127 S 
ATOM     95  O   UNL     1      15.505   6.742  14.288  1.00  0.00    -0.237 OA
ATOM     96  O   UNL     1      14.750   5.532  16.296  1.00  0.00    -0.237 OA
ATOM     97  O   UNL     1      14.958   4.339  14.161  1.00  0.00    -0.744 OA
ENDBRANCH  91  94
ENDBRANCH  64  87
ENDBRANCH  38  39
ENDBRANCH  31  33
ENDBRANCH  30  31
ENDBRANCH  29  30
ENDBRANCH   1  29
TORSDOF 19
