REMARK SMILES CC1(C)S[C@@H]2[C@H]([NH2+]Cn3nnc4ccccc43)C(=O)N2[C@@H]1C(=O)OCCOCCOC(=O)c1ccc(-c2c3nc(c(-c4cccc(S(=O)(=O)[O-])c4F)c4ccc([nH]4)c(-c4cccc(S(=O)(=O)[O-])c4F)c4nc(c(-c5cccc(S(=O)(=O)[O-])c5F)c5ccc2[nH]5)C=C4)C=C3)cc1
REMARK SMILES IDX 27 1 26 2 25 3 24 4 22 5 23 6 21 7 1 8 2 9 3 10 4 11 5 12
REMARK SMILES IDX 20 13 6 14 18 15 19 16 7 17 8 20 9 21 10 22 17 23 11 24
REMARK SMILES IDX 12 25 16 26 13 27 15 28 14 29 28 30 29 31 30 32 31 33 32 34
REMARK SMILES IDX 33 35 34 36 95 37 35 38 94 39 36 40 37 41 38 42 88 43 39 44
REMARK SMILES IDX 93 45 87 46 89 47 40 48 92 49 86 50 85 51 41 53 73 54 53 55
REMARK SMILES IDX 72 56 54 57 57 58 71 59 90 60 55 61 56 62 70 64 91 65 58 66
REMARK SMILES IDX 42 67 43 68 51 69 44 70 46 71 52 72 45 73 47 74 48 75 49 76
REMARK SMILES IDX 50 77 74 78 75 79 83 80 76 81 78 82 84 83 77 84 79 85 80 86
REMARK SMILES IDX 81 87 82 88 59 89 60 90 68 91 61 92 63 93 69 94 62 95 64 96
REMARK SMILES IDX 65 97 66 98 67 99
REMARK H PARENT 7 18 7 19 89 52 57 63
REMARK Flexibility Score: inf
ROOT
ATOM      1  O   UNL     1      -1.759   4.096  -2.147  1.00  0.00    -0.374 OA
ENDROOT
BRANCH   1   2
ATOM      2  C   UNL     1      -1.261   3.377  -3.267  1.00  0.00     0.202 C 
BRANCH   2   3
ATOM      3  C   UNL     1      -0.048   2.464  -3.062  1.00  0.00     0.261 C 
BRANCH   3   4
ATOM      4  O   UNL     1      -0.145   1.605  -1.918  1.00  0.00    -0.462 OA
BRANCH   4   5
ATOM      5  C   UNL     1       0.526   2.070  -0.830  1.00  0.00     0.330 C 
ATOM      6  O   UNL     1       1.147   3.127  -0.782  1.00  0.00    -0.250 OA
BRANCH   5   7
ATOM      7  C   UNL     1       0.550   1.084   0.333  1.00  0.00     0.212 C 
ATOM      8  C   UNL     1       2.897   0.621  -0.783  1.00  0.00     0.026 C 
ATOM      9  C   UNL     1       1.919   0.332   0.368  1.00  0.00     0.044 C 
ATOM     10  C   UNL     1       2.605   0.601   1.710  1.00  0.00     0.026 C 
ATOM     11  S   UNL     1       1.540  -1.513   0.310  1.00  0.00    -0.121 SA
ATOM     12  C   UNL     1      -0.137  -1.266   0.899  1.00  0.00     0.213 C 
ATOM     13  N   UNL     1      -0.452   0.042   0.342  1.00  0.00    -0.304 N 
ATOM     14  C   UNL     1      -1.533  -1.714   0.347  1.00  0.00     0.307 C 
ATOM     15  C   UNL     1      -1.776  -0.111   0.521  1.00  0.00     0.285 C 
ATOM     16  O   UNL     1      -2.654   0.674   0.745  1.00  0.00    -0.268 OA
BRANCH  14  17
ATOM     17  N   UNL     1      -1.748  -2.167  -1.059  1.00  0.00    -0.315 N 
ATOM     18  H   UNL     1      -2.228  -1.428  -1.573  1.00  0.00     0.348 HD
ATOM     19  H   UNL     1      -2.305  -3.022  -1.031  1.00  0.00     0.348 HD
BRANCH  17  20
ATOM     20  C   UNL     1      -0.503  -2.471  -1.734  1.00  0.00     0.415 C 
BRANCH  20  21
ATOM     21  N   UNL     1      -0.619  -3.125  -3.031  1.00  0.00    -0.194 N 
ATOM     22  N   UNL     1      -1.732  -3.679  -3.542  1.00  0.00    -0.061 NA
ATOM     23  C   UNL     1       0.500  -3.438  -3.761  1.00  0.00     0.095 A 
ATOM     24  N   UNL     1      -1.359  -4.368  -4.622  1.00  0.00    -0.130 NA
ATOM     25  C   UNL     1       0.007  -4.268  -4.751  1.00  0.00     0.113 A 
ATOM     26  C   UNL     1       1.851  -3.111  -3.600  1.00  0.00     0.030 A 
ATOM     27  C   UNL     1       0.918  -4.859  -5.636  1.00  0.00     0.032 A 
ATOM     28  C   UNL     1       2.745  -3.721  -4.471  1.00  0.00     0.002 A 
ATOM     29  C   UNL     1       2.290  -4.604  -5.449  1.00  0.00     0.002 A 
ENDBRANCH  20  21
ENDBRANCH  17  20
ENDBRANCH  14  17
ENDBRANCH   5   7
ENDBRANCH   4   5
ENDBRANCH   3   4
ENDBRANCH   2   3
ENDBRANCH   1   2
BRANCH   1  30
ATOM     30  C   UNL     1      -2.471   3.368  -1.141  1.00  0.00     0.202 C 
BRANCH  30  31
ATOM     31  C   UNL     1      -3.671   2.495  -1.559  1.00  0.00     0.261 C 
BRANCH  31  32
ATOM     32  O   UNL     1      -3.271   1.377  -2.371  1.00  0.00    -0.460 OA
BRANCH  32  33
ATOM     33  C   UNL     1      -4.144   1.070  -3.375  1.00  0.00     0.338 C 
ATOM     34  O   UNL     1      -5.339   1.295  -3.404  1.00  0.00    -0.246 OA
BRANCH  33  35
ATOM     35  C   UNL     1      -3.297   0.800  -4.555  1.00  0.00     0.060 A 
ATOM     36  C   UNL     1      -2.281  -0.153  -4.496  1.00  0.00     0.016 A 
ATOM     37  C   UNL     1      -3.325   1.760  -5.577  1.00  0.00     0.016 A 
ATOM     38  C   UNL     1      -1.218  -0.061  -5.385  1.00  0.00     0.010 A 
ATOM     39  C   UNL     1      -2.239   1.875  -6.440  1.00  0.00     0.010 A 
ATOM     40  C   UNL     1      -1.158   1.000  -6.307  1.00  0.00    -0.014 A 
BRANCH  40  41
ATOM     41  C   UNL     1      -0.053   1.010  -7.276  1.00  0.00     0.031 A 
ATOM     42  C   UNL     1      -0.132  -0.160  -8.199  1.00  0.00     0.074 A 
ATOM     43  C   UNL     1       0.866   1.993  -7.425  1.00  0.00     0.049 A 
ATOM     44  N   UNL     1       0.748  -1.090  -8.381  1.00  0.00    -0.248 NA
ATOM     45  C   UNL     1      -1.423  -0.413  -8.866  1.00  0.00     0.031 C 
ATOM     46  C   UNL     1       0.924   3.282  -6.732  1.00  0.00     0.029 A 
ATOM     47  N   UNL     1       1.894   2.102  -8.328  1.00  0.00    -0.354 N 
ATOM     48  C   UNL     1       0.196  -1.932  -9.344  1.00  0.00     0.074 A 
ATOM     49  C   UNL     1      -1.191  -1.575  -9.471  1.00  0.00     0.031 C 
ATOM     50  C   UNL     1       1.752   4.119  -7.398  1.00  0.00     0.029 A 
ATOM     51  C   UNL     1       2.358   3.412  -8.509  1.00  0.00     0.049 A 
ATOM     52  H   UNL     1       2.271   1.329  -8.807  1.00  0.00     0.167 HD
ATOM     53  C   UNL     1       0.965  -2.702 -10.156  1.00  0.00     0.034 A 
ATOM     54  C   UNL     1       3.109   3.898  -9.537  1.00  0.00     0.034 A 
ATOM     55  C   UNL     1       2.299  -2.853  -9.669  1.00  0.00     0.049 A 
ATOM     56  C   UNL     1       3.799   2.746 -10.147  1.00  0.00     0.074 A 
ATOM     57  C   UNL     1       2.892  -3.506  -8.619  1.00  0.00     0.029 A 
ATOM     58  N   UNL     1       3.243  -1.995 -10.158  1.00  0.00    -0.354 N 
ATOM     59  N   UNL     1       4.701   2.040  -9.531  1.00  0.00    -0.248 NA
ATOM     60  C   UNL     1       3.162   2.121 -11.290  1.00  0.00     0.031 C 
ATOM     61  C   UNL     1       3.950  -2.651  -8.205  1.00  0.00     0.029 A 
ATOM     62  C   UNL     1       4.028  -1.593  -9.113  1.00  0.00     0.049 A 
ATOM     63  H   UNL     1       3.342  -1.716 -11.097  1.00  0.00     0.167 HD
ATOM     64  C   UNL     1       4.397   0.737  -9.891  1.00  0.00     0.074 A 
ATOM     65  C   UNL     1       3.502   0.856 -11.042  1.00  0.00     0.031 C 
ATOM     66  C   UNL     1       4.662  -0.299  -9.046  1.00  0.00     0.034 A 
BRANCH  53  67
ATOM     67  C   UNL     1       0.624  -3.016 -11.581  1.00  0.00     0.023 A 
ATOM     68  C   UNL     1       1.331  -4.061 -12.209  1.00  0.00     0.012 A 
ATOM     69  C   UNL     1      -0.120  -2.138 -12.401  1.00  0.00     0.148 A 
ATOM     70  C   UNL     1       1.321  -4.208 -13.598  1.00  0.00     0.002 A 
ATOM     71  C   UNL     1      -0.176  -2.325 -13.773  1.00  0.00     0.091 A 
ATOM     72  F   UNL     1      -0.664  -1.037 -11.870  1.00  0.00    -0.205 F 
ATOM     73  C   UNL     1       0.562  -3.345 -14.380  1.00  0.00     0.022 A 
BRANCH  71  74
ATOM     74  S   UNL     1      -1.129  -1.234 -14.833  1.00  0.00     0.127 S 
ATOM     75  O   UNL     1      -0.071  -0.487 -15.507  1.00  0.00    -0.237 OA
ATOM     76  O   UNL     1      -1.848  -2.191 -15.674  1.00  0.00    -0.237 OA
ATOM     77  O   UNL     1      -1.983  -0.464 -13.938  1.00  0.00    -0.744 OA
ENDBRANCH  71  74
ENDBRANCH  53  67
BRANCH  54  78
ATOM     78  C   UNL     1       3.030   5.201 -10.265  1.00  0.00     0.023 A 
ATOM     79  C   UNL     1       3.986   5.506 -11.266  1.00  0.00     0.012 A 
ATOM     80  C   UNL     1       1.871   6.002 -10.214  1.00  0.00     0.148 A 
ATOM     81  C   UNL     1       3.766   6.526 -12.205  1.00  0.00     0.002 A 
ATOM     82  C   UNL     1       1.668   7.029 -11.133  1.00  0.00     0.091 A 
ATOM     83  F   UNL     1       0.910   5.698  -9.336  1.00  0.00    -0.205 F 
ATOM     84  C   UNL     1       2.602   7.284 -12.143  1.00  0.00     0.022 A 
BRANCH  82  85
ATOM     85  S   UNL     1       0.186   8.046 -11.089  1.00  0.00     0.127 S 
ATOM     86  O   UNL     1       0.734   9.391 -11.267  1.00  0.00    -0.237 OA
ATOM     87  O   UNL     1      -0.568   7.533 -12.229  1.00  0.00    -0.237 OA
ATOM     88  O   UNL     1      -0.410   7.815  -9.778  1.00  0.00    -0.744 OA
ENDBRANCH  82  85
ENDBRANCH  54  78
BRANCH  66  89
ATOM     89  C   UNL     1       5.505  -0.029  -7.821  1.00  0.00     0.023 A 
ATOM     90  C   UNL     1       5.067   0.786  -6.755  1.00  0.00     0.012 A 
ATOM     91  C   UNL     1       6.679  -0.782  -7.661  1.00  0.00     0.148 A 
ATOM     92  C   UNL     1       5.785   0.843  -5.555  1.00  0.00     0.002 A 
ATOM     93  C   UNL     1       7.364  -0.758  -6.454  1.00  0.00     0.091 A 
ATOM     94  F   UNL     1       7.078  -1.552  -8.684  1.00  0.00    -0.205 F 
ATOM     95  C   UNL     1       6.924   0.056  -5.398  1.00  0.00     0.022 A 
BRANCH  93  96
ATOM     96  S   UNL     1       8.763  -1.838  -6.144  1.00  0.00     0.127 S 
ATOM     97  O   UNL     1       9.866  -0.885  -6.035  1.00  0.00    -0.237 OA
ATOM     98  O   UNL     1       8.380  -2.480  -4.885  1.00  0.00    -0.237 OA
ATOM     99  O   UNL     1       8.835  -2.747  -7.280  1.00  0.00    -0.744 OA
ENDBRANCH  93  96
ENDBRANCH  66  89
ENDBRANCH  40  41
ENDBRANCH  33  35
ENDBRANCH  32  33
ENDBRANCH  31  32
ENDBRANCH  30  31
ENDBRANCH   1  30
TORSDOF 20
