REMARK SMILES [NH3+][C@H](C(=O)OCCOCCOC(=O)c1ccc(-c2c3nc(c(-c4cccc(S(=O)(=O)[O-])c4F)c4ccc([nH]4)c(-c4cccc(S(=O)(=O)[O-])c4F)c4nc(c(-c5cccc(S(=O)(=O)[O-])c5F)c5ccc2[nH]5)C=C4)C=C3)cc1)c1ccc(OCC(=O)N2CCCC2)cc1
REMARK SMILES IDX 7 1 6 2 5 3 3 4 4 5 2 6 1 7 77 11 78 12 91 13 79 14 90 15
REMARK SMILES IDX 80 16 81 17 82 18 83 19 84 20 85 21 86 22 89 23 87 24 88 25
REMARK SMILES IDX 8 26 9 27 10 28 11 29 12 30 13 31 14 32 15 33 76 34 16 35
REMARK SMILES IDX 75 36 17 37 18 38 19 39 69 40 20 41 74 42 68 43 70 44 21 45
REMARK SMILES IDX 73 46 67 47 66 48 22 50 54 51 34 52 53 53 35 54 38 55 52 56
REMARK SMILES IDX 71 57 36 58 37 59 51 61 72 62 39 63 23 64 24 65 32 66 25 67
REMARK SMILES IDX 27 68 33 69 26 70 28 71 29 72 30 73 31 74 55 75 56 76 64 77
REMARK SMILES IDX 57 78 59 79 65 80 58 81 60 82 61 83 62 84 63 85 40 86 41 87
REMARK SMILES IDX 49 88 42 89 44 90 50 91 43 92 45 93 46 94 47 95 48 96
REMARK H PARENT 1 8 1 9 1 10 70 49 38 60
REMARK Flexibility Score: inf
ROOT
ATOM      1  C   UNL     1       1.083   1.300   2.390  1.00  0.00     0.202 C 
ENDROOT
BRANCH   1   2
ATOM      2  C   UNL     1       1.881   1.490   1.096  1.00  0.00     0.261 C 
BRANCH   2   3
ATOM      3  O   UNL     1       1.161   1.047  -0.068  1.00  0.00    -0.459 OA
BRANCH   3   4
ATOM      4  C   UNL     1       1.662  -0.058  -0.686  1.00  0.00     0.369 C 
ATOM      5  O   UNL     1       2.701  -0.628  -0.357  1.00  0.00    -0.245 OA
BRANCH   4   6
ATOM      6  C   UNL     1       0.812  -0.526  -1.898  1.00  0.00     0.323 C 
BRANCH   6   7
ATOM      7  N   UNL     1       1.348  -1.849  -2.341  1.00  0.00    -0.342 N 
ATOM      8  H   UNL     1       0.808  -2.185  -3.139  1.00  0.00     0.345 HD
ATOM      9  H   UNL     1       1.275  -2.519  -1.576  1.00  0.00     0.345 HD
ATOM     10  H   UNL     1       2.326  -1.747  -2.611  1.00  0.00     0.345 HD
ENDBRANCH   6   7
BRANCH   6  11
ATOM     11  C   UNL     1      -0.698  -0.573  -1.672  1.00  0.00     0.021 A 
ATOM     12  C   UNL     1      -1.431   0.624  -1.630  1.00  0.00     0.014 A 
ATOM     13  C   UNL     1      -1.414  -1.776  -1.523  1.00  0.00     0.014 A 
ATOM     14  C   UNL     1      -2.819   0.611  -1.456  1.00  0.00     0.047 A 
ATOM     15  C   UNL     1      -2.806  -1.788  -1.356  1.00  0.00     0.047 A 
ATOM     16  C   UNL     1      -3.515  -0.592  -1.334  1.00  0.00     0.120 A 
BRANCH  16  17
ATOM     17  O   UNL     1      -4.866  -0.453  -1.213  1.00  0.00    -0.484 OA
BRANCH  17  18
ATOM     18  C   UNL     1      -5.670  -1.616  -1.230  1.00  0.00     0.329 C 
BRANCH  18  19
ATOM     19  C   UNL     1      -5.802  -2.443  -2.523  1.00  0.00     0.260 C 
ATOM     20  O   UNL     1      -5.810  -3.677  -2.467  1.00  0.00    -0.271 OA
ATOM     21  N   UNL     1      -6.010  -1.776  -3.709  1.00  0.00    -0.340 N 
ATOM     22  C   UNL     1      -5.943  -0.344  -3.943  1.00  0.00     0.119 C 
ATOM     23  C   UNL     1      -6.320  -2.494  -4.931  1.00  0.00     0.119 C 
ATOM     24  C   UNL     1      -6.745  -0.147  -5.218  1.00  0.00     0.023 C 
ATOM     25  C   UNL     1      -6.472  -1.423  -6.005  1.00  0.00     0.023 C 
ENDBRANCH  18  19
ENDBRANCH  17  18
ENDBRANCH  16  17
ENDBRANCH   6  11
ENDBRANCH   4   6
ENDBRANCH   3   4
ENDBRANCH   2   3
ENDBRANCH   1   2
BRANCH   1  26
ATOM     26  O   UNL     1       0.710  -0.036   2.725  1.00  0.00    -0.374 OA
BRANCH  26  27
ATOM     27  C   UNL     1      -0.393  -0.604   2.017  1.00  0.00     0.202 C 
BRANCH  27  28
ATOM     28  C   UNL     1      -1.788  -0.073   2.364  1.00  0.00     0.261 C 
BRANCH  28  29
ATOM     29  O   UNL     1      -1.961   1.298   1.961  1.00  0.00    -0.460 OA
BRANCH  29  30
ATOM     30  C   UNL     1      -2.253   2.153   2.966  1.00  0.00     0.338 C 
ATOM     31  O   UNL     1      -2.479   1.866   4.137  1.00  0.00    -0.246 OA
BRANCH  30  32
ATOM     32  C   UNL     1      -2.083   3.547   2.522  1.00  0.00     0.060 A 
ATOM     33  C   UNL     1      -1.229   4.360   3.278  1.00  0.00     0.016 A 
ATOM     34  C   UNL     1      -2.805   4.079   1.451  1.00  0.00     0.016 A 
ATOM     35  C   UNL     1      -1.143   5.724   3.009  1.00  0.00     0.010 A 
ATOM     36  C   UNL     1      -2.721   5.452   1.186  1.00  0.00     0.010 A 
ATOM     37  C   UNL     1      -1.925   6.287   1.992  1.00  0.00    -0.014 A 
BRANCH  37  38
ATOM     38  C   UNL     1      -2.014   7.765   1.885  1.00  0.00     0.031 A 
ATOM     39  C   UNL     1      -3.209   8.471   2.470  1.00  0.00     0.074 A 
ATOM     40  C   UNL     1      -1.030   8.476   1.306  1.00  0.00     0.049 A 
ATOM     41  N   UNL     1      -3.472   9.751   2.518  1.00  0.00    -0.248 NA
ATOM     42  C   UNL     1      -4.243   7.622   3.085  1.00  0.00     0.031 C 
ATOM     43  C   UNL     1       0.178   7.913   0.708  1.00  0.00     0.029 A 
ATOM     44  N   UNL     1      -0.902   9.830   1.115  1.00  0.00    -0.354 N 
ATOM     45  C   UNL     1      -4.709   9.862   3.141  1.00  0.00     0.074 A 
ATOM     46  C   UNL     1      -5.152   8.518   3.443  1.00  0.00     0.031 C 
ATOM     47  C   UNL     1       0.919   8.913   0.199  1.00  0.00     0.029 A 
ATOM     48  C   UNL     1       0.229  10.183   0.419  1.00  0.00     0.049 A 
ATOM     49  H   UNL     1      -1.558  10.485   1.446  1.00  0.00     0.167 HD
ATOM     50  C   UNL     1      -5.406  10.980   3.453  1.00  0.00     0.034 A 
ATOM     51  C   UNL     1       0.654  11.392  -0.002  1.00  0.00     0.034 A 
ATOM     52  C   UNL     1      -4.954  12.318   3.181  1.00  0.00     0.049 A 
ATOM     53  C   UNL     1      -0.151  12.619   0.341  1.00  0.00     0.074 A 
ATOM     54  C   UNL     1      -5.564  13.515   3.513  1.00  0.00     0.029 A 
ATOM     55  N   UNL     1      -3.789  12.637   2.502  1.00  0.00    -0.354 N 
ATOM     56  N   UNL     1      -1.251  12.714   1.048  1.00  0.00    -0.248 NA
ATOM     57  C   UNL     1       0.363  13.909  -0.143  1.00  0.00     0.031 C 
ATOM     58  C   UNL     1      -4.779  14.559   3.012  1.00  0.00     0.029 A 
ATOM     59  C   UNL     1      -3.669  14.012   2.389  1.00  0.00     0.049 A 
ATOM     60  H   UNL     1      -3.143  11.983   2.152  1.00  0.00     0.167 HD
ATOM     61  C   UNL     1      -1.540  14.073   1.124  1.00  0.00     0.074 A 
ATOM     62  C   UNL     1      -0.489  14.764   0.407  1.00  0.00     0.031 C 
ATOM     63  C   UNL     1      -2.589  14.692   1.721  1.00  0.00     0.034 A 
BRANCH  50  64
ATOM     64  C   UNL     1      -6.726  10.807   4.155  1.00  0.00     0.023 A 
ATOM     65  C   UNL     1      -6.749  10.441   5.516  1.00  0.00     0.012 A 
ATOM     66  C   UNL     1      -7.939  11.061   3.486  1.00  0.00     0.148 A 
ATOM     67  C   UNL     1      -7.960  10.304   6.194  1.00  0.00     0.002 A 
ATOM     68  C   UNL     1      -9.141  10.961   4.179  1.00  0.00     0.091 A 
ATOM     69  F   UNL     1      -7.897  11.383   2.185  1.00  0.00    -0.205 F 
ATOM     70  C   UNL     1      -9.154  10.574   5.529  1.00  0.00     0.022 A 
BRANCH  68  71
ATOM     71  S   UNL     1     -10.723  11.360   3.427  1.00  0.00     0.127 S 
ATOM     72  O   UNL     1     -11.308  10.032   3.251  1.00  0.00    -0.237 OA
ATOM     73  O   UNL     1     -11.361  12.175   4.462  1.00  0.00    -0.237 OA
ATOM     74  O   UNL     1     -10.412  12.077   2.198  1.00  0.00    -0.744 OA
ENDBRANCH  68  71
ENDBRANCH  50  64
BRANCH  51  75
ATOM     75  C   UNL     1       1.931  11.507  -0.761  1.00  0.00     0.023 A 
ATOM     76  C   UNL     1       3.043  12.128  -0.160  1.00  0.00     0.012 A 
ATOM     77  C   UNL     1       2.055  10.989  -2.065  1.00  0.00     0.148 A 
ATOM     78  C   UNL     1       4.247  12.254  -0.854  1.00  0.00     0.002 A 
ATOM     79  C   UNL     1       3.273  11.068  -2.729  1.00  0.00     0.091 A 
ATOM     80  F   UNL     1       0.978  10.421  -2.627  1.00  0.00    -0.205 F 
ATOM     81  C   UNL     1       4.366  11.715  -2.132  1.00  0.00     0.022 A 
BRANCH  79  82
ATOM     82  S   UNL     1       3.550  10.286  -4.322  1.00  0.00     0.127 S 
ATOM     83  O   UNL     1       3.621  11.441  -5.214  1.00  0.00    -0.237 OA
ATOM     84  O   UNL     1       4.822   9.596  -4.104  1.00  0.00    -0.237 OA
ATOM     85  O   UNL     1       2.414   9.396  -4.524  1.00  0.00    -0.744 OA
ENDBRANCH  79  82
ENDBRANCH  51  75
BRANCH  63  86
ATOM     86  C   UNL     1      -2.647  16.197   1.658  1.00  0.00     0.023 A 
ATOM     87  C   UNL     1      -2.985  16.832   0.447  1.00  0.00     0.012 A 
ATOM     88  C   UNL     1      -2.448  16.975   2.816  1.00  0.00     0.148 A 
ATOM     89  C   UNL     1      -3.096  18.221   0.382  1.00  0.00     0.002 A 
ATOM     90  C   UNL     1      -2.606  18.355   2.754  1.00  0.00     0.091 A 
ATOM     91  F   UNL     1      -2.109  16.354   3.955  1.00  0.00    -0.205 F 
ATOM     92  C   UNL     1      -2.918  18.981   1.537  1.00  0.00     0.022 A 
BRANCH  90  93
ATOM     93  S   UNL     1      -2.489  19.402   4.210  1.00  0.00     0.127 S 
ATOM     94  O   UNL     1      -1.189  20.041   4.015  1.00  0.00    -0.237 OA
ATOM     95  O   UNL     1      -3.638  20.294   4.047  1.00  0.00    -0.237 OA
ATOM     96  O   UNL     1      -2.582  18.505   5.355  1.00  0.00    -0.744 OA
ENDBRANCH  90  93
ENDBRANCH  63  86
ENDBRANCH  37  38
ENDBRANCH  30  32
ENDBRANCH  29  30
ENDBRANCH  28  29
ENDBRANCH  27  28
ENDBRANCH  26  27
ENDBRANCH   1  26
TORSDOF 22
