REMARK SMILES O=C(Cn1cnc(-c2ccccc2)c1-c1ccccc1)OCCOCCOC(=O)c1ccc(-c2c3nc(c(-c4cccc(S(=O)(=O)[O-])c4F)c4ccc([nH]4)c(-c4cccc(S(=O)(=O)[O-])c4F)c4nc(c(-c5cccc(S(=O)(=O)[O-])c5F)c5ccc2[nH]5)C=C4)C=C3)cc1
REMARK SMILES IDX 25 1 24 2 23 3 22 4 21 5 2 6 1 7 3 8 4 9 5 10 14 11 6 12
REMARK SMILES IDX 7 13 15 14 16 15 20 16 17 17 19 18 18 19 8 20 9 21 13 22
REMARK SMILES IDX 10 23 12 24 11 25 26 26 27 27 28 28 29 29 30 30 31 31 92 32
REMARK SMILES IDX 32 33 91 34 33 35 34 36 35 37 85 38 36 39 90 40 84 41 86 42
REMARK SMILES IDX 37 43 89 44 83 45 82 46 38 48 70 49 50 50 69 51 51 52 54 53
REMARK SMILES IDX 68 54 87 55 52 56 53 57 67 59 88 60 55 61 39 62 40 63 48 64
REMARK SMILES IDX 41 65 43 66 49 67 42 68 44 69 45 70 46 71 47 72 71 73 72 74
REMARK SMILES IDX 80 75 73 76 75 77 81 78 74 79 76 80 77 81 78 82 79 83 56 84
REMARK SMILES IDX 57 85 65 86 58 87 60 88 66 89 59 90 61 91 62 92 63 93 64 94
REMARK H PARENT 86 47 54 58
REMARK Flexibility Score: inf
ROOT
ATOM      1  C   UNL     1       2.678   1.572  -2.820  1.00  0.00     0.202 C 
ENDROOT
BRANCH   1   2
ATOM      2  O   UNL     1       3.942   1.665  -2.179  1.00  0.00    -0.374 OA
BRANCH   2   3
ATOM      3  C   UNL     1       4.519   0.547  -1.523  1.00  0.00     0.202 C 
BRANCH   3   4
ATOM      4  C   UNL     1       3.656  -0.525  -0.845  1.00  0.00     0.261 C 
BRANCH   4   5
ATOM      5  O   UNL     1       2.287  -0.258  -0.558  1.00  0.00    -0.462 OA
BRANCH   5   6
ATOM      6  C   UNL     1       1.988   0.243   0.668  1.00  0.00     0.326 C 
ATOM      7  O   UNL     1       1.035  -0.171   1.321  1.00  0.00    -0.250 OA
BRANCH   6   8
ATOM      8  C   UNL     1       2.733   1.482   1.033  1.00  0.00     0.246 C 
BRANCH   8   9
ATOM      9  N   UNL     1       3.783   1.438   2.037  1.00  0.00    -0.319 N 
ATOM     10  C   UNL     1       4.273   2.640   2.507  1.00  0.00     0.201 A 
ATOM     11  C   UNL     1       4.532   0.430   2.621  1.00  0.00     0.076 A 
ATOM     12  N   UNL     1       5.211   2.480   3.403  1.00  0.00    -0.236 NA
ATOM     13  C   UNL     1       5.388   1.127   3.474  1.00  0.00     0.096 A 
BRANCH  11  14
ATOM     14  C   UNL     1       4.477  -1.020   2.393  1.00  0.00     0.000 A 
ATOM     15  C   UNL     1       3.426  -1.808   2.864  1.00  0.00     0.010 A 
ATOM     16  C   UNL     1       5.514  -1.647   1.670  1.00  0.00     0.010 A 
ATOM     17  C   UNL     1       3.381  -3.175   2.562  1.00  0.00     0.001 A 
ATOM     18  C   UNL     1       5.456  -3.005   1.347  1.00  0.00     0.001 A 
ATOM     19  C   UNL     1       4.382  -3.768   1.790  1.00  0.00     0.000 A 
ENDBRANCH  11  14
BRANCH  13  20
ATOM     20  C   UNL     1       6.294   0.512   4.415  1.00  0.00     0.002 A 
ATOM     21  C   UNL     1       5.997   0.592   5.778  1.00  0.00     0.010 A 
ATOM     22  C   UNL     1       7.408  -0.214   3.986  1.00  0.00     0.010 A 
ATOM     23  C   UNL     1       6.774  -0.106   6.700  1.00  0.00     0.001 A 
ATOM     24  C   UNL     1       8.172  -0.928   4.906  1.00  0.00     0.001 A 
ATOM     25  C   UNL     1       7.848  -0.881   6.261  1.00  0.00     0.000 A 
ENDBRANCH  13  20
ENDBRANCH   8   9
ENDBRANCH   6   8
ENDBRANCH   5   6
ENDBRANCH   4   5
ENDBRANCH   3   4
ENDBRANCH   2   3
ENDBRANCH   1   2
BRANCH   1  26
ATOM     26  C   UNL     1       2.524   0.598  -3.976  1.00  0.00     0.261 C 
BRANCH  26  27
ATOM     27  O   UNL     1       2.842  -0.726  -3.587  1.00  0.00    -0.460 OA
BRANCH  27  28
ATOM     28  C   UNL     1       4.060  -1.170  -3.945  1.00  0.00     0.338 C 
ATOM     29  O   UNL     1       4.974  -0.506  -4.438  1.00  0.00    -0.246 OA
BRANCH  28  30
ATOM     30  C   UNL     1       4.093  -2.629  -3.772  1.00  0.00     0.060 A 
ATOM     31  C   UNL     1       5.127  -3.253  -4.466  1.00  0.00     0.016 A 
ATOM     32  C   UNL     1       2.876  -3.271  -3.486  1.00  0.00     0.016 A 
ATOM     33  C   UNL     1       4.776  -4.317  -5.252  1.00  0.00     0.010 A 
ATOM     34  C   UNL     1       2.518  -4.313  -4.295  1.00  0.00     0.010 A 
ATOM     35  C   UNL     1       3.438  -4.725  -5.250  1.00  0.00    -0.014 A 
BRANCH  35  36
ATOM     36  C   UNL     1       3.025  -5.632  -6.286  1.00  0.00     0.031 A 
ATOM     37  C   UNL     1       3.405  -7.019  -5.983  1.00  0.00     0.074 A 
ATOM     38  C   UNL     1       2.331  -5.229  -7.364  1.00  0.00     0.049 A 
ATOM     39  N   UNL     1       4.375  -7.692  -6.501  1.00  0.00    -0.248 NA
ATOM     40  C   UNL     1       2.789  -7.637  -4.801  1.00  0.00     0.031 C 
ATOM     41  C   UNL     1       1.645  -3.953  -7.595  1.00  0.00     0.029 A 
ATOM     42  N   UNL     1       1.982  -5.966  -8.446  1.00  0.00    -0.354 N 
ATOM     43  C   UNL     1       4.332  -8.922  -5.858  1.00  0.00     0.074 A 
ATOM     44  C   UNL     1       3.526  -8.740  -4.681  1.00  0.00     0.031 C 
ATOM     45  C   UNL     1       0.759  -4.112  -8.608  1.00  0.00     0.029 A 
ATOM     46  C   UNL     1       0.920  -5.444  -9.169  1.00  0.00     0.049 A 
ATOM     47  H   UNL     1       2.441  -6.800  -8.696  1.00  0.00     0.167 HD
ATOM     48  C   UNL     1       4.724 -10.060  -6.487  1.00  0.00     0.034 A 
ATOM     49  C   UNL     1       0.176  -6.128 -10.072  1.00  0.00     0.034 A 
ATOM     50  C   UNL     1       5.476  -9.772  -7.680  1.00  0.00     0.049 A 
ATOM     51  C   UNL     1       0.965  -7.319 -10.481  1.00  0.00     0.074 A 
ATOM     52  C   UNL     1       6.663  -9.123  -7.951  1.00  0.00     0.029 A 
ATOM     53  N   UNL     1       4.792  -9.837  -8.870  1.00  0.00    -0.354 N 
ATOM     54  N   UNL     1       2.084  -7.247 -11.148  1.00  0.00    -0.248 NA
ATOM     55  C   UNL     1       0.753  -8.561  -9.752  1.00  0.00     0.031 C 
ATOM     56  C   UNL     1       6.434  -8.434  -9.177  1.00  0.00     0.029 A 
ATOM     57  C   UNL     1       5.142  -8.740  -9.613  1.00  0.00     0.049 A 
ATOM     58  H   UNL     1       4.163 -10.544  -9.141  1.00  0.00     0.167 HD
ATOM     59  C   UNL     1       2.897  -8.218 -10.575  1.00  0.00     0.074 A 
ATOM     60  C   UNL     1       1.991  -9.061  -9.797  1.00  0.00     0.031 C 
ATOM     61  C   UNL     1       4.254  -8.074 -10.543  1.00  0.00     0.034 A 
BRANCH  48  62
ATOM     62  C   UNL     1       4.118 -11.416  -6.239  1.00  0.00     0.023 A 
ATOM     63  C   UNL     1       4.760 -12.523  -6.832  1.00  0.00     0.012 A 
ATOM     64  C   UNL     1       2.833 -11.635  -5.691  1.00  0.00     0.148 A 
ATOM     65  C   UNL     1       4.137 -13.771  -6.912  1.00  0.00     0.002 A 
ATOM     66  C   UNL     1       2.256 -12.897  -5.693  1.00  0.00     0.091 A 
ATOM     67  F   UNL     1       2.086 -10.605  -5.287  1.00  0.00    -0.205 F 
ATOM     68  C   UNL     1       2.889 -13.963  -6.332  1.00  0.00     0.022 A 
BRANCH  66  69
ATOM     69  S   UNL     1       0.668 -13.198  -4.908  1.00  0.00     0.127 S 
ATOM     70  O   UNL     1      -0.217 -13.294  -6.064  1.00  0.00    -0.237 OA
ATOM     71  O   UNL     1       0.915 -14.459  -4.208  1.00  0.00    -0.237 OA
ATOM     72  O   UNL     1       0.451 -12.061  -4.022  1.00  0.00    -0.744 OA
ENDBRANCH  66  69
ENDBRANCH  48  62
BRANCH  49  73
ATOM     73  C   UNL     1      -1.277  -6.024 -10.340  1.00  0.00     0.023 A 
ATOM     74  C   UNL     1      -1.802  -6.510 -11.553  1.00  0.00     0.012 A 
ATOM     75  C   UNL     1      -2.183  -5.707  -9.302  1.00  0.00     0.148 A 
ATOM     76  C   UNL     1      -3.180  -6.699 -11.719  1.00  0.00     0.002 A 
ATOM     77  C   UNL     1      -3.551  -5.890  -9.472  1.00  0.00     0.091 A 
ATOM     78  F   UNL     1      -1.694  -5.319  -8.116  1.00  0.00    -0.205 F 
ATOM     79  C   UNL     1      -4.054  -6.396 -10.677  1.00  0.00     0.022 A 
BRANCH  77  80
ATOM     80  S   UNL     1      -4.734  -5.549  -8.162  1.00  0.00     0.127 S 
ATOM     81  O   UNL     1      -5.721  -4.719  -8.855  1.00  0.00    -0.237 OA
ATOM     82  O   UNL     1      -5.196  -6.890  -7.816  1.00  0.00    -0.237 OA
ATOM     83  O   UNL     1      -3.988  -4.850  -7.123  1.00  0.00    -0.744 OA
ENDBRANCH  77  80
ENDBRANCH  49  73
BRANCH  61  84
ATOM     84  C   UNL     1       4.869  -6.955 -11.346  1.00  0.00     0.023 A 
ATOM     85  C   UNL     1       4.651  -5.596 -11.033  1.00  0.00     0.012 A 
ATOM     86  C   UNL     1       5.852  -7.287 -12.292  1.00  0.00     0.148 A 
ATOM     87  C   UNL     1       5.393  -4.591 -11.660  1.00  0.00     0.002 A 
ATOM     88  C   UNL     1       6.623  -6.288 -12.874  1.00  0.00     0.091 A 
ATOM     89  F   UNL     1       6.047  -8.584 -12.572  1.00  0.00    -0.205 F 
ATOM     90  C   UNL     1       6.391  -4.938 -12.568  1.00  0.00     0.022 A 
BRANCH  88  91
ATOM     91  S   UNL     1       8.017  -6.679 -13.934  1.00  0.00     0.127 S 
ATOM     92  O   UNL     1       7.513  -6.299 -15.252  1.00  0.00    -0.237 OA
ATOM     93  O   UNL     1       9.066  -5.807 -13.404  1.00  0.00    -0.237 OA
ATOM     94  O   UNL     1       8.277  -8.101 -13.748  1.00  0.00    -0.744 OA
ENDBRANCH  88  91
ENDBRANCH  61  84
ENDBRANCH  35  36
ENDBRANCH  28  30
ENDBRANCH  27  28
ENDBRANCH  26  27
ENDBRANCH   1  26
TORSDOF 20
