REMARK SMILES COc1ccc([C@H]2CC(c3ccc(S(C)(=O)=O)cc3)=NN2c2ccc(C(=O)OCCOCCOC(=O)c3ccc(-c4c5nc(c(-c6cccc(S(=O)(=O)[O-])c6F)c6ccc([nH]6)c(-c6cccc(S(=O)(=O)[O-])c6F)c6nc(c(-c7cccc(S(=O)(=O)[O-])c7F)c7ccc4[nH]7)C=C6)C=C5)cc3)cc2)cc1OC
REMARK SMILES IDX 31 1 30 2 29 3 28 4 26 5 27 6 25 7 22 8 23 9 101 10 24 11
REMARK SMILES IDX 100 12 21 13 7 14 8 15 9 16 20 17 6 18 3 19 4 20 103 21 5 22
REMARK SMILES IDX 102 23 2 24 1 25 104 26 105 27 10 28 11 29 19 30 12 31 18 32
REMARK SMILES IDX 13 33 14 34 15 35 16 36 17 37 32 38 33 39 34 40 35 41 36 42
REMARK SMILES IDX 37 43 38 44 99 45 39 46 98 47 40 48 41 49 42 50 92 51 43 52
REMARK SMILES IDX 97 53 91 54 93 55 44 56 96 57 90 58 89 59 45 61 77 62 57 63
REMARK SMILES IDX 76 64 58 65 61 66 75 67 94 68 59 69 60 70 74 72 95 73 62 74
REMARK SMILES IDX 46 75 47 76 55 77 48 78 50 79 56 80 49 81 51 82 52 83 53 84
REMARK SMILES IDX 54 85 78 86 79 87 87 88 80 89 82 90 88 91 81 92 83 93 84 94
REMARK SMILES IDX 85 95 86 96 63 97 64 98 72 99 65 100 67 101 73 102 66 103
REMARK SMILES IDX 68 104 69 105 70 106 71 107
REMARK H PARENT 93 60 61 71
REMARK Flexibility Score: inf
ROOT
ATOM      1  O   UNL     1       3.830  -3.694 -10.890  1.00  0.00    -0.374 OA
ENDROOT
BRANCH   1   2
ATOM      2  C   UNL     1       2.438  -3.816 -11.180  1.00  0.00     0.202 C 
BRANCH   2   3
ATOM      3  C   UNL     1       1.467  -3.616 -10.011  1.00  0.00     0.261 C 
BRANCH   3   4
ATOM      4  O   UNL     1       1.568  -2.302  -9.444  1.00  0.00    -0.460 OA
BRANCH   4   5
ATOM      5  C   UNL     1       2.171  -2.251  -8.231  1.00  0.00     0.338 C 
ATOM      6  O   UNL     1       2.547  -3.199  -7.560  1.00  0.00    -0.246 OA
BRANCH   5   7
ATOM      7  C   UNL     1       2.470  -0.848  -7.865  1.00  0.00     0.060 A 
ATOM      8  C   UNL     1       3.055   1.734  -6.925  1.00  0.00     0.060 A 
ATOM      9  C   UNL     1       3.955   0.683  -6.717  1.00  0.00     0.029 A 
ATOM     10  C   UNL     1       1.903   1.489  -7.689  1.00  0.00     0.029 A 
ATOM     11  C   UNL     1       3.652  -0.606  -7.156  1.00  0.00     0.018 A 
ATOM     12  C   UNL     1       1.615   0.209  -8.176  1.00  0.00     0.018 A 
BRANCH   8  13
ATOM     13  N   UNL     1       3.248   2.964  -6.301  1.00  0.00    -0.257 N 
ATOM     14  C   UNL     1       2.285   3.480  -5.322  1.00  0.00     0.144 C 
ATOM     15  C   UNL     1       3.009   4.706  -4.758  1.00  0.00     0.091 C 
ATOM     16  C   UNL     1       4.344   4.562  -5.433  1.00  0.00     0.071 C 
ATOM     17  N   UNL     1       4.465   3.574  -6.264  1.00  0.00    -0.176 NA
BRANCH  14  18
ATOM     18  C   UNL     1       1.935   2.465  -4.238  1.00  0.00    -0.019 A 
ATOM     19  C   UNL     1       1.266   0.589  -2.237  1.00  0.00     0.160 A 
ATOM     20  C   UNL     1       0.279   1.117  -3.081  1.00  0.00     0.051 A 
ATOM     21  C   UNL     1       2.605   0.951  -2.417  1.00  0.00     0.161 A 
ATOM     22  C   UNL     1       0.607   2.053  -4.065  1.00  0.00     0.010 A 
ATOM     23  C   UNL     1       2.919   1.888  -3.414  1.00  0.00     0.056 A 
BRANCH  19  24
ATOM     24  O   UNL     1       0.890  -0.349  -1.313  1.00  0.00    -0.493 OA
ATOM     25  C   UNL     1       0.108   0.211  -0.258  1.00  0.00     0.278 C 
ENDBRANCH  19  24
BRANCH  21  26
ATOM     26  O   UNL     1       3.711   0.512  -1.739  1.00  0.00    -0.493 OA
ATOM     27  C   UNL     1       3.531  -0.368  -0.641  1.00  0.00     0.278 C 
ENDBRANCH  21  26
ENDBRANCH  14  18
BRANCH  16  28
ATOM     28  C   UNL     1       5.401   5.554  -5.200  1.00  0.00    -0.002 A 
ATOM     29  C   UNL     1       5.899   6.267  -6.295  1.00  0.00     0.011 A 
ATOM     30  C   UNL     1       5.859   5.817  -3.906  1.00  0.00     0.011 A 
ATOM     31  C   UNL     1       6.848   7.270  -6.096  1.00  0.00     0.021 A 
ATOM     32  C   UNL     1       6.829   6.803  -3.707  1.00  0.00     0.021 A 
ATOM     33  C   UNL     1       7.316   7.526  -4.802  1.00  0.00     0.067 A 
BRANCH  33  34
ATOM     34  S   UNL     1       8.518   8.812  -4.553  1.00  0.00     0.175 S 
ATOM     35  C   UNL     1       9.922   8.293  -5.504  1.00  0.00     0.163 C 
ATOM     36  O   UNL     1       7.978  10.017  -5.152  1.00  0.00    -0.224 OA
ATOM     37  O   UNL     1       8.908   8.786  -3.155  1.00  0.00    -0.224 OA
ENDBRANCH  33  34
ENDBRANCH  16  28
ENDBRANCH   8  13
ENDBRANCH   5   7
ENDBRANCH   4   5
ENDBRANCH   3   4
ENDBRANCH   2   3
ENDBRANCH   1   2
BRANCH   1  38
ATOM     38  C   UNL     1       4.363  -2.372 -10.797  1.00  0.00     0.202 C 
BRANCH  38  39
ATOM     39  C   UNL     1       4.628  -1.638 -12.118  1.00  0.00     0.261 C 
BRANCH  39  40
ATOM     40  O   UNL     1       3.415  -1.343 -12.832  1.00  0.00    -0.460 OA
BRANCH  40  41
ATOM     41  C   UNL     1       3.242  -2.052 -13.975  1.00  0.00     0.338 C 
ATOM     42  O   UNL     1       4.024  -2.837 -14.481  1.00  0.00    -0.246 OA
BRANCH  41  43
ATOM     43  C   UNL     1       1.861  -1.880 -14.467  1.00  0.00     0.060 A 
ATOM     44  C   UNL     1       1.118  -3.040 -14.723  1.00  0.00     0.016 A 
ATOM     45  C   UNL     1       1.327  -0.620 -14.741  1.00  0.00     0.016 A 
ATOM     46  C   UNL     1      -0.146  -2.946 -15.303  1.00  0.00     0.010 A 
ATOM     47  C   UNL     1       0.061  -0.528 -15.330  1.00  0.00     0.010 A 
ATOM     48  C   UNL     1      -0.665  -1.691 -15.646  1.00  0.00    -0.014 A 
BRANCH  48  49
ATOM     49  C   UNL     1      -1.907  -1.603 -16.451  1.00  0.00     0.031 A 
ATOM     50  C   UNL     1      -1.806  -1.344 -17.930  1.00  0.00     0.074 A 
ATOM     51  C   UNL     1      -3.112  -1.749 -15.870  1.00  0.00     0.049 A 
ATOM     52  N   UNL     1      -2.761  -1.203 -18.812  1.00  0.00    -0.248 NA
ATOM     53  C   UNL     1      -0.449  -1.225 -18.488  1.00  0.00     0.031 C 
ATOM     54  C   UNL     1      -3.337  -2.002 -14.448  1.00  0.00     0.029 A 
ATOM     55  N   UNL     1      -4.374  -1.678 -16.405  1.00  0.00    -0.354 N 
ATOM     56  C   UNL     1      -2.125  -0.950 -20.021  1.00  0.00     0.074 A 
ATOM     57  C   UNL     1      -0.702  -0.946 -19.759  1.00  0.00     0.031 C 
ATOM     58  C   UNL     1      -4.661  -2.035 -14.217  1.00  0.00     0.029 A 
ATOM     59  C   UNL     1      -5.374  -1.783 -15.468  1.00  0.00     0.049 A 
ATOM     60  H   UNL     1      -4.546  -1.562 -17.367  1.00  0.00     0.167 HD
ATOM     61  C   UNL     1      -2.674  -0.756 -21.243  1.00  0.00     0.034 A 
ATOM     62  C   UNL     1      -6.710  -1.669 -15.602  1.00  0.00     0.034 A 
ATOM     63  C   UNL     1      -4.088  -0.783 -21.507  1.00  0.00     0.049 A 
ATOM     64  C   UNL     1      -7.296  -1.435 -16.970  1.00  0.00     0.074 A 
ATOM     65  C   UNL     1      -4.739  -0.651 -22.721  1.00  0.00     0.029 A 
ATOM     66  N   UNL     1      -5.069  -0.943 -20.542  1.00  0.00    -0.354 N 
ATOM     67  N   UNL     1      -6.682  -1.327 -18.124  1.00  0.00    -0.248 NA
ATOM     68  C   UNL     1      -8.761  -1.343 -17.061  1.00  0.00     0.031 C 
ATOM     69  C   UNL     1      -6.117  -0.706 -22.485  1.00  0.00     0.029 A 
ATOM     70  C   UNL     1      -6.322  -0.899 -21.129  1.00  0.00     0.049 A 
ATOM     71  H   UNL     1      -4.901  -1.069 -19.580  1.00  0.00     0.167 HD
ATOM     72  C   UNL     1      -7.684  -1.190 -19.079  1.00  0.00     0.074 A 
ATOM     73  C   UNL     1      -8.946  -1.250 -18.371  1.00  0.00     0.031 C 
ATOM     74  C   UNL     1      -7.571  -1.016 -20.420  1.00  0.00     0.034 A 
BRANCH  61  75
ATOM     75  C   UNL     1      -1.741  -0.524 -22.402  1.00  0.00     0.023 A 
ATOM     76  C   UNL     1      -0.994  -1.601 -22.921  1.00  0.00     0.012 A 
ATOM     77  C   UNL     1      -1.648   0.741 -23.015  1.00  0.00     0.148 A 
ATOM     78  C   UNL     1      -0.148  -1.417 -24.014  1.00  0.00     0.002 A 
ATOM     79  C   UNL     1      -0.834   0.907 -24.129  1.00  0.00     0.091 A 
ATOM     80  F   UNL     1      -2.348   1.758 -22.492  1.00  0.00    -0.205 F 
ATOM     81  C   UNL     1      -0.077  -0.168 -24.624  1.00  0.00     0.022 A 
BRANCH  79  82
ATOM     82  S   UNL     1      -0.732   2.458 -25.030  1.00  0.00     0.127 S 
ATOM     83  O   UNL     1       0.609   2.918 -24.674  1.00  0.00    -0.237 OA
ATOM     84  O   UNL     1      -0.877   2.018 -26.419  1.00  0.00    -0.237 OA
ATOM     85  O   UNL     1      -1.827   3.281 -24.538  1.00  0.00    -0.744 OA
ENDBRANCH  79  82
ENDBRANCH  61  75
BRANCH  62  86
ATOM     86  C   UNL     1      -7.592  -1.809 -14.408  1.00  0.00     0.023 A 
ATOM     87  C   UNL     1      -8.428  -2.935 -14.290  1.00  0.00     0.012 A 
ATOM     88  C   UNL     1      -7.594  -0.842 -13.384  1.00  0.00     0.148 A 
ATOM     89  C   UNL     1      -9.273  -3.081 -13.189  1.00  0.00     0.002 A 
ATOM     90  C   UNL     1      -8.396  -1.021 -12.263  1.00  0.00     0.091 A 
ATOM     91  F   UNL     1      -6.805   0.234 -13.524  1.00  0.00    -0.205 F 
ATOM     92  C   UNL     1      -9.249  -2.131 -12.171  1.00  0.00     0.022 A 
BRANCH  90  93
ATOM     93  S   UNL     1      -8.332   0.085 -10.849  1.00  0.00     0.127 S 
ATOM     94  O   UNL     1      -9.603   0.793 -10.964  1.00  0.00    -0.237 OA
ATOM     95  O   UNL     1      -8.248  -0.856  -9.731  1.00  0.00    -0.237 OA
ATOM     96  O   UNL     1      -7.135   0.895 -11.038  1.00  0.00    -0.744 OA
ENDBRANCH  90  93
ENDBRANCH  62  86
BRANCH  74  97
ATOM     97  C   UNL     1      -8.841  -0.913 -21.225  1.00  0.00     0.023 A 
ATOM     98  C   UNL     1      -9.622   0.257 -21.154  1.00  0.00     0.012 A 
ATOM     99  C   UNL     1      -9.215  -1.942 -22.113  1.00  0.00     0.148 A 
ATOM    100  C   UNL     1     -10.773   0.389 -21.930  1.00  0.00     0.002 A 
ATOM    101  C   UNL     1     -10.337  -1.783 -22.918  1.00  0.00     0.091 A 
ATOM    102  F   UNL     1      -8.469  -3.055 -22.153  1.00  0.00    -0.205 F 
ATOM    103  C   UNL     1     -11.123  -0.624 -22.820  1.00  0.00     0.022 A 
BRANCH 101 104
ATOM    104  S   UNL     1     -10.809  -2.992 -24.160  1.00  0.00     0.127 S 
ATOM    105  O   UNL     1     -11.983  -3.608 -23.545  1.00  0.00    -0.237 OA
ATOM    106  O   UNL     1     -11.100  -2.150 -25.321  1.00  0.00    -0.237 OA
ATOM    107  O   UNL     1      -9.656  -3.868 -24.325  1.00  0.00    -0.744 OA
ENDBRANCH 101 104
ENDBRANCH  74  97
ENDBRANCH  48  49
ENDBRANCH  41  43
ENDBRANCH  40  41
ENDBRANCH  39  40
ENDBRANCH  38  39
ENDBRANCH   1  38
TORSDOF 23
