REMARK SMILES Cc1cc(OC(F)(F)F)cc2c1O[C@H](C(F)(F)F)C(C(=O)OCCOCCOC(=O)c1ccc(-c3c4nc(c(-c5cccc(S(=O)(=O)[O-])c5F)c5ccc([nH]5)c(-c5cccc(S(=O)(=O)[O-])c5F)c5nc(c(-c6cccc(S(=O)(=O)[O-])c6F)c6ccc3[nH]6)C=C5)C=C4)cc1)=C2
REMARK SMILES IDX 26 1 25 2 24 3 23 4 22 5 20 6 21 7 19 8 1 9 2 10 3 11 12 12
REMARK SMILES IDX 4 13 11 14 13 15 10 16 94 17 14 18 5 19 6 20 7 21 8 22 9 23
REMARK SMILES IDX 15 24 16 25 17 26 18 27 27 28 28 29 29 30 30 31 31 32 32 33
REMARK SMILES IDX 93 34 33 35 92 36 34 37 35 38 36 39 86 40 37 41 91 42 85 43
REMARK SMILES IDX 87 44 38 45 90 46 84 47 83 48 39 50 71 51 51 52 70 53 52 54
REMARK SMILES IDX 55 55 69 56 88 57 53 58 54 59 68 61 89 62 56 63 40 64 41 65
REMARK SMILES IDX 49 66 42 67 44 68 50 69 43 70 45 71 46 72 47 73 48 74 72 75
REMARK SMILES IDX 73 76 81 77 74 78 76 79 82 80 75 81 77 82 78 83 79 84 80 85
REMARK SMILES IDX 57 86 58 87 66 88 59 89 61 90 67 91 60 92 62 93 63 94 64 95
REMARK SMILES IDX 65 96
REMARK H PARENT 87 49 55 60
REMARK Flexibility Score: inf
ROOT
ATOM      1  C   UNL     1      -4.506   1.559  -5.759  1.00  0.00     0.202 C 
ENDROOT
BRANCH   1   2
ATOM      2  O   UNL     1      -4.431   1.434  -7.182  1.00  0.00    -0.374 OA
BRANCH   2   3
ATOM      3  C   UNL     1      -4.221   0.128  -7.716  1.00  0.00     0.202 C 
BRANCH   3   4
ATOM      4  C   UNL     1      -2.779  -0.384  -7.715  1.00  0.00     0.261 C 
BRANCH   4   5
ATOM      5  O   UNL     1      -2.213  -0.372  -6.395  1.00  0.00    -0.460 OA
BRANCH   5   6
ATOM      6  C   UNL     1      -1.234   0.542  -6.210  1.00  0.00     0.338 C 
ATOM      7  O   UNL     1      -0.730   1.260  -7.061  1.00  0.00    -0.246 OA
BRANCH   6   8
ATOM      8  C   UNL     1      -0.922   0.660  -4.774  1.00  0.00     0.087 C 
ATOM      9  C   UNL     1       0.726  -0.027   0.050  1.00  0.00     0.048 C 
ATOM     10  C   UNL     1       0.428   1.142  -0.851  1.00  0.00    -0.005 A 
ATOM     11  C   UNL     1       0.778   2.435  -0.410  1.00  0.00     0.054 A 
ATOM     12  C   UNL     1      -0.109   0.974  -2.136  1.00  0.00     0.131 A 
ATOM     13  C   UNL     1       0.574   3.547  -1.226  1.00  0.00     0.130 A 
ATOM     14  C   UNL     1      -0.285   2.084  -2.963  1.00  0.00     0.021 A 
ATOM     15  O   UNL     1      -0.449  -0.293  -2.520  1.00  0.00    -0.475 OA
ATOM     16  C   UNL     1       0.033   3.364  -2.498  1.00  0.00     0.058 A 
ATOM     17  C   UNL     1      -0.726   1.909  -4.333  1.00  0.00     0.027 C 
ATOM     18  C   UNL     1      -0.804  -0.562  -3.906  1.00  0.00     0.316 C 
BRANCH  13  19
ATOM     19  O   UNL     1       0.863   4.847  -0.924  1.00  0.00    -0.406 OA
BRANCH  19  20
ATOM     20  C   UNL     1       1.598   5.104   0.258  1.00  0.00     0.573 C 
ATOM     21  F   UNL     1       0.893   4.757   1.356  1.00  0.00    -0.132 F 
ATOM     22  F   UNL     1       2.780   4.452   0.253  1.00  0.00    -0.132 F 
ATOM     23  F   UNL     1       1.853   6.430   0.327  1.00  0.00    -0.132 F 
ENDBRANCH  19  20
ENDBRANCH  13  19
BRANCH  18  24
ATOM     24  C   UNL     1       0.193  -1.590  -4.463  1.00  0.00     0.430 C 
ATOM     25  F   UNL     1       0.315  -2.651  -3.633  1.00  0.00    -0.167 F 
ATOM     26  F   UNL     1      -0.199  -2.070  -5.665  1.00  0.00    -0.167 F 
ATOM     27  F   UNL     1       1.425  -1.053  -4.623  1.00  0.00    -0.167 F 
ENDBRANCH  18  24
ENDBRANCH   6   8
ENDBRANCH   5   6
ENDBRANCH   4   5
ENDBRANCH   3   4
ENDBRANCH   2   3
ENDBRANCH   1   2
BRANCH   1  28
ATOM     28  C   UNL     1      -5.769   1.016  -5.079  1.00  0.00     0.261 C 
BRANCH  28  29
ATOM     29  O   UNL     1      -5.793  -0.424  -5.062  1.00  0.00    -0.460 OA
BRANCH  29  30
ATOM     30  C   UNL     1      -6.809  -0.985  -5.760  1.00  0.00     0.338 C 
ATOM     31  O   UNL     1      -7.709  -0.405  -6.351  1.00  0.00    -0.246 OA
BRANCH  30  32
ATOM     32  C   UNL     1      -6.594  -2.436  -5.881  1.00  0.00     0.060 A 
ATOM     33  C   UNL     1      -6.428  -2.969  -7.166  1.00  0.00     0.016 A 
ATOM     34  C   UNL     1      -6.674  -3.271  -4.766  1.00  0.00     0.016 A 
ATOM     35  C   UNL     1      -6.391  -4.349  -7.347  1.00  0.00     0.010 A 
ATOM     36  C   UNL     1      -6.657  -4.656  -4.952  1.00  0.00     0.010 A 
ATOM     37  C   UNL     1      -6.556  -5.197  -6.246  1.00  0.00    -0.014 A 
BRANCH  37  38
ATOM     38  C   UNL     1      -6.809  -6.638  -6.470  1.00  0.00     0.031 A 
ATOM     39  C   UNL     1      -8.232  -7.116  -6.559  1.00  0.00     0.074 A 
ATOM     40  C   UNL     1      -5.790  -7.505  -6.600  1.00  0.00     0.049 A 
ATOM     41  N   UNL     1      -8.685  -8.329  -6.725  1.00  0.00    -0.248 NA
ATOM     42  C   UNL     1      -9.284  -6.089  -6.451  1.00  0.00     0.031 C 
ATOM     43  C   UNL     1      -4.372  -7.155  -6.554  1.00  0.00     0.029 A 
ATOM     44  N   UNL     1      -5.799  -8.865  -6.782  1.00  0.00    -0.354 N 
ATOM     45  C   UNL     1     -10.070  -8.218  -6.724  1.00  0.00     0.074 A 
ATOM     46  C   UNL     1     -10.387  -6.820  -6.537  1.00  0.00     0.031 C 
ATOM     47  C   UNL     1      -3.644  -8.278  -6.680  1.00  0.00     0.029 A 
ATOM     48  C   UNL     1      -4.545  -9.424  -6.799  1.00  0.00     0.049 A 
ATOM     49  H   UNL     1      -6.625  -9.389  -6.891  1.00  0.00     0.167 HD
ATOM     50  C   UNL     1     -10.994  -9.192  -6.881  1.00  0.00     0.034 A 
ATOM     51  C   UNL     1      -4.168 -10.715  -6.886  1.00  0.00     0.034 A 
ATOM     52  C   UNL     1     -10.681 -10.578  -7.087  1.00  0.00     0.049 A 
ATOM     53  C   UNL     1      -5.217 -11.786  -7.020  1.00  0.00     0.074 A 
ATOM     54  C   UNL     1     -11.553 -11.632  -7.288  1.00  0.00     0.029 A 
ATOM     55  N   UNL     1      -9.399 -11.102  -7.111  1.00  0.00    -0.354 N 
ATOM     56  N   UNL     1      -6.519 -11.655  -7.102  1.00  0.00    -0.248 NA
ATOM     57  C   UNL     1      -4.748 -13.178  -7.096  1.00  0.00     0.031 C 
ATOM     58  C   UNL     1     -10.797 -12.800  -7.425  1.00  0.00     0.029 A 
ATOM     59  C   UNL     1      -9.455 -12.467  -7.318  1.00  0.00     0.049 A 
ATOM     60  H   UNL     1      -8.572 -10.580  -6.998  1.00  0.00     0.167 HD
ATOM     61  C   UNL     1      -7.023 -12.941  -7.264  1.00  0.00     0.074 A 
ATOM     62  C   UNL     1      -5.886 -13.838  -7.278  1.00  0.00     0.031 C 
ATOM     63  C   UNL     1      -8.312 -13.340  -7.380  1.00  0.00     0.034 A 
BRANCH  50  64
ATOM     64  C   UNL     1     -12.442  -8.793  -6.883  1.00  0.00     0.023 A 
ATOM     65  C   UNL     1     -13.001  -8.250  -8.056  1.00  0.00     0.012 A 
ATOM     66  C   UNL     1     -13.262  -9.037  -5.766  1.00  0.00     0.148 A 
ATOM     67  C   UNL     1     -14.360  -7.948  -8.116  1.00  0.00     0.002 A 
ATOM     68  C   UNL     1     -14.621  -8.759  -5.842  1.00  0.00     0.091 A 
ATOM     69  F   UNL     1     -12.699  -9.538  -4.658  1.00  0.00    -0.205 F 
ATOM     70  C   UNL     1     -15.171  -8.212  -7.014  1.00  0.00     0.022 A 
BRANCH  68  71
ATOM     71  S   UNL     1     -15.763  -9.105  -4.500  1.00  0.00     0.127 S 
ATOM     72  O   UNL     1     -16.204  -7.759  -4.134  1.00  0.00    -0.237 OA
ATOM     73  O   UNL     1     -16.779  -9.920  -5.164  1.00  0.00    -0.237 OA
ATOM     74  O   UNL     1     -14.989  -9.799  -3.480  1.00  0.00    -0.744 OA
ENDBRANCH  68  71
ENDBRANCH  50  64
BRANCH  51  75
ATOM     75  C   UNL     1      -2.720 -11.055  -6.893  1.00  0.00     0.023 A 
ATOM     76  C   UNL     1      -2.106 -11.421  -8.105  1.00  0.00     0.012 A 
ATOM     77  C   UNL     1      -1.943 -10.960  -5.723  1.00  0.00     0.148 A 
ATOM     78  C   UNL     1      -0.739 -11.695  -8.151  1.00  0.00     0.002 A 
ATOM     79  C   UNL     1      -0.575 -11.198  -5.783  1.00  0.00     0.091 A 
ATOM     80  F   UNL     1      -2.555 -10.615  -4.582  1.00  0.00    -0.205 F 
ATOM     81  C   UNL     1       0.027 -11.575  -6.994  1.00  0.00     0.022 A 
BRANCH  79  82
ATOM     82  S   UNL     1       0.513 -10.980  -4.370  1.00  0.00     0.127 S 
ATOM     83  O   UNL     1       1.018 -12.336  -4.170  1.00  0.00    -0.237 OA
ATOM     84  O   UNL     1       1.492 -10.028  -4.894  1.00  0.00    -0.237 OA
ATOM     85  O   UNL     1      -0.327 -10.463  -3.299  1.00  0.00    -0.744 OA
ENDBRANCH  79  82
ENDBRANCH  51  75
BRANCH  63  86
ATOM     86  C   UNL     1      -8.592 -14.808  -7.546  1.00  0.00     0.023 A 
ATOM     87  C   UNL     1      -8.586 -15.643  -6.413  1.00  0.00     0.012 A 
ATOM     88  C   UNL     1      -9.006 -15.323  -8.791  1.00  0.00     0.148 A 
ATOM     89  C   UNL     1      -8.986 -16.974  -6.516  1.00  0.00     0.002 A 
ATOM     90  C   UNL     1      -9.434 -16.642  -8.879  1.00  0.00     0.091 A 
ATOM     91  F   UNL     1      -8.996 -14.506  -9.854  1.00  0.00    -0.205 F 
ATOM     92  C   UNL     1      -9.422 -17.470  -7.744  1.00  0.00     0.022 A 
BRANCH  90  93
ATOM     93  S   UNL     1     -10.090 -17.349 -10.395  1.00  0.00     0.127 S 
ATOM     94  O   UNL     1      -9.069 -18.343 -10.725  1.00  0.00    -0.237 OA
ATOM     95  O   UNL     1     -11.365 -17.908  -9.949  1.00  0.00    -0.237 OA
ATOM     96  O   UNL     1     -10.206 -16.245 -11.339  1.00  0.00    -0.744 OA
ENDBRANCH  90  93
ENDBRANCH  63  86
ENDBRANCH  37  38
ENDBRANCH  30  32
ENDBRANCH  29  30
ENDBRANCH  28  29
ENDBRANCH   1  28
TORSDOF 20
