REMARK SMILES CCC[C@@H]1C[N@@H+](Cc2cc(OC)c3c(c2)OCO3)C[C@H]1C(=O)OCCOCCOC(=O)c1ccc(-c2c3nc(c(-c4cccc(S(=O)(=O)[O-])c4F)c4ccc([nH]4)c(-c4cccc(S(=O)(=O)[O-])c4F)c4nc(c(-c5cccc(S(=O)(=O)[O-])c5F)c5ccc2[nH]5)C=C4)C=C3)cc1
REMARK SMILES IDX 26 1 25 2 24 3 23 4 21 5 22 6 20 7 4 8 5 9 6 10 19 11 3 13
REMARK SMILES IDX 2 14 1 15 7 16 8 17 9 18 15 19 10 20 14 21 13 22 16 23 18 24
REMARK SMILES IDX 17 25 11 26 12 27 27 28 28 29 29 30 30 31 31 32 32 33 33 34
REMARK SMILES IDX 94 35 34 36 93 37 35 38 36 39 37 40 87 41 38 42 92 43 86 44
REMARK SMILES IDX 88 45 39 46 91 47 85 48 84 49 40 51 72 52 52 53 71 54 53 55
REMARK SMILES IDX 56 56 70 57 89 58 54 59 55 60 69 62 90 63 57 64 41 65 42 66
REMARK SMILES IDX 50 67 43 68 45 69 51 70 44 71 46 72 47 73 48 74 49 75 73 76
REMARK SMILES IDX 74 77 82 78 75 79 77 80 83 81 76 82 78 83 79 84 80 85 81 86
REMARK SMILES IDX 58 87 59 88 67 89 60 90 62 91 68 92 61 93 63 94 64 95 65 96
REMARK SMILES IDX 66 97
REMARK H PARENT 6 12 88 50 56 61
REMARK Flexibility Score: inf
ROOT
ATOM      1  O   UNL     1       0.455   2.585   1.324  1.00  0.00    -0.374 OA
ENDROOT
BRANCH   1   2
ATOM      2  C   UNL     1       0.194   1.928   2.571  1.00  0.00     0.202 C 
BRANCH   2   3
ATOM      3  C   UNL     1      -1.069   1.050   2.570  1.00  0.00     0.261 C 
BRANCH   3   4
ATOM      4  O   UNL     1      -0.829  -0.296   2.077  1.00  0.00    -0.463 OA
BRANCH   4   5
ATOM      5  C   UNL     1      -1.614  -0.742   1.059  1.00  0.00     0.315 C 
ATOM      6  O   UNL     1      -2.359  -0.026   0.398  1.00  0.00    -0.252 OA
BRANCH   5   7
ATOM      7  C   UNL     1      -1.548  -2.249   0.846  1.00  0.00     0.163 C 
ATOM      8  C   UNL     1      -0.196  -2.858   0.475  1.00  0.00     0.064 C 
ATOM      9  C   UNL     1      -0.363  -4.302   0.989  1.00  0.00     0.267 C 
ATOM     10  N   UNL     1      -1.236  -4.257   2.157  1.00  0.00    -0.330 N 
ATOM     11  C   UNL     1      -1.966  -2.985   2.128  1.00  0.00     0.278 C 
ATOM     12  H   UNL     1      -1.918  -5.013   2.099  1.00  0.00     0.348 HD
BRANCH   8  13
ATOM     13  C   UNL     1       0.238  -2.939  -1.010  1.00  0.00     0.010 C 
BRANCH  13  14
ATOM     14  C   UNL     1      -0.286  -1.908  -2.007  1.00  0.00    -0.003 C 
ATOM     15  C   UNL     1       0.664  -0.748  -2.206  1.00  0.00     0.004 C 
ENDBRANCH  13  14
ENDBRANCH   8  13
BRANCH  10  16
ATOM     16  C   UNL     1      -0.590  -4.605   3.432  1.00  0.00     0.299 C 
BRANCH  16  17
ATOM     17  C   UNL     1       0.652  -3.808   3.749  1.00  0.00     0.014 A 
ATOM     18  C   UNL     1       0.531  -2.530   4.322  1.00  0.00     0.060 A 
ATOM     19  C   UNL     1       1.920  -4.278   3.378  1.00  0.00     0.060 A 
ATOM     20  C   UNL     1       1.620  -1.668   4.422  1.00  0.00     0.165 A 
ATOM     21  C   UNL     1       2.988  -3.420   3.499  1.00  0.00     0.170 A 
ATOM     22  C   UNL     1       2.847  -2.140   3.987  1.00  0.00     0.207 A 
ATOM     23  O   UNL     1       4.258  -3.711   3.106  1.00  0.00    -0.453 OA
ATOM     24  O   UNL     1       4.032  -1.475   3.940  1.00  0.00    -0.450 OA
ATOM     25  C   UNL     1       4.928  -2.490   3.455  1.00  0.00     0.468 C 
BRANCH  20  26
ATOM     26  O   UNL     1       1.288  -0.440   4.914  1.00  0.00    -0.493 OA
ATOM     27  C   UNL     1       2.360   0.468   5.049  1.00  0.00     0.278 C 
ENDBRANCH  20  26
ENDBRANCH  16  17
ENDBRANCH  10  16
ENDBRANCH   5   7
ENDBRANCH   4   5
ENDBRANCH   3   4
ENDBRANCH   2   3
ENDBRANCH   1   2
BRANCH   1  28
ATOM     28  C   UNL     1       0.975   1.705   0.335  1.00  0.00     0.202 C 
BRANCH  28  29
ATOM     29  C   UNL     1       2.493   1.764   0.149  1.00  0.00     0.261 C 
BRANCH  29  30
ATOM     30  O   UNL     1       3.205   1.617   1.383  1.00  0.00    -0.460 OA
BRANCH  30  31
ATOM     31  C   UNL     1       3.967   2.676   1.751  1.00  0.00     0.338 C 
ATOM     32  O   UNL     1       4.086   3.749   1.184  1.00  0.00    -0.246 OA
BRANCH  31  33
ATOM     33  C   UNL     1       4.651   2.337   3.011  1.00  0.00     0.060 A 
ATOM     34  C   UNL     1       4.506   3.171   4.124  1.00  0.00     0.016 A 
ATOM     35  C   UNL     1       5.413   1.171   3.095  1.00  0.00     0.016 A 
ATOM     36  C   UNL     1       5.115   2.825   5.337  1.00  0.00     0.010 A 
ATOM     37  C   UNL     1       5.994   0.818   4.313  1.00  0.00     0.010 A 
ATOM     38  C   UNL     1       5.867   1.646   5.442  1.00  0.00    -0.014 A 
BRANCH  38  39
ATOM     39  C   UNL     1       6.630   1.312   6.676  1.00  0.00     0.031 A 
ATOM     40  C   UNL     1       8.135   1.356   6.622  1.00  0.00     0.074 A 
ATOM     41  C   UNL     1       6.017   0.896   7.804  1.00  0.00     0.049 A 
ATOM     42  N   UNL     1       9.001   1.125   7.572  1.00  0.00    -0.248 NA
ATOM     43  C   UNL     1       8.747   1.683   5.321  1.00  0.00     0.031 C 
ATOM     44  C   UNL     1       4.576   0.748   7.986  1.00  0.00     0.029 A 
ATOM     45  N   UNL     1       6.534   0.486   9.009  1.00  0.00    -0.354 N 
ATOM     46  C   UNL     1      10.251   1.268   6.984  1.00  0.00     0.074 A 
ATOM     47  C   UNL     1      10.035   1.524   5.579  1.00  0.00     0.031 C 
ATOM     48  C   UNL     1       4.323   0.216   9.193  1.00  0.00     0.029 A 
ATOM     49  C   UNL     1       5.583   0.053   9.907  1.00  0.00     0.049 A 
ATOM     50  H   UNL     1       7.497   0.501   9.213  1.00  0.00     0.167 HD
ATOM     51  C   UNL     1      11.471   1.260   7.569  1.00  0.00     0.034 A 
ATOM     52  C   UNL     1       5.704  -0.374  11.179  1.00  0.00     0.034 A 
ATOM     53  C   UNL     1      11.676   1.077   8.976  1.00  0.00     0.049 A 
ATOM     54  C   UNL     1       7.059  -0.304  11.832  1.00  0.00     0.074 A 
ATOM     55  C   UNL     1      12.854   1.161   9.695  1.00  0.00     0.029 A 
ATOM     56  N   UNL     1      10.671   0.775   9.882  1.00  0.00    -0.354 N 
ATOM     57  N   UNL     1       8.206   0.056  11.310  1.00  0.00    -0.248 NA
ATOM     58  C   UNL     1       7.125  -0.615  13.268  1.00  0.00     0.031 C 
ATOM     59  C   UNL     1      12.559   0.907  11.039  1.00  0.00     0.029 A 
ATOM     60  C   UNL     1      11.198   0.672  11.155  1.00  0.00     0.049 A 
ATOM     61  H   UNL     1       9.722   0.653   9.652  1.00  0.00     0.167 HD
ATOM     62  C   UNL     1       9.116   0.071  12.360  1.00  0.00     0.074 A 
ATOM     63  C   UNL     1       8.384  -0.308  13.552  1.00  0.00     0.031 C 
ATOM     64  C   UNL     1      10.439   0.365  12.339  1.00  0.00     0.034 A 
BRANCH  51  65
ATOM     65  C   UNL     1      12.653   1.553   6.688  1.00  0.00     0.023 A 
ATOM     66  C   UNL     1      12.831   2.863   6.191  1.00  0.00     0.012 A 
ATOM     67  C   UNL     1      13.580   0.552   6.346  1.00  0.00     0.148 A 
ATOM     68  C   UNL     1      13.883   3.159   5.327  1.00  0.00     0.002 A 
ATOM     69  C   UNL     1      14.652   0.867   5.518  1.00  0.00     0.091 A 
ATOM     70  F   UNL     1      13.382  -0.690   6.809  1.00  0.00    -0.205 F 
ATOM     71  C   UNL     1      14.796   2.164   4.997  1.00  0.00     0.022 A 
BRANCH  69  72
ATOM     72  S   UNL     1      15.921  -0.327   5.082  1.00  0.00     0.127 S 
ATOM     73  O   UNL     1      15.612  -0.585   3.676  1.00  0.00    -0.237 OA
ATOM     74  O   UNL     1      17.150   0.434   5.307  1.00  0.00    -0.237 OA
ATOM     75  O   UNL     1      15.733  -1.457   5.982  1.00  0.00    -0.744 OA
ENDBRANCH  69  72
ENDBRANCH  51  65
BRANCH  52  76
ATOM     76  C   UNL     1       4.494  -0.739  11.972  1.00  0.00     0.023 A 
ATOM     77  C   UNL     1       4.022   0.159  12.951  1.00  0.00     0.012 A 
ATOM     78  C   UNL     1       3.806  -1.951  11.767  1.00  0.00     0.148 A 
ATOM     79  C   UNL     1       2.917  -0.160  13.741  1.00  0.00     0.002 A 
ATOM     80  C   UNL     1       2.681  -2.246  12.533  1.00  0.00     0.091 A 
ATOM     81  F   UNL     1       4.270  -2.795  10.835  1.00  0.00    -0.205 F 
ATOM     82  C   UNL     1       2.244  -1.359  13.529  1.00  0.00     0.022 A 
BRANCH  80  83
ATOM     83  S   UNL     1       1.691  -3.724  12.271  1.00  0.00     0.127 S 
ATOM     84  O   UNL     1       2.052  -4.535  13.431  1.00  0.00    -0.237 OA
ATOM     85  O   UNL     1       0.329  -3.187  12.296  1.00  0.00    -0.237 OA
ATOM     86  O   UNL     1       2.105  -4.247  10.977  1.00  0.00    -0.744 OA
ENDBRANCH  80  83
ENDBRANCH  52  76
BRANCH  64  87
ATOM     87  C   UNL     1      11.188   0.328  13.642  1.00  0.00     0.023 A 
ATOM     88  C   UNL     1      11.510  -0.913  14.224  1.00  0.00     0.012 A 
ATOM     89  C   UNL     1      11.668   1.516  14.226  1.00  0.00     0.148 A 
ATOM     90  C   UNL     1      12.284  -0.970  15.381  1.00  0.00     0.002 A 
ATOM     91  C   UNL     1      12.479   1.449  15.352  1.00  0.00     0.091 A 
ATOM     92  F   UNL     1      11.329   2.688  13.668  1.00  0.00    -0.205 F 
ATOM     93  C   UNL     1      12.781   0.207  15.936  1.00  0.00     0.022 A 
BRANCH  91  94
ATOM     94  S   UNL     1      13.248   2.907  16.066  1.00  0.00     0.127 S 
ATOM     95  O   UNL     1      12.430   3.121  17.259  1.00  0.00    -0.237 OA
ATOM     96  O   UNL     1      14.609   2.443  16.334  1.00  0.00    -0.237 OA
ATOM     97  O   UNL     1      13.156   3.944  15.047  1.00  0.00    -0.744 OA
ENDBRANCH  91  94
ENDBRANCH  64  87
ENDBRANCH  38  39
ENDBRANCH  31  33
ENDBRANCH  30  31
ENDBRANCH  29  30
ENDBRANCH  28  29
ENDBRANCH   1  28
TORSDOF 22
