REMARK SMILES C[C@@]1(C(=O)OCCOCCOC(=O)c2ccc(-c3c4nc(c(-c5cccc(S(=O)(=O)[O-])c5F)c5ccc([nH]5)c(-c5cccc(S(=O)(=O)[O-])c5F)c5nc(c(-c6cccc(S(=O)(=O)[O-])c6F)c6ccc3[nH]6)C=C5)C=C4)cc2)CCCN1c1ncnc2c1CCCCC2
REMARK SMILES IDX 7 1 6 2 5 3 3 4 4 5 2 6 1 7 77 8 80 9 78 10 79 11 81 12
REMARK SMILES IDX 82 13 86 14 83 15 85 16 84 17 87 18 88 19 91 21 90 22 89 23
REMARK SMILES IDX 8 25 9 26 10 27 11 28 12 29 13 30 14 31 15 32 76 33 16 34
REMARK SMILES IDX 75 35 17 36 18 37 19 38 69 39 20 40 74 41 68 42 70 43 21 44
REMARK SMILES IDX 73 45 67 46 66 47 22 49 54 50 34 51 53 52 35 53 38 54 52 55
REMARK SMILES IDX 71 56 36 57 37 58 51 60 72 61 39 62 23 63 24 64 32 65 25 66
REMARK SMILES IDX 27 67 33 68 26 69 28 70 29 71 30 72 31 73 55 74 56 75 64 76
REMARK SMILES IDX 57 77 59 78 65 79 58 80 60 81 61 82 62 83 63 84 40 85 41 86
REMARK SMILES IDX 49 87 42 88 44 89 50 90 43 91 45 92 46 93 47 94 48 95
REMARK H PARENT 70 48 38 59
REMARK Flexibility Score: 80.00
ROOT
ATOM      1  C   UNL     1       3.641  -1.500  -4.404  1.00  0.00     0.202 C 
ENDROOT
BRANCH   1   2
ATOM      2  C   UNL     1       2.177  -1.720  -3.983  1.00  0.00     0.261 C 
BRANCH   2   3
ATOM      3  O   UNL     1       1.544  -0.579  -3.346  1.00  0.00    -0.461 OA
BRANCH   3   4
ATOM      4  C   UNL     1       0.973  -0.830  -2.134  1.00  0.00     0.331 C 
ATOM      5  O   UNL     1       1.038  -1.935  -1.588  1.00  0.00    -0.249 OA
BRANCH   4   6
ATOM      6  C   UNL     1       0.189   0.349  -1.473  1.00  0.00     0.136 C 
ATOM      7  C   UNL     1       0.652   0.360  -0.005  1.00  0.00     0.047 C 
ATOM      8  C   UNL     1      -1.296  -0.030  -1.623  1.00  0.00     0.042 C 
ATOM      9  N   UNL     1       0.275   1.693  -2.179  1.00  0.00    -0.340 N 
ATOM     10  C   UNL     1      -1.609   0.460  -3.029  1.00  0.00     0.025 C 
ATOM     11  C   UNL     1      -0.885   1.802  -3.104  1.00  0.00     0.119 C 
BRANCH   9  12
ATOM     12  C   UNL     1       0.357   2.873  -1.405  1.00  0.00     0.136 A 
ATOM     13  N   UNL     1      -0.502   3.003  -0.378  1.00  0.00    -0.219 NA
ATOM     14  C   UNL     1       1.285   3.884  -1.692  1.00  0.00     0.016 A 
ATOM     15  C   UNL     1      -0.356   4.068   0.417  1.00  0.00     0.224 A 
ATOM     16  C   UNL     1       1.434   4.881  -0.727  1.00  0.00     0.049 A 
ATOM     17  N   UNL     1       0.600   4.994   0.326  1.00  0.00    -0.241 NA
BRANCH  14  18
ATOM     18  C   UNL     1       2.131   3.882  -2.928  1.00  0.00     0.041 C 
BRANCH  18  19
ATOM     19  C   UNL     1       2.179   5.196  -3.714  1.00  0.00     0.005 CG0
ATOM     20  G   UNL     1       3.191   6.186  -3.152  1.00  0.00     0.000 G0
ENDBRANCH  18  19
ENDBRANCH  14  18
BRANCH  16  21
ATOM     21  C   UNL     1       2.632   5.802  -0.696  1.00  0.00     0.057 C 
BRANCH  21  22
ATOM     22  C   UNL     1       2.746   6.806  -1.836  1.00  0.00     0.006 C 
BRANCH  22  23
ATOM     23  C   UNL     1       3.191   6.186  -3.152  1.00  0.00     0.001 CG0
ATOM     24  G   UNL     1       2.179   5.196  -3.714  1.00  0.00     0.000 G0
ENDBRANCH  22  23
ENDBRANCH  21  22
ENDBRANCH  16  21
ENDBRANCH   9  12
ENDBRANCH   4   6
ENDBRANCH   3   4
ENDBRANCH   2   3
ENDBRANCH   1   2
BRANCH   1  25
ATOM     25  O   UNL     1       4.601  -1.291  -3.366  1.00  0.00    -0.374 OA
BRANCH  25  26
ATOM     26  C   UNL     1       4.325  -0.249  -2.441  1.00  0.00     0.202 C 
BRANCH  26  27
ATOM     27  C   UNL     1       4.247   1.171  -3.006  1.00  0.00     0.261 C 
BRANCH  27  28
ATOM     28  O   UNL     1       3.445   1.289  -4.203  1.00  0.00    -0.460 OA
BRANCH  28  29
ATOM     29  C   UNL     1       3.872   2.176  -5.117  1.00  0.00     0.338 C 
ATOM     30  O   UNL     1       4.801   2.981  -4.978  1.00  0.00    -0.246 OA
BRANCH  29  31
ATOM     31  C   UNL     1       3.131   2.065  -6.388  1.00  0.00     0.060 A 
ATOM     32  C   UNL     1       3.745   1.405  -7.459  1.00  0.00     0.016 A 
ATOM     33  C   UNL     1       1.927   2.753  -6.597  1.00  0.00     0.016 A 
ATOM     34  C   UNL     1       3.185   1.481  -8.738  1.00  0.00     0.010 A 
ATOM     35  C   UNL     1       1.373   2.828  -7.881  1.00  0.00     0.010 A 
ATOM     36  C   UNL     1       2.015   2.222  -8.969  1.00  0.00    -0.014 A 
BRANCH  36  37
ATOM     37  C   UNL     1       1.474   2.346 -10.348  1.00  0.00     0.031 A 
ATOM     38  C   UNL     1       1.705   3.586 -11.170  1.00  0.00     0.074 A 
ATOM     39  C   UNL     1       0.767   1.327 -10.871  1.00  0.00     0.049 A 
ATOM     40  N   UNL     1       1.418   3.802 -12.429  1.00  0.00    -0.248 NA
ATOM     41  C   UNL     1       2.333   4.731 -10.493  1.00  0.00     0.031 C 
ATOM     42  C   UNL     1       0.414   0.100 -10.160  1.00  0.00     0.029 A 
ATOM     43  N   UNL     1       0.211   1.169 -12.116  1.00  0.00    -0.354 N 
ATOM     44  C   UNL     1       1.829   5.102 -12.701  1.00  0.00     0.074 A 
ATOM     45  C   UNL     1       2.361   5.637 -11.464  1.00  0.00     0.031 C 
ATOM     46  C   UNL     1      -0.302  -0.687 -10.979  1.00  0.00     0.029 A 
ATOM     47  C   UNL     1      -0.459  -0.021 -12.271  1.00  0.00     0.049 A 
ATOM     48  H   UNL     1       0.286   1.843 -12.830  1.00  0.00     0.167 HD
ATOM     49  C   UNL     1       1.792   5.777 -13.876  1.00  0.00     0.034 A 
ATOM     50  C   UNL     1      -1.115  -0.527 -13.334  1.00  0.00     0.034 A 
ATOM     51  C   UNL     1       1.277   5.240 -15.110  1.00  0.00     0.049 A 
ATOM     52  C   UNL     1      -1.120   0.232 -14.633  1.00  0.00     0.074 A 
ATOM     53  C   UNL     1       1.278   5.821 -16.368  1.00  0.00     0.029 A 
ATOM     54  N   UNL     1       0.654   4.010 -15.243  1.00  0.00    -0.354 N 
ATOM     55  N   UNL     1      -0.552   1.377 -14.921  1.00  0.00    -0.248 NA
ATOM     56  C   UNL     1      -1.820  -0.393 -15.766  1.00  0.00     0.031 C 
ATOM     57  C   UNL     1       0.639   4.948 -17.257  1.00  0.00     0.029 A 
ATOM     58  C   UNL     1       0.252   3.819 -16.555  1.00  0.00     0.049 A 
ATOM     59  H   UNL     1       0.517   3.365 -14.511  1.00  0.00     0.167 HD
ATOM     60  C   UNL     1      -0.800   1.597 -16.272  1.00  0.00     0.074 A 
ATOM     61  C   UNL     1      -1.550   0.454 -16.751  1.00  0.00     0.031 C 
ATOM     62  C   UNL     1      -0.452   2.659 -17.040  1.00  0.00     0.034 A 
BRANCH  49  63
ATOM     63  C   UNL     1       2.389   7.161 -13.915  1.00  0.00     0.023 A 
ATOM     64  C   UNL     1       3.792   7.301 -13.922  1.00  0.00     0.012 A 
ATOM     65  C   UNL     1       1.581   8.307 -14.050  1.00  0.00     0.148 A 
ATOM     66  C   UNL     1       4.381   8.559 -14.042  1.00  0.00     0.002 A 
ATOM     67  C   UNL     1       2.176   9.555 -14.203  1.00  0.00     0.091 A 
ATOM     68  F   UNL     1       0.249   8.158 -14.023  1.00  0.00    -0.205 F 
ATOM     69  C   UNL     1       3.575   9.683 -14.193  1.00  0.00     0.022 A 
BRANCH  67  70
ATOM     70  S   UNL     1       1.221  11.053 -14.476  1.00  0.00     0.127 S 
ATOM     71  O   UNL     1       1.301  11.697 -13.166  1.00  0.00    -0.237 OA
ATOM     72  O   UNL     1       1.983  11.722 -15.531  1.00  0.00    -0.237 OA
ATOM     73  O   UNL     1      -0.106  10.610 -14.880  1.00  0.00    -0.744 OA
ENDBRANCH  67  70
ENDBRANCH  49  63
BRANCH  50  74
ATOM     74  C   UNL     1      -1.753  -1.867 -13.226  1.00  0.00     0.023 A 
ATOM     75  C   UNL     1      -1.183  -2.964 -13.899  1.00  0.00     0.012 A 
ATOM     76  C   UNL     1      -2.885  -2.069 -12.414  1.00  0.00     0.148 A 
ATOM     77  C   UNL     1      -1.741  -4.237 -13.780  1.00  0.00     0.002 A 
ATOM     78  C   UNL     1      -3.402  -3.349 -12.255  1.00  0.00     0.091 A 
ATOM     79  F   UNL     1      -3.425  -1.007 -11.799  1.00  0.00    -0.205 F 
ATOM     80  C   UNL     1      -2.841  -4.432 -12.948  1.00  0.00     0.022 A 
BRANCH  78  81
ATOM     81  S   UNL     1      -4.720  -3.702 -11.086  1.00  0.00     0.127 S 
ATOM     82  O   UNL     1      -5.874  -3.842 -11.969  1.00  0.00    -0.237 OA
ATOM     83  O   UNL     1      -4.258  -4.947 -10.470  1.00  0.00    -0.237 OA
ATOM     84  O   UNL     1      -4.744  -2.564 -10.177  1.00  0.00    -0.744 OA
ENDBRANCH  78  81
ENDBRANCH  50  74
BRANCH  62  85
ATOM     85  C   UNL     1      -0.870   2.641 -18.488  1.00  0.00     0.023 A 
ATOM     86  C   UNL     1      -2.220   2.864 -18.822  1.00  0.00     0.012 A 
ATOM     87  C   UNL     1       0.077   2.469 -19.517  1.00  0.00     0.148 A 
ATOM     88  C   UNL     1      -2.628   2.885 -20.156  1.00  0.00     0.002 A 
ATOM     89  C   UNL     1      -0.330   2.532 -20.846  1.00  0.00     0.091 A 
ATOM     90  F   UNL     1       1.354   2.236 -19.181  1.00  0.00    -0.205 F 
ATOM     91  C   UNL     1      -1.683   2.730 -21.167  1.00  0.00     0.022 A 
BRANCH  89  92
ATOM     92  S   UNL     1       0.833   2.425 -22.212  1.00  0.00     0.127 S 
ATOM     93  O   UNL     1       0.618   1.057 -22.681  1.00  0.00    -0.237 OA
ATOM     94  O   UNL     1       0.348   3.464 -23.121  1.00  0.00    -0.237 OA
ATOM     95  O   UNL     1       2.144   2.694 -21.637  1.00  0.00    -0.744 OA
ENDBRANCH  89  92
ENDBRANCH  62  85
ENDBRANCH  36  37
ENDBRANCH  29  31
ENDBRANCH  28  29
ENDBRANCH  27  28
ENDBRANCH  26  27
ENDBRANCH  25  26
ENDBRANCH   1  25
TORSDOF 18
