REMARK SMILES CC(C)CSc1cc2c(cc1Cl)C=C(C(=O)OCCOCCOC(=O)c1ccc(-c3c4nc(c(-c5cccc(S(=O)(=O)[O-])c5F)c5ccc([nH]5)c(-c5cccc(S(=O)(=O)[O-])c5F)c5nc(c(-c6cccc(S(=O)(=O)[O-])c6F)c6ccc3[nH]6)C=C5)C=C4)cc1)[C@H](C(F)(F)F)O2
REMARK SMILES IDX 20 1 19 2 18 3 17 4 15 5 16 6 14 7 6 8 7 9 11 10 8 11 10 12
REMARK SMILES IDX 12 13 9 14 94 15 13 16 89 17 5 18 4 19 2 20 1 21 3 22 90 23
REMARK SMILES IDX 91 24 92 25 93 26 21 27 22 28 23 29 24 30 25 31 26 32 27 33
REMARK SMILES IDX 88 34 28 35 87 36 29 37 30 38 31 39 81 40 32 41 86 42 80 43
REMARK SMILES IDX 82 44 33 45 85 46 79 47 78 48 34 50 66 51 46 52 65 53 47 54
REMARK SMILES IDX 50 55 64 56 83 57 48 58 49 59 63 61 84 62 51 63 35 64 36 65
REMARK SMILES IDX 44 66 37 67 39 68 45 69 38 70 40 71 41 72 42 73 43 74 67 75
REMARK SMILES IDX 68 76 76 77 69 78 71 79 77 80 70 81 72 82 73 83 74 84 75 85
REMARK SMILES IDX 52 86 53 87 61 88 54 89 56 90 62 91 55 92 57 93 58 94 59 95
REMARK SMILES IDX 60 96
REMARK H PARENT 82 49 50 60
REMARK Flexibility Score: inf
ROOT
ATOM      1  O   UNL     1       0.568   0.014   9.742  1.00  0.00    -0.374 OA
ENDROOT
BRANCH   1   2
ATOM      2  C   UNL     1       1.444   1.065  10.154  1.00  0.00     0.202 C 
BRANCH   2   3
ATOM      3  C   UNL     1       2.576   1.421   9.184  1.00  0.00     0.261 C 
BRANCH   3   4
ATOM      4  O   UNL     1       2.049   1.909   7.939  1.00  0.00    -0.460 OA
BRANCH   4   5
ATOM      5  C   UNL     1       2.181   1.066   6.895  1.00  0.00     0.338 C 
ATOM      6  O   UNL     1       2.857   0.050   6.861  1.00  0.00    -0.246 OA
BRANCH   5   7
ATOM      7  C   UNL     1       1.264   1.457   5.808  1.00  0.00     0.087 C 
ATOM      8  C   UNL     1      -1.218   1.250   1.450  1.00  0.00     0.030 A 
ATOM      9  C   UNL     1      -0.604   2.281   2.189  1.00  0.00     0.063 A 
ATOM     10  C   UNL     1      -1.363  -0.010   2.054  1.00  0.00     0.055 A 
ATOM     11  C   UNL     1      -0.038   2.029   3.439  1.00  0.00     0.129 A 
ATOM     12  C   UNL     1      -0.771  -0.267   3.295  1.00  0.00     0.033 A 
ATOM     13  Cl  UNL     1      -2.256  -1.312   1.348  1.00  0.00    -0.083 Cl
ATOM     14  C   UNL     1      -0.076   0.741   3.966  1.00  0.00     0.019 A 
ATOM     15  O   UNL     1       0.623   3.065   4.044  1.00  0.00    -0.475 OA
ATOM     16  C   UNL     1       0.715   0.433   5.141  1.00  0.00     0.027 C 
ATOM     17  C   UNL     1       1.006   2.897   5.447  1.00  0.00     0.316 C 
BRANCH   8  18
ATOM     18  S   UNL     1      -1.708   1.686  -0.217  1.00  0.00    -0.124 SA
BRANCH  18  19
ATOM     19  C   UNL     1      -0.901   0.411  -1.268  1.00  0.00     0.078 C 
BRANCH  19  20
ATOM     20  C   UNL     1       0.635   0.430  -1.405  1.00  0.00    -0.007 C 
ATOM     21  C   UNL     1       1.396   0.102  -0.121  1.00  0.00     0.008 C 
ATOM     22  C   UNL     1       1.041  -0.593  -2.477  1.00  0.00     0.008 C 
ENDBRANCH  19  20
ENDBRANCH  18  19
ENDBRANCH   8  18
BRANCH  17  23
ATOM     23  C   UNL     1      -0.033   3.598   6.350  1.00  0.00     0.430 C 
ATOM     24  F   UNL     1      -1.145   2.843   6.525  1.00  0.00    -0.167 F 
ATOM     25  F   UNL     1       0.460   3.883   7.576  1.00  0.00    -0.167 F 
ATOM     26  F   UNL     1      -0.433   4.777   5.815  1.00  0.00    -0.167 F 
ENDBRANCH  17  23
ENDBRANCH   5   7
ENDBRANCH   4   5
ENDBRANCH   3   4
ENDBRANCH   2   3
ENDBRANCH   1   2
BRANCH   1  27
ATOM     27  C   UNL     1      -0.502   0.359   8.861  1.00  0.00     0.202 C 
BRANCH  27  28
ATOM     28  C   UNL     1      -1.719   1.067   9.469  1.00  0.00     0.261 C 
BRANCH  28  29
ATOM     29  O   UNL     1      -1.409   2.410   9.876  1.00  0.00    -0.460 OA
BRANCH  29  30
ATOM     30  C   UNL     1      -1.312   2.598  11.216  1.00  0.00     0.338 C 
ATOM     31  O   UNL     1      -1.523   1.768  12.087  1.00  0.00    -0.246 OA
BRANCH  30  32
ATOM     32  C   UNL     1      -0.699   3.916  11.482  1.00  0.00     0.060 A 
ATOM     33  C   UNL     1      -1.113   5.068  10.811  1.00  0.00     0.016 A 
ATOM     34  C   UNL     1       0.316   3.985  12.447  1.00  0.00     0.016 A 
ATOM     35  C   UNL     1      -0.526   6.296  11.132  1.00  0.00     0.010 A 
ATOM     36  C   UNL     1       0.894   5.214  12.771  1.00  0.00     0.010 A 
ATOM     37  C   UNL     1       0.466   6.382  12.128  1.00  0.00    -0.014 A 
BRANCH  37  38
ATOM     38  C   UNL     1       0.958   7.712  12.569  1.00  0.00     0.031 A 
ATOM     39  C   UNL     1       2.346   8.185  12.255  1.00  0.00     0.074 A 
ATOM     40  C   UNL     1       0.128   8.498  13.284  1.00  0.00     0.049 A 
ATOM     41  N   UNL     1       2.878   9.359  12.482  1.00  0.00    -0.248 NA
ATOM     42  C   UNL     1       3.258   7.227  11.611  1.00  0.00     0.031 C 
ATOM     43  C   UNL     1      -1.218   8.120  13.719  1.00  0.00     0.029 A 
ATOM     44  N   UNL     1       0.290   9.772  13.768  1.00  0.00    -0.354 N 
ATOM     45  C   UNL     1       4.184   9.284  12.016  1.00  0.00     0.074 A 
ATOM     46  C   UNL     1       4.375   7.940  11.514  1.00  0.00     0.031 C 
ATOM     47  C   UNL     1      -1.771   9.150  14.378  1.00  0.00     0.029 A 
ATOM     48  C   UNL     1      -0.815  10.252  14.431  1.00  0.00     0.049 A 
ATOM     49  H   UNL     1       1.118  10.292  13.653  1.00  0.00     0.167 HD
ATOM     50  C   UNL     1       5.125  10.257  11.985  1.00  0.00     0.034 A 
ATOM     51  C   UNL     1      -1.043  11.448  15.008  1.00  0.00     0.034 A 
ATOM     52  C   UNL     1       4.928  11.597  12.467  1.00  0.00     0.049 A 
ATOM     53  C   UNL     1       0.013  12.513  14.947  1.00  0.00     0.074 A 
ATOM     54  C   UNL     1       5.806  12.666  12.406  1.00  0.00     0.029 A 
ATOM     55  N   UNL     1       3.789  12.052  13.112  1.00  0.00    -0.354 N 
ATOM     56  N   UNL     1       1.187  12.471  14.365  1.00  0.00    -0.248 NA
ATOM     57  C   UNL     1      -0.290  13.797  15.596  1.00  0.00     0.031 C 
ATOM     58  C   UNL     1       5.207  13.761  13.034  1.00  0.00     0.029 A 
ATOM     59  C   UNL     1       3.948  13.380  13.467  1.00  0.00     0.049 A 
ATOM     60  H   UNL     1       2.987  11.510  13.291  1.00  0.00     0.167 HD
ATOM     61  C   UNL     1       1.754  13.724  14.562  1.00  0.00     0.074 A 
ATOM     62  C   UNL     1       0.791  14.510  15.303  1.00  0.00     0.031 C 
ATOM     63  C   UNL     1       2.971  14.171  14.170  1.00  0.00     0.034 A 
BRANCH  50  64
ATOM     64  C   UNL     1       6.451   9.942  11.348  1.00  0.00     0.023 A 
ATOM     65  C   UNL     1       6.545   9.924   9.942  1.00  0.00     0.012 A 
ATOM     66  C   UNL     1       7.615   9.796  12.126  1.00  0.00     0.148 A 
ATOM     67  C   UNL     1       7.780   9.758   9.318  1.00  0.00     0.002 A 
ATOM     68  C   UNL     1       8.846   9.658  11.496  1.00  0.00     0.091 A 
ATOM     69  F   UNL     1       7.497   9.813  13.461  1.00  0.00    -0.205 F 
ATOM     70  C   UNL     1       8.930   9.636  10.093  1.00  0.00     0.022 A 
BRANCH  68  71
ATOM     71  S   UNL     1      10.396   9.539  12.397  1.00  0.00     0.127 S 
ATOM     72  O   UNL     1      10.841   8.192  12.038  1.00  0.00    -0.237 OA
ATOM     73  O   UNL     1      11.180  10.620  11.801  1.00  0.00    -0.237 OA
ATOM     74  O   UNL     1      10.062   9.723  13.802  1.00  0.00    -0.744 OA
ENDBRANCH  68  71
ENDBRANCH  50  64
BRANCH  51  75
ATOM     75  C   UNL     1      -2.368  11.711  15.630  1.00  0.00     0.023 A 
ATOM     76  C   UNL     1      -3.299  12.521  14.954  1.00  0.00     0.012 A 
ATOM     77  C   UNL     1      -2.733  11.102  16.846  1.00  0.00     0.148 A 
ATOM     78  C   UNL     1      -4.573  12.727  15.482  1.00  0.00     0.002 A 
ATOM     79  C   UNL     1      -4.015  11.281  17.348  1.00  0.00     0.091 A 
ATOM     80  F   UNL     1      -1.826  10.333  17.464  1.00  0.00    -0.205 F 
ATOM     81  C   UNL     1      -4.934  12.100  16.672  1.00  0.00     0.022 A 
BRANCH  79  82
ATOM     82  S   UNL     1      -4.604  10.448  18.826  1.00  0.00     0.127 S 
ATOM     83  O   UNL     1      -4.904  11.577  19.704  1.00  0.00    -0.237 OA
ATOM     84  O   UNL     1      -5.774   9.733  18.318  1.00  0.00    -0.237 OA
ATOM     85  O   UNL     1      -3.509   9.593  19.264  1.00  0.00    -0.744 OA
ENDBRANCH  79  82
ENDBRANCH  51  75
BRANCH  63  86
ATOM     86  C   UNL     1       3.363  15.580  14.521  1.00  0.00     0.023 A 
ATOM     87  C   UNL     1       3.807  15.868  15.825  1.00  0.00     0.012 A 
ATOM     88  C   UNL     1       3.436  16.574  13.525  1.00  0.00     0.148 A 
ATOM     89  C   UNL     1       4.320  17.127  16.134  1.00  0.00     0.002 A 
ATOM     90  C   UNL     1       3.979  17.815  13.831  1.00  0.00     0.091 A 
ATOM     91  F   UNL     1       3.003  16.272  12.292  1.00  0.00    -0.205 F 
ATOM     92  C   UNL     1       4.419  18.094  15.136  1.00  0.00     0.022 A 
BRANCH  90  93
ATOM     93  S   UNL     1       4.214  19.104  12.602  1.00  0.00     0.127 S 
ATOM     94  O   UNL     1       3.332  20.158  13.102  1.00  0.00    -0.237 OA
ATOM     95  O   UNL     1       5.642  19.392  12.728  1.00  0.00    -0.237 OA
ATOM     96  O   UNL     1       3.817  18.524  11.325  1.00  0.00    -0.744 OA
ENDBRANCH  90  93
ENDBRANCH  63  86
ENDBRANCH  37  38
ENDBRANCH  30  32
ENDBRANCH  29  30
ENDBRANCH  28  29
ENDBRANCH  27  28
ENDBRANCH   1  27
TORSDOF 21
