REMARK SMILES C[C@H](CCC[C@@H](C)[NH3+])C(=O)N[C@H]1C=C[C@@H](C(=O)OCCOCCOC(=O)c2ccc(-c3c4nc(c(-c5cccc(S(=O)(=O)[O-])c5F)c5ccc([nH]5)c(-c5cccc(S(=O)(=O)[O-])c5F)c5nc(c(-c6cccc(S(=O)(=O)[O-])c6F)c6ccc3[nH]6)C=C5)C=C4)cc2)C1
REMARK SMILES IDX 19 1 18 2 16 3 17 4 15 5 12 6 13 7 90 8 14 9 11 10 9 11
REMARK SMILES IDX 10 12 2 14 1 15 3 16 4 17 5 18 6 19 7 20 8 21 20 25 21 26
REMARK SMILES IDX 22 27 23 28 24 29 25 30 26 31 27 32 28 33 89 34 29 35 88 36
REMARK SMILES IDX 30 37 31 38 32 39 82 40 33 41 87 42 81 43 83 44 34 45 86 46
REMARK SMILES IDX 80 47 79 48 35 50 67 51 47 52 66 53 48 54 51 55 65 56 84 57
REMARK SMILES IDX 49 58 50 59 64 61 85 62 52 63 36 64 37 65 45 66 38 67 40 68
REMARK SMILES IDX 46 69 39 70 41 71 42 72 43 73 44 74 68 75 69 76 77 77 70 78
REMARK SMILES IDX 72 79 78 80 71 81 73 82 74 83 75 84 76 85 53 86 54 87 62 88
REMARK SMILES IDX 55 89 57 90 63 91 56 92 58 93 59 94 60 95 61 96
REMARK H PARENT 11 13 8 22 8 23 8 24 83 49 51 60
REMARK Flexibility Score: inf
ROOT
ATOM      1  C   UNL     1       1.201  -4.237   0.688  1.00  0.00     0.261 C 
ENDROOT
BRANCH   1   2
ATOM      2  O   UNL     1       0.646  -3.248  -0.191  1.00  0.00    -0.463 OA
BRANCH   2   3
ATOM      3  C   UNL     1       1.368  -2.916  -1.292  1.00  0.00     0.312 C 
ATOM      4  O   UNL     1       2.549  -3.192  -1.465  1.00  0.00    -0.252 OA
BRANCH   3   5
ATOM      5  C   UNL     1       0.468  -2.312  -2.375  1.00  0.00     0.124 C 
ATOM      6  C   UNL     1      -1.075  -0.421  -2.603  1.00  0.00     0.106 C 
ATOM      7  C   UNL     1       0.255  -0.099  -3.167  1.00  0.00    -0.006 C 
ATOM      8  C   UNL     1      -0.878  -1.753  -1.883  1.00  0.00     0.048 C 
ATOM      9  C   UNL     1       1.098  -1.134  -3.062  1.00  0.00    -0.014 C 
BRANCH   6  10
ATOM     10  N   UNL     1      -1.685   0.584  -1.761  1.00  0.00    -0.350 N 
ATOM     11  C   UNL     1      -1.321   1.323  -0.687  1.00  0.00     0.223 C 
ATOM     12  O   UNL     1      -2.261   1.746  -0.004  1.00  0.00    -0.275 OA
ATOM     13  H   UNL     1      -2.607   0.783  -2.043  1.00  0.00     0.164 HD
BRANCH  11  14
ATOM     14  C   UNL     1       0.107   1.747  -0.352  1.00  0.00     0.075 C 
ATOM     15  C   UNL     1       0.677   2.636  -1.460  1.00  0.00     0.018 C 
BRANCH  14  16
ATOM     16  C   UNL     1       1.027   0.609   0.109  1.00  0.00     0.013 C 
BRANCH  16  17
ATOM     17  C   UNL     1       2.432   1.040   0.559  1.00  0.00     0.007 C 
BRANCH  17  18
ATOM     18  C   UNL     1       2.476   1.821   1.875  1.00  0.00     0.064 C 
BRANCH  18  19
ATOM     19  C   UNL     1       2.124   0.992   3.123  1.00  0.00     0.177 C 
ATOM     20  C   UNL     1       3.202  -0.036   3.463  1.00  0.00     0.075 C 
BRANCH  19  21
ATOM     21  N   UNL     1       1.930   1.918   4.225  1.00  0.00    -0.355 N 
ATOM     22  H   UNL     1       2.792   2.440   4.386  1.00  0.00     0.344 HD
ATOM     23  H   UNL     1       1.685   1.398   5.067  1.00  0.00     0.344 HD
ATOM     24  H   UNL     1       1.178   2.568   3.995  1.00  0.00     0.344 HD
ENDBRANCH  19  21
ENDBRANCH  18  19
ENDBRANCH  17  18
ENDBRANCH  16  17
ENDBRANCH  14  16
ENDBRANCH  11  14
ENDBRANCH   6  10
ENDBRANCH   3   5
ENDBRANCH   2   3
ENDBRANCH   1   2
BRANCH   1  25
ATOM     25  C   UNL     1       0.104  -5.240   1.065  1.00  0.00     0.202 C 
BRANCH  25  26
ATOM     26  O   UNL     1      -0.399  -6.046  -0.007  1.00  0.00    -0.374 OA
BRANCH  26  27
ATOM     27  C   UNL     1      -1.266  -5.421  -0.953  1.00  0.00     0.202 C 
BRANCH  27  28
ATOM     28  C   UNL     1      -2.725  -5.201  -0.535  1.00  0.00     0.261 C 
BRANCH  28  29
ATOM     29  O   UNL     1      -2.857  -4.390   0.642  1.00  0.00    -0.460 OA
BRANCH  29  30
ATOM     30  C   UNL     1      -3.247  -5.077   1.743  1.00  0.00     0.338 C 
ATOM     31  O   UNL     1      -3.557  -6.262   1.794  1.00  0.00    -0.246 OA
BRANCH  30  32
ATOM     32  C   UNL     1      -3.100  -4.259   2.959  1.00  0.00     0.060 A 
ATOM     33  C   UNL     1      -2.418  -4.843   4.034  1.00  0.00     0.016 A 
ATOM     34  C   UNL     1      -3.690  -2.999   3.094  1.00  0.00     0.016 A 
ATOM     35  C   UNL     1      -2.388  -4.204   5.270  1.00  0.00     0.010 A 
ATOM     36  C   UNL     1      -3.659  -2.359   4.340  1.00  0.00     0.010 A 
ATOM     37  C   UNL     1      -3.050  -2.982   5.444  1.00  0.00    -0.014 A 
BRANCH  37  38
ATOM     38  C   UNL     1      -3.215  -2.453   6.821  1.00  0.00     0.031 A 
ATOM     39  C   UNL     1      -4.523  -2.658   7.538  1.00  0.00     0.074 A 
ATOM     40  C   UNL     1      -2.188  -1.855   7.451  1.00  0.00     0.049 A 
ATOM     41  N   UNL     1      -4.846  -2.365   8.771  1.00  0.00    -0.248 NA
ATOM     42  C   UNL     1      -5.611  -3.280   6.765  1.00  0.00     0.031 C 
ATOM     43  C   UNL     1      -0.875  -1.594   6.864  1.00  0.00     0.029 A 
ATOM     44  N   UNL     1      -2.093  -1.355   8.726  1.00  0.00    -0.354 N 
ATOM     45  C   UNL     1      -6.175  -2.746   8.917  1.00  0.00     0.074 A 
ATOM     46  C   UNL     1      -6.605  -3.275   7.641  1.00  0.00     0.031 C 
ATOM     47  C   UNL     1      -0.106  -0.972   7.774  1.00  0.00     0.029 A 
ATOM     48  C   UNL     1      -0.876  -0.779   9.002  1.00  0.00     0.049 A 
ATOM     49  H   UNL     1      -2.827  -1.404   9.380  1.00  0.00     0.167 HD
ATOM     50  C   UNL     1      -6.960  -2.685  10.019  1.00  0.00     0.034 A 
ATOM     51  C   UNL     1      -0.435  -0.164  10.118  1.00  0.00     0.034 A 
ATOM     52  C   UNL     1      -6.526  -2.179  11.294  1.00  0.00     0.049 A 
ATOM     53  C   UNL     1      -1.331  -0.105  11.328  1.00  0.00     0.074 A 
ATOM     54  C   UNL     1      -7.233  -2.119  12.482  1.00  0.00     0.029 A 
ATOM     55  N   UNL     1      -5.276  -1.637  11.545  1.00  0.00    -0.354 N 
ATOM     56  N   UNL     1      -2.537  -0.595  11.490  1.00  0.00    -0.248 NA
ATOM     57  C   UNL     1      -0.789   0.556  12.525  1.00  0.00     0.031 C 
ATOM     58  C   UNL     1      -6.416  -1.520  13.447  1.00  0.00     0.029 A 
ATOM     59  C   UNL     1      -5.191  -1.231  12.866  1.00  0.00     0.049 A 
ATOM     60  H   UNL     1      -4.554  -1.552  10.881  1.00  0.00     0.167 HD
ATOM     61  C   UNL     1      -2.881  -0.337  12.813  1.00  0.00     0.074 A 
ATOM     62  C   UNL     1      -1.746   0.333  13.415  1.00  0.00     0.031 C 
ATOM     63  C   UNL     1      -4.036  -0.617  13.468  1.00  0.00     0.034 A 
BRANCH  50  64
ATOM     64  C   UNL     1      -8.367  -3.214   9.905  1.00  0.00     0.023 A 
ATOM     65  C   UNL     1      -8.582  -4.606   9.830  1.00  0.00     0.012 A 
ATOM     66  C   UNL     1      -9.474  -2.344   9.928  1.00  0.00     0.148 A 
ATOM     67  C   UNL     1      -9.875  -5.121   9.749  1.00  0.00     0.002 A 
ATOM     68  C   UNL     1     -10.761  -2.868   9.890  1.00  0.00     0.091 A 
ATOM     69  F   UNL     1      -9.249  -1.023   9.976  1.00  0.00    -0.205 F 
ATOM     70  C   UNL     1     -10.963  -4.254   9.790  1.00  0.00     0.022 A 
BRANCH  68  71
ATOM     71  S   UNL     1     -12.229  -1.839  10.012  1.00  0.00     0.127 S 
ATOM     72  O   UNL     1     -12.748  -1.901   8.647  1.00  0.00    -0.237 OA
ATOM     73  O   UNL     1     -13.030  -2.561  11.002  1.00  0.00    -0.237 OA
ATOM     74  O   UNL     1     -11.765  -0.529  10.448  1.00  0.00    -0.744 OA
ENDBRANCH  68  71
ENDBRANCH  50  64
BRANCH  51  75
ATOM     75  C   UNL     1       0.947   0.394  10.162  1.00  0.00     0.023 A 
ATOM     76  C   UNL     1       1.915  -0.204  10.992  1.00  0.00     0.012 A 
ATOM     77  C   UNL     1       1.311   1.501   9.371  1.00  0.00     0.148 A 
ATOM     78  C   UNL     1       3.211   0.309  11.057  1.00  0.00     0.002 A 
ATOM     79  C   UNL     1       2.619   1.969   9.395  1.00  0.00     0.091 A 
ATOM     80  F   UNL     1       0.372   2.064   8.598  1.00  0.00    -0.205 F 
ATOM     81  C   UNL     1       3.566   1.388  10.252  1.00  0.00     0.022 A 
BRANCH  79  82
ATOM     82  S   UNL     1       3.204   3.255   8.287  1.00  0.00     0.127 S 
ATOM     83  O   UNL     1       3.479   4.349   9.214  1.00  0.00    -0.237 OA
ATOM     84  O   UNL     1       4.388   2.628   7.699  1.00  0.00    -0.237 OA
ATOM     85  O   UNL     1       2.120   3.479   7.343  1.00  0.00    -0.744 OA
ENDBRANCH  79  82
ENDBRANCH  51  75
BRANCH  63  86
ATOM     86  C   UNL     1      -4.124  -0.235  14.924  1.00  0.00     0.023 A 
ATOM     87  C   UNL     1      -4.238   1.121  15.288  1.00  0.00     0.012 A 
ATOM     88  C   UNL     1      -4.157  -1.224  15.927  1.00  0.00     0.148 A 
ATOM     89  C   UNL     1      -4.343   1.490  16.629  1.00  0.00     0.002 A 
ATOM     90  C   UNL     1      -4.311  -0.852  17.258  1.00  0.00     0.091 A 
ATOM     91  F   UNL     1      -4.028  -2.509  15.566  1.00  0.00    -0.205 F 
ATOM     92  C   UNL     1      -4.391   0.504  17.612  1.00  0.00     0.022 A 
BRANCH  90  93
ATOM     93  S   UNL     1      -4.478  -2.062  18.576  1.00  0.00     0.127 S 
ATOM     94  O   UNL     1      -3.149  -2.029  19.182  1.00  0.00    -0.237 OA
ATOM     95  O   UNL     1      -5.539  -1.482  19.402  1.00  0.00    -0.237 OA
ATOM     96  O   UNL     1      -4.843  -3.312  17.923  1.00  0.00    -0.744 OA
ENDBRANCH  90  93
ENDBRANCH  63  86
ENDBRANCH  37  38
ENDBRANCH  30  32
ENDBRANCH  29  30
ENDBRANCH  28  29
ENDBRANCH  27  28
ENDBRANCH  26  27
ENDBRANCH  25  26
ENDBRANCH   1  25
TORSDOF 24
