REMARK SMILES CCC([NH3+])(CC)C(=O)N1CCC(CC(=O)OCCOCCOC(=O)c2ccc(-c3c4nc(c(-c5cccc(S(=O)(=O)[O-])c5F)c5ccc([nH]5)c(-c5cccc(S(=O)(=O)[O-])c5F)c5nc(c(-c6cccc(S(=O)(=O)[O-])c6F)c6ccc3[nH]6)C=C5)C=C4)cc2)CC1
REMARK SMILES IDX 19 1 18 2 17 3 16 4 14 5 15 6 13 7 12 8 7 9 8 10 9 11 10 12
REMARK SMILES IDX 89 13 11 14 88 15 3 16 2 17 1 18 4 19 5 23 6 24 20 25 21 26
REMARK SMILES IDX 22 27 23 28 24 29 25 30 26 31 87 32 27 33 86 34 28 35 29 36
REMARK SMILES IDX 30 37 80 38 31 39 85 40 79 41 81 42 32 43 84 44 78 45 77 46
REMARK SMILES IDX 33 48 65 49 45 50 64 51 46 52 49 53 63 54 82 55 47 56 48 57
REMARK SMILES IDX 62 59 83 60 50 61 34 62 35 63 43 64 36 65 38 66 44 67 37 68
REMARK SMILES IDX 39 69 40 70 41 71 42 72 66 73 67 74 75 75 68 76 70 77 76 78
REMARK SMILES IDX 69 79 71 80 72 81 73 82 74 83 51 84 52 85 60 86 53 87 55 88
REMARK SMILES IDX 61 89 54 90 56 91 57 92 58 93 59 94
REMARK H PARENT 4 20 4 21 4 22 81 47 49 58
REMARK Flexibility Score: inf
ROOT
ATOM      1  O   UNL     1       9.397  -2.733   6.739  1.00  0.00    -0.374 OA
ENDROOT
BRANCH   1   2
ATOM      2  C   UNL     1       9.850  -2.113   5.535  1.00  0.00     0.202 C 
BRANCH   2   3
ATOM      3  C   UNL     1       9.837  -2.982   4.275  1.00  0.00     0.261 C 
BRANCH   3   4
ATOM      4  O   UNL     1       8.491  -3.228   3.829  1.00  0.00    -0.463 OA
BRANCH   4   5
ATOM      5  C   UNL     1       8.052  -4.508   3.900  1.00  0.00     0.306 C 
ATOM      6  O   UNL     1       8.728  -5.463   4.263  1.00  0.00    -0.252 OA
BRANCH   5   7
ATOM      7  C   UNL     1       6.614  -4.660   3.449  1.00  0.00     0.126 C 
BRANCH   7   8
ATOM      8  C   UNL     1       5.595  -3.580   3.875  1.00  0.00     0.003 C 
ATOM      9  C   UNL     1       2.687  -1.888   1.843  1.00  0.00     0.283 C 
ATOM     10  O   UNL     1       3.397  -1.772   0.842  1.00  0.00    -0.268 OA
ATOM     11  N   UNL     1       3.273  -1.974   3.112  1.00  0.00    -0.337 N 
ATOM     12  C   UNL     1       4.564  -1.320   3.296  1.00  0.00     0.120 C 
ATOM     13  C   UNL     1       3.080  -3.115   3.992  1.00  0.00     0.120 C 
ATOM     14  C   UNL     1       5.726  -2.283   3.051  1.00  0.00     0.026 C 
ATOM     15  C   UNL     1       4.169  -4.161   3.737  1.00  0.00     0.026 C 
BRANCH   9  16
ATOM     16  C   UNL     1       1.110  -1.828   1.741  1.00  0.00     0.173 C 
BRANCH  16  17
ATOM     17  C   UNL     1       0.682  -1.287   0.340  1.00  0.00     0.075 C 
ATOM     18  C   UNL     1       1.077   0.148  -0.001  1.00  0.00     0.011 C 
ENDBRANCH  16  17
BRANCH  16  19
ATOM     19  N   UNL     1       0.606  -0.907   2.800  1.00  0.00    -0.345 N 
ATOM     20  H   UNL     1      -0.411  -0.856   2.750  1.00  0.00     0.345 HD
ATOM     21  H   UNL     1       1.001   0.023   2.658  1.00  0.00     0.345 HD
ATOM     22  H   UNL     1       0.884  -1.258   3.716  1.00  0.00     0.345 HD
ENDBRANCH  16  19
BRANCH  16  23
ATOM     23  C   UNL     1       0.397  -3.186   1.956  1.00  0.00     0.075 C 
ATOM     24  C   UNL     1       0.950  -4.335   1.123  1.00  0.00     0.011 C 
ENDBRANCH  16  23
ENDBRANCH   9  16
ENDBRANCH   7   8
ENDBRANCH   5   7
ENDBRANCH   4   5
ENDBRANCH   3   4
ENDBRANCH   2   3
ENDBRANCH   1   2
BRANCH   1  25
ATOM     25  C   UNL     1       7.989  -2.885   6.903  1.00  0.00     0.202 C 
BRANCH  25  26
ATOM     26  C   UNL     1       7.208  -1.641   7.346  1.00  0.00     0.261 C 
BRANCH  26  27
ATOM     27  O   UNL     1       7.204  -0.605   6.348  1.00  0.00    -0.460 OA
BRANCH  27  28
ATOM     28  C   UNL     1       7.996   0.457   6.634  1.00  0.00     0.338 C 
ATOM     29  O   UNL     1       8.643   0.639   7.658  1.00  0.00    -0.246 OA
BRANCH  28  30
ATOM     30  C   UNL     1       8.135   1.320   5.447  1.00  0.00     0.060 A 
ATOM     31  C   UNL     1       9.432   1.665   5.042  1.00  0.00     0.016 A 
ATOM     32  C   UNL     1       7.023   1.835   4.779  1.00  0.00     0.016 A 
ATOM     33  C   UNL     1       9.623   2.566   3.996  1.00  0.00     0.010 A 
ATOM     34  C   UNL     1       7.217   2.742   3.733  1.00  0.00     0.010 A 
ATOM     35  C   UNL     1       8.515   3.140   3.362  1.00  0.00    -0.014 A 
BRANCH  35  36
ATOM     36  C   UNL     1       8.700   4.258   2.406  1.00  0.00     0.031 A 
ATOM     37  C   UNL     1       8.413   5.662   2.861  1.00  0.00     0.074 A 
ATOM     38  C   UNL     1       9.093   4.025   1.141  1.00  0.00     0.049 A 
ATOM     39  N   UNL     1       8.435   6.777   2.180  1.00  0.00    -0.248 NA
ATOM     40  C   UNL     1       8.042   5.828   4.276  1.00  0.00     0.031 C 
ATOM     41  C   UNL     1       9.421   2.713   0.587  1.00  0.00     0.029 A 
ATOM     42  N   UNL     1       9.258   4.889   0.088  1.00  0.00    -0.354 N 
ATOM     43  C   UNL     1       8.040   7.771   3.067  1.00  0.00     0.074 A 
ATOM     44  C   UNL     1       7.777   7.125   4.335  1.00  0.00     0.031 C 
ATOM     45  C   UNL     1       9.727   2.856  -0.713  1.00  0.00     0.029 A 
ATOM     46  C   UNL     1       9.584   4.261  -1.089  1.00  0.00     0.049 A 
ATOM     47  H   UNL     1       9.152   5.865   0.169  1.00  0.00     0.167 HD
ATOM     48  C   UNL     1       7.916   9.103   2.850  1.00  0.00     0.034 A 
ATOM     49  C   UNL     1       9.727   4.761  -2.333  1.00  0.00     0.034 A 
ATOM     50  C   UNL     1       8.194   9.742   1.592  1.00  0.00     0.049 A 
ATOM     51  C   UNL     1       9.542   6.238  -2.560  1.00  0.00     0.074 A 
ATOM     52  C   UNL     1       8.155  11.091   1.285  1.00  0.00     0.029 A 
ATOM     53  N   UNL     1       8.543   9.077   0.426  1.00  0.00    -0.354 N 
ATOM     54  N   UNL     1       9.276   7.182  -1.690  1.00  0.00    -0.248 NA
ATOM     55  C   UNL     1       9.705   6.722  -3.939  1.00  0.00     0.031 C 
ATOM     56  C   UNL     1       8.442  11.237  -0.077  1.00  0.00     0.029 A 
ATOM     57  C   UNL     1       8.701   9.983  -0.609  1.00  0.00     0.049 A 
ATOM     58  H   UNL     1       8.662   8.103   0.346  1.00  0.00     0.167 HD
ATOM     59  C   UNL     1       9.282   8.376  -2.405  1.00  0.00     0.074 A 
ATOM     60  C   UNL     1       9.587   8.034  -3.780  1.00  0.00     0.031 C 
ATOM     61  C   UNL     1       9.052   9.638  -1.964  1.00  0.00     0.034 A 
BRANCH  48  62
ATOM     62  C   UNL     1       7.456   9.953   4.007  1.00  0.00     0.023 A 
ATOM     63  C   UNL     1       8.309  10.163   5.111  1.00  0.00     0.012 A 
ATOM     64  C   UNL     1       6.183  10.556   3.996  1.00  0.00     0.148 A 
ATOM     65  C   UNL     1       7.884  10.916   6.205  1.00  0.00     0.002 A 
ATOM     66  C   UNL     1       5.785  11.346   5.068  1.00  0.00     0.091 A 
ATOM     67  F   UNL     1       5.374  10.327   2.951  1.00  0.00    -0.205 F 
ATOM     68  C   UNL     1       6.627  11.514   6.180  1.00  0.00     0.022 A 
BRANCH  66  69
ATOM     69  S   UNL     1       4.217  12.221   5.088  1.00  0.00     0.127 S 
ATOM     70  O   UNL     1       3.433  11.402   6.011  1.00  0.00    -0.237 OA
ATOM     71  O   UNL     1       4.600  13.533   5.612  1.00  0.00    -0.237 OA
ATOM     72  O   UNL     1       3.752  12.236   3.708  1.00  0.00    -0.744 OA
ENDBRANCH  66  69
ENDBRANCH  48  62
BRANCH  49  73
ATOM     73  C   UNL     1      10.120   3.858  -3.451  1.00  0.00     0.023 A 
ATOM     74  C   UNL     1      11.412   3.970  -4.001  1.00  0.00     0.012 A 
ATOM     75  C   UNL     1       9.245   2.871  -3.945  1.00  0.00     0.148 A 
ATOM     76  C   UNL     1      11.820   3.129  -5.036  1.00  0.00     0.002 A 
ATOM     77  C   UNL     1       9.675   2.003  -4.941  1.00  0.00     0.091 A 
ATOM     78  F   UNL     1       8.018   2.789  -3.412  1.00  0.00    -0.205 F 
ATOM     79  C   UNL     1      10.957   2.140  -5.499  1.00  0.00     0.022 A 
BRANCH  77  80
ATOM     80  S   UNL     1       8.684   0.623  -5.523  1.00  0.00     0.127 S 
ATOM     81  O   UNL     1       8.480   0.971  -6.927  1.00  0.00    -0.237 OA
ATOM     82  O   UNL     1       9.585  -0.507  -5.292  1.00  0.00    -0.237 OA
ATOM     83  O   UNL     1       7.484   0.621  -4.698  1.00  0.00    -0.744 OA
ENDBRANCH  77  80
ENDBRANCH  49  73
BRANCH  61  84
ATOM     84  C   UNL     1       9.168  10.764  -2.962  1.00  0.00     0.023 A 
ATOM     85  C   UNL     1       8.183  10.934  -3.954  1.00  0.00     0.012 A 
ATOM     86  C   UNL     1      10.217  11.700  -2.863  1.00  0.00     0.148 A 
ATOM     87  C   UNL     1       8.257  11.999  -4.852  1.00  0.00     0.002 A 
ATOM     88  C   UNL     1      10.256  12.788  -3.728  1.00  0.00     0.091 A 
ATOM     89  F   UNL     1      11.156  11.512  -1.924  1.00  0.00    -0.205 F 
ATOM     90  C   UNL     1       9.285  12.932  -4.731  1.00  0.00     0.022 A 
BRANCH  88  91
ATOM     91  S   UNL     1      11.484  14.092  -3.582  1.00  0.00     0.127 S 
ATOM     92  O   UNL     1      12.318  13.849  -4.758  1.00  0.00    -0.237 OA
ATOM     93  O   UNL     1      10.663  15.300  -3.656  1.00  0.00    -0.237 OA
ATOM     94  O   UNL     1      12.140  13.885  -2.298  1.00  0.00    -0.744 OA
ENDBRANCH  88  91
ENDBRANCH  61  84
ENDBRANCH  35  36
ENDBRANCH  28  30
ENDBRANCH  27  28
ENDBRANCH  26  27
ENDBRANCH  25  26
ENDBRANCH   1  25
TORSDOF 22
