REMARK SMILES CC[C@](C)(NC(=O)CNC(=O)c1cccc(Cl)c1)C(=O)OCCOCCOC(=O)c1ccc(-c2c3nc(c(-c4cccc(S(=O)(=O)[O-])c4F)c4ccc([nH]4)c(-c4cccc(S(=O)(=O)[O-])c4F)c4nc(c(-c5cccc(S(=O)(=O)[O-])c5F)c5ccc2[nH]5)C=C4)C=C3)cc1
REMARK SMILES IDX 23 1 22 2 21 3 19 4 20 5 3 6 4 7 2 8 1 9 5 10 6 11 7 13 8 14
REMARK SMILES IDX 9 15 10 16 11 18 12 19 13 20 18 21 14 22 16 23 15 24 17 25
REMARK SMILES IDX 24 26 25 27 26 28 27 29 28 30 29 31 30 32 31 33 92 34 32 35
REMARK SMILES IDX 91 36 33 37 34 38 35 39 85 40 36 41 90 42 84 43 86 44 37 45
REMARK SMILES IDX 89 46 83 47 82 48 38 50 70 51 50 52 69 53 51 54 54 55 68 56
REMARK SMILES IDX 87 57 52 58 53 59 67 61 88 62 55 63 39 64 40 65 48 66 41 67
REMARK SMILES IDX 43 68 49 69 42 70 44 71 45 72 46 73 47 74 71 75 72 76 80 77
REMARK SMILES IDX 73 78 75 79 81 80 74 81 76 82 77 83 78 84 79 85 56 86 57 87
REMARK SMILES IDX 65 88 58 89 60 90 66 91 59 92 61 93 62 94 63 95 64 96
REMARK H PARENT 5 12 9 17 86 49 54 60
REMARK Flexibility Score: inf
ROOT
ATOM      1  C   UNL     1       5.123   0.589  -4.076  1.00  0.00     0.202 C 
ENDROOT
BRANCH   1   2
ATOM      2  C   UNL     1       4.170  -0.617  -4.591  1.00  0.00     0.261 C 
BRANCH   2   3
ATOM      3  O   UNL     1       3.036  -1.377  -3.765  1.00  0.00    -0.462 OA
BRANCH   3   4
ATOM      4  C   UNL     1       1.991  -1.894  -3.081  1.00  0.00     0.331 C 
ATOM      5  O   UNL     1       2.139  -3.057  -2.682  1.00  0.00    -0.249 OA
BRANCH   4   6
ATOM      6  C   UNL     1       0.594  -1.163  -2.654  1.00  0.00     0.135 C 
ATOM      7  C   UNL     1       0.544  -0.524  -1.231  1.00  0.00     0.047 C 
BRANCH   6   8
ATOM      8  C   UNL     1      -0.524  -2.287  -2.610  1.00  0.00     0.037 C 
ATOM      9  C   UNL     1      -1.832  -1.936  -1.874  1.00  0.00     0.007 C 
ENDBRANCH   6   8
BRANCH   6  10
ATOM     10  N   UNL     1       0.141  -0.149  -3.580  1.00  0.00    -0.339 N 
ATOM     11  C   UNL     1       0.715   1.066  -3.693  1.00  0.00     0.240 C 
ATOM     12  H   UNL     1      -0.628  -0.356  -4.160  1.00  0.00     0.164 HD
ATOM     13  O   UNL     1       0.167   1.926  -4.384  1.00  0.00    -0.273 OA
BRANCH  11  14
ATOM     14  C   UNL     1       2.151   1.224  -3.192  1.00  0.00     0.216 C 
BRANCH  14  15
ATOM     15  N   UNL     1       2.878   0.939  -1.862  1.00  0.00    -0.343 N 
ATOM     16  C   UNL     1       3.715   0.150  -1.076  1.00  0.00     0.251 C 
ATOM     17  H   UNL     1       2.625   1.689  -1.276  1.00  0.00     0.164 HD
ATOM     18  O   UNL     1       4.117   0.724  -0.053  1.00  0.00    -0.269 OA
BRANCH  16  19
ATOM     19  C   UNL     1       4.130  -1.296  -1.139  1.00  0.00     0.041 A 
ATOM     20  C   UNL     1       5.246  -1.812  -1.823  1.00  0.00     0.014 A 
ATOM     21  C   UNL     1       3.531  -2.176  -0.225  1.00  0.00     0.034 A 
ATOM     22  C   UNL     1       5.569  -3.180  -1.828  1.00  0.00     0.002 A 
ATOM     23  C   UNL     1       3.879  -3.537  -0.184  1.00  0.00     0.041 A 
ATOM     24  C   UNL     1       4.861  -4.055  -1.022  1.00  0.00     0.020 A 
ATOM     25  Cl  UNL     1       3.088  -4.586   0.930  1.00  0.00    -0.084 Cl
ENDBRANCH  16  19
ENDBRANCH  14  15
ENDBRANCH  11  14
ENDBRANCH   6  10
ENDBRANCH   4   6
ENDBRANCH   3   4
ENDBRANCH   2   3
ENDBRANCH   1   2
BRANCH   1  26
ATOM     26  O   UNL     1       4.519   1.754  -3.545  1.00  0.00    -0.374 OA
BRANCH  26  27
ATOM     27  C   UNL     1       4.911   3.069  -3.905  1.00  0.00     0.202 C 
BRANCH  27  28
ATOM     28  C   UNL     1       4.105   3.579  -5.110  1.00  0.00     0.261 C 
BRANCH  28  29
ATOM     29  O   UNL     1       4.220   2.689  -6.225  1.00  0.00    -0.460 OA
BRANCH  29  30
ATOM     30  C   UNL     1       5.465   2.613  -6.734  1.00  0.00     0.338 C 
ATOM     31  O   UNL     1       6.414   3.348  -6.456  1.00  0.00    -0.246 OA
BRANCH  30  32
ATOM     32  C   UNL     1       5.600   1.327  -7.433  1.00  0.00     0.060 A 
ATOM     33  C   UNL     1       6.753   0.567  -7.177  1.00  0.00     0.016 A 
ATOM     34  C   UNL     1       4.588   0.835  -8.259  1.00  0.00     0.016 A 
ATOM     35  C   UNL     1       6.917  -0.672  -7.779  1.00  0.00     0.010 A 
ATOM     36  C   UNL     1       4.773  -0.389  -8.899  1.00  0.00     0.010 A 
ATOM     37  C   UNL     1       5.956  -1.122  -8.690  1.00  0.00    -0.014 A 
BRANCH  37  38
ATOM     38  C   UNL     1       6.316  -2.202  -9.629  1.00  0.00     0.031 A 
ATOM     39  C   UNL     1       6.957  -1.800 -10.928  1.00  0.00     0.074 A 
ATOM     40  C   UNL     1       6.071  -3.493  -9.354  1.00  0.00     0.049 A 
ATOM     41  N   UNL     1       7.306  -2.546 -11.939  1.00  0.00    -0.248 NA
ATOM     42  C   UNL     1       7.243  -0.364 -11.108  1.00  0.00     0.031 C 
ATOM     43  C   UNL     1       5.475  -4.004  -8.122  1.00  0.00     0.029 A 
ATOM     44  N   UNL     1       6.267  -4.609 -10.127  1.00  0.00    -0.354 N 
ATOM     45  C   UNL     1       7.815  -1.672 -12.889  1.00  0.00     0.074 A 
ATOM     46  C   UNL     1       7.746  -0.340 -12.332  1.00  0.00     0.031 C 
ATOM     47  C   UNL     1       5.304  -5.333  -8.245  1.00  0.00     0.029 A 
ATOM     48  C   UNL     1       5.750  -5.755  -9.572  1.00  0.00     0.049 A 
ATOM     49  H   UNL     1       6.732  -4.590 -10.995  1.00  0.00     0.167 HD
ATOM     50  C   UNL     1       8.298  -1.953 -14.118  1.00  0.00     0.034 A 
ATOM     51  C   UNL     1       5.614  -6.988 -10.100  1.00  0.00     0.034 A 
ATOM     52  C   UNL     1       8.383  -3.273 -14.670  1.00  0.00     0.049 A 
ATOM     53  C   UNL     1       6.115  -7.259 -11.499  1.00  0.00     0.074 A 
ATOM     54  C   UNL     1       8.930  -3.660 -15.880  1.00  0.00     0.029 A 
ATOM     55  N   UNL     1       7.881  -4.414 -14.069  1.00  0.00    -0.354 N 
ATOM     56  N   UNL     1       6.742  -6.456 -12.324  1.00  0.00    -0.248 NA
ATOM     57  C   UNL     1       5.906  -8.615 -12.031  1.00  0.00     0.031 C 
ATOM     58  C   UNL     1       8.719  -5.032 -16.031  1.00  0.00     0.029 A 
ATOM     59  C   UNL     1       8.072  -5.503 -14.900  1.00  0.00     0.049 A 
ATOM     60  H   UNL     1       7.453  -4.446 -13.183  1.00  0.00     0.167 HD
ATOM     61  C   UNL     1       7.026  -7.217 -13.456  1.00  0.00     0.074 A 
ATOM     62  C   UNL     1       6.529  -8.551 -13.200  1.00  0.00     0.031 C 
ATOM     63  C   UNL     1       7.626  -6.840 -14.613  1.00  0.00     0.034 A 
BRANCH  50  64
ATOM     64  C   UNL     1       8.774  -0.809 -14.963  1.00  0.00     0.023 A 
ATOM     65  C   UNL     1      10.022  -0.213 -14.699  1.00  0.00     0.012 A 
ATOM     66  C   UNL     1       8.021  -0.392 -16.077  1.00  0.00     0.148 A 
ATOM     67  C   UNL     1      10.513   0.789 -15.532  1.00  0.00     0.002 A 
ATOM     68  C   UNL     1       8.536   0.577 -16.926  1.00  0.00     0.091 A 
ATOM     69  F   UNL     1       6.822  -0.955 -16.283  1.00  0.00    -0.205 F 
ATOM     70  C   UNL     1       9.778   1.173 -16.652  1.00  0.00     0.022 A 
BRANCH  68  71
ATOM     71  S   UNL     1       7.703   1.081 -18.433  1.00  0.00     0.127 S 
ATOM     72  O   UNL     1       7.348   2.465 -18.124  1.00  0.00    -0.237 OA
ATOM     73  O   UNL     1       8.761   0.929 -19.431  1.00  0.00    -0.237 OA
ATOM     74  O   UNL     1       6.575   0.173 -18.595  1.00  0.00    -0.744 OA
ENDBRANCH  68  71
ENDBRANCH  50  64
BRANCH  51  75
ATOM     75  C   UNL     1       4.948  -8.070  -9.322  1.00  0.00     0.023 A 
ATOM     76  C   UNL     1       5.687  -9.199  -8.918  1.00  0.00     0.012 A 
ATOM     77  C   UNL     1       3.575  -8.003  -9.018  1.00  0.00     0.148 A 
ATOM     78  C   UNL     1       5.060 -10.261  -8.266  1.00  0.00     0.002 A 
ATOM     79  C   UNL     1       2.969  -9.038  -8.316  1.00  0.00     0.091 A 
ATOM     80  F   UNL     1       2.881  -6.934  -9.434  1.00  0.00    -0.205 F 
ATOM     81  C   UNL     1       3.704 -10.178  -7.957  1.00  0.00     0.022 A 
BRANCH  79  82
ATOM     82  S   UNL     1       1.259  -8.951  -7.777  1.00  0.00     0.127 S 
ATOM     83  O   UNL     1       0.603  -9.858  -8.715  1.00  0.00    -0.237 OA
ATOM     84  O   UNL     1       1.348  -9.444  -6.402  1.00  0.00    -0.237 OA
ATOM     85  O   UNL     1       0.889  -7.546  -7.885  1.00  0.00    -0.744 OA
ENDBRANCH  79  82
ENDBRANCH  51  75
BRANCH  63  86
ATOM     86  C   UNL     1       7.810  -7.877 -15.690  1.00  0.00     0.023 A 
ATOM     87  C   UNL     1       6.697  -8.320 -16.430  1.00  0.00     0.012 A 
ATOM     88  C   UNL     1       9.098  -8.331 -16.040  1.00  0.00     0.148 A 
ATOM     89  C   UNL     1       6.859  -9.218 -17.485  1.00  0.00     0.002 A 
ATOM     90  C   UNL     1       9.257  -9.187 -17.124  1.00  0.00     0.091 A 
ATOM     91  F   UNL     1      10.144  -7.904 -15.317  1.00  0.00    -0.205 F 
ATOM     92  C   UNL     1       8.138  -9.640 -17.840  1.00  0.00     0.022 A 
BRANCH  90  93
ATOM     93  S   UNL     1      10.871  -9.707 -17.717  1.00  0.00     0.127 S 
ATOM     94  O   UNL     1      10.869 -11.129 -17.378  1.00  0.00    -0.237 OA
ATOM     95  O   UNL     1      10.782  -9.421 -19.149  1.00  0.00    -0.237 OA
ATOM     96  O   UNL     1      11.846  -8.898 -16.997  1.00  0.00    -0.744 OA
ENDBRANCH  90  93
ENDBRANCH  63  86
ENDBRANCH  37  38
ENDBRANCH  30  32
ENDBRANCH  29  30
ENDBRANCH  28  29
ENDBRANCH  27  28
ENDBRANCH  26  27
ENDBRANCH   1  26
TORSDOF 22
