REMARK SMILES C[C@@H]1C(=O)NC(=O)CN1C(=O)NC1(CC(=O)OCCOCCOC(=O)c2ccc(-c3c4nc(c(-c5cccc(S(=O)(=O)[O-])c5F)c5ccc([nH]5)c(-c5cccc(S(=O)(=O)[O-])c5F)c5nc(c(-c6cccc(S(=O)(=O)[O-])c6F)c6ccc3[nH]6)C=C5)C=C4)cc2)CCC1
REMARK SMILES IDX 20 1 19 2 18 3 17 4 15 5 16 6 14 7 13 8 89 9 91 10 90 11
REMARK SMILES IDX 12 12 10 13 11 14 9 16 1 17 2 18 3 19 4 20 5 21 8 22 6 23
REMARK SMILES IDX 7 25 21 26 22 27 23 28 24 29 25 30 26 31 27 32 88 33 28 34
REMARK SMILES IDX 87 35 29 36 30 37 31 38 81 39 32 40 86 41 80 42 82 43 33 44
REMARK SMILES IDX 85 45 79 46 78 47 34 49 66 50 46 51 65 52 47 53 50 54 64 55
REMARK SMILES IDX 83 56 48 57 49 58 63 60 84 61 51 62 35 63 36 64 44 65 37 66
REMARK SMILES IDX 39 67 45 68 38 69 40 70 41 71 42 72 43 73 67 74 68 75 76 76
REMARK SMILES IDX 69 77 71 78 77 79 70 80 72 81 73 82 74 83 75 84 52 85 53 86
REMARK SMILES IDX 61 87 54 88 56 89 62 90 55 91 57 92 58 93 59 94 60 95
REMARK H PARENT 12 15 5 24 82 48 50 59
REMARK Flexibility Score: inf
ROOT
ATOM      1  O   UNL     1       1.233   6.450   4.932  1.00  0.00    -0.374 OA
ENDROOT
BRANCH   1   2
ATOM      2  C   UNL     1       1.790   5.620   5.950  1.00  0.00     0.202 C 
BRANCH   2   3
ATOM      3  C   UNL     1       0.837   4.597   6.572  1.00  0.00     0.261 C 
BRANCH   3   4
ATOM      4  O   UNL     1       0.372   3.624   5.618  1.00  0.00    -0.463 OA
BRANCH   4   5
ATOM      5  C   UNL     1      -0.866   3.848   5.113  1.00  0.00     0.308 C 
ATOM      6  O   UNL     1      -1.574   4.812   5.378  1.00  0.00    -0.252 OA
BRANCH   5   7
ATOM      7  C   UNL     1      -1.355   2.714   4.264  1.00  0.00     0.151 C 
BRANCH   7   8
ATOM      8  C   UNL     1      -0.495   2.135   3.108  1.00  0.00     0.052 C 
ATOM      9  C   UNL     1      -1.153   0.766   2.805  1.00  0.00     0.029 C 
ATOM     10  C   UNL     1       0.822   1.408   3.466  1.00  0.00     0.029 C 
ATOM     11  C   UNL     1       0.056   0.071   3.467  1.00  0.00     0.005 C 
BRANCH   8  12
ATOM     12  N   UNL     1      -0.418   3.108   1.980  1.00  0.00    -0.332 N 
ATOM     13  C   UNL     1       0.161   3.313   0.779  1.00  0.00     0.318 C 
ATOM     14  O   UNL     1       0.066   4.492   0.407  1.00  0.00    -0.249 OA
ATOM     15  H   UNL     1      -0.997   3.876   2.187  1.00  0.00     0.165 HD
BRANCH  13  16
ATOM     16  N   UNL     1       0.761   2.389  -0.029  1.00  0.00    -0.304 N 
ATOM     17  C   UNL     1       1.864   0.150  -0.436  1.00  0.00     0.042 C 
ATOM     18  C   UNL     1       0.633   0.932   0.027  1.00  0.00     0.174 C 
ATOM     19  C   UNL     1      -0.561   0.559  -0.868  1.00  0.00     0.249 C 
ATOM     20  O   UNL     1      -1.193  -0.488  -0.743  1.00  0.00    -0.272 OA
ATOM     21  N   UNL     1      -0.762   1.366  -1.969  1.00  0.00    -0.293 N 
ATOM     22  C   UNL     1       1.120   2.861  -1.379  1.00  0.00     0.222 C 
ATOM     23  C   UNL     1       0.018   2.437  -2.358  1.00  0.00     0.246 C 
ATOM     24  H   UNL     1      -1.541   1.157  -2.535  1.00  0.00     0.173 HD
ATOM     25  O   UNL     1      -0.084   2.894  -3.495  1.00  0.00    -0.273 OA
ENDBRANCH  13  16
ENDBRANCH   8  12
ENDBRANCH   7   8
ENDBRANCH   5   7
ENDBRANCH   4   5
ENDBRANCH   3   4
ENDBRANCH   2   3
ENDBRANCH   1   2
BRANCH   1  26
ATOM     26  C   UNL     1       1.185   5.895   3.615  1.00  0.00     0.202 C 
BRANCH  26  27
ATOM     27  C   UNL     1       2.483   5.992   2.811  1.00  0.00     0.261 C 
BRANCH  27  28
ATOM     28  O   UNL     1       3.478   5.095   3.340  1.00  0.00    -0.460 OA
BRANCH  28  29
ATOM     29  C   UNL     1       4.530   5.701   3.932  1.00  0.00     0.338 C 
ATOM     30  O   UNL     1       4.774   6.905   3.945  1.00  0.00    -0.246 OA
BRANCH  29  31
ATOM     31  C   UNL     1       5.289   4.737   4.748  1.00  0.00     0.060 A 
ATOM     32  C   UNL     1       5.647   5.143   6.040  1.00  0.00     0.016 A 
ATOM     33  C   UNL     1       5.699   3.494   4.258  1.00  0.00     0.016 A 
ATOM     34  C   UNL     1       6.482   4.346   6.815  1.00  0.00     0.010 A 
ATOM     35  C   UNL     1       6.541   2.693   5.040  1.00  0.00     0.010 A 
ATOM     36  C   UNL     1       6.975   3.141   6.301  1.00  0.00    -0.014 A 
BRANCH  36  37
ATOM     37  C   UNL     1       8.057   2.442   7.035  1.00  0.00     0.031 A 
ATOM     38  C   UNL     1       9.480   2.602   6.570  1.00  0.00     0.074 A 
ATOM     39  C   UNL     1       7.780   1.715   8.133  1.00  0.00     0.049 A 
ATOM     40  N   UNL     1      10.580   2.133   7.098  1.00  0.00    -0.248 NA
ATOM     41  C   UNL     1       9.693   3.398   5.349  1.00  0.00     0.031 C 
ATOM     42  C   UNL     1       6.442   1.483   8.675  1.00  0.00     0.029 A 
ATOM     43  N   UNL     1       8.611   1.028   8.981  1.00  0.00    -0.354 N 
ATOM     44  C   UNL     1      11.610   2.552   6.264  1.00  0.00     0.074 A 
ATOM     45  C   UNL     1      11.005   3.303   5.187  1.00  0.00     0.031 C 
ATOM     46  C   UNL     1       6.541   0.687   9.753  1.00  0.00     0.029 A 
ATOM     47  C   UNL     1       7.945   0.344   9.970  1.00  0.00     0.049 A 
ATOM     48  H   UNL     1       9.592   1.026   8.890  1.00  0.00     0.167 HD
ATOM     49  C   UNL     1      12.942   2.346   6.394  1.00  0.00     0.034 A 
ATOM     50  C   UNL     1       8.415  -0.476  10.931  1.00  0.00     0.034 A 
ATOM     51  C   UNL     1      13.543   1.625   7.484  1.00  0.00     0.049 A 
ATOM     52  C   UNL     1       9.902  -0.683  11.055  1.00  0.00     0.074 A 
ATOM     53  C   UNL     1      14.887   1.417   7.738  1.00  0.00     0.029 A 
ATOM     54  N   UNL     1      12.841   0.985   8.492  1.00  0.00    -0.354 N 
ATOM     55  N   UNL     1      10.871  -0.163  10.340  1.00  0.00    -0.248 NA
ATOM     56  C   UNL     1      10.364  -1.559  12.142  1.00  0.00     0.031 C 
ATOM     57  C   UNL     1      14.996   0.626   8.887  1.00  0.00     0.029 A 
ATOM     58  C   UNL     1      13.720   0.366   9.363  1.00  0.00     0.049 A 
ATOM     59  H   UNL     1      11.860   0.973   8.576  1.00  0.00     0.167 HD
ATOM     60  C   UNL     1      12.055  -0.623  10.908  1.00  0.00     0.074 A 
ATOM     61  C   UNL     1      11.681  -1.441  12.043  1.00  0.00     0.031 C 
ATOM     62  C   UNL     1      13.334  -0.404  10.517  1.00  0.00     0.034 A 
BRANCH  49  63
ATOM     63  C   UNL     1      13.851   2.933   5.347  1.00  0.00     0.023 A 
ATOM     64  C   UNL     1      14.095   4.321   5.332  1.00  0.00     0.012 A 
ATOM     65  C   UNL     1      14.520   2.102   4.427  1.00  0.00     0.148 A 
ATOM     66  C   UNL     1      14.974   4.876   4.403  1.00  0.00     0.002 A 
ATOM     67  C   UNL     1      15.425   2.657   3.531  1.00  0.00     0.091 A 
ATOM     68  F   UNL     1      14.255   0.788   4.444  1.00  0.00    -0.205 F 
ATOM     69  C   UNL     1      15.647   4.044   3.511  1.00  0.00     0.022 A 
BRANCH  67  70
ATOM     70  S   UNL     1      16.397   1.663   2.393  1.00  0.00     0.127 S 
ATOM     71  O   UNL     1      15.813   2.036   1.105  1.00  0.00    -0.237 OA
ATOM     72  O   UNL     1      17.750   2.171   2.619  1.00  0.00    -0.237 OA
ATOM     73  O   UNL     1      16.191   0.278   2.792  1.00  0.00    -0.744 OA
ENDBRANCH  67  70
ENDBRANCH  49  63
BRANCH  50  74
ATOM     74  C   UNL     1       7.469  -1.137  11.873  1.00  0.00     0.023 A 
ATOM     75  C   UNL     1       7.457  -0.767  13.232  1.00  0.00     0.012 A 
ATOM     76  C   UNL     1       6.569  -2.123  11.423  1.00  0.00     0.148 A 
ATOM     77  C   UNL     1       6.588  -1.389  14.130  1.00  0.00     0.002 A 
ATOM     78  C   UNL     1       5.666  -2.696  12.311  1.00  0.00     0.091 A 
ATOM     79  F   UNL     1       6.610  -2.479  10.131  1.00  0.00    -0.205 F 
ATOM     80  C   UNL     1       5.686  -2.344  13.669  1.00  0.00     0.022 A 
BRANCH  78  81
ATOM     81  S   UNL     1       4.382  -3.828  11.768  1.00  0.00     0.127 S 
ATOM     82  O   UNL     1       4.895  -5.112  12.237  1.00  0.00    -0.237 OA
ATOM     83  O   UNL     1       3.211  -3.330  12.490  1.00  0.00    -0.237 OA
ATOM     84  O   UNL     1       4.304  -3.661  10.322  1.00  0.00    -0.744 OA
ENDBRANCH  78  81
ENDBRANCH  50  74
BRANCH  62  85
ATOM     85  C   UNL     1      14.432  -1.035  11.333  1.00  0.00     0.023 A 
ATOM     86  C   UNL     1      14.644  -2.426  11.261  1.00  0.00     0.012 A 
ATOM     87  C   UNL     1      15.294  -0.244  12.117  1.00  0.00     0.148 A 
ATOM     88  C   UNL     1      15.674  -3.025  11.985  1.00  0.00     0.002 A 
ATOM     89  C   UNL     1      16.349  -0.841  12.797  1.00  0.00     0.091 A 
ATOM     90  F   UNL     1      15.066   1.075  12.188  1.00  0.00    -0.205 F 
ATOM     91  C   UNL     1      16.533  -2.232  12.743  1.00  0.00     0.022 A 
BRANCH  89  92
ATOM     92  S   UNL     1      17.560   0.115  13.719  1.00  0.00     0.127 S 
ATOM     93  O   UNL     1      17.157  -0.147  15.099  1.00  0.00    -0.237 OA
ATOM     94  O   UNL     1      18.821  -0.513  13.322  1.00  0.00    -0.237 OA
ATOM     95  O   UNL     1      17.406   1.492  13.269  1.00  0.00    -0.744 OA
ENDBRANCH  89  92
ENDBRANCH  62  85
ENDBRANCH  36  37
ENDBRANCH  29  31
ENDBRANCH  28  29
ENDBRANCH  27  28
ENDBRANCH  26  27
ENDBRANCH   1  26
TORSDOF 20
