REMARK SMILES CC(=O)Nc1nc(C[N@@H+]2CCO[C@@H](CC(=O)OCCOCCOC(=O)c3ccc(-c4c5nc(c(-c6cccc(S(=O)(=O)[O-])c6F)c6ccc([nH]6)c(-c6cccc(S(=O)(=O)[O-])c6F)c6nc(c(-c7cccc(S(=O)(=O)[O-])c7F)c7ccc4[nH]7)C=C6)C=C5)cc3)C2)cs1
REMARK SMILES IDX 19 1 18 2 17 3 15 4 16 5 14 6 13 7 9 8 10 9 89 10 11 12
REMARK SMILES IDX 12 13 8 14 7 15 5 16 6 17 91 18 90 19 4 20 1 21 2 22 3 23
REMARK SMILES IDX 20 25 21 26 22 27 23 28 24 29 25 30 26 31 27 32 88 33 28 34
REMARK SMILES IDX 87 35 29 36 30 37 31 38 81 39 32 40 86 41 80 42 82 43 33 44
REMARK SMILES IDX 85 45 79 46 78 47 34 49 66 50 46 51 65 52 47 53 50 54 64 55
REMARK SMILES IDX 83 56 48 57 49 58 63 60 84 61 51 62 35 63 36 64 44 65 37 66
REMARK SMILES IDX 39 67 45 68 38 69 40 70 41 71 42 72 43 73 67 74 68 75 76 76
REMARK SMILES IDX 69 77 71 78 77 79 70 80 72 81 73 82 74 83 75 84 52 85 53 86
REMARK SMILES IDX 61 87 54 88 56 89 62 90 55 91 57 92 58 93 59 94 60 95
REMARK H PARENT 9 11 4 24 82 48 50 59
REMARK Flexibility Score: inf
ROOT
ATOM      1  C   UNL     1       5.878  -2.594   1.659  1.00  0.00     0.202 C 
ENDROOT
BRANCH   1   2
ATOM      2  C   UNL     1       6.807  -3.324   0.684  1.00  0.00     0.261 C 
BRANCH   2   3
ATOM      3  O   UNL     1       6.513  -3.103  -0.713  1.00  0.00    -0.463 OA
BRANCH   3   4
ATOM      4  C   UNL     1       6.136  -4.206  -1.412  1.00  0.00     0.308 C 
ATOM      5  O   UNL     1       5.849  -5.288  -0.909  1.00  0.00    -0.252 OA
BRANCH   4   6
ATOM      6  C   UNL     1       6.207  -4.014  -2.900  1.00  0.00     0.160 C 
BRANCH   6   7
ATOM      7  C   UNL     1       5.354  -2.933  -3.566  1.00  0.00     0.184 C 
ATOM      8  N   UNL     1       5.356  -0.470  -4.230  1.00  0.00    -0.326 N 
ATOM      9  C   UNL     1       5.401  -0.910  -5.619  1.00  0.00     0.291 C 
ATOM     10  C   UNL     1       5.853  -1.490  -3.298  1.00  0.00     0.295 C 
ATOM     11  H   UNL     1       6.061   0.264  -4.163  1.00  0.00     0.348 HD
ATOM     12  C   UNL     1       4.830  -2.317  -5.823  1.00  0.00     0.222 C 
ATOM     13  O   UNL     1       5.461  -3.268  -4.973  1.00  0.00    -0.366 OA
BRANCH   8  14
ATOM     14  C   UNL     1       4.275   0.421  -3.817  1.00  0.00     0.320 C 
BRANCH  14  15
ATOM     15  C   UNL     1       2.881  -0.136  -3.901  1.00  0.00     0.108 A 
ATOM     16  C   UNL     1       1.000  -0.863  -2.995  1.00  0.00     0.189 A 
ATOM     17  N   UNL     1       2.135  -0.271  -2.733  1.00  0.00    -0.219 NA
ATOM     18  S   UNL     1       0.692  -1.220  -4.630  1.00  0.00    -0.105 S 
ATOM     19  C   UNL     1       2.161  -0.438  -5.046  1.00  0.00     0.098 A 
BRANCH  16  20
ATOM     20  N   UNL     1       0.048  -1.307  -2.128  1.00  0.00    -0.302 N 
ATOM     21  C   UNL     1       0.402   0.454  -0.418  1.00  0.00     0.114 C 
ATOM     22  C   UNL     1      -0.119  -0.895  -0.842  1.00  0.00     0.223 C 
ATOM     23  O   UNL     1      -0.802  -1.585  -0.080  1.00  0.00    -0.275 OA
ATOM     24  H   UNL     1      -0.578  -1.989  -2.463  1.00  0.00     0.172 HD
ENDBRANCH  16  20
ENDBRANCH  14  15
ENDBRANCH   8  14
ENDBRANCH   6   7
ENDBRANCH   4   6
ENDBRANCH   3   4
ENDBRANCH   2   3
ENDBRANCH   1   2
BRANCH   1  25
ATOM     25  O   UNL     1       4.519  -3.022   1.713  1.00  0.00    -0.374 OA
BRANCH  25  26
ATOM     26  C   UNL     1       3.737  -2.858   0.540  1.00  0.00     0.202 C 
BRANCH  26  27
ATOM     27  C   UNL     1       3.430  -1.427   0.103  1.00  0.00     0.261 C 
BRANCH  27  28
ATOM     28  O   UNL     1       4.584  -0.579  -0.025  1.00  0.00    -0.460 OA
BRANCH  28  29
ATOM     29  C   UNL     1       4.476   0.623   0.590  1.00  0.00     0.338 C 
ATOM     30  O   UNL     1       3.498   1.081   1.165  1.00  0.00    -0.246 OA
BRANCH  29  31
ATOM     31  C   UNL     1       5.775   1.313   0.596  1.00  0.00     0.060 A 
ATOM     32  C   UNL     1       6.491   1.364   1.797  1.00  0.00     0.016 A 
ATOM     33  C   UNL     1       6.219   2.017  -0.526  1.00  0.00     0.016 A 
ATOM     34  C   UNL     1       7.644   2.145   1.883  1.00  0.00     0.010 A 
ATOM     35  C   UNL     1       7.380   2.790  -0.438  1.00  0.00     0.010 A 
ATOM     36  C   UNL     1       8.082   2.884   0.774  1.00  0.00    -0.014 A 
BRANCH  36  37
ATOM     37  C   UNL     1       9.232   3.813   0.908  1.00  0.00     0.031 A 
ATOM     38  C   UNL     1       8.991   5.293   1.032  1.00  0.00     0.074 A 
ATOM     39  C   UNL     1      10.489   3.332   0.907  1.00  0.00     0.049 A 
ATOM     40  N   UNL     1       9.858   6.259   1.190  1.00  0.00    -0.248 NA
ATOM     41  C   UNL     1       7.592   5.746   0.964  1.00  0.00     0.031 C 
ATOM     42  C   UNL     1      10.851   1.924   0.754  1.00  0.00     0.029 A 
ATOM     43  N   UNL     1      11.694   3.980   1.017  1.00  0.00    -0.354 N 
ATOM     44  C   UNL     1       9.117   7.434   1.222  1.00  0.00     0.074 A 
ATOM     45  C   UNL     1       7.729   7.062   1.048  1.00  0.00     0.031 C 
ATOM     46  C   UNL     1      12.190   1.814   0.764  1.00  0.00     0.029 A 
ATOM     47  C   UNL     1      12.779   3.143   0.914  1.00  0.00     0.049 A 
ATOM     48  H   UNL     1      11.773   4.951   1.157  1.00  0.00     0.167 HD
ATOM     49  C   UNL     1       9.549   8.705   1.407  1.00  0.00     0.034 A 
ATOM     50  C   UNL     1      14.099   3.417   0.935  1.00  0.00     0.034 A 
ATOM     51  C   UNL     1      10.925   9.071   1.610  1.00  0.00     0.049 A 
ATOM     52  C   UNL     1      14.552   4.836   1.157  1.00  0.00     0.074 A 
ATOM     53  C   UNL     1      11.454  10.322   1.873  1.00  0.00     0.029 A 
ATOM     54  N   UNL     1      11.992   8.188   1.563  1.00  0.00    -0.354 N 
ATOM     55  N   UNL     1      13.828   5.913   1.345  1.00  0.00    -0.248 NA
ATOM     56  C   UNL     1      16.002   5.072   1.208  1.00  0.00     0.031 C 
ATOM     57  C   UNL     1      12.844  10.198   1.972  1.00  0.00     0.029 A 
ATOM     58  C   UNL     1      13.179   8.867   1.783  1.00  0.00     0.049 A 
ATOM     59  H   UNL     1      11.918   7.220   1.399  1.00  0.00     0.167 HD
ATOM     60  C   UNL     1      14.731   6.947   1.568  1.00  0.00     0.074 A 
ATOM     61  C   UNL     1      16.056   6.363   1.512  1.00  0.00     0.031 C 
ATOM     62  C   UNL     1      14.487   8.264   1.781  1.00  0.00     0.034 A 
BRANCH  49  63
ATOM     63  C   UNL     1       8.511   9.795   1.454  1.00  0.00     0.023 A 
ATOM     64  C   UNL     1       7.709   9.933   2.605  1.00  0.00     0.012 A 
ATOM     65  C   UNL     1       8.368  10.714   0.397  1.00  0.00     0.148 A 
ATOM     66  C   UNL     1       6.762  10.953   2.693  1.00  0.00     0.002 A 
ATOM     67  C   UNL     1       7.446  11.750   0.507  1.00  0.00     0.091 A 
ATOM     68  F   UNL     1       9.123  10.553  -0.699  1.00  0.00    -0.205 F 
ATOM     69  C   UNL     1       6.638  11.866   1.650  1.00  0.00     0.022 A 
BRANCH  67  70
ATOM     70  S   UNL     1       7.260  13.013  -0.758  1.00  0.00     0.127 S 
ATOM     71  O   UNL     1       6.011  12.606  -1.399  1.00  0.00    -0.237 OA
ATOM     72  O   UNL     1       7.166  14.238   0.037  1.00  0.00    -0.237 OA
ATOM     73  O   UNL     1       8.453  12.922  -1.589  1.00  0.00    -0.744 OA
ENDBRANCH  67  70
ENDBRANCH  49  63
BRANCH  50  74
ATOM     74  C   UNL     1      15.085   2.309   0.808  1.00  0.00     0.023 A 
ATOM     75  C   UNL     1      15.842   1.922   1.931  1.00  0.00     0.012 A 
ATOM     76  C   UNL     1      15.250   1.612  -0.405  1.00  0.00     0.148 A 
ATOM     77  C   UNL     1      16.762   0.877   1.842  1.00  0.00     0.002 A 
ATOM     78  C   UNL     1      16.130   0.537  -0.472  1.00  0.00     0.091 A 
ATOM     79  F   UNL     1      14.536   2.008  -1.468  1.00  0.00    -0.205 F 
ATOM     80  C   UNL     1      16.897   0.177   0.646  1.00  0.00     0.022 A 
BRANCH  78  81
ATOM     81  S   UNL     1      16.262  -0.497  -1.935  1.00  0.00     0.127 S 
ATOM     82  O   UNL     1      17.522  -0.040  -2.513  1.00  0.00    -0.237 OA
ATOM     83  O   UNL     1      16.300  -1.842  -1.357  1.00  0.00    -0.237 OA
ATOM     84  O   UNL     1      15.063  -0.219  -2.715  1.00  0.00    -0.744 OA
ENDBRANCH  78  81
ENDBRANCH  50  74
BRANCH  62  85
ATOM     85  C   UNL     1      15.671   9.170   1.990  1.00  0.00     0.023 A 
ATOM     86  C   UNL     1      16.468   9.535   0.887  1.00  0.00     0.012 A 
ATOM     87  C   UNL     1      15.945   9.725   3.256  1.00  0.00     0.148 A 
ATOM     88  C   UNL     1      17.536  10.418   1.046  1.00  0.00     0.002 A 
ATOM     89  C   UNL     1      16.985  10.637   3.398  1.00  0.00     0.091 A 
ATOM     90  F   UNL     1      15.189   9.349   4.297  1.00  0.00    -0.205 F 
ATOM     91  C   UNL     1      17.786  10.978   2.296  1.00  0.00     0.022 A 
BRANCH  89  92
ATOM     92  S   UNL     1      17.318  11.473   4.953  1.00  0.00     0.127 S 
ATOM     93  O   UNL     1      18.480  10.736   5.445  1.00  0.00    -0.237 OA
ATOM     94  O   UNL     1      17.602  12.842   4.521  1.00  0.00    -0.237 OA
ATOM     95  O   UNL     1      16.102  11.334   5.745  1.00  0.00    -0.744 OA
ENDBRANCH  89  92
ENDBRANCH  62  85
ENDBRANCH  36  37
ENDBRANCH  29  31
ENDBRANCH  28  29
ENDBRANCH  27  28
ENDBRANCH  26  27
ENDBRANCH  25  26
ENDBRANCH   1  25
TORSDOF 21
