REMARK SMILES COc1ccc([C@H]2CC(c3ccc(S(C)(=O)=O)cc3)=NN2c2ccc(C(=O)OCCOCCOC(=O)c3ccc(-c4c5nc(c(-c6cccc(S(=O)(=O)[O-])c6F)c6ccc([nH]6)c(-c6cccc(S(=O)(=O)[O-])c6F)c6nc(c(-c7cccc(S(=O)(=O)[O-])c7F)c7ccc4[nH]7)C=C6)C=C5)cc3)cc2)cc1
REMARK SMILES IDX 31 1 30 2 29 3 28 4 26 5 27 6 25 7 22 8 23 9 101 10 24 11
REMARK SMILES IDX 100 12 21 13 7 14 8 15 9 16 20 17 6 18 3 19 4 20 103 21 5 22
REMARK SMILES IDX 102 23 2 24 1 25 10 26 11 27 19 28 12 29 18 30 13 31 14 32
REMARK SMILES IDX 15 33 16 34 17 35 32 36 33 37 34 38 35 39 36 40 37 41 38 42
REMARK SMILES IDX 99 43 39 44 98 45 40 46 41 47 42 48 92 49 43 50 97 51 91 52
REMARK SMILES IDX 93 53 44 54 96 55 90 56 89 57 45 59 77 60 57 61 76 62 58 63
REMARK SMILES IDX 61 64 75 65 94 66 59 67 60 68 74 70 95 71 62 72 46 73 47 74
REMARK SMILES IDX 55 75 48 76 50 77 56 78 49 79 51 80 52 81 53 82 54 83 78 84
REMARK SMILES IDX 79 85 87 86 80 87 82 88 88 89 81 90 83 91 84 92 85 93 86 94
REMARK SMILES IDX 63 95 64 96 72 97 65 98 67 99 73 100 66 101 68 102 69 103
REMARK SMILES IDX 70 104 71 105
REMARK H PARENT 93 58 61 69
REMARK Flexibility Score: inf
ROOT
ATOM      1  O   UNL     1       3.488  -0.571  -9.687  1.00  0.00    -0.374 OA
ENDROOT
BRANCH   1   2
ATOM      2  C   UNL     1       2.079  -0.598  -9.928  1.00  0.00     0.202 C 
BRANCH   2   3
ATOM      3  C   UNL     1       1.188  -0.653  -8.683  1.00  0.00     0.261 C 
BRANCH   3   4
ATOM      4  O   UNL     1       1.300   0.557  -7.918  1.00  0.00    -0.460 OA
BRANCH   4   5
ATOM      5  C   UNL     1       1.986   0.445  -6.758  1.00  0.00     0.338 C 
ATOM      6  O   UNL     1       2.400  -0.589  -6.246  1.00  0.00    -0.246 OA
BRANCH   5   7
ATOM      7  C   UNL     1       2.339   1.787  -6.246  1.00  0.00     0.060 A 
ATOM      8  C   UNL     1       3.024   4.222  -5.033  1.00  0.00     0.060 A 
ATOM      9  C   UNL     1       3.909   3.138  -4.992  1.00  0.00     0.029 A 
ATOM     10  C   UNL     1       1.852   4.105  -5.797  1.00  0.00     0.029 A 
ATOM     11  C   UNL     1       3.556   1.918  -5.565  1.00  0.00     0.018 A 
ATOM     12  C   UNL     1       1.510   2.898  -6.413  1.00  0.00     0.018 A 
BRANCH   8  13
ATOM     13  N   UNL     1       3.214   5.320  -4.192  1.00  0.00    -0.257 N 
ATOM     14  C   UNL     1       2.275   5.575  -3.085  1.00  0.00     0.144 C 
ATOM     15  C   UNL     1       3.078   6.498  -2.165  1.00  0.00     0.091 C 
ATOM     16  C   UNL     1       4.356   6.612  -2.950  1.00  0.00     0.071 C 
ATOM     17  N   UNL     1       4.431   5.904  -4.034  1.00  0.00    -0.176 NA
BRANCH  14  18
ATOM     18  C   UNL     1       1.795   4.294  -2.409  1.00  0.00    -0.023 A 
ATOM     19  C   UNL     1       0.903   1.802  -1.419  1.00  0.00     0.118 A 
ATOM     20  C   UNL     1       0.027   2.649  -2.098  1.00  0.00     0.047 A 
ATOM     21  C   UNL     1       2.229   2.192  -1.240  1.00  0.00     0.047 A 
ATOM     22  C   UNL     1       0.462   3.886  -2.578  1.00  0.00     0.010 A 
ATOM     23  C   UNL     1       2.671   3.428  -1.731  1.00  0.00     0.010 A 
BRANCH  19  24
ATOM     24  O   UNL     1       0.366   0.605  -1.034  1.00  0.00    -0.497 OA
ATOM     25  C   UNL     1       0.988  -0.028   0.076  1.00  0.00     0.278 C 
ENDBRANCH  19  24
ENDBRANCH  14  18
BRANCH  16  26
ATOM     26  C   UNL     1       5.420   7.533  -2.521  1.00  0.00    -0.002 A 
ATOM     27  C   UNL     1       5.943   8.423  -3.466  1.00  0.00     0.011 A 
ATOM     28  C   UNL     1       5.867   7.558  -1.197  1.00  0.00     0.011 A 
ATOM     29  C   UNL     1       6.905   9.359  -3.086  1.00  0.00     0.021 A 
ATOM     30  C   UNL     1       6.852   8.476  -0.819  1.00  0.00     0.021 A 
ATOM     31  C   UNL     1       7.364   9.371  -1.765  1.00  0.00     0.067 A 
BRANCH  31  32
ATOM     32  S   UNL     1       8.598  10.559  -1.288  1.00  0.00     0.175 S 
ATOM     33  C   UNL     1       9.984  10.196  -2.333  1.00  0.00     0.163 C 
ATOM     34  O   UNL     1       8.085  11.867  -1.643  1.00  0.00    -0.224 OA
ATOM     35  O   UNL     1       8.994  10.258   0.076  1.00  0.00    -0.224 OA
ENDBRANCH  31  32
ENDBRANCH  16  26
ENDBRANCH   8  13
ENDBRANCH   5   7
ENDBRANCH   4   5
ENDBRANCH   3   4
ENDBRANCH   2   3
ENDBRANCH   1   2
BRANCH   1  36
ATOM     36  C   UNL     1       4.061   0.704  -9.387  1.00  0.00     0.202 C 
BRANCH  36  37
ATOM     37  C   UNL     1       4.374   1.602 -10.588  1.00  0.00     0.261 C 
BRANCH  37  38
ATOM     38  O   UNL     1       3.174   2.059 -11.238  1.00  0.00    -0.460 OA
BRANCH  38  39
ATOM     39  C   UNL     1       2.929   1.501 -12.444  1.00  0.00     0.338 C 
ATOM     40  O   UNL     1       3.656   0.734 -13.065  1.00  0.00    -0.246 OA
BRANCH  39  41
ATOM     41  C   UNL     1       1.548   1.800 -12.866  1.00  0.00     0.060 A 
ATOM     42  C   UNL     1       0.752   0.723 -13.281  1.00  0.00     0.016 A 
ATOM     43  C   UNL     1       1.054   3.105 -12.911  1.00  0.00     0.016 A 
ATOM     44  C   UNL     1      -0.524   0.954 -13.790  1.00  0.00     0.010 A 
ATOM     45  C   UNL     1      -0.226   3.334 -13.429  1.00  0.00     0.010 A 
ATOM     46  C   UNL     1      -1.006   2.264 -13.904  1.00  0.00    -0.014 A 
BRANCH  46  47
ATOM     47  C   UNL     1      -2.271   2.522 -14.633  1.00  0.00     0.031 A 
ATOM     48  C   UNL     1      -2.209   3.011 -16.054  1.00  0.00     0.074 A 
ATOM     49  C   UNL     1      -3.459   2.329 -14.034  1.00  0.00     0.049 A 
ATOM     50  N   UNL     1      -3.187   3.325 -16.863  1.00  0.00    -0.248 NA
ATOM     51  C   UNL     1      -0.868   3.170 -16.641  1.00  0.00     0.031 C 
ATOM     52  C   UNL     1      -3.647   1.862 -12.662  1.00  0.00     0.029 A 
ATOM     53  N   UNL     1      -4.735   2.531 -14.499  1.00  0.00    -0.354 N 
ATOM     54  C   UNL     1      -2.583   3.746 -18.042  1.00  0.00     0.074 A 
ATOM     55  C   UNL     1      -1.153   3.656 -17.841  1.00  0.00     0.031 C 
ATOM     56  C   UNL     1      -4.962   1.844 -12.384  1.00  0.00     0.029 A 
ATOM     57  C   UNL     1      -5.706   2.317 -13.550  1.00  0.00     0.049 A 
ATOM     58  H   UNL     1      -4.935   2.802 -15.424  1.00  0.00     0.167 HD
ATOM     59  C   UNL     1      -3.166   4.154 -19.194  1.00  0.00     0.034 A 
ATOM     60  C   UNL     1      -7.040   2.505 -13.609  1.00  0.00     0.034 A 
ATOM     61  C   UNL     1      -4.588   4.218 -19.401  1.00  0.00     0.049 A 
ATOM     62  C   UNL     1      -7.662   2.974 -14.899  1.00  0.00     0.074 A 
ATOM     63  C   UNL     1      -5.273   4.563 -20.553  1.00  0.00     0.029 A 
ATOM     64  N   UNL     1      -5.542   3.943 -18.435  1.00  0.00    -0.354 N 
ATOM     65  N   UNL     1      -7.085   3.238 -16.046  1.00  0.00    -0.248 NA
ATOM     66  C   UNL     1      -9.123   3.140 -14.912  1.00  0.00     0.031 C 
ATOM     67  C   UNL     1      -6.643   4.521 -20.275  1.00  0.00     0.029 A 
ATOM     68  C   UNL     1      -6.810   4.125 -18.957  1.00  0.00     0.049 A 
ATOM     69  H   UNL     1      -5.346   3.661 -17.512  1.00  0.00     0.167 HD
ATOM     70  C   UNL     1      -8.112   3.566 -16.925  1.00  0.00     0.074 A 
ATOM     71  C   UNL     1      -9.350   3.447 -16.183  1.00  0.00     0.031 C 
ATOM     72  C   UNL     1      -8.037   3.946 -18.225  1.00  0.00     0.034 A 
BRANCH  59  73
ATOM     73  C   UNL     1      -2.267   4.535 -20.339  1.00  0.00     0.023 A 
ATOM     74  C   UNL     1      -1.598   3.527 -21.063  1.00  0.00     0.012 A 
ATOM     75  C   UNL     1      -2.138   5.878 -20.742  1.00  0.00     0.148 A 
ATOM     76  C   UNL     1      -0.796   3.853 -22.156  1.00  0.00     0.002 A 
ATOM     77  C   UNL     1      -1.369   6.191 -21.856  1.00  0.00     0.091 A 
ATOM     78  F   UNL     1      -2.764   6.823 -20.025  1.00  0.00    -0.205 F 
ATOM     79  C   UNL     1      -0.690   5.182 -22.558  1.00  0.00     0.022 A 
BRANCH  77  80
ATOM     80  S   UNL     1      -1.230   7.863 -22.499  1.00  0.00     0.127 S 
ATOM     81  O   UNL     1       0.154   8.195 -22.160  1.00  0.00    -0.237 OA
ATOM     82  O   UNL     1      -1.477   7.666 -23.927  1.00  0.00    -0.237 OA
ATOM     83  O   UNL     1      -2.246   8.645 -21.808  1.00  0.00    -0.744 OA
ENDBRANCH  77  80
ENDBRANCH  59  73
BRANCH  60  84
ATOM     84  C   UNL     1      -7.886   2.217 -12.416  1.00  0.00     0.023 A 
ATOM     85  C   UNL     1      -8.773   1.124 -12.440  1.00  0.00     0.012 A 
ATOM     86  C   UNL     1      -7.808   3.014 -11.257  1.00  0.00     0.148 A 
ATOM     87  C   UNL     1      -9.590   0.848 -11.343  1.00  0.00     0.002 A 
ATOM     88  C   UNL     1      -8.584   2.700 -10.147  1.00  0.00     0.091 A 
ATOM     89  F   UNL     1      -6.973   4.063 -11.261  1.00  0.00    -0.205 F 
ATOM     90  C   UNL     1      -9.489   1.629 -10.194  1.00  0.00     0.022 A 
BRANCH  88  91
ATOM     91  S   UNL     1      -8.420   3.574  -8.586  1.00  0.00     0.127 S 
ATOM     92  O   UNL     1      -9.637   4.380  -8.564  1.00  0.00    -0.237 OA
ATOM     93  O   UNL     1      -8.393   2.472  -7.622  1.00  0.00    -0.237 OA
ATOM     94  O   UNL     1      -7.168   4.313  -8.682  1.00  0.00    -0.744 OA
ENDBRANCH  88  91
ENDBRANCH  60  84
BRANCH  72  95
ATOM     95  C   UNL     1      -9.328   4.232 -18.949  1.00  0.00     0.023 A 
ATOM     96  C   UNL     1     -10.043   5.412 -18.664  1.00  0.00     0.012 A 
ATOM     97  C   UNL     1      -9.785   3.375 -19.970  1.00  0.00     0.148 A 
ATOM     98  C   UNL     1     -11.210   5.719 -19.363  1.00  0.00     0.002 A 
ATOM     99  C   UNL     1     -10.923   3.712 -20.694  1.00  0.00     0.091 A 
ATOM    100  F   UNL     1      -9.101   2.249 -20.215  1.00  0.00    -0.205 F 
ATOM    101  C   UNL     1     -11.643   4.877 -20.384  1.00  0.00     0.022 A 
BRANCH  99 102
ATOM    102  S   UNL     1     -11.499   2.737 -22.089  1.00  0.00     0.127 S 
ATOM    103  O   UNL     1     -12.683   2.087 -21.530  1.00  0.00    -0.237 OA
ATOM    104  O   UNL     1     -11.785   3.765 -23.091  1.00  0.00    -0.237 OA
ATOM    105  O   UNL     1     -10.401   1.846 -22.436  1.00  0.00    -0.744 OA
ENDBRANCH  99 102
ENDBRANCH  72  95
ENDBRANCH  46  47
ENDBRANCH  39  41
ENDBRANCH  38  39
ENDBRANCH  37  38
ENDBRANCH  36  37
ENDBRANCH   1  36
TORSDOF 22
