REMARK SMILES NS(=O)(=O)c1ccc(-n2nc(C(=O)OCCOCCOC(=O)c3ccc(-c4c5nc(c(-c6cccc(S(=O)(=O)[O-])c6F)c6ccc([nH]6)c(-c6cccc(S(=O)(=O)[O-])c6F)c6nc(c(-c7cccc(S(=O)(=O)[O-])c7F)c7ccc4[nH]7)C=C6)C=C5)cc3)c(Cl)c2-c2ccc(Cl)cc2)cc1
REMARK SMILES IDX 17 1 16 2 15 3 14 4 12 5 13 6 11 7 9 8 10 9 88 10 86 11
REMARK SMILES IDX 87 12 8 13 5 14 6 15 97 16 7 17 96 18 2 19 3 20 4 21 1 22
REMARK SMILES IDX 89 25 90 26 95 27 91 28 94 29 92 30 93 31 18 32 19 33 20 34
REMARK SMILES IDX 21 35 22 36 23 37 24 38 85 39 25 40 84 41 26 42 27 43 28 44
REMARK SMILES IDX 78 45 29 46 83 47 77 48 79 49 30 50 82 51 76 52 75 53 31 55
REMARK SMILES IDX 63 56 43 57 62 58 44 59 47 60 61 61 80 62 45 63 46 64 60 66
REMARK SMILES IDX 81 67 48 68 32 69 33 70 41 71 34 72 36 73 42 74 35 75 37 76
REMARK SMILES IDX 38 77 39 78 40 79 64 80 65 81 73 82 66 83 68 84 74 85 67 86
REMARK SMILES IDX 69 87 70 88 71 89 72 90 49 91 50 92 58 93 51 94 53 95 59 96
REMARK SMILES IDX 52 97 54 98 55 99 56 100 57 101
REMARK H PARENT 1 23 1 24 79 54 47 65
REMARK Flexibility Score: inf
ROOT
ATOM      1  O   UNL     1       4.846 -10.721   5.569  1.00  0.00    -0.374 OA
ENDROOT
BRANCH   1   2
ATOM      2  C   UNL     1       4.673 -10.659   6.984  1.00  0.00     0.202 C 
BRANCH   2   3
ATOM      3  C   UNL     1       4.884  -9.306   7.660  1.00  0.00     0.261 C 
BRANCH   3   4
ATOM      4  O   UNL     1       3.857  -8.374   7.299  1.00  0.00    -0.458 OA
BRANCH   4   5
ATOM      5  C   UNL     1       4.209  -7.331   6.492  1.00  0.00     0.360 C 
ATOM      6  O   UNL     1       5.352  -7.131   6.096  1.00  0.00    -0.244 OA
BRANCH   5   7
ATOM      7  C   UNL     1       3.055  -6.499   6.120  1.00  0.00     0.190 A 
ATOM      8  N   UNL     1       1.925  -4.974   5.117  1.00  0.00    -0.231 N 
ATOM      9  N   UNL     1       3.059  -5.712   5.019  1.00  0.00    -0.159 NA
ATOM     10  C   UNL     1       1.202  -5.271   6.258  1.00  0.00     0.094 A 
ATOM     11  C   UNL     1       1.843  -6.348   6.834  1.00  0.00     0.102 A 
ATOM     12  Cl  UNL     1       1.344  -7.184   8.234  1.00  0.00    -0.079 Cl
BRANCH   8  13
ATOM     13  C   UNL     1       1.747  -3.849   4.280  1.00  0.00     0.065 A 
ATOM     14  C   UNL     1       1.115  -1.607   2.767  1.00  0.00     0.082 A 
ATOM     15  C   UNL     1       0.985  -2.882   2.200  1.00  0.00     0.024 A 
ATOM     16  C   UNL     1       1.600  -1.449   4.069  1.00  0.00     0.024 A 
ATOM     17  C   UNL     1       1.321  -4.015   2.956  1.00  0.00     0.030 A 
ATOM     18  C   UNL     1       1.905  -2.573   4.832  1.00  0.00     0.030 A 
BRANCH  14  19
ATOM     19  S   UNL     1       0.640  -0.158   1.870  1.00  0.00     0.238 S 
ATOM     20  O   UNL     1       1.296   0.992   2.439  1.00  0.00    -0.207 OA
ATOM     21  O   UNL     1      -0.788  -0.200   1.632  1.00  0.00    -0.207 OA
BRANCH  19  22
ATOM     22  N   UNL     1       1.362  -0.355   0.365  1.00  0.00    -0.225 NA
ATOM     23  H   UNL     1       1.139   0.445  -0.227  1.00  0.00     0.137 HD
ATOM     24  H   UNL     1       1.012  -1.209  -0.070  1.00  0.00     0.137 HD
ENDBRANCH  19  22
ENDBRANCH  14  19
ENDBRANCH   8  13
BRANCH  10  25
ATOM     25  C   UNL     1       0.056  -4.529   6.772  1.00  0.00     0.002 A 
ATOM     26  C   UNL     1       0.167  -3.950   8.046  1.00  0.00     0.012 A 
ATOM     27  C   UNL     1      -1.157  -4.452   6.083  1.00  0.00     0.012 A 
ATOM     28  C   UNL     1      -0.928  -3.334   8.644  1.00  0.00     0.021 A 
ATOM     29  C   UNL     1      -2.256  -3.826   6.682  1.00  0.00     0.021 A 
ATOM     30  C   UNL     1      -2.139  -3.280   7.961  1.00  0.00     0.041 A 
ATOM     31  Cl  UNL     1      -3.495  -2.539   8.714  1.00  0.00    -0.084 Cl
ENDBRANCH  10  25
ENDBRANCH   5   7
ENDBRANCH   4   5
ENDBRANCH   3   4
ENDBRANCH   2   3
ENDBRANCH   1   2
BRANCH   1  32
ATOM     32  C   UNL     1       3.912 -10.077   4.707  1.00  0.00     0.202 C 
BRANCH  32  33
ATOM     33  C   UNL     1       2.518 -10.670   4.573  1.00  0.00     0.261 C 
BRANCH  33  34
ATOM     34  O   UNL     1       1.872 -10.795   5.826  1.00  0.00    -0.460 OA
BRANCH  34  35
ATOM     35  C   UNL     1       1.920 -12.046   6.342  1.00  0.00     0.338 C 
ATOM     36  O   UNL     1       2.671 -12.950   6.014  1.00  0.00    -0.246 OA
BRANCH  35  37
ATOM     37  C   UNL     1       0.775 -12.209   7.240  1.00  0.00     0.060 A 
ATOM     38  C   UNL     1       0.493 -13.529   7.595  1.00  0.00     0.016 A 
ATOM     39  C   UNL     1      -0.181 -11.184   7.314  1.00  0.00     0.016 A 
ATOM     40  C   UNL     1      -0.826 -13.881   7.712  1.00  0.00     0.010 A 
ATOM     41  C   UNL     1      -1.498 -11.542   7.409  1.00  0.00     0.010 A 
ATOM     42  C   UNL     1      -1.797 -12.897   7.497  1.00  0.00    -0.014 A 
BRANCH  42  43
ATOM     43  C   UNL     1      -3.177 -13.310   7.515  1.00  0.00     0.031 A 
ATOM     44  C   UNL     1      -3.617 -13.575   8.899  1.00  0.00     0.074 A 
ATOM     45  C   UNL     1      -3.933 -13.351   6.404  1.00  0.00     0.049 A 
ATOM     46  N   UNL     1      -3.813 -14.729   9.445  1.00  0.00    -0.248 NA
ATOM     47  C   UNL     1      -3.558 -12.457   9.856  1.00  0.00     0.031 C 
ATOM     48  C   UNL     1      -3.625 -12.838   5.067  1.00  0.00     0.029 A 
ATOM     49  N   UNL     1      -5.223 -13.751   6.280  1.00  0.00    -0.354 N 
ATOM     50  C   UNL     1      -4.181 -14.436  10.753  1.00  0.00     0.074 A 
ATOM     51  C   UNL     1      -3.720 -13.101  11.011  1.00  0.00     0.031 C 
ATOM     52  C   UNL     1      -4.779 -12.706   4.371  1.00  0.00     0.029 A 
ATOM     53  C   UNL     1      -5.875 -13.230   5.169  1.00  0.00     0.049 A 
ATOM     54  H   UNL     1      -5.660 -14.357   6.922  1.00  0.00     0.167 HD
ATOM     55  C   UNL     1      -5.143 -15.168  11.374  1.00  0.00     0.034 A 
ATOM     56  C   UNL     1      -7.221 -13.137   5.006  1.00  0.00     0.034 A 
ATOM     57  C   UNL     1      -5.333 -16.438  10.713  1.00  0.00     0.049 A 
ATOM     58  C   UNL     1      -7.840 -14.104   5.951  1.00  0.00     0.074 A 
ATOM     59  C   UNL     1      -4.510 -17.502  10.397  1.00  0.00     0.029 A 
ATOM     60  N   UNL     1      -6.432 -16.556   9.896  1.00  0.00    -0.354 N 
ATOM     61  N   UNL     1      -7.675 -15.396   5.859  1.00  0.00    -0.248 NA
ATOM     62  C   UNL     1      -8.204 -13.611   7.271  1.00  0.00     0.031 C 
ATOM     63  C   UNL     1      -4.926 -17.915   9.097  1.00  0.00     0.029 A 
ATOM     64  C   UNL     1      -6.026 -17.139   8.725  1.00  0.00     0.049 A 
ATOM     65  H   UNL     1      -7.349 -16.271  10.113  1.00  0.00     0.167 HD
ATOM     66  C   UNL     1      -7.446 -15.807   7.166  1.00  0.00     0.074 A 
ATOM     67  C   UNL     1      -7.867 -14.679   8.000  1.00  0.00     0.031 C 
ATOM     68  C   UNL     1      -6.647 -16.881   7.443  1.00  0.00     0.034 A 
BRANCH  55  69
ATOM     69  C   UNL     1      -6.202 -14.571  12.277  1.00  0.00     0.023 A 
ATOM     70  C   UNL     1      -7.083 -15.480  12.900  1.00  0.00     0.012 A 
ATOM     71  C   UNL     1      -6.561 -13.201  12.328  1.00  0.00     0.148 A 
ATOM     72  C   UNL     1      -8.290 -15.059  13.468  1.00  0.00     0.002 A 
ATOM     73  C   UNL     1      -7.723 -12.778  12.959  1.00  0.00     0.091 A 
ATOM     74  F   UNL     1      -5.860 -12.286  11.659  1.00  0.00    -0.205 F 
ATOM     75  C   UNL     1      -8.610 -13.707  13.499  1.00  0.00     0.022 A 
BRANCH  73  76
ATOM     76  S   UNL     1      -8.163 -11.036  13.056  1.00  0.00     0.127 S 
ATOM     77  O   UNL     1      -9.301 -10.974  12.143  1.00  0.00    -0.237 OA
ATOM     78  O   UNL     1      -8.494 -10.895  14.474  1.00  0.00    -0.237 OA
ATOM     79  O   UNL     1      -6.974 -10.300  12.644  1.00  0.00    -0.744 OA
ENDBRANCH  73  76
ENDBRANCH  55  69
BRANCH  56  80
ATOM     80  C   UNL     1      -7.996 -12.023   4.395  1.00  0.00     0.023 A 
ATOM     81  C   UNL     1      -9.351 -12.204   4.048  1.00  0.00     0.012 A 
ATOM     82  C   UNL     1      -7.490 -10.702   4.394  1.00  0.00     0.148 A 
ATOM     83  C   UNL     1     -10.171 -11.111   3.728  1.00  0.00     0.002 A 
ATOM     84  C   UNL     1      -8.301  -9.622   4.058  1.00  0.00     0.091 A 
ATOM     85  F   UNL     1      -6.239 -10.488   4.818  1.00  0.00    -0.205 F 
ATOM     86  C   UNL     1      -9.648  -9.820   3.734  1.00  0.00     0.022 A 
BRANCH  84  87
ATOM     87  S   UNL     1      -7.680  -7.933   4.055  1.00  0.00     0.127 S 
ATOM     88  O   UNL     1      -8.152  -7.440   2.761  1.00  0.00    -0.237 OA
ATOM     89  O   UNL     1      -8.356  -7.359   5.214  1.00  0.00    -0.237 OA
ATOM     90  O   UNL     1      -6.229  -8.040   4.157  1.00  0.00    -0.744 OA
ENDBRANCH  84  87
ENDBRANCH  56  80
BRANCH  68  91
ATOM     91  C   UNL     1      -6.173 -17.739   6.294  1.00  0.00     0.023 A 
ATOM     92  C   UNL     1      -5.293 -17.260   5.298  1.00  0.00     0.012 A 
ATOM     93  C   UNL     1      -6.458 -19.113   6.340  1.00  0.00     0.148 A 
ATOM     94  C   UNL     1      -4.723 -18.131   4.364  1.00  0.00     0.002 A 
ATOM     95  C   UNL     1      -5.856 -19.982   5.439  1.00  0.00     0.091 A 
ATOM     96  F   UNL     1      -7.285 -19.552   7.300  1.00  0.00    -0.205 F 
ATOM     97  C   UNL     1      -4.994 -19.495   4.443  1.00  0.00     0.022 A 
BRANCH  95  98
ATOM     98  S   UNL     1      -6.061 -21.759   5.565  1.00  0.00     0.127 S 
ATOM     99  O   UNL     1      -6.862 -22.058   4.380  1.00  0.00    -0.237 OA
ATOM    100  O   UNL     1      -4.679 -22.237   5.507  1.00  0.00    -0.237 OA
ATOM    101  O   UNL     1      -6.724 -22.000   6.841  1.00  0.00    -0.744 OA
ENDBRANCH  95  98
ENDBRANCH  68  91
ENDBRANCH  42  43
ENDBRANCH  35  37
ENDBRANCH  34  35
ENDBRANCH  33  34
ENDBRANCH  32  33
ENDBRANCH   1  32
TORSDOF 21
