REMARK SMILES Cc1ccc(C(=O)N2C[C@@H](C(=O)OCCOCCOC(=O)c3ccc(-c4c5nc(c(-c6cccc(S(=O)(=O)[O-])c6F)c6ccc([nH]6)c(-c6cccc(S(=O)(=O)[O-])c6F)c6nc(c(-c7cccc(S(=O)(=O)[O-])c7F)c7ccc4[nH]7)C=C6)C=C5)cc3)C[C@H](C(=O)N3CCOCC3)C2)cc1F
REMARK SMILES IDX 17 1 16 2 15 3 14 4 13 5 11 6 12 7 10 8 8 9 9 10 95 11 86 12
REMARK SMILES IDX 85 13 6 14 7 15 5 16 1 17 2 18 3 19 97 20 4 21 96 22 98 23
REMARK SMILES IDX 87 24 88 25 89 26 90 27 94 28 91 29 93 30 92 31 18 32 19 33
REMARK SMILES IDX 20 34 21 35 22 36 23 37 84 38 24 39 83 40 25 41 26 42 27 43
REMARK SMILES IDX 77 44 28 45 82 46 76 47 78 48 29 49 81 50 75 51 74 52 30 54
REMARK SMILES IDX 62 55 42 56 61 57 43 58 46 59 60 60 79 61 44 62 45 63 59 65
REMARK SMILES IDX 80 66 47 67 31 68 32 69 40 70 33 71 35 72 41 73 34 74 36 75
REMARK SMILES IDX 37 76 38 77 39 78 63 79 64 80 72 81 65 82 67 83 73 84 66 85
REMARK SMILES IDX 68 86 69 87 70 88 71 89 48 90 49 91 57 92 50 93 52 94 58 95
REMARK SMILES IDX 51 96 53 97 54 98 55 99 56 100
REMARK H PARENT 78 53 46 64
REMARK Flexibility Score: inf
ROOT
ATOM      1  C   UNL     1      -9.415  -3.647   1.412  1.00  0.00     0.202 C 
ENDROOT
BRANCH   1   2
ATOM      2  O   UNL     1      -9.435  -3.801   2.830  1.00  0.00    -0.374 OA
BRANCH   2   3
ATOM      3  C   UNL     1      -9.676  -2.719   3.707  1.00  0.00     0.202 C 
BRANCH   3   4
ATOM      4  C   UNL     1      -8.636  -1.593   3.853  1.00  0.00     0.261 C 
BRANCH   4   5
ATOM      5  O   UNL     1      -7.912  -1.247   2.665  1.00  0.00    -0.463 OA
BRANCH   5   6
ATOM      6  C   UNL     1      -6.833  -2.031   2.452  1.00  0.00     0.310 C 
ATOM      7  O   UNL     1      -6.444  -2.910   3.213  1.00  0.00    -0.252 OA
BRANCH   6   8
ATOM      8  C   UNL     1      -6.070  -1.682   1.206  1.00  0.00     0.119 C 
ATOM      9  N   UNL     1      -4.082  -0.583   0.462  1.00  0.00    -0.337 N 
ATOM     10  C   UNL     1      -5.081  -0.593   1.514  1.00  0.00     0.135 C 
ATOM     11  C   UNL     1      -4.561  -0.356  -0.907  1.00  0.00     0.133 C 
ATOM     12  C   UNL     1      -5.813  -1.204  -1.276  1.00  0.00     0.099 C 
ATOM     13  C   UNL     1      -6.798  -1.375  -0.104  1.00  0.00     0.032 C 
BRANCH   9  14
ATOM     14  C   UNL     1      -2.830  -1.101   0.756  1.00  0.00     0.254 C 
ATOM     15  O   UNL     1      -2.649  -2.003   1.569  1.00  0.00    -0.269 OA
BRANCH  14  16
ATOM     16  C   UNL     1      -1.650  -0.381   0.230  1.00  0.00     0.042 A 
ATOM     17  C   UNL     1       1.975   1.857  -0.259  1.00  0.00     0.047 C 
ATOM     18  C   UNL     1       0.698   1.080  -0.176  1.00  0.00    -0.015 A 
ATOM     19  C   UNL     1      -0.535   1.738  -0.133  1.00  0.00     0.007 A 
ATOM     20  C   UNL     1       0.730  -0.315  -0.067  1.00  0.00     0.126 A 
ATOM     21  C   UNL     1      -1.705   1.010   0.073  1.00  0.00     0.014 A 
ATOM     22  C   UNL     1      -0.429  -1.052   0.141  1.00  0.00     0.053 A 
ATOM     23  F   UNL     1       1.908  -0.955  -0.103  1.00  0.00    -0.207 F 
ENDBRANCH  14  16
ENDBRANCH   9  14
BRANCH  12  24
ATOM     24  C   UNL     1      -5.340  -2.415  -2.108  1.00  0.00     0.227 C 
ATOM     25  O   UNL     1      -5.083  -2.208  -3.303  1.00  0.00    -0.275 OA
ATOM     26  N   UNL     1      -4.923  -3.586  -1.517  1.00  0.00    -0.338 N 
ATOM     27  C   UNL     1      -5.670  -4.447  -0.591  1.00  0.00     0.148 C 
ATOM     28  C   UNL     1      -3.774  -4.283  -2.092  1.00  0.00     0.148 C 
ATOM     29  C   UNL     1      -4.732  -5.010   0.495  1.00  0.00     0.181 C 
ATOM     30  C   UNL     1      -2.877  -4.778  -0.954  1.00  0.00     0.181 C 
ATOM     31  O   UNL     1      -3.600  -5.678  -0.096  1.00  0.00    -0.378 OA
ENDBRANCH  12  24
ENDBRANCH   6   8
ENDBRANCH   5   6
ENDBRANCH   4   5
ENDBRANCH   3   4
ENDBRANCH   2   3
ENDBRANCH   1   2
BRANCH   1  32
ATOM     32  C   UNL     1     -10.279  -2.633   0.667  1.00  0.00     0.261 C 
BRANCH  32  33
ATOM     33  O   UNL     1      -9.963  -1.281   1.000  1.00  0.00    -0.460 OA
BRANCH  33  34
ATOM     34  C   UNL     1     -10.926  -0.664   1.720  1.00  0.00     0.338 C 
ATOM     35  O   UNL     1     -11.867  -1.181   2.295  1.00  0.00    -0.246 OA
BRANCH  34  36
ATOM     36  C   UNL     1     -10.835   0.801   1.588  1.00  0.00     0.060 A 
ATOM     37  C   UNL     1     -11.933   1.425   2.197  1.00  0.00     0.016 A 
ATOM     38  C   UNL     1     -10.296   1.255   0.382  1.00  0.00     0.016 A 
ATOM     39  C   UNL     1     -12.772   2.147   1.382  1.00  0.00     0.010 A 
ATOM     40  C   UNL     1     -11.123   1.995  -0.423  1.00  0.00     0.010 A 
ATOM     41  C   UNL     1     -12.393   2.328   0.051  1.00  0.00    -0.014 A 
BRANCH  41  42
ATOM     42  C   UNL     1     -13.277   2.961  -0.892  1.00  0.00     0.031 A 
ATOM     43  C   UNL     1     -13.514   4.389  -0.657  1.00  0.00     0.074 A 
ATOM     44  C   UNL     1     -13.878   2.254  -1.872  1.00  0.00     0.049 A 
ATOM     45  N   UNL     1     -14.657   4.968  -0.740  1.00  0.00    -0.248 NA
ATOM     46  C   UNL     1     -12.454   5.262  -0.146  1.00  0.00     0.031 C 
ATOM     47  C   UNL     1     -14.658   2.803  -2.971  1.00  0.00     0.029 A 
ATOM     48  N   UNL     1     -14.055   0.874  -1.994  1.00  0.00    -0.354 N 
ATOM     49  C   UNL     1     -14.402   6.320  -0.686  1.00  0.00     0.074 A 
ATOM     50  C   UNL     1     -13.076   6.444  -0.127  1.00  0.00     0.031 C 
ATOM     51  C   UNL     1     -15.449   1.834  -3.464  1.00  0.00     0.029 A 
ATOM     52  C   UNL     1     -15.307   0.678  -2.593  1.00  0.00     0.049 A 
ATOM     53  H   UNL     1     -13.422   0.174  -1.713  1.00  0.00     0.167 HD
ATOM     54  C   UNL     1     -15.227   7.180  -1.343  1.00  0.00     0.034 A 
ATOM     55  C   UNL     1     -16.350   0.005  -2.021  1.00  0.00     0.034 A 
ATOM     56  C   UNL     1     -16.269   6.440  -2.038  1.00  0.00     0.049 A 
ATOM     57  C   UNL     1     -17.570   0.885  -1.881  1.00  0.00     0.074 A 
ATOM     58  C   UNL     1     -16.329   5.975  -3.343  1.00  0.00     0.029 A 
ATOM     59  N   UNL     1     -17.238   5.751  -1.325  1.00  0.00    -0.354 N 
ATOM     60  N   UNL     1     -17.499   2.180  -1.741  1.00  0.00    -0.248 NA
ATOM     61  C   UNL     1     -18.942   0.389  -1.877  1.00  0.00     0.031 C 
ATOM     62  C   UNL     1     -17.327   4.980  -3.409  1.00  0.00     0.029 A 
ATOM     63  C   UNL     1     -17.883   4.849  -2.148  1.00  0.00     0.049 A 
ATOM     64  H   UNL     1     -17.438   5.886  -0.371  1.00  0.00     0.167 HD
ATOM     65  C   UNL     1     -18.772   2.698  -1.709  1.00  0.00     0.074 A 
ATOM     66  C   UNL     1     -19.636   1.536  -1.775  1.00  0.00     0.031 C 
ATOM     67  C   UNL     1     -18.995   4.045  -1.663  1.00  0.00     0.034 A 
BRANCH  54  68
ATOM     68  C   UNL     1     -14.843   8.605  -1.669  1.00  0.00     0.023 A 
ATOM     69  C   UNL     1     -14.012   9.380  -0.832  1.00  0.00     0.012 A 
ATOM     70  C   UNL     1     -15.279   9.224  -2.862  1.00  0.00     0.148 A 
ATOM     71  C   UNL     1     -13.529  10.638  -1.220  1.00  0.00     0.002 A 
ATOM     72  C   UNL     1     -14.824  10.488  -3.231  1.00  0.00     0.091 A 
ATOM     73  F   UNL     1     -16.143   8.601  -3.672  1.00  0.00    -0.205 F 
ATOM     74  C   UNL     1     -13.927  11.191  -2.429  1.00  0.00     0.022 A 
BRANCH  72  75
ATOM     75  S   UNL     1     -15.416  11.203  -4.768  1.00  0.00     0.127 S 
ATOM     76  O   UNL     1     -14.896  10.282  -5.774  1.00  0.00    -0.237 OA
ATOM     77  O   UNL     1     -16.862  11.231  -4.582  1.00  0.00    -0.237 OA
ATOM     78  O   UNL     1     -14.788  12.525  -4.783  1.00  0.00    -0.744 OA
ENDBRANCH  72  75
ENDBRANCH  54  68
BRANCH  55  79
ATOM     79  C   UNL     1     -15.959  -1.034  -1.034  1.00  0.00     0.023 A 
ATOM     80  C   UNL     1     -15.838  -0.703   0.327  1.00  0.00     0.012 A 
ATOM     81  C   UNL     1     -15.319  -2.191  -1.521  1.00  0.00     0.148 A 
ATOM     82  C   UNL     1     -15.011  -1.463   1.161  1.00  0.00     0.002 A 
ATOM     83  C   UNL     1     -14.453  -2.905  -0.700  1.00  0.00     0.091 A 
ATOM     84  F   UNL     1     -15.465  -2.512  -2.816  1.00  0.00    -0.205 F 
ATOM     85  C   UNL     1     -14.301  -2.549   0.644  1.00  0.00     0.022 A 
BRANCH  83  86
ATOM     86  S   UNL     1     -13.339  -4.096  -1.456  1.00  0.00     0.127 S 
ATOM     87  O   UNL     1     -14.237  -5.046  -2.100  1.00  0.00    -0.237 OA
ATOM     88  O   UNL     1     -12.533  -3.252  -2.335  1.00  0.00    -0.237 OA
ATOM     89  O   UNL     1     -12.588  -4.645  -0.327  1.00  0.00    -0.744 OA
ENDBRANCH  83  86
ENDBRANCH  55  79
BRANCH  67  90
ATOM     90  C   UNL     1     -20.290   4.763  -1.347  1.00  0.00     0.023 A 
ATOM     91  C   UNL     1     -20.349   6.168  -1.565  1.00  0.00     0.012 A 
ATOM     92  C   UNL     1     -21.423   4.183  -0.766  1.00  0.00     0.148 A 
ATOM     93  C   UNL     1     -21.454   6.946  -1.219  1.00  0.00     0.002 A 
ATOM     94  C   UNL     1     -22.572   4.942  -0.534  1.00  0.00     0.091 A 
ATOM     95  F   UNL     1     -21.404   2.907  -0.365  1.00  0.00    -0.205 F 
ATOM     96  C   UNL     1     -22.586   6.325  -0.725  1.00  0.00     0.022 A 
BRANCH  94  97
ATOM     97  S   UNL     1     -24.088   4.081  -0.116  1.00  0.00     0.127 S 
ATOM     98  O   UNL     1     -24.280   3.207  -1.270  1.00  0.00    -0.237 OA
ATOM     99  O   UNL     1     -23.768   3.425   1.148  1.00  0.00    -0.237 OA
ATOM    100  O   UNL     1     -25.072   5.158  -0.005  1.00  0.00    -0.744 OA
ENDBRANCH  94  97
ENDBRANCH  67  90
ENDBRANCH  41  42
ENDBRANCH  34  36
ENDBRANCH  33  34
ENDBRANCH  32  33
ENDBRANCH   1  32
TORSDOF 20
