REMARK SMILES O=C(OCCOCCOC(=O)c1oc2cccc3c2c1CCC3)c1ccc(-c2c3nc(c(-c4cccc(S(=O)(=O)[O-])c4F)c4ccc([nH]4)c(-c4cccc(S(=O)(=O)[O-])c4F)c4nc(c(-c5cccc(S(=O)(=O)[O-])c5F)c5ccc2[nH]5)C=C4)C=C3)cc1
REMARK SMILES IDX 4 1 3 2 2 3 1 4 24 5 25 6 86 7 26 8 85 9 27 10 28 11 29 12
REMARK SMILES IDX 79 13 30 14 84 15 78 16 80 17 31 18 83 19 77 20 76 21 32 23
REMARK SMILES IDX 64 24 44 25 63 26 45 27 48 28 62 29 81 30 46 31 47 32 61 34
REMARK SMILES IDX 82 35 49 36 33 37 34 38 42 39 35 40 37 41 43 42 36 43 38 44
REMARK SMILES IDX 39 45 40 46 41 47 65 48 66 49 74 50 67 51 69 52 75 53 68 54
REMARK SMILES IDX 70 55 71 56 72 57 73 58 50 59 51 60 59 61 52 62 54 63 60 64
REMARK SMILES IDX 53 65 55 66 56 67 57 68 58 69 5 70 6 71 7 72 8 73 9 74 10 75
REMARK SMILES IDX 11 76 12 77 13 78 20 79 14 80 19 81 21 82 15 83 18 84 22 85
REMARK SMILES IDX 16 86 17 87 23 88
REMARK H PARENT 80 22 48 33
REMARK Flexibility Score: inf
ROOT
ATOM      1  C   UNL     1       4.661  -1.521  -0.523  1.00  0.00     0.261 C 
ENDROOT
BRANCH   1   2
ATOM      2  O   UNL     1       3.321  -1.979  -0.259  1.00  0.00    -0.460 OA
BRANCH   2   3
ATOM      3  C   UNL     1       2.341  -1.126   0.134  1.00  0.00     0.338 C 
ATOM      4  O   UNL     1       1.273  -1.056  -0.463  1.00  0.00    -0.246 OA
BRANCH   3   5
ATOM      5  C   UNL     1       2.499  -0.563   1.495  1.00  0.00     0.060 A 
ATOM      6  C   UNL     1       3.723  -0.145   2.019  1.00  0.00     0.016 A 
ATOM      7  C   UNL     1       1.355  -0.557   2.303  1.00  0.00     0.016 A 
ATOM      8  C   UNL     1       3.867   0.025   3.377  1.00  0.00     0.010 A 
ATOM      9  C   UNL     1       1.480  -0.324   3.663  1.00  0.00     0.010 A 
ATOM     10  C   UNL     1       2.754  -0.135   4.195  1.00  0.00    -0.014 A 
BRANCH  10  11
ATOM     11  C   UNL     1       3.016  -0.134   5.619  1.00  0.00     0.031 A 
ATOM     12  C   UNL     1       3.468   1.152   6.202  1.00  0.00     0.074 A 
ATOM     13  C   UNL     1       2.840  -1.244   6.356  1.00  0.00     0.049 A 
ATOM     14  N   UNL     1       4.582   1.413   6.810  1.00  0.00    -0.248 NA
ATOM     15  C   UNL     1       2.593   2.313   5.996  1.00  0.00     0.031 C 
ATOM     16  C   UNL     1       2.156  -2.480   5.965  1.00  0.00     0.029 A 
ATOM     17  N   UNL     1       3.107  -1.431   7.676  1.00  0.00    -0.354 N 
ATOM     18  C   UNL     1       4.466   2.734   7.230  1.00  0.00     0.074 A 
ATOM     19  C   UNL     1       3.287   3.276   6.598  1.00  0.00     0.031 C 
ATOM     20  C   UNL     1       1.820  -3.158   7.082  1.00  0.00     0.029 A 
ATOM     21  C   UNL     1       2.374  -2.468   8.233  1.00  0.00     0.049 A 
ATOM     22  H   UNL     1       3.753  -0.887   8.182  1.00  0.00     0.167 HD
ATOM     23  C   UNL     1       5.219   3.272   8.226  1.00  0.00     0.034 A 
ATOM     24  C   UNL     1       2.142  -2.644   9.553  1.00  0.00     0.034 A 
ATOM     25  C   UNL     1       6.370   2.495   8.567  1.00  0.00     0.049 A 
ATOM     26  C   UNL     1       3.191  -1.894  10.288  1.00  0.00     0.074 A 
ATOM     27  C   UNL     1       7.524   2.113   7.916  1.00  0.00     0.029 A 
ATOM     28  N   UNL     1       6.281   1.705   9.684  1.00  0.00    -0.354 N 
ATOM     29  N   UNL     1       4.460  -2.195  10.273  1.00  0.00    -0.248 NA
ATOM     30  C   UNL     1       2.873  -0.567  10.792  1.00  0.00     0.031 C 
ATOM     31  C   UNL     1       7.840   0.826   8.441  1.00  0.00     0.029 A 
ATOM     32  C   UNL     1       6.855   0.499   9.376  1.00  0.00     0.049 A 
ATOM     33  H   UNL     1       5.880   1.956  10.547  1.00  0.00     0.167 HD
ATOM     34  C   UNL     1       5.117  -0.976  10.381  1.00  0.00     0.074 A 
ATOM     35  C   UNL     1       4.097  -0.037  10.833  1.00  0.00     0.031 C 
ATOM     36  C   UNL     1       6.351  -0.782   9.827  1.00  0.00     0.034 A 
BRANCH  23  37
ATOM     37  C   UNL     1       4.715   4.387   9.087  1.00  0.00     0.023 A 
ATOM     38  C   UNL     1       5.626   5.262   9.703  1.00  0.00     0.012 A 
ATOM     39  C   UNL     1       3.356   4.483   9.460  1.00  0.00     0.148 A 
ATOM     40  C   UNL     1       5.190   6.226  10.620  1.00  0.00     0.002 A 
ATOM     41  C   UNL     1       2.916   5.497  10.297  1.00  0.00     0.091 A 
ATOM     42  F   UNL     1       2.499   3.523   9.080  1.00  0.00    -0.205 F 
ATOM     43  C   UNL     1       3.831   6.364  10.895  1.00  0.00     0.022 A 
BRANCH  41  44
ATOM     44  S   UNL     1       1.161   5.754  10.565  1.00  0.00     0.127 S 
ATOM     45  O   UNL     1       0.935   5.009  11.798  1.00  0.00    -0.237 OA
ATOM     46  O   UNL     1       1.077   7.210  10.694  1.00  0.00    -0.237 OA
ATOM     47  O   UNL     1       0.528   5.231   9.359  1.00  0.00    -0.744 OA
ENDBRANCH  41  44
ENDBRANCH  23  37
BRANCH  24  48
ATOM     48  C   UNL     1       0.923  -3.170  10.213  1.00  0.00     0.023 A 
ATOM     49  C   UNL     1       0.991  -3.537  11.571  1.00  0.00     0.012 A 
ATOM     50  C   UNL     1      -0.356  -3.086   9.614  1.00  0.00     0.148 A 
ATOM     51  C   UNL     1      -0.170  -3.773  12.315  1.00  0.00     0.002 A 
ATOM     52  C   UNL     1      -1.507  -3.351  10.351  1.00  0.00     0.091 A 
ATOM     53  F   UNL     1      -0.466  -2.646   8.354  1.00  0.00    -0.205 F 
ATOM     54  C   UNL     1      -1.419  -3.679  11.707  1.00  0.00     0.022 A 
BRANCH  52  55
ATOM     55  S   UNL     1      -3.139  -3.265   9.601  1.00  0.00     0.127 S 
ATOM     56  O   UNL     1      -3.852  -4.351  10.277  1.00  0.00    -0.237 OA
ATOM     57  O   UNL     1      -3.577  -1.924   9.972  1.00  0.00    -0.237 OA
ATOM     58  O   UNL     1      -2.921  -3.500   8.179  1.00  0.00    -0.744 OA
ENDBRANCH  52  55
ENDBRANCH  24  48
BRANCH  36  59
ATOM     59  C   UNL     1       7.103  -1.993   9.333  1.00  0.00     0.023 A 
ATOM     60  C   UNL     1       6.647  -2.727   8.218  1.00  0.00     0.012 A 
ATOM     61  C   UNL     1       8.379  -2.267   9.855  1.00  0.00     0.148 A 
ATOM     62  C   UNL     1       7.438  -3.725   7.645  1.00  0.00     0.002 A 
ATOM     63  C   UNL     1       9.180  -3.235   9.258  1.00  0.00     0.091 A 
ATOM     64  F   UNL     1       8.806  -1.543  10.901  1.00  0.00    -0.205 F 
ATOM     65  C   UNL     1       8.710  -3.970   8.157  1.00  0.00     0.022 A 
BRANCH  63  66
ATOM     66  S   UNL     1      10.875  -3.526   9.775  1.00  0.00     0.127 S 
ATOM     67  O   UNL     1      10.787  -4.852  10.383  1.00  0.00    -0.237 OA
ATOM     68  O   UNL     1      11.600  -3.484   8.504  1.00  0.00    -0.237 OA
ATOM     69  O   UNL     1      11.211  -2.442  10.690  1.00  0.00    -0.744 OA
ENDBRANCH  63  66
ENDBRANCH  36  59
ENDBRANCH  10  11
ENDBRANCH   3   5
ENDBRANCH   2   3
ENDBRANCH   1   2
BRANCH   1  70
ATOM     70  C   UNL     1       4.706  -0.282  -1.416  1.00  0.00     0.202 C 
BRANCH  70  71
ATOM     71  O   UNL     1       4.211   0.928  -0.843  1.00  0.00    -0.374 OA
BRANCH  71  72
ATOM     72  C   UNL     1       3.068   1.497  -1.500  1.00  0.00     0.202 C 
BRANCH  72  73
ATOM     73  C   UNL     1       3.340   2.197  -2.839  1.00  0.00     0.261 C 
BRANCH  73  74
ATOM     74  O   UNL     1       3.618   1.241  -3.882  1.00  0.00    -0.457 OA
BRANCH  74  75
ATOM     75  C   UNL     1       4.944   1.025  -4.140  1.00  0.00     0.374 C 
ATOM     76  O   UNL     1       5.853   1.750  -3.778  1.00  0.00    -0.242 OA
BRANCH  75  77
ATOM     77  C   UNL     1       5.098  -0.285  -4.733  1.00  0.00     0.216 A 
ATOM     78  O   UNL     1       6.026  -1.139  -4.150  1.00  0.00    -0.449 OA
ATOM     79  C   UNL     1       4.453  -0.952  -5.754  1.00  0.00     0.014 A 
ATOM     80  C   UNL     1       5.971  -2.329  -4.814  1.00  0.00     0.135 A 
ATOM     81  C   UNL     1       5.062  -2.218  -5.834  1.00  0.00     0.028 A 
ATOM     82  C   UNL     1       3.377  -0.621  -6.724  1.00  0.00     0.041 C 
ATOM     83  C   UNL     1       6.685  -3.495  -4.574  1.00  0.00     0.048 A 
ATOM     84  C   UNL     1       4.842  -3.233  -6.764  1.00  0.00    -0.037 A 
ATOM     85  C   UNL     1       3.611  -1.416  -8.044  1.00  0.00     0.010 C 
ATOM     86  C   UNL     1       6.446  -4.548  -5.480  1.00  0.00     0.004 A 
ATOM     87  C   UNL     1       5.552  -4.421  -6.562  1.00  0.00     0.004 A 
ATOM     88  C   UNL     1       3.846  -2.953  -7.857  1.00  0.00     0.036 C 
ENDBRANCH  75  77
ENDBRANCH  74  75
ENDBRANCH  73  74
ENDBRANCH  72  73
ENDBRANCH  71  72
ENDBRANCH  70  71
ENDBRANCH   1  70
TORSDOF 17
