REMARK SMILES CC[C@@H]1CCC[C@](CCCCCO)(C(=O)OCCOCCOC(=O)c2ccc(-c3c4nc(c(-c5cccc(S(=O)(=O)[O-])c5F)c5ccc([nH]5)c(-c5cccc(S(=O)(=O)[O-])c5F)c5nc(c(-c6cccc(S(=O)(=O)[O-])c6F)c6ccc3[nH]6)C=C5)C=C4)cc2)C1
REMARK SMILES IDX 17 1 16 2 14 3 15 4 7 5 3 6 4 7 88 8 5 9 6 10 2 11 1 12 8 13
REMARK SMILES IDX 9 14 10 15 11 16 12 17 13 18 18 20 19 21 20 22 21 23 22 24
REMARK SMILES IDX 23 25 24 26 25 27 26 28 87 29 27 30 86 31 28 32 29 33 30 34
REMARK SMILES IDX 80 35 31 36 85 37 79 38 81 39 32 40 84 41 78 42 77 43 33 45
REMARK SMILES IDX 65 46 45 47 64 48 46 49 49 50 63 51 82 52 47 53 48 54 62 56
REMARK SMILES IDX 83 57 50 58 34 59 35 60 43 61 36 62 38 63 44 64 37 65 39 66
REMARK SMILES IDX 40 67 41 68 42 69 66 70 67 71 75 72 68 73 70 74 76 75 69 76
REMARK SMILES IDX 71 77 72 78 73 79 74 80 51 81 52 82 60 83 53 84 55 85 61 86
REMARK SMILES IDX 54 87 56 88 57 89 58 90 59 91
REMARK H PARENT 13 19 81 44 49 55
REMARK Flexibility Score: inf
ROOT
ATOM      1  C   UNL     1      -1.822  -2.147   6.182  1.00  0.00     0.261 C 
ENDROOT
BRANCH   1   2
ATOM      2  O   UNL     1      -0.873  -2.141   5.095  1.00  0.00    -0.463 OA
BRANCH   2   3
ATOM      3  C   UNL     1      -0.482  -3.377   4.668  1.00  0.00     0.312 C 
ATOM      4  O   UNL     1      -0.897  -4.426   5.155  1.00  0.00    -0.252 OA
BRANCH   3   5
ATOM      5  C   UNL     1       0.580  -3.335   3.549  1.00  0.00     0.068 C 
ATOM      6  C   UNL     1       1.014  -2.389   1.134  1.00  0.00    -0.010 C 
ATOM      7  C   UNL     1       0.880  -3.810   0.570  1.00  0.00     0.003 C 
ATOM      8  C   UNL     1       0.250  -2.250   2.478  1.00  0.00     0.022 C 
ATOM      9  C   UNL     1       1.310  -4.854   1.584  1.00  0.00     0.001 C 
ATOM     10  C   UNL     1       0.487  -4.730   2.856  1.00  0.00     0.019 C 
BRANCH   6  11
ATOM     11  C   UNL     1       0.519  -1.391   0.065  1.00  0.00     0.000 C 
ATOM     12  C   UNL     1       0.932   0.046   0.337  1.00  0.00     0.004 C 
ENDBRANCH   6  11
BRANCH   5  13
ATOM     13  C   UNL     1       2.017  -3.150   4.130  1.00  0.00     0.019 C 
BRANCH  13  14
ATOM     14  C   UNL     1       2.211  -2.285   5.388  1.00  0.00     0.001 C 
BRANCH  14  15
ATOM     15  C   UNL     1       1.868  -2.934   6.741  1.00  0.00     0.002 C 
BRANCH  15  16
ATOM     16  C   UNL     1       2.495  -4.304   7.018  1.00  0.00     0.028 C 
BRANCH  16  17
ATOM     17  C   UNL     1       3.996  -4.257   7.261  1.00  0.00     0.156 C 
BRANCH  17  18
ATOM     18  O   UNL     1       4.264  -3.711   8.541  1.00  0.00    -0.396 OA
ATOM     19  H   UNL     1       3.909  -2.810   8.590  1.00  0.00     0.210 HD
ENDBRANCH  17  18
ENDBRANCH  16  17
ENDBRANCH  15  16
ENDBRANCH  14  15
ENDBRANCH  13  14
ENDBRANCH   5  13
ENDBRANCH   3   5
ENDBRANCH   2   3
ENDBRANCH   1   2
BRANCH   1  20
ATOM     20  C   UNL     1      -2.865  -1.031   6.093  1.00  0.00     0.202 C 
BRANCH  20  21
ATOM     21  O   UNL     1      -3.695  -1.011   4.934  1.00  0.00    -0.374 OA
BRANCH  21  22
ATOM     22  C   UNL     1      -3.056  -0.775   3.684  1.00  0.00     0.202 C 
BRANCH  22  23
ATOM     23  C   UNL     1      -2.491   0.631   3.428  1.00  0.00     0.261 C 
BRANCH  23  24
ATOM     24  O   UNL     1      -1.530   1.079   4.401  1.00  0.00    -0.460 OA
BRANCH  24  25
ATOM     25  C   UNL     1      -1.933   2.144   5.138  1.00  0.00     0.338 C 
ATOM     26  O   UNL     1      -3.009   2.743   5.028  1.00  0.00    -0.246 OA
BRANCH  25  27
ATOM     27  C   UNL     1      -0.991   2.473   6.219  1.00  0.00     0.060 A 
ATOM     28  C   UNL     1      -1.490   2.486   7.526  1.00  0.00     0.016 A 
ATOM     29  C   UNL     1       0.295   2.944   5.952  1.00  0.00     0.016 A 
ATOM     30  C   UNL     1      -0.732   3.037   8.561  1.00  0.00     0.010 A 
ATOM     31  C   UNL     1       1.055   3.503   6.992  1.00  0.00     0.010 A 
ATOM     32  C   UNL     1       0.524   3.599   8.291  1.00  0.00    -0.014 A 
BRANCH  32  33
ATOM     33  C   UNL     1       1.185   4.410   9.348  1.00  0.00     0.031 A 
ATOM     34  C   UNL     1       1.037   5.912   9.332  1.00  0.00     0.074 A 
ATOM     35  C   UNL     1       1.850   3.819  10.357  1.00  0.00     0.049 A 
ATOM     36  N   UNL     1       1.433   6.792  10.216  1.00  0.00    -0.248 NA
ATOM     37  C   UNL     1       0.349   6.499   8.170  1.00  0.00     0.031 C 
ATOM     38  C   UNL     1       2.077   2.381  10.492  1.00  0.00     0.029 A 
ATOM     39  N   UNL     1       2.458   4.361  11.463  1.00  0.00    -0.354 N 
ATOM     40  C   UNL     1       1.041   8.032   9.724  1.00  0.00     0.074 A 
ATOM     41  C   UNL     1       0.404   7.795   8.446  1.00  0.00     0.031 C 
ATOM     42  C   UNL     1       2.783   2.155  11.614  1.00  0.00     0.029 A 
ATOM     43  C   UNL     1       3.054   3.428  12.278  1.00  0.00     0.049 A 
ATOM     44  H   UNL     1       2.466   5.327  11.654  1.00  0.00     0.167 HD
ATOM     45  C   UNL     1       1.166   9.254  10.294  1.00  0.00     0.034 A 
ATOM     46  C   UNL     1       3.731   3.583  13.435  1.00  0.00     0.034 A 
ATOM     47  C   UNL     1       1.782   9.500  11.570  1.00  0.00     0.049 A 
ATOM     48  C   UNL     1       3.855   4.955  14.046  1.00  0.00     0.074 A 
ATOM     49  C   UNL     1       1.950  10.707  12.228  1.00  0.00     0.029 A 
ATOM     50  N   UNL     1       2.326   8.523  12.387  1.00  0.00    -0.354 N 
ATOM     51  N   UNL     1       3.367   6.096  13.624  1.00  0.00    -0.248 NA
ATOM     52  C   UNL     1       4.587   5.051  15.319  1.00  0.00     0.031 C 
ATOM     53  C   UNL     1       2.594  10.458  13.445  1.00  0.00     0.029 A 
ATOM     54  C   UNL     1       2.824   9.096  13.545  1.00  0.00     0.049 A 
ATOM     55  H   UNL     1       2.356   7.562  12.175  1.00  0.00     0.167 HD
ATOM     56  C   UNL     1       3.701   7.035  14.595  1.00  0.00     0.074 A 
ATOM     57  C   UNL     1       4.409   6.325  15.639  1.00  0.00     0.031 C 
ATOM     58  C   UNL     1       3.465   8.370  14.609  1.00  0.00     0.034 A 
BRANCH  45  59
ATOM     59  C   UNL     1       0.556  10.426   9.571  1.00  0.00     0.023 A 
ATOM     60  C   UNL     1      -0.841  10.607   9.628  1.00  0.00     0.012 A 
ATOM     61  C   UNL     1       1.352  11.378   8.906  1.00  0.00     0.148 A 
ATOM     62  C   UNL     1      -1.439  11.710   9.021  1.00  0.00     0.002 A 
ATOM     63  C   UNL     1       0.751  12.492   8.330  1.00  0.00     0.091 A 
ATOM     64  F   UNL     1       2.676  11.175   8.846  1.00  0.00    -0.205 F 
ATOM     65  C   UNL     1      -0.643  12.656   8.381  1.00  0.00     0.022 A 
BRANCH  63  66
ATOM     66  S   UNL     1       1.692  13.799   7.534  1.00  0.00     0.127 S 
ATOM     67  O   UNL     1       1.360  13.587   6.126  1.00  0.00    -0.237 OA
ATOM     68  O   UNL     1       1.107  15.005   8.123  1.00  0.00    -0.237 OA
ATOM     69  O   UNL     1       3.085  13.565   7.890  1.00  0.00    -0.744 OA
ENDBRANCH  63  66
ENDBRANCH  45  59
BRANCH  46  70
ATOM     70  C   UNL     1       4.289   2.394  14.138  1.00  0.00     0.023 A 
ATOM     71  C   UNL     1       3.716   1.972  15.353  1.00  0.00     0.012 A 
ATOM     72  C   UNL     1       5.386   1.685  13.615  1.00  0.00     0.148 A 
ATOM     73  C   UNL     1       4.246   0.885  16.049  1.00  0.00     0.002 A 
ATOM     74  C   UNL     1       5.877   0.572  14.289  1.00  0.00     0.091 A 
ATOM     75  F   UNL     1       5.941   2.114  12.471  1.00  0.00    -0.205 F 
ATOM     76  C   UNL     1       5.319   0.178  15.513  1.00  0.00     0.022 A 
BRANCH  74  77
ATOM     77  S   UNL     1       7.176  -0.440  13.574  1.00  0.00     0.127 S 
ATOM     78  O   UNL     1       8.380   0.182  14.117  1.00  0.00    -0.237 OA
ATOM     79  O   UNL     1       6.875  -1.770  14.109  1.00  0.00    -0.237 OA
ATOM     80  O   UNL     1       6.980  -0.323  12.133  1.00  0.00    -0.744 OA
ENDBRANCH  74  77
ENDBRANCH  46  70
BRANCH  58  81
ATOM     81  C   UNL     1       3.955   9.151  15.800  1.00  0.00     0.023 A 
ATOM     82  C   UNL     1       5.333   9.414  15.936  1.00  0.00     0.012 A 
ATOM     83  C   UNL     1       3.057   9.668  16.754  1.00  0.00     0.148 A 
ATOM     84  C   UNL     1       5.812  10.149  17.021  1.00  0.00     0.002 A 
ATOM     85  C   UNL     1       3.538  10.433  17.812  1.00  0.00     0.091 A 
ATOM     86  F   UNL     1       1.751   9.391  16.625  1.00  0.00    -0.205 F 
ATOM     87  C   UNL     1       4.915  10.666  17.953  1.00  0.00     0.022 A 
BRANCH  85  88
ATOM     88  S   UNL     1       2.428  11.196  19.000  1.00  0.00     0.127 S 
ATOM     89  O   UNL     1       2.382  10.191  20.060  1.00  0.00    -0.237 OA
ATOM     90  O   UNL     1       3.135  12.427  19.359  1.00  0.00    -0.237 OA
ATOM     91  O   UNL     1       1.183  11.416  18.274  1.00  0.00    -0.744 OA
ENDBRANCH  85  88
ENDBRANCH  58  81
ENDBRANCH  32  33
ENDBRANCH  25  27
ENDBRANCH  24  25
ENDBRANCH  23  24
ENDBRANCH  22  23
ENDBRANCH  21  22
ENDBRANCH  20  21
ENDBRANCH   1  20
TORSDOF 24
