REMARK SMILES CCC(CC)COc1cc2c(cc1Cl)C=C(C(=O)OCCOCCOC(=O)c1ccc(-c3c4nc(c(-c5cccc(S(=O)(=O)[O-])c5F)c5ccc([nH]5)c(-c5cccc(S(=O)(=O)[O-])c5F)c5nc(c(-c6cccc(S(=O)(=O)[O-])c6F)c6ccc3[nH]6)C=C5)C=C4)cc1)[C@@H](C(F)(F)F)O2
REMARK SMILES IDX 21 1 20 2 19 3 17 4 18 5 16 6 8 7 9 8 13 9 10 10 12 11 14 12
REMARK SMILES IDX 11 13 96 14 15 15 91 16 7 17 6 18 3 19 2 20 1 21 4 22 5 23
REMARK SMILES IDX 92 24 93 25 94 26 95 27 22 28 23 29 24 30 25 31 26 32 27 33
REMARK SMILES IDX 28 34 29 35 90 36 30 37 89 38 31 39 32 40 33 41 83 42 34 43
REMARK SMILES IDX 88 44 82 45 84 46 35 47 87 48 81 49 80 50 36 52 68 53 48 54
REMARK SMILES IDX 67 55 49 56 52 57 66 58 85 59 50 60 51 61 65 63 86 64 53 65
REMARK SMILES IDX 37 66 38 67 46 68 39 69 41 70 47 71 40 72 42 73 43 74 44 75
REMARK SMILES IDX 45 76 69 77 70 78 78 79 71 80 73 81 79 82 72 83 74 84 75 85
REMARK SMILES IDX 76 86 77 87 54 88 55 89 63 90 56 91 58 92 64 93 57 94 59 95
REMARK SMILES IDX 60 96 61 97 62 98
REMARK H PARENT 84 51 52 62
REMARK Flexibility Score: inf
ROOT
ATOM      1  C   UNL     1      -1.389 -10.103  -2.427  1.00  0.00     0.202 C 
ENDROOT
BRANCH   1   2
ATOM      2  C   UNL     1      -0.199 -10.175  -1.463  1.00  0.00     0.261 C 
BRANCH   2   3
ATOM      3  O   UNL     1      -0.281  -9.219  -0.393  1.00  0.00    -0.460 OA
BRANCH   3   4
ATOM      4  C   UNL     1       0.640  -8.235  -0.489  1.00  0.00     0.338 C 
ATOM      5  O   UNL     1       1.542  -8.158  -1.311  1.00  0.00    -0.246 OA
BRANCH   4   6
ATOM      6  C   UNL     1       0.361  -7.145   0.460  1.00  0.00     0.087 C 
ATOM      7  C   UNL     1       1.153  -2.808   2.753  1.00  0.00     0.141 A 
ATOM      8  C   UNL     1       0.383  -3.926   3.114  1.00  0.00     0.095 A 
ATOM      9  C   UNL     1       1.874  -2.826   1.553  1.00  0.00     0.083 A 
ATOM     10  C   UNL     1       0.268  -4.997   2.221  1.00  0.00     0.131 A 
ATOM     11  C   UNL     1       1.605  -3.798   0.601  1.00  0.00     0.036 A 
ATOM     12  Cl  UNL     1       3.151  -1.720   1.205  1.00  0.00    -0.080 Cl
ATOM     13  C   UNL     1       0.790  -4.873   0.933  1.00  0.00     0.019 A 
ATOM     14  O   UNL     1      -0.345  -6.156   2.632  1.00  0.00    -0.475 OA
ATOM     15  C   UNL     1       0.622  -5.931  -0.035  1.00  0.00     0.027 C 
ATOM     16  C   UNL     1       0.035  -7.385   1.907  1.00  0.00     0.316 C 
BRANCH   7  17
ATOM     17  O   UNL     1       1.278  -1.751   3.617  1.00  0.00    -0.492 OA
BRANCH  17  18
ATOM     18  C   UNL     1       0.257  -0.735   3.447  1.00  0.00     0.233 C 
BRANCH  18  19
ATOM     19  C   UNL     1       0.554   0.250   2.282  1.00  0.00     0.026 C 
BRANCH  19  20
ATOM     20  C   UNL     1      -0.130  -0.205   0.970  1.00  0.00     0.003 C 
ATOM     21  C   UNL     1       0.475   0.433  -0.274  1.00  0.00     0.004 C 
ENDBRANCH  19  20
BRANCH  19  22
ATOM     22  C   UNL     1       0.216   1.718   2.625  1.00  0.00     0.003 C 
ATOM     23  C   UNL     1      -1.262   2.048   2.749  1.00  0.00     0.004 C 
ENDBRANCH  19  22
ENDBRANCH  18  19
ENDBRANCH  17  18
ENDBRANCH   7  17
BRANCH  16  24
ATOM     24  C   UNL     1       1.187  -8.116   2.615  1.00  0.00     0.430 C 
ATOM     25  F   UNL     1       0.924  -8.311   3.927  1.00  0.00    -0.167 F 
ATOM     26  F   UNL     1       1.398  -9.337   2.068  1.00  0.00    -0.167 F 
ATOM     27  F   UNL     1       2.351  -7.431   2.530  1.00  0.00    -0.167 F 
ENDBRANCH  16  24
ENDBRANCH   4   6
ENDBRANCH   3   4
ENDBRANCH   2   3
ENDBRANCH   1   2
BRANCH   1  28
ATOM     28  O   UNL     1      -1.731  -8.845  -3.001  1.00  0.00    -0.374 OA
BRANCH  28  29
ATOM     29  C   UNL     1      -2.265  -7.819  -2.170  1.00  0.00     0.202 C 
BRANCH  29  30
ATOM     30  C   UNL     1      -3.619  -8.024  -1.478  1.00  0.00     0.261 C 
BRANCH  30  31
ATOM     31  O   UNL     1      -3.658  -9.153  -0.594  1.00  0.00    -0.460 OA
BRANCH  31  32
ATOM     32  C   UNL     1      -4.410 -10.193  -1.046  1.00  0.00     0.338 C 
ATOM     33  O   UNL     1      -5.017 -10.256  -2.098  1.00  0.00    -0.246 OA
BRANCH  32  34
ATOM     34  C   UNL     1      -4.234 -11.346  -0.144  1.00  0.00     0.060 A 
ATOM     35  C   UNL     1      -4.527 -11.240   1.215  1.00  0.00     0.016 A 
ATOM     36  C   UNL     1      -3.824 -12.568  -0.695  1.00  0.00     0.016 A 
ATOM     37  C   UNL     1      -4.433 -12.375   2.021  1.00  0.00     0.010 A 
ATOM     38  C   UNL     1      -3.734 -13.702   0.113  1.00  0.00     0.010 A 
ATOM     39  C   UNL     1      -4.058 -13.617   1.473  1.00  0.00    -0.014 A 
BRANCH  39  40
ATOM     40  C   UNL     1      -4.153 -14.841   2.305  1.00  0.00     0.031 A 
ATOM     41  C   UNL     1      -2.932 -15.550   2.808  1.00  0.00     0.074 A 
ATOM     42  C   UNL     1      -5.379 -15.311   2.606  1.00  0.00     0.049 A 
ATOM     43  N   UNL     1      -2.861 -16.546   3.652  1.00  0.00    -0.248 NA
ATOM     44  C   UNL     1      -1.628 -15.096   2.300  1.00  0.00     0.031 C 
ATOM     45  C   UNL     1      -6.637 -14.749   2.108  1.00  0.00     0.029 A 
ATOM     46  N   UNL     1      -5.773 -16.356   3.402  1.00  0.00    -0.354 N 
ATOM     47  C   UNL     1      -1.511 -16.840   3.782  1.00  0.00     0.074 A 
ATOM     48  C   UNL     1      -0.796 -15.934   2.908  1.00  0.00     0.031 C 
ATOM     49  C   UNL     1      -7.663 -15.431   2.639  1.00  0.00     0.029 A 
ATOM     50  C   UNL     1      -7.138 -16.488   3.498  1.00  0.00     0.049 A 
ATOM     51  H   UNL     1      -5.139 -16.954   3.860  1.00  0.00     0.167 HD
ATOM     52  C   UNL     1      -0.925 -17.765   4.577  1.00  0.00     0.034 A 
ATOM     53  C   UNL     1      -7.888 -17.352   4.210  1.00  0.00     0.034 A 
ATOM     54  C   UNL     1      -1.641 -18.653   5.453  1.00  0.00     0.049 A 
ATOM     55  C   UNL     1      -7.212 -18.353   5.101  1.00  0.00     0.074 A 
ATOM     56  C   UNL     1      -1.123 -19.576   6.345  1.00  0.00     0.029 A 
ATOM     57  N   UNL     1      -3.021 -18.743   5.539  1.00  0.00    -0.354 N 
ATOM     58  N   UNL     1      -5.931 -18.519   5.320  1.00  0.00    -0.248 NA
ATOM     59  C   UNL     1      -8.077 -19.264   5.865  1.00  0.00     0.031 C 
ATOM     60  C   UNL     1      -2.190 -20.239   6.956  1.00  0.00     0.029 A 
ATOM     61  C   UNL     1      -3.372 -19.711   6.463  1.00  0.00     0.049 A 
ATOM     62  H   UNL     1      -3.657 -18.198   5.021  1.00  0.00     0.167 HD
ATOM     63  C   UNL     1      -5.835 -19.534   6.263  1.00  0.00     0.074 A 
ATOM     64  C   UNL     1      -7.188 -19.942   6.581  1.00  0.00     0.031 C 
ATOM     65  C   UNL     1      -4.721 -20.079   6.806  1.00  0.00     0.034 A 
BRANCH  52  66
ATOM     66  C   UNL     1       0.577 -17.836   4.602  1.00  0.00     0.023 A 
ATOM     67  C   UNL     1       1.293 -16.876   5.343  1.00  0.00     0.012 A 
ATOM     68  C   UNL     1       1.263 -18.916   4.015  1.00  0.00     0.148 A 
ATOM     69  C   UNL     1       2.674 -16.986   5.496  1.00  0.00     0.002 A 
ATOM     70  C   UNL     1       2.636 -19.035   4.195  1.00  0.00     0.091 A 
ATOM     71  F   UNL     1       0.558 -19.813   3.311  1.00  0.00    -0.205 F 
ATOM     72  C   UNL     1       3.342 -18.070   4.933  1.00  0.00     0.022 A 
BRANCH  70  73
ATOM     73  S   UNL     1       3.587 -20.418   3.556  1.00  0.00     0.127 S 
ATOM     74  O   UNL     1       4.470 -19.750   2.599  1.00  0.00    -0.237 OA
ATOM     75  O   UNL     1       4.255 -20.913   4.759  1.00  0.00    -0.237 OA
ATOM     76  O   UNL     1       2.622 -21.335   2.967  1.00  0.00    -0.744 OA
ENDBRANCH  70  73
ENDBRANCH  52  66
BRANCH  53  77
ATOM     77  C   UNL     1      -9.370 -17.236   4.158  1.00  0.00     0.023 A 
ATOM     78  C   UNL     1     -10.055 -16.655   5.242  1.00  0.00     0.012 A 
ATOM     79  C   UNL     1     -10.087 -17.620   3.009  1.00  0.00     0.148 A 
ATOM     80  C   UNL     1     -11.436 -16.464   5.184  1.00  0.00     0.002 A 
ATOM     81  C   UNL     1     -11.456 -17.393   2.944  1.00  0.00     0.091 A 
ATOM     82  F   UNL     1      -9.405 -18.165   1.992  1.00  0.00    -0.205 F 
ATOM     83  C   UNL     1     -12.134 -16.823   4.034  1.00  0.00     0.022 A 
BRANCH  81  84
ATOM     84  S   UNL     1     -12.425 -17.733   1.471  1.00  0.00     0.127 S 
ATOM     85  O   UNL     1     -13.354 -18.752   1.955  1.00  0.00    -0.237 OA
ATOM     86  O   UNL     1     -13.027 -16.426   1.204  1.00  0.00    -0.237 OA
ATOM     87  O   UNL     1     -11.475 -18.182   0.464  1.00  0.00    -0.744 OA
ENDBRANCH  81  84
ENDBRANCH  53  77
BRANCH  65  88
ATOM     88  C   UNL     1      -4.884 -21.172   7.826  1.00  0.00     0.023 A 
ATOM     89  C   UNL     1      -5.152 -22.486   7.397  1.00  0.00     0.012 A 
ATOM     90  C   UNL     1      -4.609 -20.923   9.185  1.00  0.00     0.148 A 
ATOM     91  C   UNL     1      -5.141 -23.540   8.309  1.00  0.00     0.002 A 
ATOM     92  C   UNL     1      -4.566 -21.983  10.082  1.00  0.00     0.091 A 
ATOM     93  F   UNL     1      -4.361 -19.661   9.564  1.00  0.00    -0.205 F 
ATOM     94  C   UNL     1      -4.834 -23.292   9.646  1.00  0.00     0.022 A 
BRANCH  92  95
ATOM     95  S   UNL     1      -4.107 -21.777  11.806  1.00  0.00     0.127 S 
ATOM     96  O   UNL     1      -5.335 -22.181  12.491  1.00  0.00    -0.237 OA
ATOM     97  O   UNL     1      -2.994 -22.716  11.943  1.00  0.00    -0.237 OA
ATOM     98  O   UNL     1      -3.748 -20.374  11.966  1.00  0.00    -0.744 OA
ENDBRANCH  92  95
ENDBRANCH  65  88
ENDBRANCH  39  40
ENDBRANCH  32  34
ENDBRANCH  31  32
ENDBRANCH  30  31
ENDBRANCH  29  30
ENDBRANCH  28  29
ENDBRANCH   1  28
TORSDOF 23
