REMARK SMILES COc1ccc([C@H]([NH3+])C(F)(F)F)c(C(=O)OCCOCCOC(=O)c2ccc(-c3c4nc(c(-c5cccc(S(=O)(=O)[O-])c5F)c5ccc([nH]5)c(-c5cccc(S(=O)(=O)[O-])c5F)c5nc(c(-c6cccc(S(=O)(=O)[O-])c6F)c6ccc3[nH]6)C=C5)C=C4)cc2)c1
REMARK SMILES IDX 20 1 19 2 18 3 17 4 16 5 14 6 15 7 13 8 3 9 4 10 88 11 5 12
REMARK SMILES IDX 6 13 2 14 1 15 7 16 9 17 10 18 11 19 12 20 8 21 21 25 22 26
REMARK SMILES IDX 23 27 24 28 25 29 26 30 87 31 27 32 86 33 28 34 29 35 30 36
REMARK SMILES IDX 80 37 31 38 85 39 79 40 81 41 32 42 84 43 78 44 77 45 33 47
REMARK SMILES IDX 65 48 45 49 64 50 46 51 49 52 63 53 82 54 47 55 48 56 62 58
REMARK SMILES IDX 83 59 50 60 34 61 35 62 43 63 36 64 38 65 44 66 37 67 39 68
REMARK SMILES IDX 40 69 41 70 42 71 66 72 67 73 75 74 68 75 70 76 76 77 69 78
REMARK SMILES IDX 71 79 72 80 73 81 74 82 51 83 52 84 60 85 53 86 55 87 61 88
REMARK SMILES IDX 54 89 56 90 57 91 58 92 59 93
REMARK H PARENT 8 22 8 23 8 24 81 46 49 57
REMARK Flexibility Score: inf
ROOT
ATOM      1  C   UNL     1       2.616   3.426  -3.173  1.00  0.00     0.202 C 
ENDROOT
BRANCH   1   2
ATOM      2  O   UNL     1       1.693   2.389  -2.838  1.00  0.00    -0.374 OA
BRANCH   2   3
ATOM      3  C   UNL     1       0.569   2.204  -3.699  1.00  0.00     0.202 C 
BRANCH   3   4
ATOM      4  C   UNL     1      -0.584   3.208  -3.589  1.00  0.00     0.261 C 
BRANCH   4   5
ATOM      5  O   UNL     1      -0.161   4.536  -3.935  1.00  0.00    -0.460 OA
BRANCH   5   6
ATOM      6  C   UNL     1      -0.207   5.444  -2.930  1.00  0.00     0.338 C 
ATOM      7  O   UNL     1      -0.688   5.275  -1.821  1.00  0.00    -0.246 OA
BRANCH   6   8
ATOM      8  C   UNL     1       0.593   6.642  -3.297  1.00  0.00     0.073 A 
ATOM      9  C   UNL     1       1.188   8.273  -5.005  1.00  0.00     0.119 A 
ATOM     10  C   UNL     1       2.043   8.888  -4.096  1.00  0.00     0.047 A 
ATOM     11  C   UNL     1       0.472   7.144  -4.612  1.00  0.00     0.062 A 
ATOM     12  C   UNL     1       2.179   8.394  -2.798  1.00  0.00     0.015 A 
ATOM     13  C   UNL     1       1.468   7.256  -2.367  1.00  0.00     0.033 A 
BRANCH   9  14
ATOM     14  O   UNL     1       1.161   8.853  -6.243  1.00  0.00    -0.497 OA
ATOM     15  C   UNL     1       0.022   8.575  -7.051  1.00  0.00     0.278 C 
ENDBRANCH   9  14
BRANCH  13  16
ATOM     16  C   UNL     1       1.713   6.798  -0.926  1.00  0.00     0.319 C 
BRANCH  16  17
ATOM     17  C   UNL     1       0.784   7.513   0.101  1.00  0.00     0.445 C 
ATOM     18  F   UNL     1       1.007   7.012   1.346  1.00  0.00    -0.165 F 
ATOM     19  F   UNL     1       1.063   8.838   0.164  1.00  0.00    -0.165 F 
ATOM     20  F   UNL     1      -0.528   7.380  -0.160  1.00  0.00    -0.165 F 
ENDBRANCH  16  17
BRANCH  16  21
ATOM     21  N   UNL     1       1.860   5.327  -0.784  1.00  0.00    -0.344 N 
ATOM     22  H   UNL     1       0.979   4.872  -1.025  1.00  0.00     0.345 HD
ATOM     23  H   UNL     1       2.107   5.101   0.179  1.00  0.00     0.345 HD
ATOM     24  H   UNL     1       2.594   4.996  -1.410  1.00  0.00     0.345 HD
ENDBRANCH  16  21
ENDBRANCH  13  16
ENDBRANCH   6   8
ENDBRANCH   5   6
ENDBRANCH   4   5
ENDBRANCH   3   4
ENDBRANCH   2   3
ENDBRANCH   1   2
BRANCH   1  25
ATOM     25  C   UNL     1       3.639   3.168  -4.284  1.00  0.00     0.261 C 
BRANCH  25  26
ATOM     26  O   UNL     1       3.036   2.808  -5.530  1.00  0.00    -0.460 OA
BRANCH  26  27
ATOM     27  C   UNL     1       3.052   1.480  -5.785  1.00  0.00     0.338 C 
ATOM     28  O   UNL     1       3.575   0.600  -5.116  1.00  0.00    -0.246 OA
BRANCH  27  29
ATOM     29  C   UNL     1       2.165   1.198  -6.923  1.00  0.00     0.060 A 
ATOM     30  C   UNL     1       1.181   0.218  -6.747  1.00  0.00     0.016 A 
ATOM     31  C   UNL     1       2.314   1.857  -8.145  1.00  0.00     0.016 A 
ATOM     32  C   UNL     1       0.371  -0.147  -7.815  1.00  0.00     0.010 A 
ATOM     33  C   UNL     1       1.504   1.485  -9.218  1.00  0.00     0.010 A 
ATOM     34  C   UNL     1       0.557   0.456  -9.065  1.00  0.00    -0.014 A 
BRANCH  34  35
ATOM     35  C   UNL     1      -0.149  -0.089 -10.245  1.00  0.00     0.031 A 
ATOM     36  C   UNL     1       0.607  -0.962 -11.205  1.00  0.00     0.074 A 
ATOM     37  C   UNL     1      -1.449   0.189 -10.444  1.00  0.00     0.049 A 
ATOM     38  N   UNL     1       0.194  -1.529 -12.306  1.00  0.00    -0.248 NA
ATOM     39  C   UNL     1       2.020  -1.229 -10.884  1.00  0.00     0.031 C 
ATOM     40  C   UNL     1      -2.276   1.024  -9.573  1.00  0.00     0.029 A 
ATOM     41  N   UNL     1      -2.293  -0.185 -11.456  1.00  0.00    -0.354 N 
ATOM     42  C   UNL     1       1.298  -2.193 -12.827  1.00  0.00     0.074 A 
ATOM     43  C   UNL     1       2.404  -1.947 -11.929  1.00  0.00     0.031 C 
ATOM     44  C   UNL     1      -3.506   1.120 -10.104  1.00  0.00     0.029 A 
ATOM     45  C   UNL     1      -3.543   0.379 -11.362  1.00  0.00     0.049 A 
ATOM     46  H   UNL     1      -2.030  -0.798 -12.181  1.00  0.00     0.167 HD
ATOM     47  C   UNL     1       1.377  -2.950 -13.947  1.00  0.00     0.034 A 
ATOM     48  C   UNL     1      -4.587   0.322 -12.211  1.00  0.00     0.034 A 
ATOM     49  C   UNL     1       0.267  -3.198 -14.826  1.00  0.00     0.049 A 
ATOM     50  C   UNL     1      -4.464  -0.508 -13.462  1.00  0.00     0.074 A 
ATOM     51  C   UNL     1       0.227  -3.991 -15.958  1.00  0.00     0.029 A 
ATOM     52  N   UNL     1      -0.995  -2.640 -14.682  1.00  0.00    -0.354 N 
ATOM     53  N   UNL     1      -3.450  -1.226 -13.881  1.00  0.00    -0.248 NA
ATOM     54  C   UNL     1      -5.641  -0.562 -14.340  1.00  0.00     0.031 C 
ATOM     55  C   UNL     1      -1.048  -3.881 -16.522  1.00  0.00     0.029 A 
ATOM     56  C   UNL     1      -1.817  -3.056 -15.716  1.00  0.00     0.049 A 
ATOM     57  H   UNL     1      -1.266  -2.038 -13.953  1.00  0.00     0.167 HD
ATOM     58  C   UNL     1      -3.877  -1.845 -15.051  1.00  0.00     0.074 A 
ATOM     59  C   UNL     1      -5.251  -1.434 -15.259  1.00  0.00     0.031 C 
ATOM     60  C   UNL     1      -3.194  -2.668 -15.885  1.00  0.00     0.034 A 
BRANCH  47  61
ATOM     61  C   UNL     1       2.708  -3.573 -14.279  1.00  0.00     0.023 A 
ATOM     62  C   UNL     1       3.204  -4.634 -13.494  1.00  0.00     0.012 A 
ATOM     63  C   UNL     1       3.442  -3.142 -15.401  1.00  0.00     0.148 A 
ATOM     64  C   UNL     1       4.425  -5.234 -13.801  1.00  0.00     0.002 A 
ATOM     65  C   UNL     1       4.634  -3.776 -15.729  1.00  0.00     0.091 A 
ATOM     66  F   UNL     1       2.966  -2.116 -16.121  1.00  0.00    -0.205 F 
ATOM     67  C   UNL     1       5.133  -4.813 -14.924  1.00  0.00     0.022 A 
BRANCH  65  68
ATOM     68  S   UNL     1       5.580  -3.363 -17.198  1.00  0.00     0.127 S 
ATOM     69  O   UNL     1       6.780  -2.761 -16.618  1.00  0.00    -0.237 OA
ATOM     70  O   UNL     1       5.791  -4.677 -17.806  1.00  0.00    -0.237 OA
ATOM     71  O   UNL     1       4.744  -2.459 -17.976  1.00  0.00    -0.744 OA
ENDBRANCH  65  68
ENDBRANCH  47  61
BRANCH  48  72
ATOM     72  C   UNL     1      -5.845   1.054 -11.895  1.00  0.00     0.023 A 
ATOM     73  C   UNL     1      -7.015   0.333 -11.589  1.00  0.00     0.012 A 
ATOM     74  C   UNL     1      -5.881   2.462 -11.882  1.00  0.00     0.148 A 
ATOM     75  C   UNL     1      -8.207   1.001 -11.309  1.00  0.00     0.002 A 
ATOM     76  C   UNL     1      -7.057   3.121 -11.545  1.00  0.00     0.091 A 
ATOM     77  F   UNL     1      -4.760   3.129 -12.189  1.00  0.00    -0.205 F 
ATOM     78  C   UNL     1      -8.226   2.393 -11.278  1.00  0.00     0.022 A 
BRANCH  76  79
ATOM     79  S   UNL     1      -7.138   4.904 -11.349  1.00  0.00     0.127 S 
ATOM     80  O   UNL     1      -7.974   5.292 -12.482  1.00  0.00    -0.237 OA
ATOM     81  O   UNL     1      -7.775   5.034 -10.038  1.00  0.00    -0.237 OA
ATOM     82  O   UNL     1      -5.758   5.370 -11.394  1.00  0.00    -0.744 OA
ENDBRANCH  76  79
ENDBRANCH  48  72
BRANCH  60  83
ATOM     83  C   UNL     1      -3.932  -3.215 -17.081  1.00  0.00     0.023 A 
ATOM     84  C   UNL     1      -4.269  -2.364 -18.152  1.00  0.00     0.012 A 
ATOM     85  C   UNL     1      -4.237  -4.588 -17.167  1.00  0.00     0.148 A 
ATOM     86  C   UNL     1      -4.936  -2.862 -19.270  1.00  0.00     0.002 A 
ATOM     87  C   UNL     1      -4.851  -5.087 -18.308  1.00  0.00     0.091 A 
ATOM     88  F   UNL     1      -3.921  -5.380 -16.132  1.00  0.00    -0.205 F 
ATOM     89  C   UNL     1      -5.216  -4.224 -19.354  1.00  0.00     0.022 A 
BRANCH  87  90
ATOM     90  S   UNL     1      -5.162  -6.840 -18.548  1.00  0.00     0.127 S 
ATOM     91  O   UNL     1      -6.617  -6.903 -18.430  1.00  0.00    -0.237 OA
ATOM     92  O   UNL     1      -4.648  -7.063 -19.900  1.00  0.00    -0.237 OA
ATOM     93  O   UNL     1      -4.421  -7.527 -17.498  1.00  0.00    -0.744 OA
ENDBRANCH  87  90
ENDBRANCH  60  83
ENDBRANCH  34  35
ENDBRANCH  27  29
ENDBRANCH  26  27
ENDBRANCH  25  26
ENDBRANCH   1  25
TORSDOF 21
