REMARK SMILES CCc1nc(C(=O)N2CC[NH+]([C@H](C)C(=O)OCCOCCOC(=O)c3ccc(-c4c5nc(c(-c6cccc(S(=O)(=O)[O-])c6F)c6ccc([nH]6)c(-c6cccc(S(=O)(=O)[O-])c6F)c6nc(c(-c7cccc(S(=O)(=O)[O-])c7F)c7ccc4[nH]7)C=C6)C=C5)cc3)CC2)n[nH]1
REMARK SMILES IDX 19 1 18 2 17 3 16 4 14 5 15 6 12 7 13 8 11 9 6 10 7 11 8 12
REMARK SMILES IDX 9 13 89 14 10 15 88 16 5 18 3 19 4 20 91 21 90 22 2 24 1 25
REMARK SMILES IDX 20 26 21 27 22 28 23 29 24 30 25 31 26 32 87 33 27 34 86 35
REMARK SMILES IDX 28 36 29 37 30 38 80 39 31 40 85 41 79 42 81 43 32 44 84 45
REMARK SMILES IDX 78 46 77 47 33 49 65 50 45 51 64 52 46 53 49 54 63 55 82 56
REMARK SMILES IDX 47 57 48 58 62 60 83 61 50 62 34 63 35 64 43 65 36 66 38 67
REMARK SMILES IDX 44 68 37 69 39 70 40 71 41 72 42 73 66 74 67 75 75 76 68 77
REMARK SMILES IDX 70 78 76 79 69 80 71 81 72 82 73 83 74 84 51 85 52 86 60 87
REMARK SMILES IDX 53 88 55 89 61 90 54 91 56 92 57 93 58 94 59 95
REMARK H PARENT 11 17 91 23 81 48 49 59
REMARK Flexibility Score: inf
ROOT
ATOM      1  O   UNL     1       7.947  -2.991  -6.511  1.00  0.00    -0.374 OA
ENDROOT
BRANCH   1   2
ATOM      2  C   UNL     1       8.314  -1.673  -6.926  1.00  0.00     0.202 C 
BRANCH   2   3
ATOM      3  C   UNL     1       7.317  -0.948  -7.834  1.00  0.00     0.261 C 
BRANCH   3   4
ATOM      4  O   UNL     1       6.141  -0.563  -7.100  1.00  0.00    -0.459 OA
BRANCH   4   5
ATOM      5  C   UNL     1       4.955  -1.078  -7.532  1.00  0.00     0.364 C 
ATOM      6  O   UNL     1       4.820  -1.783  -8.527  1.00  0.00    -0.245 OA
BRANCH   5   7
ATOM      7  C   UNL     1       3.783  -0.679  -6.611  1.00  0.00     0.292 C 
ATOM      8  C   UNL     1       4.176  -0.561  -5.131  1.00  0.00     0.088 C 
BRANCH   7   9
ATOM      9  N   UNL     1       3.067   0.482  -7.188  1.00  0.00    -0.321 N 
ATOM     10  C   UNL     1       1.415   4.166  -6.414  1.00  0.00     0.293 C 
ATOM     11  O   UNL     1       1.844   5.269  -6.757  1.00  0.00    -0.265 OA
ATOM     12  N   UNL     1       1.727   3.028  -7.154  1.00  0.00    -0.325 N 
ATOM     13  C   UNL     1       3.050   2.925  -7.756  1.00  0.00     0.181 C 
ATOM     14  C   UNL     1       0.938   1.805  -7.216  1.00  0.00     0.181 C 
ATOM     15  C   UNL     1       3.817   1.758  -7.090  1.00  0.00     0.284 C 
ATOM     16  C   UNL     1       1.708   0.620  -6.616  1.00  0.00     0.284 C 
ATOM     17  H   UNL     1       2.983   0.281  -8.184  1.00  0.00     0.348 HD
BRANCH  10  18
ATOM     18  C   UNL     1       0.660   3.983  -5.147  1.00  0.00     0.239 A 
ATOM     19  C   UNL     1       0.048   3.092  -3.304  1.00  0.00     0.124 A 
ATOM     20  N   UNL     1       0.547   2.768  -4.476  1.00  0.00    -0.208 NA
ATOM     21  N   UNL     1      -0.179   4.437  -3.283  1.00  0.00    -0.263 N 
ATOM     22  N   UNL     1       0.149   5.012  -4.443  1.00  0.00    -0.148 NA
ATOM     23  H   UNL     1      -0.540   4.924  -2.508  1.00  0.00     0.192 HD
BRANCH  19  24
ATOM     24  C   UNL     1      -0.220   2.220  -2.130  1.00  0.00     0.073 C 
ATOM     25  C   UNL     1       0.383   0.832  -2.280  1.00  0.00     0.012 C 
ENDBRANCH  19  24
ENDBRANCH  10  18
ENDBRANCH   7   9
ENDBRANCH   5   7
ENDBRANCH   4   5
ENDBRANCH   3   4
ENDBRANCH   2   3
ENDBRANCH   1   2
BRANCH   1  26
ATOM     26  C   UNL     1       6.922  -3.108  -5.527  1.00  0.00     0.202 C 
BRANCH  26  27
ATOM     27  C   UNL     1       7.323  -2.820  -4.075  1.00  0.00     0.261 C 
BRANCH  27  28
ATOM     28  O   UNL     1       7.731  -1.457  -3.867  1.00  0.00    -0.460 OA
BRANCH  28  29
ATOM     29  C   UNL     1       9.053  -1.302  -3.605  1.00  0.00     0.338 C 
ATOM     30  O   UNL     1       9.885  -2.192  -3.481  1.00  0.00    -0.246 OA
BRANCH  29  31
ATOM     31  C   UNL     1       9.431   0.121  -3.639  1.00  0.00     0.060 A 
ATOM     32  C   UNL     1      10.511   0.477  -4.457  1.00  0.00     0.016 A 
ATOM     33  C   UNL     1       8.829   1.067  -2.807  1.00  0.00     0.016 A 
ATOM     34  C   UNL     1      11.038   1.765  -4.396  1.00  0.00     0.010 A 
ATOM     35  C   UNL     1       9.363   2.359  -2.743  1.00  0.00     0.010 A 
ATOM     36  C   UNL     1      10.499   2.698  -3.501  1.00  0.00    -0.014 A 
BRANCH  36  37
ATOM     37  C   UNL     1      11.234   3.960  -3.242  1.00  0.00     0.031 A 
ATOM     38  C   UNL     1      12.116   4.054  -2.026  1.00  0.00     0.074 A 
ATOM     39  C   UNL     1      11.146   4.999  -4.092  1.00  0.00     0.049 A 
ATOM     40  N   UNL     1      12.868   5.044  -1.622  1.00  0.00    -0.248 NA
ATOM     41  C   UNL     1      12.156   2.872  -1.150  1.00  0.00     0.031 C 
ATOM     42  C   UNL     1      10.336   5.029  -5.307  1.00  0.00     0.029 A 
ATOM     43  N   UNL     1      11.739   6.235  -4.049  1.00  0.00    -0.354 N 
ATOM     44  C   UNL     1      13.452   4.617  -0.435  1.00  0.00     0.074 A 
ATOM     45  C   UNL     1      12.952   3.284  -0.174  1.00  0.00     0.031 C 
ATOM     46  C   UNL     1      10.473   6.231  -5.891  1.00  0.00     0.029 A 
ATOM     47  C   UNL     1      11.365   7.060  -5.083  1.00  0.00     0.049 A 
ATOM     48  H   UNL     1      12.373   6.505  -3.346  1.00  0.00     0.167 HD
ATOM     49  C   UNL     1      14.341   5.262   0.356  1.00  0.00     0.034 A 
ATOM     50  C   UNL     1      11.701   8.340  -5.341  1.00  0.00     0.034 A 
ATOM     51  C   UNL     1      14.855   6.577   0.088  1.00  0.00     0.049 A 
ATOM     52  C   UNL     1      12.667   9.050  -4.429  1.00  0.00     0.074 A 
ATOM     53  C   UNL     1      15.792   7.300   0.806  1.00  0.00     0.029 A 
ATOM     54  N   UNL     1      14.470   7.374  -0.980  1.00  0.00    -0.354 N 
ATOM     55  N   UNL     1      13.301   8.590  -3.377  1.00  0.00    -0.248 NA
ATOM     56  C   UNL     1      12.989  10.446  -4.761  1.00  0.00     0.031 C 
ATOM     57  C   UNL     1      15.958   8.542   0.182  1.00  0.00     0.029 A 
ATOM     58  C   UNL     1      15.139   8.585  -0.935  1.00  0.00     0.049 A 
ATOM     59  H   UNL     1      13.815   7.116  -1.669  1.00  0.00     0.167 HD
ATOM     60  C   UNL     1      14.124   9.624  -2.944  1.00  0.00     0.074 A 
ATOM     61  C   UNL     1      13.918  10.731  -3.857  1.00  0.00     0.031 C 
ATOM     62  C   UNL     1      14.967   9.658  -1.882  1.00  0.00     0.034 A 
BRANCH  49  63
ATOM     63  C   UNL     1      14.835   4.531   1.577  1.00  0.00     0.023 A 
ATOM     64  C   UNL     1      15.739   3.459   1.426  1.00  0.00     0.012 A 
ATOM     65  C   UNL     1      14.427   4.913   2.869  1.00  0.00     0.148 A 
ATOM     66  C   UNL     1      16.198   2.754   2.538  1.00  0.00     0.002 A 
ATOM     67  C   UNL     1      14.919   4.231   3.976  1.00  0.00     0.091 A 
ATOM     68  F   UNL     1      13.544   5.915   2.993  1.00  0.00    -0.205 F 
ATOM     69  C   UNL     1      15.795   3.145   3.812  1.00  0.00     0.022 A 
BRANCH  67  70
ATOM     70  S   UNL     1      14.506   4.712   5.656  1.00  0.00     0.127 S 
ATOM     71  O   UNL     1      13.479   3.731   6.002  1.00  0.00    -0.237 OA
ATOM     72  O   UNL     1      15.779   4.533   6.357  1.00  0.00    -0.237 OA
ATOM     73  O   UNL     1      14.057   6.095   5.570  1.00  0.00    -0.744 OA
ENDBRANCH  67  70
ENDBRANCH  49  63
BRANCH  50  74
ATOM     74  C   UNL     1      11.163   9.013  -6.556  1.00  0.00     0.023 A 
ATOM     75  C   UNL     1      12.027   9.286  -7.634  1.00  0.00     0.012 A 
ATOM     76  C   UNL     1       9.800   9.351  -6.662  1.00  0.00     0.148 A 
ATOM     77  C   UNL     1      11.547   9.901  -8.791  1.00  0.00     0.002 A 
ATOM     78  C   UNL     1       9.320   9.919  -7.836  1.00  0.00     0.091 A 
ATOM     79  F   UNL     1       9.001   9.095  -5.617  1.00  0.00    -0.205 F 
ATOM     80  C   UNL     1      10.193  10.207  -8.896  1.00  0.00     0.022 A 
BRANCH  78  81
ATOM     81  S   UNL     1       7.575  10.242  -8.111  1.00  0.00     0.127 S 
ATOM     82  O   UNL     1       7.550  11.701  -8.179  1.00  0.00    -0.237 OA
ATOM     83  O   UNL     1       7.345   9.560  -9.385  1.00  0.00    -0.237 OA
ATOM     84  O   UNL     1       6.883   9.652  -6.974  1.00  0.00    -0.744 OA
ENDBRANCH  78  81
ENDBRANCH  50  74
BRANCH  62  85
ATOM     85  C   UNL     1      15.763  10.918  -1.657  1.00  0.00     0.023 A 
ATOM     86  C   UNL     1      15.124  12.068  -1.153  1.00  0.00     0.012 A 
ATOM     87  C   UNL     1      17.156  10.937  -1.868  1.00  0.00     0.148 A 
ATOM     88  C   UNL     1      15.855  13.226  -0.889  1.00  0.00     0.002 A 
ATOM     89  C   UNL     1      17.885  12.080  -1.560  1.00  0.00     0.091 A 
ATOM     90  F   UNL     1      17.743   9.839  -2.367  1.00  0.00    -0.205 F 
ATOM     91  C   UNL     1      17.235  13.229  -1.080  1.00  0.00     0.022 A 
BRANCH  89  92
ATOM     92  S   UNL     1      19.677  12.137  -1.685  1.00  0.00     0.127 S 
ATOM     93  O   UNL     1      19.866  12.919  -2.906  1.00  0.00    -0.237 OA
ATOM     94  O   UNL     1      20.055  12.831  -0.453  1.00  0.00    -0.237 OA
ATOM     95  O   UNL     1      20.116  10.750  -1.752  1.00  0.00    -0.744 OA
ENDBRANCH  89  92
ENDBRANCH  62  85
ENDBRANCH  36  37
ENDBRANCH  29  31
ENDBRANCH  28  29
ENDBRANCH  27  28
ENDBRANCH  26  27
ENDBRANCH   1  26
TORSDOF 20
