REMARK SMILES CC[NH2+][C@@]1(C(=O)OCCOCCOC(=O)c2ccc(-c3c4nc(c(-c5cccc(S(=O)(=O)[O-])c5F)c5ccc([nH]5)c(-c5cccc(S(=O)(=O)[O-])c5F)c5nc(c(-c6cccc(S(=O)(=O)[O-])c6F)c6ccc3[nH]6)C=C5)C=C4)cc2)CC[C@@H](n2cnc3ccccc32)C1
REMARK SMILES IDX 11 1 10 2 9 3 8 4 7 5 5 6 6 7 4 8 79 9 91 10 80 11 81 12
REMARK SMILES IDX 3 13 2 16 1 17 82 18 83 19 90 20 84 21 85 22 89 23 86 24
REMARK SMILES IDX 88 25 87 26 12 27 13 28 14 29 15 30 16 31 17 32 78 33 18 34
REMARK SMILES IDX 77 35 19 36 20 37 21 38 71 39 22 40 76 41 70 42 72 43 23 44
REMARK SMILES IDX 75 45 69 46 68 47 24 49 56 50 36 51 55 52 37 53 40 54 54 55
REMARK SMILES IDX 73 56 38 57 39 58 53 60 74 61 41 62 25 63 26 64 34 65 27 66
REMARK SMILES IDX 29 67 35 68 28 69 30 70 31 71 32 72 33 73 57 74 58 75 66 76
REMARK SMILES IDX 59 77 61 78 67 79 60 80 62 81 63 82 64 83 65 84 42 85 43 86
REMARK SMILES IDX 51 87 44 88 46 89 52 90 45 91 47 92 48 93 49 94 50 95
REMARK H PARENT 3 14 3 15 72 48 40 59
REMARK Flexibility Score: inf
ROOT
ATOM      1  C   UNL     1      -2.308  -2.336  -3.500  1.00  0.00     0.202 C 
ENDROOT
BRANCH   1   2
ATOM      2  O   UNL     1      -3.625  -1.798  -3.381  1.00  0.00    -0.374 OA
BRANCH   2   3
ATOM      3  C   UNL     1      -4.027  -0.864  -4.391  1.00  0.00     0.202 C 
BRANCH   3   4
ATOM      4  C   UNL     1      -3.429   0.550  -4.331  1.00  0.00     0.261 C 
BRANCH   4   5
ATOM      5  O   UNL     1      -2.003   0.431  -4.330  1.00  0.00    -0.459 OA
BRANCH   5   6
ATOM      6  C   UNL     1      -1.233   1.470  -3.892  1.00  0.00     0.368 C 
ATOM      7  O   UNL     1      -1.713   2.570  -3.635  1.00  0.00    -0.245 OA
BRANCH   6   8
ATOM      8  C   UNL     1       0.507   0.965  -3.856  1.00  0.00     0.196 C 
ATOM      9  C   UNL     1       0.867   2.107  -5.208  1.00  0.00     0.083 C 
ATOM     10  C   UNL     1       0.271  -0.273  -5.208  1.00  0.00     0.106 C 
ATOM     11  C   UNL     1       1.357   1.328  -6.457  1.00  0.00     0.033 C 
ATOM     12  C   UNL     1       1.508  -0.138  -6.052  1.00  0.00     0.096 C 
BRANCH   8  13
ATOM     13  N   UNL     1       1.633   0.632  -2.107  1.00  0.00    -0.332 N 
ATOM     14  H   UNL     1       1.984  -0.311  -2.275  1.00  0.00     0.347 HD
ATOM     15  H   UNL     1       1.988   1.588  -2.108  1.00  0.00     0.347 HD
BRANCH  13  16
ATOM     16  C   UNL     1       1.482   0.626  -0.540  1.00  0.00     0.257 C 
ATOM     17  C   UNL     1       2.582  -0.201   0.136  1.00  0.00     0.071 C 
ENDBRANCH  13  16
ENDBRANCH   8  13
BRANCH  12  18
ATOM     18  N   UNL     1       2.616  -0.440  -5.136  1.00  0.00    -0.327 N 
ATOM     19  C   UNL     1       3.805   0.288  -5.227  1.00  0.00     0.200 A 
ATOM     20  C   UNL     1       2.205  -0.401  -3.785  1.00  0.00     0.068 A 
ATOM     21  N   UNL     1       3.799   1.417  -4.528  1.00  0.00    -0.237 NA
ATOM     22  C   UNL     1       2.693   1.310  -3.733  1.00  0.00     0.088 A 
ATOM     23  C   UNL     1       0.696  -0.943  -2.894  1.00  0.00     0.028 A 
ATOM     24  C   UNL     1       1.685   2.516  -2.831  1.00  0.00     0.030 A 
ATOM     25  C   UNL     1      -0.362   0.274  -2.061  1.00  0.00     0.002 A 
ATOM     26  C   UNL     1       0.153   2.023  -2.024  1.00  0.00     0.002 A 
ENDBRANCH  12  18
ENDBRANCH   6   8
ENDBRANCH   5   6
ENDBRANCH   4   5
ENDBRANCH   3   4
ENDBRANCH   2   3
ENDBRANCH   1   2
BRANCH   1  27
ATOM     27  C   UNL     1      -2.051  -3.447  -4.527  1.00  0.00     0.261 C 
BRANCH  27  28
ATOM     28  O   UNL     1      -2.258  -3.001  -5.878  1.00  0.00    -0.460 OA
BRANCH  28  29
ATOM     29  C   UNL     1      -3.369  -3.506  -6.468  1.00  0.00     0.338 C 
ATOM     30  O   UNL     1      -4.112  -4.366  -6.026  1.00  0.00    -0.246 OA
BRANCH  29  31
ATOM     31  C   UNL     1      -3.709  -2.688  -7.646  1.00  0.00     0.060 A 
ATOM     32  C   UNL     1      -4.949  -2.033  -7.627  1.00  0.00     0.016 A 
ATOM     33  C   UNL     1      -2.863  -2.581  -8.749  1.00  0.00     0.016 A 
ATOM     34  C   UNL     1      -5.360  -1.282  -8.722  1.00  0.00     0.010 A 
ATOM     35  C   UNL     1      -3.290  -1.846  -9.860  1.00  0.00     0.010 A 
ATOM     36  C   UNL     1      -4.550  -1.217  -9.860  1.00  0.00    -0.014 A 
BRANCH  36  37
ATOM     37  C   UNL     1      -5.090  -0.618 -11.101  1.00  0.00     0.031 A 
ATOM     38  C   UNL     1      -5.600  -1.531 -12.179  1.00  0.00     0.074 A 
ATOM     39  C   UNL     1      -5.125   0.717 -11.262  1.00  0.00     0.049 A 
ATOM     40  N   UNL     1      -6.048  -1.233 -13.369  1.00  0.00    -0.248 NA
ATOM     41  C   UNL     1      -5.605  -2.973 -11.876  1.00  0.00     0.031 C 
ATOM     42  C   UNL     1      -4.685   1.700 -10.272  1.00  0.00     0.029 A 
ATOM     43  N   UNL     1      -5.521   1.474 -12.336  1.00  0.00    -0.354 N 
ATOM     44  C   UNL     1      -6.341  -2.448 -13.976  1.00  0.00     0.074 A 
ATOM     45  C   UNL     1      -6.031  -3.488 -13.020  1.00  0.00     0.031 C 
ATOM     46  C   UNL     1      -4.796   2.930 -10.801  1.00  0.00     0.029 A 
ATOM     47  C   UNL     1      -5.275   2.818 -12.177  1.00  0.00     0.049 A 
ATOM     48  H   UNL     1      -5.939   1.093 -13.141  1.00  0.00     0.167 HD
ATOM     49  C   UNL     1      -6.821  -2.673 -15.220  1.00  0.00     0.034 A 
ATOM     50  C   UNL     1      -5.381   3.832 -13.059  1.00  0.00     0.034 A 
ATOM     51  C   UNL     1      -7.147  -1.633 -16.156  1.00  0.00     0.049 A 
ATOM     52  C   UNL     1      -5.879   3.544 -14.453  1.00  0.00     0.074 A 
ATOM     53  C   UNL     1      -7.709  -1.757 -17.414  1.00  0.00     0.029 A 
ATOM     54  N   UNL     1      -6.914  -0.283 -15.952  1.00  0.00    -0.354 N 
ATOM     55  N   UNL     1      -6.273   2.405 -14.971  1.00  0.00    -0.248 NA
ATOM     56  C   UNL     1      -5.968   4.684 -15.378  1.00  0.00     0.031 C 
ATOM     57  C   UNL     1      -7.761  -0.487 -17.994  1.00  0.00     0.029 A 
ATOM     58  C   UNL     1      -7.285   0.434 -17.075  1.00  0.00     0.049 A 
ATOM     59  H   UNL     1      -6.540   0.108 -15.130  1.00  0.00     0.167 HD
ATOM     60  C   UNL     1      -6.689   2.698 -16.265  1.00  0.00     0.074 A 
ATOM     61  C   UNL     1      -6.520   4.124 -16.447  1.00  0.00     0.031 C 
ATOM     62  C   UNL     1      -7.157   1.861 -17.224  1.00  0.00     0.034 A 
BRANCH  49  63
ATOM     63  C   UNL     1      -7.013  -4.099 -15.660  1.00  0.00     0.023 A 
ATOM     64  C   UNL     1      -8.071  -4.868 -15.138  1.00  0.00     0.012 A 
ATOM     65  C   UNL     1      -6.186  -4.645 -16.661  1.00  0.00     0.148 A 
ATOM     66  C   UNL     1      -8.290  -6.169 -15.592  1.00  0.00     0.002 A 
ATOM     67  C   UNL     1      -6.439  -5.923 -17.143  1.00  0.00     0.091 A 
ATOM     68  F   UNL     1      -5.170  -3.903 -17.125  1.00  0.00    -0.205 F 
ATOM     69  C   UNL     1      -7.484  -6.690 -16.602  1.00  0.00     0.022 A 
BRANCH  67  70
ATOM     70  S   UNL     1      -5.511  -6.649 -18.497  1.00  0.00     0.127 S 
ATOM     71  O   UNL     1      -4.818  -7.746 -17.823  1.00  0.00    -0.237 OA
ATOM     72  O   UNL     1      -6.577  -7.068 -19.407  1.00  0.00    -0.237 OA
ATOM     73  O   UNL     1      -4.649  -5.593 -19.010  1.00  0.00    -0.744 OA
ENDBRANCH  67  70
ENDBRANCH  49  63
BRANCH  50  74
ATOM     74  C   UNL     1      -4.991   5.216 -12.665  1.00  0.00     0.023 A 
ATOM     75  C   UNL     1      -5.967   6.229 -12.601  1.00  0.00     0.012 A 
ATOM     76  C   UNL     1      -3.651   5.536 -12.374  1.00  0.00     0.148 A 
ATOM     77  C   UNL     1      -5.609   7.543 -12.296  1.00  0.00     0.002 A 
ATOM     78  C   UNL     1      -3.310   6.833 -12.011  1.00  0.00     0.091 A 
ATOM     79  F   UNL     1      -2.732   4.563 -12.459  1.00  0.00    -0.205 F 
ATOM     80  C   UNL     1      -4.284   7.843 -11.992  1.00  0.00     0.022 A 
BRANCH  78  81
ATOM     81  S   UNL     1      -1.653   7.278 -11.482  1.00  0.00     0.127 S 
ATOM     82  O   UNL     1      -1.194   8.100 -12.599  1.00  0.00    -0.237 OA
ATOM     83  O   UNL     1      -1.920   8.012 -10.245  1.00  0.00    -0.237 OA
ATOM     84  O   UNL     1      -0.949   6.017 -11.292  1.00  0.00    -0.744 OA
ENDBRANCH  78  81
ENDBRANCH  50  74
BRANCH  62  85
ATOM     85  C   UNL     1      -7.567   2.458 -18.545  1.00  0.00     0.023 A 
ATOM     86  C   UNL     1      -6.588   2.928 -19.442  1.00  0.00     0.012 A 
ATOM     87  C   UNL     1      -8.921   2.461 -18.935  1.00  0.00     0.148 A 
ATOM     88  C   UNL     1      -6.953   3.419 -20.695  1.00  0.00     0.002 A 
ATOM     89  C   UNL     1      -9.272   2.900 -20.205  1.00  0.00     0.091 A 
ATOM     90  F   UNL     1      -9.838   2.020 -18.061  1.00  0.00    -0.205 F 
ATOM     91  C   UNL     1      -8.291   3.392 -21.081  1.00  0.00     0.022 A 
BRANCH  89  92
ATOM     92  S   UNL     1     -10.954   2.811 -20.829  1.00  0.00     0.127 S 
ATOM     93  O   UNL     1     -11.297   4.226 -20.966  1.00  0.00    -0.237 OA
ATOM     94  O   UNL     1     -10.775   2.100 -22.095  1.00  0.00    -0.237 OA
ATOM     95  O   UNL     1     -11.721   2.083 -19.826  1.00  0.00    -0.744 OA
ENDBRANCH  89  92
ENDBRANCH  62  85
ENDBRANCH  36  37
ENDBRANCH  29  31
ENDBRANCH  28  29
ENDBRANCH  27  28
ENDBRANCH   1  27
TORSDOF 20
