REMARK SMILES O=C(OCCOCCOC(=O)c1cc(Br)cc2c1N[C@H](c1cccc([N+](=O)[O-])c1)[C@H]1CC=C[C@H]21)c1ccc(-c2c3nc(c(-c4cccc(S(=O)(=O)[O-])c4F)c4ccc([nH]4)c(-c4cccc(S(=O)(=O)[O-])c4F)c4nc(c(-c5cccc(S(=O)(=O)[O-])c5F)c5ccc2[nH]5)C=C4)C=C3)cc1
REMARK SMILES IDX 5 1 4 2 3 3 2 4 1 5 35 6 36 7 97 8 37 9 96 10 38 11 39 12
REMARK SMILES IDX 40 13 90 14 41 15 95 16 89 17 91 18 42 19 94 20 88 21 87 22
REMARK SMILES IDX 43 24 75 25 55 26 74 27 56 28 59 29 73 30 92 31 57 32 58 33
REMARK SMILES IDX 72 35 93 36 60 37 44 38 45 39 53 40 46 41 48 42 54 43 47 44
REMARK SMILES IDX 49 45 50 46 51 47 52 48 76 49 77 50 85 51 78 52 80 53 86 54
REMARK SMILES IDX 79 55 81 56 82 57 83 58 84 59 61 60 62 61 70 62 63 63 65 64
REMARK SMILES IDX 71 65 64 66 66 67 67 68 68 69 69 70 6 71 7 72 8 73 9 74
REMARK SMILES IDX 10 75 11 76 12 77 13 78 18 79 14 80 17 81 19 82 15 83 16 84
REMARK SMILES IDX 34 85 20 86 30 88 33 89 31 90 32 91 21 92 22 93 29 94 23 95
REMARK SMILES IDX 25 96 24 97 26 98 27 99 28 100
REMARK H PARENT 91 23 59 34 19 87
REMARK Flexibility Score: inf
ROOT
ATOM      1  C   UNL     1       4.615   1.161  -0.266  1.00  0.00     0.202 C 
ENDROOT
BRANCH   1   2
ATOM      2  C   UNL     1       4.225   0.194  -1.381  1.00  0.00     0.261 C 
BRANCH   2   3
ATOM      3  O   UNL     1       2.872  -0.270  -1.292  1.00  0.00    -0.460 OA
BRANCH   3   4
ATOM      4  C   UNL     1       2.467  -1.450  -0.759  1.00  0.00     0.338 C 
ATOM      5  O   UNL     1       1.406  -1.943  -1.136  1.00  0.00    -0.246 OA
BRANCH   4   6
ATOM      6  C   UNL     1       3.140  -2.030   0.442  1.00  0.00     0.060 A 
ATOM      7  C   UNL     1       2.302  -2.600   1.418  1.00  0.00     0.016 A 
ATOM      8  C   UNL     1       4.518  -2.038   0.666  1.00  0.00     0.016 A 
ATOM      9  C   UNL     1       2.831  -3.113   2.606  1.00  0.00     0.010 A 
ATOM     10  C   UNL     1       5.043  -2.466   1.879  1.00  0.00     0.010 A 
ATOM     11  C   UNL     1       4.206  -3.030   2.843  1.00  0.00    -0.014 A 
BRANCH  11  12
ATOM     12  C   UNL     1       4.850  -3.763   3.944  1.00  0.00     0.031 A 
ATOM     13  C   UNL     1       5.158  -3.116   5.253  1.00  0.00     0.074 A 
ATOM     14  C   UNL     1       5.286  -5.001   3.647  1.00  0.00     0.049 A 
ATOM     15  N   UNL     1       5.669  -3.664   6.322  1.00  0.00    -0.248 NA
ATOM     16  C   UNL     1       4.876  -1.678   5.388  1.00  0.00     0.031 C 
ATOM     17  C   UNL     1       5.146  -5.641   2.332  1.00  0.00     0.029 A 
ATOM     18  N   UNL     1       5.980  -5.913   4.389  1.00  0.00    -0.354 N 
ATOM     19  C   UNL     1       5.746  -2.653   7.269  1.00  0.00     0.074 A 
ATOM     20  C   UNL     1       5.263  -1.444   6.639  1.00  0.00     0.031 C 
ATOM     21  C   UNL     1       5.780  -6.820   2.348  1.00  0.00     0.029 A 
ATOM     22  C   UNL     1       6.329  -7.037   3.680  1.00  0.00     0.049 A 
ATOM     23  H   UNL     1       6.208  -5.779   5.337  1.00  0.00     0.167 HD
ATOM     24  C   UNL     1       6.158  -2.758   8.554  1.00  0.00     0.034 A 
ATOM     25  C   UNL     1       6.997  -8.136   4.070  1.00  0.00     0.034 A 
ATOM     26  C   UNL     1       6.651  -3.983   9.129  1.00  0.00     0.049 A 
ATOM     27  C   UNL     1       7.381  -8.251   5.511  1.00  0.00     0.074 A 
ATOM     28  C   UNL     1       6.998  -4.235  10.443  1.00  0.00     0.029 A 
ATOM     29  N   UNL     1       6.886  -5.150   8.418  1.00  0.00    -0.354 N 
ATOM     30  N   UNL     1       7.242  -7.359   6.462  1.00  0.00    -0.248 NA
ATOM     31  C   UNL     1       7.954  -9.527   5.954  1.00  0.00     0.031 C 
ATOM     32  C   UNL     1       7.456  -5.552  10.525  1.00  0.00     0.029 A 
ATOM     33  C   UNL     1       7.380  -6.125   9.264  1.00  0.00     0.049 A 
ATOM     34  H   UNL     1       6.726  -5.267   7.454  1.00  0.00     0.167 HD
ATOM     35  C   UNL     1       7.681  -7.972   7.624  1.00  0.00     0.074 A 
ATOM     36  C   UNL     1       8.089  -9.315   7.258  1.00  0.00     0.031 C 
ATOM     37  C   UNL     1       7.745  -7.464   8.877  1.00  0.00     0.034 A 
BRANCH  24  38
ATOM     38  C   UNL     1       5.996  -1.577   9.472  1.00  0.00     0.023 A 
ATOM     39  C   UNL     1       4.711  -1.306   9.985  1.00  0.00     0.012 A 
ATOM     40  C   UNL     1       7.105  -0.868   9.973  1.00  0.00     0.148 A 
ATOM     41  C   UNL     1       4.530  -0.352  10.986  1.00  0.00     0.002 A 
ATOM     42  C   UNL     1       6.921   0.066  10.988  1.00  0.00     0.091 A 
ATOM     43  F   UNL     1       8.318  -1.144   9.473  1.00  0.00    -0.205 F 
ATOM     44  C   UNL     1       5.635   0.324  11.495  1.00  0.00     0.022 A 
BRANCH  42  45
ATOM     45  S   UNL     1       8.277   0.957  11.761  1.00  0.00     0.127 S 
ATOM     46  O   UNL     1       7.938   2.345  11.443  1.00  0.00    -0.237 OA
ATOM     47  O   UNL     1       8.114   0.599  13.170  1.00  0.00    -0.237 OA
ATOM     48  O   UNL     1       9.495   0.464  11.136  1.00  0.00    -0.744 OA
ENDBRANCH  42  45
ENDBRANCH  24  38
BRANCH  25  49
ATOM     49  C   UNL     1       7.186  -9.233   3.089  1.00  0.00     0.023 A 
ATOM     50  C   UNL     1       6.293 -10.320   3.100  1.00  0.00     0.012 A 
ATOM     51  C   UNL     1       8.132  -9.120   2.051  1.00  0.00     0.148 A 
ATOM     52  C   UNL     1       6.341 -11.284   2.094  1.00  0.00     0.002 A 
ATOM     53  C   UNL     1       8.153 -10.067   1.034  1.00  0.00     0.091 A 
ATOM     54  F   UNL     1       8.956  -8.063   2.058  1.00  0.00    -0.205 F 
ATOM     55  C   UNL     1       7.262 -11.153   1.057  1.00  0.00     0.022 A 
BRANCH  53  56
ATOM     56  S   UNL     1       9.221  -9.921  -0.403  1.00  0.00     0.127 S 
ATOM     57  O   UNL     1      10.134 -11.045  -0.209  1.00  0.00    -0.237 OA
ATOM     58  O   UNL     1       8.271 -10.082  -1.504  1.00  0.00    -0.237 OA
ATOM     59  O   UNL     1       9.825  -8.598  -0.316  1.00  0.00    -0.744 OA
ENDBRANCH  53  56
ENDBRANCH  25  49
BRANCH  37  60
ATOM     60  C   UNL     1       8.276  -8.348   9.966  1.00  0.00     0.023 A 
ATOM     61  C   UNL     1       9.668  -8.482  10.119  1.00  0.00     0.012 A 
ATOM     62  C   UNL     1       7.405  -8.896  10.927  1.00  0.00     0.148 A 
ATOM     63  C   UNL     1      10.190  -9.147  11.225  1.00  0.00     0.002 A 
ATOM     64  C   UNL     1       7.934  -9.527  12.043  1.00  0.00     0.091 A 
ATOM     65  F   UNL     1       6.085  -8.749  10.748  1.00  0.00    -0.205 F 
ATOM     66  C   UNL     1       9.326  -9.656  12.193  1.00  0.00     0.022 A 
BRANCH  64  67
ATOM     67  S   UNL     1       6.910 -10.148  13.381  1.00  0.00     0.127 S 
ATOM     68  O   UNL     1       7.240 -11.572  13.372  1.00  0.00    -0.237 OA
ATOM     69  O   UNL     1       7.428  -9.407  14.531  1.00  0.00    -0.237 OA
ATOM     70  O   UNL     1       5.534  -9.837  13.019  1.00  0.00    -0.744 OA
ENDBRANCH  64  67
ENDBRANCH  37  60
ENDBRANCH  11  12
ENDBRANCH   4   6
ENDBRANCH   3   4
ENDBRANCH   2   3
ENDBRANCH   1   2
BRANCH   1  71
ATOM     71  O   UNL     1       4.361   0.745   1.073  1.00  0.00    -0.374 OA
BRANCH  71  72
ATOM     72  C   UNL     1       3.091   1.129   1.607  1.00  0.00     0.202 C 
BRANCH  72  73
ATOM     73  C   UNL     1       3.095   2.501   2.291  1.00  0.00     0.261 C 
BRANCH  73  74
ATOM     74  O   UNL     1       3.529   3.530   1.390  1.00  0.00    -0.460 OA
BRANCH  74  75
ATOM     75  C   UNL     1       4.864   3.807   1.443  1.00  0.00     0.340 C 
ATOM     76  O   UNL     1       5.662   3.411   2.262  1.00  0.00    -0.246 OA
BRANCH  75  77
ATOM     77  C   UNL     1       5.255   4.539   0.214  1.00  0.00     0.084 A 
ATOM     78  C   UNL     1       6.420   4.096  -0.431  1.00  0.00     0.033 A 
ATOM     79  C   UNL     1       4.521   5.630  -0.281  1.00  0.00     0.053 A 
ATOM     80  C   UNL     1       6.851   4.732  -1.587  1.00  0.00     0.019 A 
ATOM     81  C   UNL     1       5.075   6.356  -1.359  1.00  0.00    -0.016 A 
ATOM     82  N   UNL     1       3.333   6.044   0.310  1.00  0.00    -0.377 N 
ATOM     83  Br  UNL     1       8.342   4.055  -2.530  1.00  0.00    -0.051 Br
ATOM     84  C   UNL     1       6.207   5.880  -2.036  1.00  0.00     0.022 A 
ATOM     85  C   UNL     1       4.493   7.716  -1.589  1.00  0.00     0.049 C 
ATOM     86  C   UNL     1       2.565   7.231  -0.077  1.00  0.00     0.114 C 
ATOM     87  H   UNL     1       2.979   5.495   1.047  1.00  0.00     0.161 HD
ATOM     88  C   UNL     1       2.965   7.644  -1.496  1.00  0.00     0.031 C 
ATOM     89  C   UNL     1       4.657   8.463  -2.873  1.00  0.00    -0.023 C 
ATOM     90  C   UNL     1       2.548   9.028  -2.003  1.00  0.00     0.034 C 
ATOM     91  C   UNL     1       3.584   9.244  -3.074  1.00  0.00    -0.030 C 
BRANCH  86  92
ATOM     92  C   UNL     1       1.080   6.939   0.161  1.00  0.00    -0.019 A 
ATOM     93  C   UNL     1       0.653   6.595   1.462  1.00  0.00     0.006 A 
ATOM     94  C   UNL     1       0.104   7.000  -0.846  1.00  0.00     0.091 A 
ATOM     95  C   UNL     1      -0.688   6.312   1.745  1.00  0.00     0.007 A 
ATOM     96  C   UNL     1      -1.249   6.755  -0.551  1.00  0.00     0.269 A 
ATOM     97  C   UNL     1      -1.648   6.401   0.741  1.00  0.00     0.085 A 
BRANCH  96  98
ATOM     98  N   UNL     1      -2.260   6.906  -1.607  1.00  0.00     0.062 N 
ATOM     99  O   UNL     1      -3.433   6.615  -1.333  1.00  0.00    -0.258 OA
ATOM    100  O   UNL     1      -1.885   7.340  -2.706  1.00  0.00    -0.258 OA
ENDBRANCH  96  98
ENDBRANCH  86  92
ENDBRANCH  75  77
ENDBRANCH  74  75
ENDBRANCH  73  74
ENDBRANCH  72  73
ENDBRANCH  71  72
ENDBRANCH   1  71
TORSDOF 19
