REMARK SMILES O=C(OCCOCCOC(=O)c1cc(Br)ccc1N1CC2(CCCCC2)C1)c1ccc(-c2c3nc(c(-c4cccc(S(=O)(=O)[O-])c4F)c4ccc([nH]4)c(-c4cccc(S(=O)(=O)[O-])c4F)c4nc(c(-c5cccc(S(=O)(=O)[O-])c5F)c5ccc2[nH]5)C=C4)C=C3)cc1
REMARK SMILES IDX 5 1 4 2 3 3 2 4 1 5 28 6 29 7 90 8 30 9 89 10 31 11 32 12
REMARK SMILES IDX 33 13 83 14 34 15 88 16 82 17 84 18 35 19 87 20 81 21 80 22
REMARK SMILES IDX 36 24 68 25 48 26 67 27 49 28 52 29 66 30 85 31 50 32 51 33
REMARK SMILES IDX 65 35 86 36 53 37 37 38 38 39 46 40 39 41 41 42 47 43 40 44
REMARK SMILES IDX 42 45 43 46 44 47 45 48 69 49 70 50 78 51 71 52 73 53 79 54
REMARK SMILES IDX 72 55 74 56 75 57 76 58 77 59 54 60 55 61 63 62 56 63 58 64
REMARK SMILES IDX 64 65 57 66 59 67 60 68 61 69 62 70 6 71 7 72 8 73 9 74
REMARK SMILES IDX 10 75 11 76 12 77 13 78 18 79 14 80 17 81 15 82 16 83 19 84
REMARK SMILES IDX 20 85 27 86 21 87 22 88 26 89 23 90 25 91 24 92
REMARK H PARENT 84 23 52 34
REMARK Flexibility Score: inf
ROOT
ATOM      1  C   UNL     1       2.817  -0.481  -1.486  1.00  0.00     0.202 C 
ENDROOT
BRANCH   1   2
ATOM      2  C   UNL     1       2.939  -1.215  -0.147  1.00  0.00     0.261 C 
BRANCH   2   3
ATOM      3  O   UNL     1       1.706  -1.085   0.596  1.00  0.00    -0.460 OA
BRANCH   3   4
ATOM      4  C   UNL     1       1.309   0.015   1.283  1.00  0.00     0.338 C 
ATOM      5  O   UNL     1       0.117   0.297   1.359  1.00  0.00    -0.246 OA
BRANCH   4   6
ATOM      6  C   UNL     1       2.274   0.733   2.157  1.00  0.00     0.060 A 
ATOM      7  C   UNL     1       3.427   1.347   1.683  1.00  0.00     0.016 A 
ATOM      8  C   UNL     1       1.935   0.902   3.509  1.00  0.00     0.016 A 
ATOM      9  C   UNL     1       4.260   2.055   2.538  1.00  0.00     0.010 A 
ATOM     10  C   UNL     1       2.765   1.640   4.367  1.00  0.00     0.010 A 
ATOM     11  C   UNL     1       3.953   2.203   3.887  1.00  0.00    -0.014 A 
BRANCH  11  12
ATOM     12  C   UNL     1       4.962   2.853   4.759  1.00  0.00     0.031 A 
ATOM     13  C   UNL     1       5.670   2.024   5.791  1.00  0.00     0.074 A 
ATOM     14  C   UNL     1       5.345   4.127   4.537  1.00  0.00     0.049 A 
ATOM     15  N   UNL     1       6.534   2.394   6.698  1.00  0.00    -0.248 NA
ATOM     16  C   UNL     1       5.370   0.582   5.799  1.00  0.00     0.031 C 
ATOM     17  C   UNL     1       4.816   4.997   3.484  1.00  0.00     0.029 A 
ATOM     18  N   UNL     1       6.295   4.900   5.156  1.00  0.00    -0.354 N 
ATOM     19  C   UNL     1       6.804   1.255   7.445  1.00  0.00     0.074 A 
ATOM     20  C   UNL     1       6.049   0.170   6.859  1.00  0.00     0.031 C 
ATOM     21  C   UNL     1       5.483   6.162   3.498  1.00  0.00     0.029 A 
ATOM     22  C   UNL     1       6.421   6.159   4.615  1.00  0.00     0.049 A 
ATOM     23  H   UNL     1       6.836   4.583   5.916  1.00  0.00     0.167 HD
ATOM     24  C   UNL     1       7.601   1.132   8.531  1.00  0.00     0.034 A 
ATOM     25  C   UNL     1       7.185   7.202   4.998  1.00  0.00     0.034 A 
ATOM     26  C   UNL     1       8.398   2.202   9.062  1.00  0.00     0.049 A 
ATOM     27  C   UNL     1       8.060   7.039   6.213  1.00  0.00     0.074 A 
ATOM     28  C   UNL     1       9.216   2.197  10.177  1.00  0.00     0.029 A 
ATOM     29  N   UNL     1       8.488   3.468   8.502  1.00  0.00    -0.354 N 
ATOM     30  N   UNL     1       8.279   5.967   6.936  1.00  0.00    -0.248 NA
ATOM     31  C   UNL     1       8.790   8.230   6.669  1.00  0.00     0.031 C 
ATOM     32  C   UNL     1       9.790   3.467  10.299  1.00  0.00     0.029 A 
ATOM     33  C   UNL     1       9.350   4.254   9.245  1.00  0.00     0.049 A 
ATOM     34  H   UNL     1       8.009   3.764   7.695  1.00  0.00     0.167 HD
ATOM     35  C   UNL     1       9.184   6.348   7.920  1.00  0.00     0.074 A 
ATOM     36  C   UNL     1       9.498   7.742   7.678  1.00  0.00     0.031 C 
ATOM     37  C   UNL     1       9.689   5.622   8.947  1.00  0.00     0.034 A 
BRANCH  24  38
ATOM     38  C   UNL     1       7.601  -0.196   9.236  1.00  0.00     0.023 A 
ATOM     39  C   UNL     1       8.276  -1.301   8.682  1.00  0.00     0.012 A 
ATOM     40  C   UNL     1       6.920  -0.342  10.461  1.00  0.00     0.148 A 
ATOM     41  C   UNL     1       8.240  -2.543   9.319  1.00  0.00     0.002 A 
ATOM     42  C   UNL     1       6.925  -1.570  11.110  1.00  0.00     0.091 A 
ATOM     43  F   UNL     1       6.259   0.715  10.955  1.00  0.00    -0.205 F 
ATOM     44  C   UNL     1       7.573  -2.675  10.535  1.00  0.00     0.022 A 
BRANCH  42  45
ATOM     45  S   UNL     1       6.149  -1.816  12.711  1.00  0.00     0.127 S 
ATOM     46  O   UNL     1       4.978  -2.615  12.351  1.00  0.00    -0.237 OA
ATOM     47  O   UNL     1       7.182  -2.546  13.445  1.00  0.00    -0.237 OA
ATOM     48  O   UNL     1       5.865  -0.485  13.228  1.00  0.00    -0.744 OA
ENDBRANCH  42  45
ENDBRANCH  24  38
BRANCH  25  49
ATOM     49  C   UNL     1       7.158   8.487   4.237  1.00  0.00     0.023 A 
ATOM     50  C   UNL     1       8.322   8.931   3.580  1.00  0.00     0.012 A 
ATOM     51  C   UNL     1       5.988   9.267   4.150  1.00  0.00     0.148 A 
ATOM     52  C   UNL     1       8.328  10.137   2.874  1.00  0.00     0.002 A 
ATOM     53  C   UNL     1       5.981  10.432   3.390  1.00  0.00     0.091 A 
ATOM     54  F   UNL     1       4.896   8.854   4.810  1.00  0.00    -0.205 F 
ATOM     55  C   UNL     1       7.155  10.879   2.767  1.00  0.00     0.022 A 
BRANCH  53  56
ATOM     56  S   UNL     1       4.475  11.363   3.085  1.00  0.00     0.127 S 
ATOM     57  O   UNL     1       4.653  12.517   3.962  1.00  0.00    -0.237 OA
ATOM     58  O   UNL     1       4.579  11.654   1.654  1.00  0.00    -0.237 OA
ATOM     59  O   UNL     1       3.385  10.460   3.431  1.00  0.00    -0.744 OA
ENDBRANCH  53  56
ENDBRANCH  25  49
BRANCH  37  60
ATOM     60  C   UNL     1      10.662   6.307   9.868  1.00  0.00     0.023 A 
ATOM     61  C   UNL     1      10.196   7.258  10.797  1.00  0.00     0.012 A 
ATOM     62  C   UNL     1      12.024   5.949   9.864  1.00  0.00     0.148 A 
ATOM     63  C   UNL     1      11.078   7.865  11.689  1.00  0.00     0.002 A 
ATOM     64  C   UNL     1      12.888   6.522  10.789  1.00  0.00     0.091 A 
ATOM     65  F   UNL     1      12.450   5.059   8.956  1.00  0.00    -0.205 F 
ATOM     66  C   UNL     1      12.420   7.488  11.694  1.00  0.00     0.022 A 
BRANCH  64  67
ATOM     67  S   UNL     1      14.606   6.017  10.928  1.00  0.00     0.127 S 
ATOM     68  O   UNL     1      15.296   7.123  10.268  1.00  0.00    -0.237 OA
ATOM     69  O   UNL     1      14.798   5.955  12.378  1.00  0.00    -0.237 OA
ATOM     70  O   UNL     1      14.696   4.728  10.256  1.00  0.00    -0.744 OA
ENDBRANCH  64  67
ENDBRANCH  37  60
ENDBRANCH  11  12
ENDBRANCH   4   6
ENDBRANCH   3   4
ENDBRANCH   2   3
ENDBRANCH   1   2
BRANCH   1  71
ATOM     71  O   UNL     1       2.991   0.911  -1.252  1.00  0.00    -0.374 OA
BRANCH  71  72
ATOM     72  C   UNL     1       2.132   1.795  -1.963  1.00  0.00     0.202 C 
BRANCH  72  73
ATOM     73  C   UNL     1       2.927   2.584  -3.001  1.00  0.00     0.261 C 
BRANCH  73  74
ATOM     74  O   UNL     1       3.628   1.653  -3.840  1.00  0.00    -0.460 OA
BRANCH  74  75
ATOM     75  C   UNL     1       4.953   1.478  -3.558  1.00  0.00     0.340 C 
ATOM     76  O   UNL     1       5.634   2.184  -2.849  1.00  0.00    -0.246 OA
BRANCH  75  77
ATOM     77  C   UNL     1       5.390   0.218  -4.230  1.00  0.00     0.084 A 
ATOM     78  C   UNL     1       4.806  -0.088  -5.475  1.00  0.00     0.033 A 
ATOM     79  C   UNL     1       6.365  -0.639  -3.669  1.00  0.00     0.051 A 
ATOM     80  C   UNL     1       5.151  -1.256  -6.142  1.00  0.00     0.018 A 
ATOM     81  C   UNL     1       6.704  -1.802  -4.382  1.00  0.00     0.028 A 
ATOM     82  Br  UNL     1       4.330  -1.668  -7.793  1.00  0.00    -0.051 Br
ATOM     83  C   UNL     1       6.091  -2.121  -5.598  1.00  0.00     0.018 A 
BRANCH  79  84
ATOM     84  N   UNL     1       7.004  -0.386  -2.447  1.00  0.00    -0.370 N 
ATOM     85  C   UNL     1       6.460  -0.366  -1.125  1.00  0.00     0.125 C 
ATOM     86  C   UNL     1       8.334  -0.655  -1.991  1.00  0.00     0.125 C 
ATOM     87  C   UNL     1       7.898  -0.080  -0.619  1.00  0.00     0.005 C 
ATOM     88  C   UNL     1       8.358  -0.868   0.610  1.00  0.00     0.011 C 
ATOM     89  C   UNL     1       8.226   1.414  -0.456  1.00  0.00     0.011 C 
ATOM     90  C   UNL     1       7.676  -0.325   1.868  1.00  0.00     0.001 C 
ATOM     91  C   UNL     1       7.516   1.955   0.778  1.00  0.00     0.001 C 
ATOM     92  C   UNL     1       7.902   1.178   2.035  1.00  0.00     0.000 C 
ENDBRANCH  79  84
ENDBRANCH  75  77
ENDBRANCH  74  75
ENDBRANCH  73  74
ENDBRANCH  72  73
ENDBRANCH  71  72
ENDBRANCH   1  71
TORSDOF 18
