REMARK SMILES CS(=O)(=O)c1ccc(-c2cc(Cl)cc3c2O[C@@H](C(F)(F)F)C(C(=O)OCCOCCOC(=O)c2ccc(-c4c5nc(c(-c6cccc(S(=O)(=O)[O-])c6F)c6ccc([nH]6)c(-c6cccc(S(=O)(=O)[O-])c6F)c6nc(c(-c7cccc(S(=O)(=O)[O-])c7F)c7ccc4[nH]7)C=C6)C=C5)cc2)=C3)cc1
REMARK SMILES IDX 29 1 28 2 27 3 26 4 25 5 23 6 24 7 22 8 9 9 10 10 15 11
REMARK SMILES IDX 11 12 14 13 16 14 12 15 13 16 97 17 17 18 8 19 5 20 6 21
REMARK SMILES IDX 99 22 7 23 98 24 2 25 1 26 3 27 4 28 18 29 19 30 20 31 21 32
REMARK SMILES IDX 30 33 31 34 32 35 33 36 34 37 35 38 96 39 36 40 95 41 37 42
REMARK SMILES IDX 38 43 39 44 89 45 40 46 94 47 88 48 90 49 41 50 93 51 87 52
REMARK SMILES IDX 86 53 42 55 74 56 54 57 73 58 55 59 58 60 72 61 91 62 56 63
REMARK SMILES IDX 57 64 71 66 92 67 59 68 43 69 44 70 52 71 45 72 47 73 53 74
REMARK SMILES IDX 46 75 48 76 49 77 50 78 51 79 75 80 76 81 84 82 77 83 79 84
REMARK SMILES IDX 85 85 78 86 80 87 81 88 82 89 83 90 60 91 61 92 69 93 62 94
REMARK SMILES IDX 64 95 70 96 63 97 65 98 66 99 67 100 68 101
REMARK H PARENT 90 54 58 65
REMARK Flexibility Score: inf
ROOT
ATOM      1  C   UNL     1       4.681   2.801 -10.514  1.00  0.00     0.202 C 
ENDROOT
BRANCH   1   2
ATOM      2  O   UNL     1       3.625   2.805 -11.474  1.00  0.00    -0.374 OA
BRANCH   2   3
ATOM      3  C   UNL     1       3.592   3.856 -12.430  1.00  0.00     0.202 C 
BRANCH   3   4
ATOM      4  C   UNL     1       3.334   5.290 -11.941  1.00  0.00     0.261 C 
BRANCH   4   5
ATOM      5  O   UNL     1       3.595   5.472 -10.539  1.00  0.00    -0.460 OA
BRANCH   5   6
ATOM      6  C   UNL     1       2.683   6.199  -9.866  1.00  0.00     0.338 C 
ATOM      7  O   UNL     1       1.731   6.782 -10.370  1.00  0.00    -0.246 OA
BRANCH   6   8
ATOM      8  C   UNL     1       2.825   6.086  -8.395  1.00  0.00     0.087 C 
ATOM      9  C   UNL     1       2.918   2.251  -6.785  1.00  0.00     0.026 A 
ATOM     10  C   UNL     1       2.350   1.441  -7.795  1.00  0.00     0.033 A 
ATOM     11  C   UNL     1       2.907   3.635  -7.065  1.00  0.00     0.135 A 
ATOM     12  C   UNL     1       1.493   1.989  -8.751  1.00  0.00     0.042 A 
ATOM     13  C   UNL     1       1.848   4.161  -7.821  1.00  0.00     0.019 A 
ATOM     14  O   UNL     1       4.138   4.331  -7.152  1.00  0.00    -0.475 OA
ATOM     15  Cl  UNL     1       0.750   0.965  -9.913  1.00  0.00    -0.084 Cl
ATOM     16  C   UNL     1       1.159   3.335  -8.701  1.00  0.00     0.032 A 
ATOM     17  C   UNL     1       1.677   5.628  -7.865  1.00  0.00     0.027 C 
ATOM     18  C   UNL     1       4.060   5.757  -7.584  1.00  0.00     0.316 C 
BRANCH   9  19
ATOM     19  C   UNL     1       2.670   1.689  -5.395  1.00  0.00    -0.015 A 
ATOM     20  C   UNL     1       1.481   0.356  -3.166  1.00  0.00     0.067 A 
ATOM     21  C   UNL     1       2.375  -0.323  -3.994  1.00  0.00     0.021 A 
ATOM     22  C   UNL     1       1.219   1.706  -3.394  1.00  0.00     0.021 A 
ATOM     23  C   UNL     1       2.972   0.344  -5.082  1.00  0.00     0.010 A 
ATOM     24  C   UNL     1       1.819   2.363  -4.488  1.00  0.00     0.010 A 
BRANCH  20  25
ATOM     25  S   UNL     1       0.561  -0.532  -1.920  1.00  0.00     0.175 S 
ATOM     26  C   UNL     1       1.063   0.178  -0.378  1.00  0.00     0.163 C 
ATOM     27  O   UNL     1       1.020  -1.909  -1.926  1.00  0.00    -0.224 OA
ATOM     28  O   UNL     1      -0.841  -0.219  -2.119  1.00  0.00    -0.224 OA
ENDBRANCH  20  25
ENDBRANCH   9  19
BRANCH  18  29
ATOM     29  C   UNL     1       5.370   6.415  -8.076  1.00  0.00     0.430 C 
ATOM     30  F   UNL     1       5.318   7.749  -7.807  1.00  0.00    -0.167 F 
ATOM     31  F   UNL     1       6.449   5.934  -7.417  1.00  0.00    -0.167 F 
ATOM     32  F   UNL     1       5.614   6.289  -9.392  1.00  0.00    -0.167 F 
ENDBRANCH  18  29
ENDBRANCH   6   8
ENDBRANCH   5   6
ENDBRANCH   4   5
ENDBRANCH   3   4
ENDBRANCH   2   3
ENDBRANCH   1   2
BRANCH   1  33
ATOM     33  C   UNL     1       6.119   2.603 -11.000  1.00  0.00     0.261 C 
BRANCH  33  34
ATOM     34  O   UNL     1       6.582   3.656 -11.856  1.00  0.00    -0.460 OA
BRANCH  34  35
ATOM     35  C   UNL     1       6.822   3.288 -13.136  1.00  0.00     0.338 C 
ATOM     36  O   UNL     1       6.660   2.182 -13.637  1.00  0.00    -0.246 OA
BRANCH  35  37
ATOM     37  C   UNL     1       7.173   4.476 -13.923  1.00  0.00     0.060 A 
ATOM     38  C   UNL     1       6.347   4.847 -14.993  1.00  0.00     0.016 A 
ATOM     39  C   UNL     1       8.356   5.164 -13.656  1.00  0.00     0.016 A 
ATOM     40  C   UNL     1       6.722   5.899 -15.827  1.00  0.00     0.010 A 
ATOM     41  C   UNL     1       8.733   6.209 -14.497  1.00  0.00     0.010 A 
ATOM     42  C   UNL     1       7.936   6.558 -15.602  1.00  0.00    -0.014 A 
BRANCH  42  43
ATOM     43  C   UNL     1       8.481   7.510 -16.595  1.00  0.00     0.031 A 
ATOM     44  C   UNL     1       9.593   7.043 -17.491  1.00  0.00     0.074 A 
ATOM     45  C   UNL     1       8.046   8.781 -16.640  1.00  0.00     0.049 A 
ATOM     46  N   UNL     1      10.362   7.734 -18.287  1.00  0.00    -0.248 NA
ATOM     47  C   UNL     1       9.887   5.598 -17.470  1.00  0.00     0.031 C 
ATOM     48  C   UNL     1       6.956   9.331 -15.836  1.00  0.00     0.029 A 
ATOM     49  N   UNL     1       8.506   9.851 -17.365  1.00  0.00    -0.354 N 
ATOM     50  C   UNL     1      11.258   6.821 -18.830  1.00  0.00     0.074 A 
ATOM     51  C   UNL     1      10.943   5.527 -18.267  1.00  0.00     0.031 C 
ATOM     52  C   UNL     1       6.859  10.650 -16.079  1.00  0.00     0.029 A 
ATOM     53  C   UNL     1       7.908  11.040 -17.018  1.00  0.00     0.049 A 
ATOM     54  H   UNL     1       9.196   9.775 -18.063  1.00  0.00     0.167 HD
ATOM     55  C   UNL     1      12.251   7.044 -19.722  1.00  0.00     0.034 A 
ATOM     56  C   UNL     1       8.208  12.302 -17.386  1.00  0.00     0.034 A 
ATOM     57  C   UNL     1      12.547   8.335 -20.277  1.00  0.00     0.049 A 
ATOM     58  C   UNL     1       9.352  12.530 -18.343  1.00  0.00     0.074 A 
ATOM     59  C   UNL     1      13.514   8.671 -21.207  1.00  0.00     0.029 A 
ATOM     60  N   UNL     1      11.883   9.506 -19.947  1.00  0.00    -0.354 N 
ATOM     61  N   UNL     1      10.147  11.652 -18.906  1.00  0.00    -0.248 NA
ATOM     62  C   UNL     1       9.625  13.921 -18.735  1.00  0.00     0.031 C 
ATOM     63  C   UNL     1      13.455  10.052 -21.415  1.00  0.00     0.029 A 
ATOM     64  C   UNL     1      12.419  10.568 -20.651  1.00  0.00     0.049 A 
ATOM     65  H   UNL     1      11.139   9.572 -19.305  1.00  0.00     0.167 HD
ATOM     66  C   UNL     1      10.971  12.375 -19.761  1.00  0.00     0.074 A 
ATOM     67  C   UNL     1      10.581  13.764 -19.641  1.00  0.00     0.031 C 
ATOM     68  C   UNL     1      11.964  11.931 -20.571  1.00  0.00     0.034 A 
BRANCH  55  69
ATOM     69  C   UNL     1      13.079   5.865 -20.161  1.00  0.00     0.023 A 
ATOM     70  C   UNL     1      12.509   4.879 -20.991  1.00  0.00     0.012 A 
ATOM     71  C   UNL     1      14.436   5.761 -19.797  1.00  0.00     0.148 A 
ATOM     72  C   UNL     1      13.264   3.790 -21.423  1.00  0.00     0.002 A 
ATOM     73  C   UNL     1      15.196   4.698 -20.271  1.00  0.00     0.091 A 
ATOM     74  F   UNL     1      14.956   6.697 -18.991  1.00  0.00    -0.205 F 
ATOM     75  C   UNL     1      14.609   3.705 -21.073  1.00  0.00     0.022 A 
BRANCH  73  76
ATOM     76  S   UNL     1      16.955   4.540 -19.943  1.00  0.00     0.127 S 
ATOM     77  O   UNL     1      16.990   3.359 -19.081  1.00  0.00    -0.237 OA
ATOM     78  O   UNL     1      17.498   4.331 -21.285  1.00  0.00    -0.237 OA
ATOM     79  O   UNL     1      17.361   5.785 -19.308  1.00  0.00    -0.744 OA
ENDBRANCH  73  76
ENDBRANCH  55  69
BRANCH  56  80
ATOM     80  C   UNL     1       7.408  13.449 -16.871  1.00  0.00     0.023 A 
ATOM     81  C   UNL     1       6.601  14.182 -17.763  1.00  0.00     0.012 A 
ATOM     82  C   UNL     1       7.444  13.822 -15.513  1.00  0.00     0.148 A 
ATOM     83  C   UNL     1       5.878  15.291 -17.322  1.00  0.00     0.002 A 
ATOM     84  C   UNL     1       6.678  14.894 -15.070  1.00  0.00     0.091 A 
ATOM     85  F   UNL     1       8.225  13.119 -14.682  1.00  0.00    -0.205 F 
ATOM     86  C   UNL     1       5.911  15.643 -15.976  1.00  0.00     0.022 A 
BRANCH  84  87
ATOM     87  S   UNL     1       6.564  15.348 -13.335  1.00  0.00     0.127 S 
ATOM     88  O   UNL     1       7.263  16.631 -13.316  1.00  0.00    -0.237 OA
ATOM     89  O   UNL     1       5.117  15.432 -13.141  1.00  0.00    -0.237 OA
ATOM     90  O   UNL     1       7.208  14.268 -12.601  1.00  0.00    -0.744 OA
ENDBRANCH  84  87
ENDBRANCH  56  80
BRANCH  68  91
ATOM     91  C   UNL     1      12.646  12.930 -21.469  1.00  0.00     0.023 A 
ATOM     92  C   UNL     1      13.562  13.858 -20.937  1.00  0.00     0.012 A 
ATOM     93  C   UNL     1      12.459  12.860 -22.864  1.00  0.00     0.148 A 
ATOM     94  C   UNL     1      14.265  14.717 -21.782  1.00  0.00     0.002 A 
ATOM     95  C   UNL     1      13.202  13.680 -23.702  1.00  0.00     0.091 A 
ATOM     96  F   UNL     1      11.570  11.978 -23.345  1.00  0.00    -0.205 F 
ATOM     97  C   UNL     1      14.097  14.618 -23.162  1.00  0.00     0.022 A 
BRANCH  95  98
ATOM     98  S   UNL     1      13.133  13.549 -25.492  1.00  0.00     0.127 S 
ATOM     99  O   UNL     1      12.517  14.823 -25.859  1.00  0.00    -0.237 OA
ATOM    100  O   UNL     1      14.547  13.429 -25.846  1.00  0.00    -0.237 OA
ATOM    101  O   UNL     1      12.331  12.367 -25.781  1.00  0.00    -0.744 OA
ENDBRANCH  95  98
ENDBRANCH  68  91
ENDBRANCH  42  43
ENDBRANCH  35  37
ENDBRANCH  34  35
ENDBRANCH  33  34
ENDBRANCH   1  33
TORSDOF 20
