REMARK SMILES COc1ccc(C(=O)c2ccccc2)cc1[C@@H](C)C(=O)OCCOCCOC(=O)c1ccc(-c2c3nc(c(-c4cccc(S(=O)(=O)[O-])c4F)c4ccc([nH]4)c(-c4cccc(S(=O)(=O)[O-])c4F)c4nc(c(-c5cccc(S(=O)(=O)[O-])c5F)c5ccc2[nH]5)C=C4)C=C3)cc1
REMARK SMILES IDX 24 1 23 2 22 3 21 4 19 5 20 6 17 7 18 8 16 9 3 10 4 11 5 12
REMARK SMILES IDX 15 13 6 14 2 15 1 16 7 17 8 18 9 19 10 20 14 21 11 22 13 23
REMARK SMILES IDX 12 24 25 25 26 26 27 27 28 28 29 29 30 30 31 31 92 32 32 33
REMARK SMILES IDX 91 34 33 35 34 36 35 37 85 38 36 39 90 40 84 41 86 42 37 43
REMARK SMILES IDX 89 44 83 45 82 46 38 48 70 49 50 50 69 51 51 52 54 53 68 54
REMARK SMILES IDX 87 55 52 56 53 57 67 59 88 60 55 61 39 62 40 63 48 64 41 65
REMARK SMILES IDX 43 66 49 67 42 68 44 69 45 70 46 71 47 72 71 73 72 74 80 75
REMARK SMILES IDX 73 76 75 77 81 78 74 79 76 80 77 81 78 82 79 83 56 84 57 85
REMARK SMILES IDX 65 86 58 87 60 88 66 89 59 90 61 91 62 92 63 93 64 94
REMARK H PARENT 86 47 54 58
REMARK Flexibility Score: inf
ROOT
ATOM      1  O   UNL     1       3.042  -1.791   4.129  1.00  0.00    -0.374 OA
ENDROOT
BRANCH   1   2
ATOM      2  C   UNL     1       4.199  -1.090   4.594  1.00  0.00     0.202 C 
BRANCH   2   3
ATOM      3  C   UNL     1       5.195  -0.690   3.503  1.00  0.00     0.261 C 
BRANCH   3   4
ATOM      4  O   UNL     1       4.676   0.393   2.707  1.00  0.00    -0.463 OA
BRANCH   4   5
ATOM      5  C   UNL     1       4.385   0.120   1.408  1.00  0.00     0.313 C 
ATOM      6  O   UNL     1       4.621  -0.947   0.851  1.00  0.00    -0.252 OA
BRANCH   5   7
ATOM      7  C   UNL     1       3.757   1.298   0.676  1.00  0.00     0.130 C 
ATOM      8  C   UNL     1       4.846   2.242   0.170  1.00  0.00     0.025 C 
BRANCH   7   9
ATOM      9  C   UNL     1       2.656   2.056   1.414  1.00  0.00     0.009 A 
ATOM     10  C   UNL     1       1.339   2.098   0.928  1.00  0.00     0.122 A 
ATOM     11  C   UNL     1       0.376   2.916   1.524  1.00  0.00     0.047 A 
ATOM     12  C   UNL     1       0.718   3.723   2.611  1.00  0.00     0.016 A 
ATOM     13  C   UNL     1       2.958   2.832   2.554  1.00  0.00     0.020 A 
ATOM     14  C   UNL     1       2.022   3.710   3.121  1.00  0.00     0.023 A 
BRANCH  10  15
ATOM     15  O   UNL     1       0.970   1.451  -0.221  1.00  0.00    -0.496 OA
ATOM     16  C   UNL     1       0.659   0.077   0.012  1.00  0.00     0.278 C 
ENDBRANCH  10  15
BRANCH  14  17
ATOM     17  C   UNL     1       2.344   4.642   4.246  1.00  0.00     0.193 C 
ATOM     18  O   UNL     1       1.407   5.143   4.869  1.00  0.00    -0.289 OA
BRANCH  17  19
ATOM     19  C   UNL     1       3.736   4.962   4.678  1.00  0.00     0.022 A 
ATOM     20  C   UNL     1       3.947   5.233   6.034  1.00  0.00     0.012 A 
ATOM     21  C   UNL     1       4.827   5.006   3.804  1.00  0.00     0.012 A 
ATOM     22  C   UNL     1       5.239   5.409   6.533  1.00  0.00     0.001 A 
ATOM     23  C   UNL     1       6.122   5.175   4.304  1.00  0.00     0.001 A 
ATOM     24  C   UNL     1       6.329   5.352   5.671  1.00  0.00     0.000 A 
ENDBRANCH  17  19
ENDBRANCH  14  17
ENDBRANCH   7   9
ENDBRANCH   5   7
ENDBRANCH   4   5
ENDBRANCH   3   4
ENDBRANCH   2   3
ENDBRANCH   1   2
BRANCH   1  25
ATOM     25  C   UNL     1       1.986  -0.988   3.604  1.00  0.00     0.202 C 
BRANCH  25  26
ATOM     26  C   UNL     1       1.012  -0.398   4.628  1.00  0.00     0.261 C 
BRANCH  26  27
ATOM     27  O   UNL     1       1.659   0.513   5.529  1.00  0.00    -0.460 OA
BRANCH  27  28
ATOM     28  C   UNL     1       1.920  -0.000   6.754  1.00  0.00     0.338 C 
ATOM     29  O   UNL     1       1.602  -1.109   7.171  1.00  0.00    -0.246 OA
BRANCH  28  30
ATOM     30  C   UNL     1       2.802   0.906   7.511  1.00  0.00     0.060 A 
ATOM     31  C   UNL     1       3.899   0.342   8.176  1.00  0.00     0.016 A 
ATOM     32  C   UNL     1       2.524   2.266   7.636  1.00  0.00     0.016 A 
ATOM     33  C   UNL     1       4.686   1.125   9.022  1.00  0.00     0.010 A 
ATOM     34  C   UNL     1       3.314   3.042   8.490  1.00  0.00     0.010 A 
ATOM     35  C   UNL     1       4.375   2.475   9.219  1.00  0.00    -0.014 A 
BRANCH  35  36
ATOM     36  C   UNL     1       5.035   3.247  10.306  1.00  0.00     0.031 A 
ATOM     37  C   UNL     1       4.225   3.638  11.517  1.00  0.00     0.074 A 
ATOM     38  C   UNL     1       6.332   3.606  10.226  1.00  0.00     0.049 A 
ATOM     39  N   UNL     1       4.591   4.305  12.581  1.00  0.00    -0.248 NA
ATOM     40  C   UNL     1       2.805   3.244  11.519  1.00  0.00     0.031 C 
ATOM     41  C   UNL     1       7.222   3.339   9.097  1.00  0.00     0.029 A 
ATOM     42  N   UNL     1       7.121   4.293  11.117  1.00  0.00    -0.354 N 
ATOM     43  C   UNL     1       3.443   4.444  13.354  1.00  0.00     0.074 A 
ATOM     44  C   UNL     1       2.360   3.834  12.617  1.00  0.00     0.031 C 
ATOM     45  C   UNL     1       8.432   3.865   9.359  1.00  0.00     0.029 A 
ATOM     46  C   UNL     1       8.404   4.507  10.671  1.00  0.00     0.049 A 
ATOM     47  H   UNL     1       6.797   4.604  11.993  1.00  0.00     0.167 HD
ATOM     48  C   UNL     1       3.302   4.987  14.587  1.00  0.00     0.034 A 
ATOM     49  C   UNL     1       9.439   5.141  11.260  1.00  0.00     0.034 A 
ATOM     50  C   UNL     1       4.387   5.530  15.355  1.00  0.00     0.049 A 
ATOM     51  C   UNL     1       9.274   5.688  12.657  1.00  0.00     0.074 A 
ATOM     52  C   UNL     1       4.363   6.029  16.645  1.00  0.00     0.029 A 
ATOM     53  N   UNL     1       5.693   5.636  14.908  1.00  0.00    -0.354 N 
ATOM     54  N   UNL     1       8.218   5.669  13.433  1.00  0.00    -0.248 NA
ATOM     55  C   UNL     1      10.462   6.295  13.279  1.00  0.00     0.031 C 
ATOM     56  C   UNL     1       5.659   6.443  16.976  1.00  0.00     0.029 A 
ATOM     57  C   UNL     1       6.489   6.185  15.897  1.00  0.00     0.049 A 
ATOM     58  H   UNL     1       6.009   5.362  14.016  1.00  0.00     0.167 HD
ATOM     59  C   UNL     1       8.627   6.210  14.649  1.00  0.00     0.074 A 
ATOM     60  C   UNL     1      10.030   6.535  14.510  1.00  0.00     0.031 C 
ATOM     61  C   UNL     1       7.903   6.429  15.774  1.00  0.00     0.034 A 
BRANCH  48  62
ATOM     62  C   UNL     1       1.928   4.954  15.204  1.00  0.00     0.023 A 
ATOM     63  C   UNL     1       1.389   3.723  15.631  1.00  0.00     0.012 A 
ATOM     64  C   UNL     1       1.183   6.135  15.387  1.00  0.00     0.148 A 
ATOM     65  C   UNL     1       0.112   3.659  16.186  1.00  0.00     0.002 A 
ATOM     66  C   UNL     1      -0.070   6.070  15.987  1.00  0.00     0.091 A 
ATOM     67  F   UNL     1       1.702   7.293  14.957  1.00  0.00    -0.205 F 
ATOM     68  C   UNL     1      -0.612   4.832  16.372  1.00  0.00     0.022 A 
BRANCH  66  69
ATOM     69  S   UNL     1      -1.047   7.533  16.347  1.00  0.00     0.127 S 
ATOM     70  O   UNL     1      -2.114   7.428  15.353  1.00  0.00    -0.237 OA
ATOM     71  O   UNL     1      -1.473   7.287  17.726  1.00  0.00    -0.237 OA
ATOM     72  O   UNL     1      -0.147   8.665  16.185  1.00  0.00    -0.744 OA
ENDBRANCH  66  69
ENDBRANCH  48  62
BRANCH  49  73
ATOM     73  C   UNL     1      10.759   5.222  10.570  1.00  0.00     0.023 A 
ATOM     74  C   UNL     1      11.844   4.470  11.063  1.00  0.00     0.012 A 
ATOM     75  C   UNL     1      10.947   6.035   9.437  1.00  0.00     0.148 A 
ATOM     76  C   UNL     1      13.102   4.558  10.465  1.00  0.00     0.002 A 
ATOM     77  C   UNL     1      12.190   6.078   8.814  1.00  0.00     0.091 A 
ATOM     78  F   UNL     1       9.906   6.751   8.988  1.00  0.00    -0.205 F 
ATOM     79  C   UNL     1      13.274   5.356   9.338  1.00  0.00     0.022 A 
BRANCH  77  80
ATOM     80  S   UNL     1      12.469   6.979   7.285  1.00  0.00     0.127 S 
ATOM     81  O   UNL     1      13.272   8.108   7.744  1.00  0.00    -0.237 OA
ATOM     82  O   UNL     1      13.192   5.993   6.481  1.00  0.00    -0.237 OA
ATOM     83  O   UNL     1      11.143   7.304   6.778  1.00  0.00    -0.744 OA
ENDBRANCH  77  80
ENDBRANCH  49  73
BRANCH  61  84
ATOM     84  C   UNL     1       8.618   6.989  16.976  1.00  0.00     0.023 A 
ATOM     85  C   UNL     1       9.022   8.339  16.991  1.00  0.00     0.012 A 
ATOM     86  C   UNL     1       8.820   6.195  18.123  1.00  0.00     0.148 A 
ATOM     87  C   UNL     1       9.647   8.879  18.115  1.00  0.00     0.002 A 
ATOM     88  C   UNL     1       9.400   6.754  19.257  1.00  0.00     0.091 A 
ATOM     89  F   UNL     1       8.450   4.907  18.086  1.00  0.00    -0.205 F 
ATOM     90  C   UNL     1       9.825   8.092  19.251  1.00  0.00     0.022 A 
BRANCH  88  91
ATOM     91  S   UNL     1       9.571   5.834  20.791  1.00  0.00     0.127 S 
ATOM     92  O   UNL     1      10.980   5.448  20.753  1.00  0.00    -0.237 OA
ATOM     93  O   UNL     1       9.242   6.841  21.801  1.00  0.00    -0.237 OA
ATOM     94  O   UNL     1       8.613   4.739  20.703  1.00  0.00    -0.744 OA
ENDBRANCH  88  91
ENDBRANCH  61  84
ENDBRANCH  35  36
ENDBRANCH  28  30
ENDBRANCH  27  28
ENDBRANCH  26  27
ENDBRANCH  25  26
ENDBRANCH   1  25
TORSDOF 21
