REMARK SMILES CC[NH+](CC)C[C@H](C)NC(=O)N[C@H]1C=C[C@@H](C(=O)OCCOCCOC(=O)c2ccc(-c3c4nc(c(-c5cccc(S(=O)(=O)[O-])c5F)c5ccc([nH]5)c(-c5cccc(S(=O)(=O)[O-])c5F)c5nc(c(-c6cccc(S(=O)(=O)[O-])c6F)c6ccc3[nH]6)C=C5)C=C4)cc2)C1
REMARK SMILES IDX 21 1 20 2 19 3 17 4 18 5 16 6 13 7 14 8 91 9 15 10 12 11
REMARK SMILES IDX 9 12 10 13 11 15 7 17 8 18 6 19 3 20 2 22 1 23 4 24 5 25
REMARK SMILES IDX 22 26 23 27 24 28 25 29 26 30 27 31 28 32 29 33 90 34 30 35
REMARK SMILES IDX 89 36 31 37 32 38 33 39 83 40 34 41 88 42 82 43 84 44 35 45
REMARK SMILES IDX 87 46 81 47 80 48 36 50 68 51 48 52 67 53 49 54 52 55 66 56
REMARK SMILES IDX 85 57 50 58 51 59 65 61 86 62 53 63 37 64 38 65 46 66 39 67
REMARK SMILES IDX 41 68 47 69 40 70 42 71 43 72 44 73 45 74 69 75 70 76 78 77
REMARK SMILES IDX 71 78 73 79 79 80 72 81 74 82 75 83 76 84 77 85 54 86 55 87
REMARK SMILES IDX 63 88 56 89 58 90 64 91 57 92 59 93 60 94 61 95 62 96
REMARK H PARENT 9 14 12 16 3 21 84 49 52 60
REMARK Flexibility Score: inf
ROOT
ATOM      1  C   UNL     1       1.784   4.210  10.472  1.00  0.00     0.202 C 
ENDROOT
BRANCH   1   2
ATOM      2  C   UNL     1       1.528   2.706  10.589  1.00  0.00     0.261 C 
BRANCH   2   3
ATOM      3  O   UNL     1       1.834   2.055   9.345  1.00  0.00    -0.463 OA
BRANCH   3   4
ATOM      4  C   UNL     1       0.811   1.402   8.740  1.00  0.00     0.312 C 
ATOM      5  O   UNL     1      -0.293   1.205   9.236  1.00  0.00    -0.252 OA
BRANCH   4   6
ATOM      6  C   UNL     1       1.171   0.917   7.346  1.00  0.00     0.124 C 
ATOM      7  C   UNL     1       2.811   0.725   5.599  1.00  0.00     0.107 C 
ATOM      8  C   UNL     1       2.767  -0.521   6.423  1.00  0.00    -0.006 C 
ATOM      9  C   UNL     1       2.193   1.744   6.555  1.00  0.00     0.048 C 
ATOM     10  C   UNL     1       1.826  -0.431   7.372  1.00  0.00    -0.014 C 
BRANCH   7  11
ATOM     11  N   UNL     1       4.152   1.068   5.224  1.00  0.00    -0.332 N 
ATOM     12  N   UNL     1       4.257   0.972   2.858  1.00  0.00    -0.330 N 
ATOM     13  C   UNL     1       4.799   1.174   4.061  1.00  0.00     0.315 C 
ATOM     14  H   UNL     1       4.928   1.043   2.142  1.00  0.00     0.165 HD
ATOM     15  O   UNL     1       5.996   1.469   4.089  1.00  0.00    -0.249 OA
ATOM     16  H   UNL     1       4.725   1.271   5.998  1.00  0.00     0.165 HD
BRANCH  12  17
ATOM     17  C   UNL     1       2.934   0.675   2.325  1.00  0.00     0.135 C 
ATOM     18  C   UNL     1       2.721   1.457   1.026  1.00  0.00     0.037 C 
BRANCH  17  19
ATOM     19  C   UNL     1       2.595  -0.847   2.191  1.00  0.00     0.287 C 
BRANCH  19  20
ATOM     20  N   UNL     1       3.560  -1.894   1.828  1.00  0.00    -0.334 N 
ATOM     21  H   UNL     1       2.915  -2.465   1.282  1.00  0.00     0.348 HD
BRANCH  20  22
ATOM     22  C   UNL     1       4.563  -1.635   0.808  1.00  0.00     0.258 C 
ATOM     23  C   UNL     1       3.959  -1.574  -0.588  1.00  0.00     0.071 C 
ENDBRANCH  20  22
BRANCH  20  24
ATOM     24  C   UNL     1       4.020  -2.749   2.926  1.00  0.00     0.258 C 
ATOM     25  C   UNL     1       5.132  -2.195   3.801  1.00  0.00     0.071 C 
ENDBRANCH  20  24
ENDBRANCH  19  20
ENDBRANCH  17  19
ENDBRANCH  12  17
ENDBRANCH   7  11
ENDBRANCH   4   6
ENDBRANCH   3   4
ENDBRANCH   2   3
ENDBRANCH   1   2
BRANCH   1  26
ATOM     26  O   UNL     1       0.885   4.931   9.625  1.00  0.00    -0.374 OA
BRANCH  26  27
ATOM     27  C   UNL     1       1.103   4.841   8.218  1.00  0.00     0.202 C 
BRANCH  27  28
ATOM     28  C   UNL     1       2.240   5.693   7.638  1.00  0.00     0.261 C 
BRANCH  28  29
ATOM     29  O   UNL     1       3.534   5.272   8.102  1.00  0.00    -0.460 OA
BRANCH  29  30
ATOM     30  C   UNL     1       4.136   6.135   8.954  1.00  0.00     0.338 C 
ATOM     31  O   UNL     1       3.723   7.236   9.299  1.00  0.00    -0.246 OA
BRANCH  30  32
ATOM     32  C   UNL     1       5.301   5.499   9.594  1.00  0.00     0.060 A 
ATOM     33  C   UNL     1       5.336   5.487  10.995  1.00  0.00     0.016 A 
ATOM     34  C   UNL     1       6.375   5.001   8.853  1.00  0.00     0.016 A 
ATOM     35  C   UNL     1       6.468   5.026  11.662  1.00  0.00     0.010 A 
ATOM     36  C   UNL     1       7.515   4.546   9.527  1.00  0.00     0.010 A 
ATOM     37  C   UNL     1       7.582   4.593  10.932  1.00  0.00    -0.014 A 
BRANCH  37  38
ATOM     38  C   UNL     1       8.857   4.326  11.643  1.00  0.00     0.031 A 
ATOM     39  C   UNL     1       9.936   5.375  11.631  1.00  0.00     0.074 A 
ATOM     40  C   UNL     1       9.047   3.170  12.303  1.00  0.00     0.049 A 
ATOM     41  N   UNL     1      11.118   5.352  12.189  1.00  0.00    -0.248 NA
ATOM     42  C   UNL     1       9.646   6.615  10.891  1.00  0.00     0.031 C 
ATOM     43  C   UNL     1       8.081   2.075  12.384  1.00  0.00     0.029 A 
ATOM     44  N   UNL     1      10.132   2.715  13.010  1.00  0.00    -0.354 N 
ATOM     45  C   UNL     1      11.726   6.552  11.841  1.00  0.00     0.074 A 
ATOM     46  C   UNL     1      10.784   7.282  11.020  1.00  0.00     0.031 C 
ATOM     47  C   UNL     1       8.631   1.060  13.073  1.00  0.00     0.029 A 
ATOM     48  C   UNL     1       9.991   1.425  13.464  1.00  0.00     0.049 A 
ATOM     49  H   UNL     1      10.935   3.260  13.176  1.00  0.00     0.167 HD
ATOM     50  C   UNL     1      12.953   7.012  12.184  1.00  0.00     0.034 A 
ATOM     51  C   UNL     1      10.867   0.624  14.103  1.00  0.00     0.034 A 
ATOM     52  C   UNL     1      13.876   6.301  13.026  1.00  0.00     0.049 A 
ATOM     53  C   UNL     1      12.227   1.161  14.470  1.00  0.00     0.074 A 
ATOM     54  C   UNL     1      15.110   6.719  13.492  1.00  0.00     0.029 A 
ATOM     55  N   UNL     1      13.677   5.019  13.514  1.00  0.00    -0.354 N 
ATOM     56  N   UNL     1      12.726   2.356  14.265  1.00  0.00    -0.248 NA
ATOM     57  C   UNL     1      13.131   0.251  15.190  1.00  0.00     0.031 C 
ATOM     58  C   UNL     1      15.671   5.677  14.238  1.00  0.00     0.029 A 
ATOM     59  C   UNL     1      14.773   4.622  14.260  1.00  0.00     0.049 A 
ATOM     60  H   UNL     1      12.874   4.472  13.354  1.00  0.00     0.167 HD
ATOM     61  C   UNL     1      13.984   2.352  14.858  1.00  0.00     0.074 A 
ATOM     62  C   UNL     1      14.162   1.044  15.452  1.00  0.00     0.031 C 
ATOM     63  C   UNL     1      14.915   3.338  14.896  1.00  0.00     0.034 A 
BRANCH  50  64
ATOM     64  C   UNL     1      13.367   8.364  11.670  1.00  0.00     0.023 A 
ATOM     65  C   UNL     1      12.806   9.528  12.233  1.00  0.00     0.012 A 
ATOM     66  C   UNL     1      14.365   8.484  10.683  1.00  0.00     0.148 A 
ATOM     67  C   UNL     1      13.216  10.791  11.806  1.00  0.00     0.002 A 
ATOM     68  C   UNL     1      14.798   9.745  10.292  1.00  0.00     0.091 A 
ATOM     69  F   UNL     1      14.868   7.364  10.144  1.00  0.00    -0.205 F 
ATOM     70  C   UNL     1      14.218  10.899  10.845  1.00  0.00     0.022 A 
BRANCH  68  71
ATOM     71  S   UNL     1      16.137   9.989   9.120  1.00  0.00     0.127 S 
ATOM     72  O   UNL     1      15.419  10.504   7.955  1.00  0.00    -0.237 OA
ATOM     73  O   UNL     1      16.971  10.976   9.806  1.00  0.00    -0.237 OA
ATOM     74  O   UNL     1      16.760   8.684   8.944  1.00  0.00    -0.744 OA
ENDBRANCH  68  71
ENDBRANCH  50  64
BRANCH  51  75
ATOM     75  C   UNL     1      10.478  -0.769  14.462  1.00  0.00     0.023 A 
ATOM     76  C   UNL     1      10.306  -1.120  15.815  1.00  0.00     0.012 A 
ATOM     77  C   UNL     1      10.270  -1.746  13.469  1.00  0.00     0.148 A 
ATOM     78  C   UNL     1       9.969  -2.426  16.174  1.00  0.00     0.002 A 
ATOM     79  C   UNL     1       9.878  -3.030  13.830  1.00  0.00     0.091 A 
ATOM     80  F   UNL     1      10.459  -1.401  12.188  1.00  0.00    -0.205 F 
ATOM     81  C   UNL     1       9.745  -3.377  15.183  1.00  0.00     0.022 A 
BRANCH  79  82
ATOM     82  S   UNL     1       9.440  -4.275  12.612  1.00  0.00     0.127 S 
ATOM     83  O   UNL     1      10.595  -5.166  12.664  1.00  0.00    -0.237 OA
ATOM     84  O   UNL     1       8.207  -4.830  13.174  1.00  0.00    -0.237 OA
ATOM     85  O   UNL     1       9.250  -3.549  11.363  1.00  0.00    -0.744 OA
ENDBRANCH  79  82
ENDBRANCH  51  75
BRANCH  63  86
ATOM     86  C   UNL     1      16.201   3.064  15.632  1.00  0.00     0.023 A 
ATOM     87  C   UNL     1      17.158   2.195  15.072  1.00  0.00     0.012 A 
ATOM     88  C   UNL     1      16.496   3.730  16.839  1.00  0.00     0.148 A 
ATOM     89  C   UNL     1      18.374   1.968  15.716  1.00  0.00     0.002 A 
ATOM     90  C   UNL     1      17.729   3.537  17.450  1.00  0.00     0.091 A 
ATOM     91  F   UNL     1      15.566   4.540  17.367  1.00  0.00    -0.205 F 
ATOM     92  C   UNL     1      18.664   2.647  16.897  1.00  0.00     0.022 A 
BRANCH  90  93
ATOM     93  S   UNL     1      18.226   4.443  18.920  1.00  0.00     0.127 S 
ATOM     94  O   UNL     1      18.124   3.414  19.954  1.00  0.00    -0.237 OA
ATOM     95  O   UNL     1      19.595   4.844  18.592  1.00  0.00    -0.237 OA
ATOM     96  O   UNL     1      17.287   5.551  19.043  1.00  0.00    -0.744 OA
ENDBRANCH  90  93
ENDBRANCH  63  86
ENDBRANCH  37  38
ENDBRANCH  30  32
ENDBRANCH  29  30
ENDBRANCH  28  29
ENDBRANCH  27  28
ENDBRANCH  26  27
ENDBRANCH   1  26
TORSDOF 23
