REMARK SMILES CC(C)c1cc(N2CCC(C(=O)OCCOCCOC(=O)c3ccc(-c4c5nc(c(-c6cccc(S(=O)(=O)[O-])c6F)c6ccc([nH]6)c(-c6cccc(S(=O)(=O)[O-])c6F)c6nc(c(-c7cccc(S(=O)(=O)[O-])c7F)c7ccc4[nH]7)C=C6)C=C5)cc3)CC2)nc(-c2ccc(F)cc2)n1
REMARK SMILES IDX 17 1 16 2 15 3 14 4 13 5 11 6 12 7 10 8 7 9 8 10 86 11 9 12
REMARK SMILES IDX 85 13 6 14 4 15 5 16 96 17 88 18 87 19 2 20 1 21 3 22 89 23
REMARK SMILES IDX 90 24 95 25 91 26 94 27 92 28 93 29 18 30 19 31 20 32 21 33
REMARK SMILES IDX 22 34 23 35 84 36 24 37 83 38 25 39 26 40 27 41 77 42 28 43
REMARK SMILES IDX 82 44 76 45 78 46 29 47 81 48 75 49 74 50 30 52 62 53 42 54
REMARK SMILES IDX 61 55 43 56 46 57 60 58 79 59 44 60 45 61 59 63 80 64 47 65
REMARK SMILES IDX 31 66 32 67 40 68 33 69 35 70 41 71 34 72 36 73 37 74 38 75
REMARK SMILES IDX 39 76 63 77 64 78 72 79 65 80 67 81 73 82 66 83 68 84 69 85
REMARK SMILES IDX 70 86 71 87 48 88 49 89 57 90 50 91 52 92 58 93 51 94 53 95
REMARK SMILES IDX 54 96 55 97 56 98
REMARK H PARENT 78 51 46 62
REMARK Flexibility Score: inf
ROOT
ATOM      1  C   UNL     1      -9.068  -3.722  -2.897  1.00  0.00     0.202 C 
ENDROOT
BRANCH   1   2
ATOM      2  O   UNL     1     -10.159  -4.079  -2.052  1.00  0.00    -0.374 OA
BRANCH   2   3
ATOM      3  C   UNL     1     -10.366  -3.274  -0.887  1.00  0.00     0.202 C 
BRANCH   3   4
ATOM      4  C   UNL     1      -9.385  -3.501   0.268  1.00  0.00     0.261 C 
BRANCH   4   5
ATOM      5  O   UNL     1      -8.086  -2.975  -0.058  1.00  0.00    -0.463 OA
BRANCH   5   6
ATOM      6  C   UNL     1      -7.049  -3.849  -0.030  1.00  0.00     0.309 C 
ATOM      7  O   UNL     1      -7.114  -5.016   0.339  1.00  0.00    -0.252 OA
BRANCH   6   8
ATOM      8  C   UNL     1      -5.754  -3.230  -0.516  1.00  0.00     0.103 C 
ATOM      9  N   UNL     1      -3.774  -1.223  -0.727  1.00  0.00    -0.356 N 
ATOM     10  C   UNL     1      -4.579  -1.484  -1.904  1.00  0.00     0.119 C 
ATOM     11  C   UNL     1      -3.558  -2.273   0.248  1.00  0.00     0.119 C 
ATOM     12  C   UNL     1      -5.927  -2.053  -1.487  1.00  0.00     0.037 C 
ATOM     13  C   UNL     1      -4.912  -2.820   0.693  1.00  0.00     0.037 C 
BRANCH   9  14
ATOM     14  C   UNL     1      -3.029  -0.068  -0.718  1.00  0.00     0.132 A 
ATOM     15  C   UNL     1      -0.968   1.089  -0.727  1.00  0.00     0.049 A 
ATOM     16  C   UNL     1      -1.650  -0.112  -0.686  1.00  0.00     0.071 A 
ATOM     17  N   UNL     1      -1.618   2.268  -0.781  1.00  0.00    -0.233 NA
ATOM     18  C   UNL     1      -2.963   2.218  -0.765  1.00  0.00     0.161 A 
ATOM     19  N   UNL     1      -3.692   1.093  -0.767  1.00  0.00    -0.211 NA
BRANCH  15  20
ATOM     20  C   UNL     1       0.544   1.155  -0.766  1.00  0.00     0.032 C 
ATOM     21  C   UNL     1       1.233   0.114   0.121  1.00  0.00     0.014 C 
ATOM     22  C   UNL     1       1.031   1.042  -2.212  1.00  0.00     0.014 C 
ENDBRANCH  15  20
BRANCH  18  23
ATOM     23  C   UNL     1      -3.691   3.488  -0.707  1.00  0.00     0.019 A 
ATOM     24  C   UNL     1      -3.436   4.516  -1.633  1.00  0.00     0.015 A 
ATOM     25  C   UNL     1      -4.660   3.716   0.290  1.00  0.00     0.015 A 
ATOM     26  C   UNL     1      -4.127   5.728  -1.565  1.00  0.00     0.040 A 
ATOM     27  C   UNL     1      -5.338   4.936   0.371  1.00  0.00     0.040 A 
ATOM     28  C   UNL     1      -5.066   5.929  -0.560  1.00  0.00     0.123 A 
ATOM     29  F   UNL     1      -5.711   7.100  -0.489  1.00  0.00    -0.207 F 
ENDBRANCH  18  23
ENDBRANCH   9  14
ENDBRANCH   6   8
ENDBRANCH   5   6
ENDBRANCH   4   5
ENDBRANCH   3   4
ENDBRANCH   2   3
ENDBRANCH   1   2
BRANCH   1  30
ATOM     30  C   UNL     1      -9.297  -2.545  -3.855  1.00  0.00     0.261 C 
BRANCH  30  31
ATOM     31  O   UNL     1      -9.618  -1.322  -3.170  1.00  0.00    -0.460 OA
BRANCH  31  32
ATOM     32  C   UNL     1     -10.890  -0.896  -3.353  1.00  0.00     0.338 C 
ATOM     33  O   UNL     1     -11.728  -1.387  -4.104  1.00  0.00    -0.246 OA
BRANCH  32  34
ATOM     34  C   UNL     1     -11.236   0.169  -2.394  1.00  0.00     0.060 A 
ATOM     35  C   UNL     1     -12.385  -0.025  -1.618  1.00  0.00     0.016 A 
ATOM     36  C   UNL     1     -10.521   1.367  -2.313  1.00  0.00     0.016 A 
ATOM     37  C   UNL     1     -12.857   0.999  -0.802  1.00  0.00     0.010 A 
ATOM     38  C   UNL     1     -11.002   2.398  -1.493  1.00  0.00     0.010 A 
ATOM     39  C   UNL     1     -12.194   2.233  -0.764  1.00  0.00    -0.014 A 
BRANCH  39  40
ATOM     40  C   UNL     1     -12.831   3.365  -0.044  1.00  0.00     0.031 A 
ATOM     41  C   UNL     1     -13.608   4.397  -0.820  1.00  0.00     0.074 A 
ATOM     42  C   UNL     1     -12.773   3.438   1.298  1.00  0.00     0.049 A 
ATOM     43  N   UNL     1     -14.317   5.403  -0.376  1.00  0.00    -0.248 NA
ATOM     44  C   UNL     1     -13.588   4.278  -2.287  1.00  0.00     0.031 C 
ATOM     45  C   UNL     1     -12.047   2.508   2.163  1.00  0.00     0.029 A 
ATOM     46  N   UNL     1     -13.330   4.341   2.169  1.00  0.00    -0.354 N 
ATOM     47  C   UNL     1     -14.822   6.040  -1.503  1.00  0.00     0.074 A 
ATOM     48  C   UNL     1     -14.319   5.322  -2.655  1.00  0.00     0.031 C 
ATOM     49  C   UNL     1     -12.193   2.897   3.441  1.00  0.00     0.029 A 
ATOM     50  C   UNL     1     -13.014   4.106   3.486  1.00  0.00     0.049 A 
ATOM     51  H   UNL     1     -13.903   5.087   1.877  1.00  0.00     0.167 HD
ATOM     52  C   UNL     1     -15.651   7.109  -1.575  1.00  0.00     0.034 A 
ATOM     53  C   UNL     1     -13.347   4.788   4.599  1.00  0.00     0.034 A 
ATOM     54  C   UNL     1     -16.168   7.815  -0.433  1.00  0.00     0.049 A 
ATOM     55  C   UNL     1     -14.260   5.982   4.487  1.00  0.00     0.074 A 
ATOM     56  C   UNL     1     -17.042   8.888  -0.407  1.00  0.00     0.029 A 
ATOM     57  N   UNL     1     -15.852   7.527   0.885  1.00  0.00    -0.354 N 
ATOM     58  N   UNL     1     -14.840   6.483   3.423  1.00  0.00    -0.248 NA
ATOM     59  C   UNL     1     -14.598   6.680   5.737  1.00  0.00     0.031 C 
ATOM     60  C   UNL     1     -17.244   9.257   0.927  1.00  0.00     0.029 A 
ATOM     61  C   UNL     1     -16.508   8.404   1.733  1.00  0.00     0.049 A 
ATOM     62  H   UNL     1     -15.250   6.804   1.176  1.00  0.00     0.167 HD
ATOM     63  C   UNL     1     -15.631   7.533   3.878  1.00  0.00     0.074 A 
ATOM     64  C   UNL     1     -15.483   7.574   5.318  1.00  0.00     0.031 C 
ATOM     65  C   UNL     1     -16.394   8.401   3.168  1.00  0.00     0.034 A 
BRANCH  52  66
ATOM     66  C   UNL     1     -16.102   7.556  -2.942  1.00  0.00     0.023 A 
ATOM     67  C   UNL     1     -17.075   6.799  -3.626  1.00  0.00     0.012 A 
ATOM     68  C   UNL     1     -15.629   8.754  -3.511  1.00  0.00     0.148 A 
ATOM     69  C   UNL     1     -17.558   7.218  -4.865  1.00  0.00     0.002 A 
ATOM     70  C   UNL     1     -16.142   9.184  -4.731  1.00  0.00     0.091 A 
ATOM     71  F   UNL     1     -14.690   9.448  -2.853  1.00  0.00    -0.205 F 
ATOM     72  C   UNL     1     -17.100   8.413  -5.411  1.00  0.00     0.022 A 
BRANCH  70  73
ATOM     73  S   UNL     1     -15.671  10.743  -5.488  1.00  0.00     0.127 S 
ATOM     74  O   UNL     1     -14.911  10.288  -6.651  1.00  0.00    -0.237 OA
ATOM     75  O   UNL     1     -16.971  11.336  -5.804  1.00  0.00    -0.237 OA
ATOM     76  O   UNL     1     -14.902  11.463  -4.483  1.00  0.00    -0.744 OA
ENDBRANCH  70  73
ENDBRANCH  52  66
BRANCH  53  77
ATOM     77  C   UNL     1     -12.855   4.334   5.931  1.00  0.00     0.023 A 
ATOM     78  C   UNL     1     -13.767   3.818   6.873  1.00  0.00     0.012 A 
ATOM     79  C   UNL     1     -11.491   4.414   6.271  1.00  0.00     0.148 A 
ATOM     80  C   UNL     1     -13.334   3.424   8.140  1.00  0.00     0.002 A 
ATOM     81  C   UNL     1     -11.058   3.966   7.513  1.00  0.00     0.091 A 
ATOM     82  F   UNL     1     -10.640   4.932   5.373  1.00  0.00    -0.205 F 
ATOM     83  C   UNL     1     -11.980   3.487   8.456  1.00  0.00     0.022 A 
BRANCH  81  84
ATOM     84  S   UNL     1      -9.315   3.892   7.940  1.00  0.00     0.127 S 
ATOM     85  O   UNL     1      -9.158   5.080   8.772  1.00  0.00    -0.237 OA
ATOM     86  O   UNL     1      -9.227   2.620   8.659  1.00  0.00    -0.237 OA
ATOM     87  O   UNL     1      -8.609   3.902   6.665  1.00  0.00    -0.744 OA
ENDBRANCH  81  84
ENDBRANCH  53  77
BRANCH  65  88
ATOM     88  C   UNL     1     -17.142   9.460   3.937  1.00  0.00     0.023 A 
ATOM     89  C   UNL     1     -16.433  10.534   4.510  1.00  0.00     0.012 A 
ATOM     90  C   UNL     1     -18.546   9.421   4.052  1.00  0.00     0.148 A 
ATOM     91  C   UNL     1     -17.102  11.531   5.219  1.00  0.00     0.002 A 
ATOM     92  C   UNL     1     -19.212  10.443   4.722  1.00  0.00     0.091 A 
ATOM     93  F   UNL     1     -19.206   8.382   3.519  1.00  0.00    -0.205 F 
ATOM     94  C   UNL     1     -18.491  11.491   5.316  1.00  0.00     0.022 A 
BRANCH  92  95
ATOM     95  S   UNL     1     -21.005  10.513   4.815  1.00  0.00     0.127 S 
ATOM     96  O   UNL     1     -21.255  10.008   6.163  1.00  0.00    -0.237 OA
ATOM     97  O   UNL     1     -21.275  11.941   4.639  1.00  0.00    -0.237 OA
ATOM     98  O   UNL     1     -21.489   9.674   3.726  1.00  0.00    -0.744 OA
ENDBRANCH  92  95
ENDBRANCH  65  88
ENDBRANCH  39  40
ENDBRANCH  32  34
ENDBRANCH  31  32
ENDBRANCH  30  31
ENDBRANCH   1  30
TORSDOF 20
