REMARK SMILES COc1ccc(S(=O)(=O)N(Cc2ccccc2)c2ccccc2C(=O)OCCOCCOC(=O)c2ccc(-c3c4nc(c(-c5cccc(S(=O)(=O)[O-])c5F)c5ccc([nH]5)c(-c5cccc(S(=O)(=O)[O-])c5F)c5nc(c(-c6cccc(S(=O)(=O)[O-])c6F)c6ccc3[nH]6)C=C5)C=C4)cc2)cc1
REMARK SMILES IDX 28 1 27 2 26 3 24 4 25 5 23 6 18 7 19 8 20 9 22 10 21 11
REMARK SMILES IDX 10 12 7 13 8 14 9 15 6 16 3 17 4 18 99 19 5 20 98 21 2 22
REMARK SMILES IDX 1 23 11 24 12 25 13 26 17 27 14 28 16 29 15 30 29 31 30 32
REMARK SMILES IDX 31 33 32 34 33 35 34 36 35 37 36 38 97 39 37 40 96 41 38 42
REMARK SMILES IDX 39 43 40 44 90 45 41 46 95 47 89 48 91 49 42 50 94 51 88 52
REMARK SMILES IDX 87 53 43 55 75 56 55 57 74 58 56 59 59 60 73 61 92 62 57 63
REMARK SMILES IDX 58 64 72 66 93 67 60 68 44 69 45 70 53 71 46 72 48 73 54 74
REMARK SMILES IDX 47 75 49 76 50 77 51 78 52 79 76 80 77 81 85 82 78 83 80 84
REMARK SMILES IDX 86 85 79 86 81 87 82 88 83 89 84 90 61 91 62 92 70 93 63 94
REMARK SMILES IDX 65 95 71 96 64 97 66 98 67 99 68 100 69 101
REMARK H PARENT 91 54 59 65
REMARK Flexibility Score: inf
ROOT
ATOM      1  C   UNL     1      -0.119   1.662  -8.629  1.00  0.00     0.202 C 
ENDROOT
BRANCH   1   2
ATOM      2  C   UNL     1       0.158   0.161  -8.483  1.00  0.00     0.261 C 
BRANCH   2   3
ATOM      3  O   UNL     1       1.553  -0.169  -8.426  1.00  0.00    -0.460 OA
BRANCH   3   4
ATOM      4  C   UNL     1       1.954  -1.000  -9.420  1.00  0.00     0.340 C 
ATOM      5  O   UNL     1       1.263  -1.401 -10.351  1.00  0.00    -0.246 OA
BRANCH   4   6
ATOM      6  C   UNL     1       3.413  -1.229  -9.429  1.00  0.00     0.084 A 
ATOM      7  C   UNL     1       4.232  -1.611  -8.352  1.00  0.00     0.067 A 
ATOM      8  C   UNL     1       5.563  -1.966  -8.670  1.00  0.00     0.028 A 
ATOM      9  C   UNL     1       6.111  -1.800  -9.945  1.00  0.00     0.002 A 
ATOM     10  C   UNL     1       3.979  -1.064 -10.720  1.00  0.00     0.018 A 
ATOM     11  C   UNL     1       5.323  -1.314 -10.970  1.00  0.00     0.001 A 
BRANCH   7  12
ATOM     12  N   UNL     1       3.850  -1.592  -6.934  1.00  0.00    -0.261 N 
BRANCH  12  13
ATOM     13  S   UNL     1       2.731  -2.781  -6.402  1.00  0.00     0.264 S 
ATOM     14  O   UNL     1       3.384  -4.074  -6.392  1.00  0.00    -0.201 OA
ATOM     15  O   UNL     1       1.539  -2.634  -7.204  1.00  0.00    -0.201 OA
BRANCH  13  16
ATOM     16  C   UNL     1       2.242  -2.405  -4.713  1.00  0.00     0.088 A 
ATOM     17  C   UNL     1       1.359  -1.841  -2.093  1.00  0.00     0.118 A 
ATOM     18  C   UNL     1       0.469  -2.253  -3.087  1.00  0.00     0.048 A 
ATOM     19  C   UNL     1       2.708  -1.782  -2.395  1.00  0.00     0.048 A 
ATOM     20  C   UNL     1       0.889  -2.489  -4.397  1.00  0.00     0.026 A 
ATOM     21  C   UNL     1       3.143  -2.119  -3.683  1.00  0.00     0.026 A 
BRANCH  17  22
ATOM     22  O   UNL     1       0.804  -1.574  -0.879  1.00  0.00    -0.497 OA
ATOM     23  C   UNL     1       1.587  -0.895   0.091  1.00  0.00     0.278 C 
ENDBRANCH  17  22
ENDBRANCH  13  16
ENDBRANCH  12  13
BRANCH  12  24
ATOM     24  C   UNL     1       4.860  -0.980  -6.013  1.00  0.00     0.171 C 
BRANCH  24  25
ATOM     25  C   UNL     1       6.085  -1.763  -5.534  1.00  0.00    -0.027 A 
ATOM     26  C   UNL     1       6.099  -3.144  -5.287  1.00  0.00     0.005 A 
ATOM     27  C   UNL     1       7.280  -1.068  -5.279  1.00  0.00     0.005 A 
ATOM     28  C   UNL     1       7.244  -3.817  -4.855  1.00  0.00     0.000 A 
ATOM     29  C   UNL     1       8.433  -1.736  -4.843  1.00  0.00     0.000 A 
ATOM     30  C   UNL     1       8.417  -3.113  -4.640  1.00  0.00     0.000 A 
ENDBRANCH  24  25
ENDBRANCH  12  24
ENDBRANCH   7  12
ENDBRANCH   4   6
ENDBRANCH   3   4
ENDBRANCH   2   3
ENDBRANCH   1   2
BRANCH   1  31
ATOM     31  O   UNL     1       0.644   2.417  -9.563  1.00  0.00    -0.374 OA
BRANCH  31  32
ATOM     32  C   UNL     1       2.053   2.497  -9.373  1.00  0.00     0.202 C 
BRANCH  32  33
ATOM     33  C   UNL     1       2.605   3.110  -8.075  1.00  0.00     0.261 C 
BRANCH  33  34
ATOM     34  O   UNL     1       2.105   2.534  -6.854  1.00  0.00    -0.460 OA
BRANCH  34  35
ATOM     35  C   UNL     1       1.342   3.376  -6.111  1.00  0.00     0.338 C 
ATOM     36  O   UNL     1       1.050   4.532  -6.380  1.00  0.00    -0.246 OA
BRANCH  35  37
ATOM     37  C   UNL     1       0.780   2.700  -4.928  1.00  0.00     0.060 A 
ATOM     38  C   UNL     1      -0.612   2.574  -4.828  1.00  0.00     0.016 A 
ATOM     39  C   UNL     1       1.593   2.390  -3.841  1.00  0.00     0.016 A 
ATOM     40  C   UNL     1      -1.203   2.193  -3.619  1.00  0.00     0.010 A 
ATOM     41  C   UNL     1       0.997   2.008  -2.633  1.00  0.00     0.010 A 
ATOM     42  C   UNL     1      -0.406   1.947  -2.495  1.00  0.00    -0.014 A 
BRANCH  42  43
ATOM     43  C   UNL     1      -1.006   1.755  -1.143  1.00  0.00     0.031 A 
ATOM     44  C   UNL     1      -0.782   2.800  -0.081  1.00  0.00     0.074 A 
ATOM     45  C   UNL     1      -1.683   0.636  -0.819  1.00  0.00     0.049 A 
ATOM     46  N   UNL     1      -1.060   2.753   1.197  1.00  0.00    -0.248 NA
ATOM     47  C   UNL     1      -0.184   4.073  -0.518  1.00  0.00     0.031 C 
ATOM     48  C   UNL     1      -2.030  -0.443  -1.736  1.00  0.00     0.029 A 
ATOM     49  N   UNL     1      -2.088   0.168   0.412  1.00  0.00    -0.354 N 
ATOM     50  C   UNL     1      -0.705   3.995   1.709  1.00  0.00     0.074 A 
ATOM     51  C   UNL     1      -0.112   4.745   0.623  1.00  0.00     0.031 C 
ATOM     52  C   UNL     1      -2.409  -1.517  -1.022  1.00  0.00     0.029 A 
ATOM     53  C   UNL     1      -2.348  -1.186   0.395  1.00  0.00     0.049 A 
ATOM     54  H   UNL     1      -2.182   0.735   1.211  1.00  0.00     0.167 HD
ATOM     55  C   UNL     1      -0.919   4.491   2.952  1.00  0.00     0.034 A 
ATOM     56  C   UNL     1      -2.454  -2.073   1.403  1.00  0.00     0.034 A 
ATOM     57  C   UNL     1      -1.540   3.755   4.020  1.00  0.00     0.049 A 
ATOM     58  C   UNL     1      -2.528  -1.568   2.813  1.00  0.00     0.074 A 
ATOM     59  C   UNL     1      -1.921   4.204   5.273  1.00  0.00     0.029 A 
ATOM     60  N   UNL     1      -1.852   2.406   3.970  1.00  0.00    -0.354 N 
ATOM     61  N   UNL     1      -2.369  -0.346   3.256  1.00  0.00    -0.248 NA
ATOM     62  C   UNL     1      -2.907  -2.540   3.848  1.00  0.00     0.031 C 
ATOM     63  C   UNL     1      -2.440   3.119   5.989  1.00  0.00     0.029 A 
ATOM     64  C   UNL     1      -2.398   1.999   5.176  1.00  0.00     0.049 A 
ATOM     65  H   UNL     1      -1.706   1.823   3.191  1.00  0.00     0.167 HD
ATOM     66  C   UNL     1      -2.730  -0.380   4.596  1.00  0.00     0.074 A 
ATOM     67  C   UNL     1      -3.072  -1.754   4.904  1.00  0.00     0.031 C 
ATOM     68  C   UNL     1      -2.800   0.649   5.476  1.00  0.00     0.034 A 
BRANCH  55  69
ATOM     69  C   UNL     1      -0.562   5.934   3.194  1.00  0.00     0.023 A 
ATOM     70  C   UNL     1      -1.353   6.943   2.606  1.00  0.00     0.012 A 
ATOM     71  C   UNL     1       0.503   6.296   4.039  1.00  0.00     0.148 A 
ATOM     72  C   UNL     1      -1.068   8.290   2.824  1.00  0.00     0.002 A 
ATOM     73  C   UNL     1       0.757   7.641   4.284  1.00  0.00     0.091 A 
ATOM     74  F   UNL     1       1.258   5.324   4.572  1.00  0.00    -0.205 F 
ATOM     75  C   UNL     1      -0.020   8.638   3.671  1.00  0.00     0.022 A 
BRANCH  73  76
ATOM     76  S   UNL     1       2.040   8.189   5.416  1.00  0.00     0.127 S 
ATOM     77  O   UNL     1       3.065   8.668   4.490  1.00  0.00    -0.237 OA
ATOM     78  O   UNL     1       1.360   9.242   6.171  1.00  0.00    -0.237 OA
ATOM     79  O   UNL     1       2.403   7.018   6.203  1.00  0.00    -0.744 OA
ENDBRANCH  73  76
ENDBRANCH  55  69
BRANCH  56  80
ATOM     80  C   UNL     1      -2.549  -3.529   1.112  1.00  0.00     0.023 A 
ATOM     81  C   UNL     1      -3.807  -4.158   1.117  1.00  0.00     0.012 A 
ATOM     82  C   UNL     1      -1.393  -4.290   0.836  1.00  0.00     0.148 A 
ATOM     83  C   UNL     1      -3.913  -5.527   0.872  1.00  0.00     0.002 A 
ATOM     84  C   UNL     1      -1.511  -5.647   0.559  1.00  0.00     0.091 A 
ATOM     85  F   UNL     1      -0.203  -3.675   0.874  1.00  0.00    -0.205 F 
ATOM     86  C   UNL     1      -2.769  -6.269   0.587  1.00  0.00     0.022 A 
BRANCH  84  87
ATOM     87  S   UNL     1      -0.109  -6.686   0.127  1.00  0.00     0.127 S 
ATOM     88  O   UNL     1      -0.081  -7.628   1.244  1.00  0.00    -0.237 OA
ATOM     89  O   UNL     1      -0.544  -7.258  -1.147  1.00  0.00    -0.237 OA
ATOM     90  O   UNL     1       1.040  -5.795   0.037  1.00  0.00    -0.744 OA
ENDBRANCH  84  87
ENDBRANCH  56  80
BRANCH  68  91
ATOM     91  C   UNL     1      -3.354   0.362   6.845  1.00  0.00     0.023 A 
ATOM     92  C   UNL     1      -2.589  -0.354   7.785  1.00  0.00     0.012 A 
ATOM     93  C   UNL     1      -4.622   0.856   7.217  1.00  0.00     0.148 A 
ATOM     94  C   UNL     1      -3.090  -0.602   9.063  1.00  0.00     0.002 A 
ATOM     95  C   UNL     1      -5.093   0.647   8.507  1.00  0.00     0.091 A 
ATOM     96  F   UNL     1      -5.348   1.513   6.300  1.00  0.00    -0.205 F 
ATOM     97  C   UNL     1      -4.334  -0.091   9.428  1.00  0.00     0.022 A 
BRANCH  95  98
ATOM     98  S   UNL     1      -6.641   1.351   9.089  1.00  0.00     0.127 S 
ATOM     99  O   UNL     1      -7.513   0.177   9.113  1.00  0.00    -0.237 OA
ATOM    100  O   UNL     1      -6.274   1.864  10.409  1.00  0.00    -0.237 OA
ATOM    101  O   UNL     1      -7.000   2.380   8.123  1.00  0.00    -0.744 OA
ENDBRANCH  95  98
ENDBRANCH  68  91
ENDBRANCH  42  43
ENDBRANCH  35  37
ENDBRANCH  34  35
ENDBRANCH  33  34
ENDBRANCH  32  33
ENDBRANCH  31  32
ENDBRANCH   1  31
TORSDOF 23
