REMARK SMILES Cc1cccc(-n2ncc(C(=O)Nc3cccc(C(=O)OCCOCCOC(=O)c4ccc(-c5c6nc(c(-c7cccc(S(=O)(=O)[O-])c7F)c7ccc([nH]7)c(-c7cccc(S(=O)(=O)[O-])c7F)c7nc(c(-c8cccc(S(=O)(=O)[O-])c8F)c8ccc5[nH]8)C=C7)C=C6)cc4)c3C)c2C)c1
REMARK SMILES IDX 24 1 23 2 22 3 21 4 19 5 20 6 18 7 14 8 15 9 93 10 16 11
REMARK SMILES IDX 94 12 17 13 13 14 11 15 12 16 10 18 7 19 8 20 95 21 9 22
REMARK SMILES IDX 96 23 6 24 1 25 2 26 3 27 97 28 4 29 5 30 25 31 26 32 27 33
REMARK SMILES IDX 28 34 29 35 30 36 31 37 92 38 32 39 91 40 33 41 34 42 35 43
REMARK SMILES IDX 85 44 36 45 90 46 84 47 86 48 37 49 89 50 83 51 82 52 38 54
REMARK SMILES IDX 70 55 50 56 69 57 51 58 54 59 68 60 87 61 52 62 53 63 67 65
REMARK SMILES IDX 88 66 55 67 39 68 40 69 48 70 41 71 43 72 49 73 42 74 44 75
REMARK SMILES IDX 45 76 46 77 47 78 71 79 72 80 80 81 73 82 75 83 81 84 74 85
REMARK SMILES IDX 76 86 77 87 78 88 79 89 56 90 57 91 65 92 58 93 60 94 66 95
REMARK SMILES IDX 59 96 61 97 62 98 63 99 64 100
REMARK H PARENT 13 17 86 53 54 64
REMARK Flexibility Score: inf
ROOT
ATOM      1  O   UNL     1      -3.499  10.921  -2.254  1.00  0.00    -0.374 OA
ENDROOT
BRANCH   1   2
ATOM      2  C   UNL     1      -3.235  10.724  -3.636  1.00  0.00     0.202 C 
BRANCH   2   3
ATOM      3  C   UNL     1      -1.799  10.247  -3.749  1.00  0.00     0.261 C 
BRANCH   3   4
ATOM      4  O   UNL     1      -1.668   8.915  -3.231  1.00  0.00    -0.460 OA
BRANCH   4   5
ATOM      5  C   UNL     1      -1.892   8.781  -1.893  1.00  0.00     0.338 C 
ATOM      6  O   UNL     1      -1.407   9.443  -1.006  1.00  0.00    -0.246 OA
BRANCH   5   7
ATOM      7  C   UNL     1      -2.935   7.737  -1.688  1.00  0.00     0.065 A 
ATOM      8  C   UNL     1      -4.343   6.391  -0.297  1.00  0.00     0.045 A 
ATOM      9  C   UNL     1      -4.673   5.581  -1.395  1.00  0.00     0.026 A 
ATOM     10  C   UNL     1      -3.581   7.563  -0.443  1.00  0.00    -0.013 A 
ATOM     11  C   UNL     1      -4.142   5.847  -2.645  1.00  0.00     0.003 A 
ATOM     12  C   UNL     1      -3.366   8.464   0.749  1.00  0.00     0.047 C 
ATOM     13  C   UNL     1      -3.235   6.885  -2.774  1.00  0.00     0.016 A 
BRANCH   8  14
ATOM     14  N   UNL     1      -4.635   5.917   0.987  1.00  0.00    -0.322 N 
ATOM     15  C   UNL     1      -4.229   4.704   1.516  1.00  0.00     0.259 C 
ATOM     16  O   UNL     1      -4.765   4.318   2.556  1.00  0.00    -0.269 OA
ATOM     17  H   UNL     1      -5.177   6.499   1.566  1.00  0.00     0.170 HD
BRANCH  15  18
ATOM     18  C   UNL     1      -3.142   3.945   0.880  1.00  0.00     0.081 A 
ATOM     19  N   UNL     1      -1.719   2.310   0.337  1.00  0.00    -0.237 N 
ATOM     20  N   UNL     1      -1.265   3.393  -0.326  1.00  0.00    -0.175 NA
ATOM     21  C   UNL     1      -2.786   2.628   1.164  1.00  0.00     0.054 A 
ATOM     22  C   UNL     1      -2.104   4.365   0.015  1.00  0.00     0.149 A 
ATOM     23  C   UNL     1      -3.281   1.765   2.270  1.00  0.00     0.068 C 
BRANCH  19  24
ATOM     24  C   UNL     1      -1.052   1.074   0.162  1.00  0.00     0.065 A 
ATOM     25  C   UNL     1       2.549  -0.109  -0.127  1.00  0.00     0.044 C 
ATOM     26  C   UNL     1       1.050  -0.117  -0.077  1.00  0.00    -0.049 A 
ATOM     27  C   UNL     1       0.345  -1.326  -0.041  1.00  0.00     0.003 A 
ATOM     28  C   UNL     1       0.339   1.085  -0.017  1.00  0.00     0.031 A 
ATOM     29  C   UNL     1      -1.048  -1.336   0.068  1.00  0.00     0.002 A 
ATOM     30  C   UNL     1      -1.751  -0.136   0.182  1.00  0.00     0.028 A 
ENDBRANCH  19  24
ENDBRANCH  15  18
ENDBRANCH   8  14
ENDBRANCH   5   7
ENDBRANCH   4   5
ENDBRANCH   3   4
ENDBRANCH   2   3
ENDBRANCH   1   2
BRANCH   1  31
ATOM     31  C   UNL     1      -4.832  11.199  -1.875  1.00  0.00     0.202 C 
BRANCH  31  32
ATOM     32  C   UNL     1      -5.397  12.467  -2.521  1.00  0.00     0.261 C 
BRANCH  32  33
ATOM     33  O   UNL     1      -4.705  13.629  -2.021  1.00  0.00    -0.460 OA
BRANCH  33  34
ATOM     34  C   UNL     1      -3.754  14.137  -2.857  1.00  0.00     0.338 C 
ATOM     35  O   UNL     1      -3.982  14.532  -3.989  1.00  0.00    -0.246 OA
BRANCH  34  36
ATOM     36  C   UNL     1      -2.396  13.914  -2.280  1.00  0.00     0.060 A 
ATOM     37  C   UNL     1      -1.250  14.072  -3.079  1.00  0.00     0.016 A 
ATOM     38  C   UNL     1      -2.293  13.268  -1.052  1.00  0.00     0.016 A 
ATOM     39  C   UNL     1      -0.046  13.443  -2.721  1.00  0.00     0.010 A 
ATOM     40  C   UNL     1      -1.145  12.556  -0.771  1.00  0.00     0.010 A 
ATOM     41  C   UNL     1      -0.017  12.609  -1.614  1.00  0.00    -0.014 A 
BRANCH  41  42
ATOM     42  C   UNL     1       1.097  11.757  -1.173  1.00  0.00     0.031 A 
ATOM     43  C   UNL     1       1.600  12.028   0.203  1.00  0.00     0.074 A 
ATOM     44  C   UNL     1       1.293  10.521  -1.704  1.00  0.00     0.049 A 
ATOM     45  N   UNL     1       2.337  11.220   0.877  1.00  0.00    -0.248 NA
ATOM     46  C   UNL     1       1.291  13.253   0.946  1.00  0.00     0.031 C 
ATOM     47  C   UNL     1       1.535   9.291  -0.937  1.00  0.00     0.029 A 
ATOM     48  N   UNL     1       1.321  10.068  -3.030  1.00  0.00    -0.354 N 
ATOM     49  C   UNL     1       2.290  11.614   2.191  1.00  0.00     0.074 A 
ATOM     50  C   UNL     1       1.739  12.942   2.168  1.00  0.00     0.031 C 
ATOM     51  C   UNL     1       1.892   8.298  -1.760  1.00  0.00     0.029 A 
ATOM     52  C   UNL     1       2.099   8.890  -3.059  1.00  0.00     0.049 A 
ATOM     53  H   UNL     1       0.880  10.494  -3.800  1.00  0.00     0.167 HD
ATOM     54  C   UNL     1       2.621  10.698   3.139  1.00  0.00     0.034 A 
ATOM     55  C   UNL     1       3.226   8.785  -3.819  1.00  0.00     0.034 A 
ATOM     56  C   UNL     1       3.231   9.511   2.520  1.00  0.00     0.049 A 
ATOM     57  C   UNL     1       4.452   8.527  -2.977  1.00  0.00     0.074 A 
ATOM     58  C   UNL     1       2.817   8.213   2.284  1.00  0.00     0.029 A 
ATOM     59  N   UNL     1       4.400   9.688   1.785  1.00  0.00    -0.354 N 
ATOM     60  N   UNL     1       4.423   8.528  -1.673  1.00  0.00    -0.248 NA
ATOM     61  C   UNL     1       5.788   8.226  -3.480  1.00  0.00     0.031 C 
ATOM     62  C   UNL     1       3.715   7.637   1.335  1.00  0.00     0.029 A 
ATOM     63  C   UNL     1       4.700   8.566   1.034  1.00  0.00     0.049 A 
ATOM     64  H   UNL     1       4.944  10.509   1.798  1.00  0.00     0.167 HD
ATOM     65  C   UNL     1       5.672   8.381  -1.155  1.00  0.00     0.074 A 
ATOM     66  C   UNL     1       6.487   8.123  -2.332  1.00  0.00     0.031 C 
ATOM     67  C   UNL     1       5.896   8.550   0.187  1.00  0.00     0.034 A 
BRANCH  54  68
ATOM     68  C   UNL     1       2.342  10.793   4.624  1.00  0.00     0.023 A 
ATOM     69  C   UNL     1       2.911   9.789   5.441  1.00  0.00     0.012 A 
ATOM     70  C   UNL     1       1.509  11.733   5.282  1.00  0.00     0.148 A 
ATOM     71  C   UNL     1       2.685   9.722   6.819  1.00  0.00     0.002 A 
ATOM     72  C   UNL     1       1.340  11.708   6.671  1.00  0.00     0.091 A 
ATOM     73  F   UNL     1       0.797  12.611   4.569  1.00  0.00    -0.205 F 
ATOM     74  C   UNL     1       1.917  10.695   7.440  1.00  0.00     0.022 A 
BRANCH  72  75
ATOM     75  S   UNL     1       0.404  12.967   7.562  1.00  0.00     0.127 S 
ATOM     76  O   UNL     1      -0.756  12.212   8.037  1.00  0.00    -0.237 OA
ATOM     77  O   UNL     1       1.337  13.369   8.616  1.00  0.00    -0.237 OA
ATOM     78  O   UNL     1       0.104  14.016   6.595  1.00  0.00    -0.744 OA
ENDBRANCH  72  75
ENDBRANCH  54  68
BRANCH  55  79
ATOM     79  C   UNL     1       3.083   9.538  -5.102  1.00  0.00     0.023 A 
ATOM     80  C   UNL     1       2.150   8.977  -6.014  1.00  0.00     0.012 A 
ATOM     81  C   UNL     1       3.306  10.928  -5.130  1.00  0.00     0.148 A 
ATOM     82  C   UNL     1       1.312   9.796  -6.776  1.00  0.00     0.002 A 
ATOM     83  C   UNL     1       2.458  11.739  -5.888  1.00  0.00     0.091 A 
ATOM     84  F   UNL     1       4.259  11.439  -4.340  1.00  0.00    -0.205 F 
ATOM     85  C   UNL     1       1.433  11.176  -6.670  1.00  0.00     0.022 A 
BRANCH  83  86
ATOM     86  S   UNL     1       2.503  13.533  -5.769  1.00  0.00     0.127 S 
ATOM     87  O   UNL     1       3.315  13.886  -6.930  1.00  0.00    -0.237 OA
ATOM     88  O   UNL     1       1.088  13.896  -5.884  1.00  0.00    -0.237 OA
ATOM     89  O   UNL     1       3.087  13.822  -4.468  1.00  0.00    -0.744 OA
ENDBRANCH  83  86
ENDBRANCH  55  79
BRANCH  67  90
ATOM     90  C   UNL     1       7.257   8.757   0.832  1.00  0.00     0.023 A 
ATOM     91  C   UNL     1       8.411   9.051   0.083  1.00  0.00     0.012 A 
ATOM     92  C   UNL     1       7.393   8.820   2.246  1.00  0.00     0.148 A 
ATOM     93  C   UNL     1       9.639   9.340   0.687  1.00  0.00     0.002 A 
ATOM     94  C   UNL     1       8.581   9.235   2.839  1.00  0.00     0.091 A 
ATOM     95  F   UNL     1       6.376   8.456   3.040  1.00  0.00    -0.205 F 
ATOM     96  C   UNL     1       9.718   9.461   2.065  1.00  0.00     0.022 A 
BRANCH  94  97
ATOM     97  S   UNL     1       8.654   9.655   4.587  1.00  0.00     0.127 S 
ATOM     98  O   UNL     1       9.220   8.439   5.165  1.00  0.00    -0.237 OA
ATOM     99  O   UNL     1       9.556  10.809   4.590  1.00  0.00    -0.237 OA
ATOM    100  O   UNL     1       7.283   9.969   4.964  1.00  0.00    -0.744 OA
ENDBRANCH  94  97
ENDBRANCH  67  90
ENDBRANCH  41  42
ENDBRANCH  34  36
ENDBRANCH  33  34
ENDBRANCH  32  33
ENDBRANCH  31  32
ENDBRANCH   1  31
TORSDOF 20
