REMARK SMILES CO[C@H]1C[C@H](C(=O)OCCOCCOC(=O)c2ccc(-c3c4nc(c(-c5cccc(S(=O)(=O)[O-])c5F)c5ccc([nH]5)c(-c5cccc(S(=O)(=O)[O-])c5F)c5nc(c(-c6cccc(S(=O)(=O)[O-])c6F)c6ccc3[nH]6)C=C5)C=C4)cc2)N(C(=O)[C@H]2C=C[C@@H]([NH3+])C2)C1
REMARK SMILES IDX 11 1 10 2 9 3 8 4 6 5 7 6 5 7 3 8 4 9 89 10 80 11 2 12 1 13
REMARK SMILES IDX 81 14 82 15 83 16 84 17 88 18 85 19 86 20 87 21 12 25 13 26
REMARK SMILES IDX 14 27 15 28 16 29 17 30 18 31 79 32 19 33 78 34 20 35 21 36
REMARK SMILES IDX 22 37 72 38 23 39 77 40 71 41 73 42 24 43 76 44 70 45 69 46
REMARK SMILES IDX 25 48 57 49 37 50 56 51 38 52 41 53 55 54 74 55 39 56 40 57
REMARK SMILES IDX 54 59 75 60 42 61 26 62 27 63 35 64 28 65 30 66 36 67 29 68
REMARK SMILES IDX 31 69 32 70 33 71 34 72 58 73 59 74 67 75 60 76 62 77 68 78
REMARK SMILES IDX 61 79 63 80 64 81 65 82 66 83 43 84 44 85 52 86 45 87 47 88
REMARK SMILES IDX 53 89 46 90 48 91 49 92 50 93 51 94
REMARK H PARENT 87 22 87 23 87 24 73 47 41 58
REMARK Flexibility Score: inf
ROOT
ATOM      1  O   UNL     1       0.405   2.743   2.314  1.00  0.00    -0.374 OA
ENDROOT
BRANCH   1   2
ATOM      2  C   UNL     1      -0.601   1.738   2.386  1.00  0.00     0.202 C 
BRANCH   2   3
ATOM      3  C   UNL     1      -1.332   1.329   1.099  1.00  0.00     0.261 C 
BRANCH   3   4
ATOM      4  O   UNL     1      -0.467   1.228  -0.039  1.00  0.00    -0.462 OA
BRANCH   4   5
ATOM      5  C   UNL     1      -0.490   2.335  -0.831  1.00  0.00     0.329 C 
ATOM      6  O   UNL     1      -1.240   3.284  -0.639  1.00  0.00    -0.250 OA
BRANCH   5   7
ATOM      7  C   UNL     1       0.533   2.285  -1.980  1.00  0.00     0.197 C 
ATOM      8  C   UNL     1       0.872  -0.005  -2.697  1.00  0.00     0.140 C 
ATOM      9  C   UNL     1       1.543   1.143  -1.942  1.00  0.00     0.071 C 
ATOM     10  C   UNL     1      -0.174   0.685  -3.591  1.00  0.00     0.152 C 
ATOM     11  N   UNL     1      -0.108   2.112  -3.274  1.00  0.00    -0.326 N 
BRANCH   8  12
ATOM     12  O   UNL     1       1.807  -0.723  -3.506  1.00  0.00    -0.380 OA
ATOM     13  C   UNL     1       2.868  -1.328  -2.777  1.00  0.00     0.195 C 
ENDBRANCH   8  12
BRANCH  11  14
ATOM     14  C   UNL     1      -0.629   3.038  -4.146  1.00  0.00     0.230 C 
ATOM     15  O   UNL     1      -1.231   2.658  -5.159  1.00  0.00    -0.274 OA
BRANCH  14  16
ATOM     16  C   UNL     1      -0.469   4.558  -3.940  1.00  0.00     0.107 C 
ATOM     17  C   UNL     1      -1.139   5.112  -2.729  1.00  0.00    -0.012 C 
ATOM     18  C   UNL     1       0.970   5.080  -3.838  1.00  0.00     0.087 C 
ATOM     19  C   UNL     1      -0.351   5.959  -2.058  1.00  0.00     0.033 C 
ATOM     20  C   UNL     1       0.963   6.150  -2.729  1.00  0.00     0.205 C 
BRANCH  20  21
ATOM     21  N   UNL     1       2.071   5.997  -1.800  1.00  0.00    -0.352 N 
ATOM     22  H   UNL     1       2.031   5.072  -1.372  1.00  0.00     0.345 HD
ATOM     23  H   UNL     1       2.007   6.711  -1.074  1.00  0.00     0.345 HD
ATOM     24  H   UNL     1       2.953   6.102  -2.302  1.00  0.00     0.345 HD
ENDBRANCH  20  21
ENDBRANCH  14  16
ENDBRANCH  11  14
ENDBRANCH   5   7
ENDBRANCH   4   5
ENDBRANCH   3   4
ENDBRANCH   2   3
ENDBRANCH   1   2
BRANCH   1  25
ATOM     25  C   UNL     1       1.655   2.432   1.700  1.00  0.00     0.202 C 
BRANCH  25  26
ATOM     26  C   UNL     1       2.484   1.258   2.237  1.00  0.00     0.261 C 
BRANCH  26  27
ATOM     27  O   UNL     1       1.831  -0.011   2.054  1.00  0.00    -0.460 OA
BRANCH  27  28
ATOM     28  C   UNL     1       1.632  -0.705   3.201  1.00  0.00     0.338 C 
ATOM     29  O   UNL     1       2.011  -0.395   4.325  1.00  0.00    -0.246 OA
BRANCH  28  30
ATOM     30  C   UNL     1       0.691  -1.812   2.974  1.00  0.00     0.060 A 
ATOM     31  C   UNL     1      -0.497  -1.813   3.718  1.00  0.00     0.016 A 
ATOM     32  C   UNL     1       1.012  -2.883   2.140  1.00  0.00     0.016 A 
ATOM     33  C   UNL     1      -1.345  -2.915   3.674  1.00  0.00     0.010 A 
ATOM     34  C   UNL     1       0.165  -3.995   2.108  1.00  0.00     0.010 A 
ATOM     35  C   UNL     1      -0.991  -4.032   2.910  1.00  0.00    -0.014 A 
BRANCH  35  36
ATOM     36  C   UNL     1      -1.737  -5.298   3.098  1.00  0.00     0.031 A 
ATOM     37  C   UNL     1      -1.162  -6.348   4.009  1.00  0.00     0.074 A 
ATOM     38  C   UNL     1      -2.920  -5.498   2.492  1.00  0.00     0.049 A 
ATOM     39  N   UNL     1      -1.637  -7.526   4.319  1.00  0.00    -0.248 NA
ATOM     40  C   UNL     1       0.120  -6.027   4.659  1.00  0.00     0.031 C 
ATOM     41  C   UNL     1      -3.584  -4.546   1.603  1.00  0.00     0.029 A 
ATOM     42  N   UNL     1      -3.763  -6.579   2.522  1.00  0.00    -0.354 N 
ATOM     43  C   UNL     1      -0.703  -8.097   5.174  1.00  0.00     0.074 A 
ATOM     44  C   UNL     1       0.373  -7.143   5.326  1.00  0.00     0.031 C 
ATOM     45  C   UNL     1      -4.722  -5.098   1.149  1.00  0.00     0.029 A 
ATOM     46  C   UNL     1      -4.855  -6.446   1.699  1.00  0.00     0.049 A 
ATOM     47  H   UNL     1      -3.601  -7.374   3.080  1.00  0.00     0.167 HD
ATOM     48  C   UNL     1      -0.745  -9.301   5.793  1.00  0.00     0.034 A 
ATOM     49  C   UNL     1      -5.838  -7.322   1.410  1.00  0.00     0.034 A 
ATOM     50  C   UNL     1      -1.826 -10.238   5.657  1.00  0.00     0.049 A 
ATOM     51  C   UNL     1      -5.847  -8.667   2.088  1.00  0.00     0.074 A 
ATOM     52  C   UNL     1      -1.982 -11.467   6.274  1.00  0.00     0.029 A 
ATOM     53  N   UNL     1      -2.930 -10.057   4.839  1.00  0.00    -0.354 N 
ATOM     54  N   UNL     1      -5.015  -9.148   2.981  1.00  0.00    -0.248 NA
ATOM     55  C   UNL     1      -6.948  -9.578   1.743  1.00  0.00     0.031 C 
ATOM     56  C   UNL     1      -3.172 -12.039   5.810  1.00  0.00     0.029 A 
ATOM     57  C   UNL     1      -3.768 -11.155   4.925  1.00  0.00     0.049 A 
ATOM     58  H   UNL     1      -3.094  -9.263   4.280  1.00  0.00     0.167 HD
ATOM     59  C   UNL     1      -5.512 -10.399   3.332  1.00  0.00     0.074 A 
ATOM     60  C   UNL     1      -6.727 -10.594   2.567  1.00  0.00     0.031 C 
ATOM     61  C   UNL     1      -5.003 -11.310   4.198  1.00  0.00     0.034 A 
BRANCH  48  62
ATOM     62  C   UNL     1       0.406  -9.660   6.695  1.00  0.00     0.023 A 
ATOM     63  C   UNL     1       0.537  -9.024   7.946  1.00  0.00     0.012 A 
ATOM     64  C   UNL     1       1.334 -10.652   6.323  1.00  0.00     0.148 A 
ATOM     65  C   UNL     1       1.591  -9.347   8.800  1.00  0.00     0.002 A 
ATOM     66  C   UNL     1       2.357 -10.999   7.198  1.00  0.00     0.091 A 
ATOM     67  F   UNL     1       1.209 -11.226   5.118  1.00  0.00    -0.205 F 
ATOM     68  C   UNL     1       2.494 -10.340   8.431  1.00  0.00     0.022 A 
BRANCH  66  69
ATOM     69  S   UNL     1       3.526 -12.315   6.841  1.00  0.00     0.127 S 
ATOM     70  O   UNL     1       4.739 -11.558   6.536  1.00  0.00    -0.237 OA
ATOM     71  O   UNL     1       3.566 -13.046   8.108  1.00  0.00    -0.237 OA
ATOM     72  O   UNL     1       2.957 -13.064   5.729  1.00  0.00    -0.744 OA
ENDBRANCH  66  69
ENDBRANCH  48  62
BRANCH  49  73
ATOM     73  C   UNL     1      -6.918  -6.937   0.460  1.00  0.00     0.023 A 
ATOM     74  C   UNL     1      -8.225  -6.728   0.939  1.00  0.00     0.012 A 
ATOM     75  C   UNL     1      -6.651  -6.754  -0.911  1.00  0.00     0.148 A 
ATOM     76  C   UNL     1      -9.253  -6.369   0.067  1.00  0.00     0.002 A 
ATOM     77  C   UNL     1      -7.667  -6.343  -1.765  1.00  0.00     0.091 A 
ATOM     78  F   UNL     1      -5.404  -6.975  -1.350  1.00  0.00    -0.205 F 
ATOM     79  C   UNL     1      -8.973  -6.165  -1.282  1.00  0.00     0.022 A 
BRANCH  77  80
ATOM     80  S   UNL     1      -7.369  -5.935  -3.489  1.00  0.00     0.127 S 
ATOM     81  O   UNL     1      -8.039  -7.035  -4.176  1.00  0.00    -0.237 OA
ATOM     82  O   UNL     1      -8.032  -4.636  -3.608  1.00  0.00    -0.237 OA
ATOM     83  O   UNL     1      -5.920  -5.885  -3.634  1.00  0.00    -0.744 OA
ENDBRANCH  77  80
ENDBRANCH  49  73
BRANCH  61  84
ATOM     84  C   UNL     1      -5.772 -12.590   4.402  1.00  0.00     0.023 A 
ATOM     85  C   UNL     1      -5.774 -13.574   3.395  1.00  0.00     0.012 A 
ATOM     86  C   UNL     1      -6.423 -12.849   5.624  1.00  0.00     0.148 A 
ATOM     87  C   UNL     1      -6.439 -14.785   3.589  1.00  0.00     0.002 A 
ATOM     88  C   UNL     1      -7.043 -14.076   5.829  1.00  0.00     0.091 A 
ATOM     89  F   UNL     1      -6.426 -11.892   6.564  1.00  0.00    -0.205 F 
ATOM     90  C   UNL     1      -7.061 -15.041   4.808  1.00  0.00     0.022 A 
BRANCH  88  91
ATOM     91  S   UNL     1      -7.785 -14.528   7.402  1.00  0.00     0.127 S 
ATOM     92  O   UNL     1      -9.211 -14.438   7.095  1.00  0.00    -0.237 OA
ATOM     93  O   UNL     1      -7.288 -15.891   7.600  1.00  0.00    -0.237 OA
ATOM     94  O   UNL     1      -7.289 -13.560   8.370  1.00  0.00    -0.744 OA
ENDBRANCH  88  91
ENDBRANCH  61  84
ENDBRANCH  35  36
ENDBRANCH  28  30
ENDBRANCH  27  28
ENDBRANCH  26  27
ENDBRANCH  25  26
ENDBRANCH   1  25
TORSDOF 21
