REMARK SMILES C[C@H](C(=O)OCCOCCOC(=O)c1ccc(-c2c3nc(c(-c4cccc(S(=O)(=O)[O-])c4F)c4ccc([nH]4)c(-c4cccc(S(=O)(=O)[O-])c4F)c4nc(c(-c5cccc(S(=O)(=O)[O-])c5F)c5ccc2[nH]5)C=C4)C=C3)cc1)[C@H](C)[S@@](=O)C(C)(C)C
REMARK SMILES IDX 8 1 7 2 6 3 5 4 3 5 4 6 2 7 1 8 77 9 78 10 79 11 80 12 81 13
REMARK SMILES IDX 82 14 83 15 84 16 9 17 10 18 11 19 12 20 13 21 14 22 15 23
REMARK SMILES IDX 76 24 16 25 75 26 17 27 18 28 19 29 69 30 20 31 74 32 68 33
REMARK SMILES IDX 70 34 21 35 73 36 67 37 66 38 22 40 54 41 34 42 53 43 35 44
REMARK SMILES IDX 38 45 52 46 71 47 36 48 37 49 51 51 72 52 39 53 23 54 24 55
REMARK SMILES IDX 32 56 25 57 27 58 33 59 26 60 28 61 29 62 30 63 31 64 55 65
REMARK SMILES IDX 56 66 64 67 57 68 59 69 65 70 58 71 60 72 61 73 62 74 63 75
REMARK SMILES IDX 40 76 41 77 49 78 42 79 44 80 50 81 43 82 45 83 46 84 47 85
REMARK SMILES IDX 48 86
REMARK H PARENT 70 39 38 50
REMARK Flexibility Score: inf
ROOT
ATOM      1  O   UNL     1      -3.271   3.262   4.181  1.00  0.00    -0.374 OA
ENDROOT
BRANCH   1   2
ATOM      2  C   UNL     1      -2.362   2.563   5.010  1.00  0.00     0.202 C 
BRANCH   2   3
ATOM      3  C   UNL     1      -2.050   1.108   4.607  1.00  0.00     0.261 C 
BRANCH   3   4
ATOM      4  O   UNL     1      -1.625   0.897   3.233  1.00  0.00    -0.463 OA
BRANCH   4   5
ATOM      5  C   UNL     1      -2.598   0.750   2.284  1.00  0.00     0.309 C 
ATOM      6  O   UNL     1      -3.792   0.723   2.550  1.00  0.00    -0.252 OA
BRANCH   5   7
ATOM      7  C   UNL     1      -2.008   0.428   0.895  1.00  0.00     0.111 C 
ATOM      8  C   UNL     1      -3.015  -0.525   0.226  1.00  0.00     0.021 C 
BRANCH   7   9
ATOM      9  C   UNL     1      -1.438   1.472  -0.151  1.00  0.00     0.090 C 
ATOM     10  C   UNL     1       0.071   1.622  -0.059  1.00  0.00     0.023 C 
BRANCH   9  11
ATOM     11  S   UNL     1      -2.451   2.842  -0.794  1.00  0.00     0.030 S 
ATOM     12  O   UNL     1      -3.777   2.922  -0.115  1.00  0.00    -0.259 OA
BRANCH  11  13
ATOM     13  C   UNL     1      -1.683   4.527  -0.975  1.00  0.00     0.038 C 
ATOM     14  C   UNL     1      -2.304   5.560  -0.003  1.00  0.00     0.025 C 
ATOM     15  C   UNL     1      -0.155   4.566  -0.994  1.00  0.00     0.025 C 
ATOM     16  C   UNL     1      -2.119   5.089  -2.354  1.00  0.00     0.025 C 
ENDBRANCH  11  13
ENDBRANCH   9  11
ENDBRANCH   7   9
ENDBRANCH   5   7
ENDBRANCH   4   5
ENDBRANCH   3   4
ENDBRANCH   2   3
ENDBRANCH   1   2
BRANCH   1  17
ATOM     17  C   UNL     1      -2.789   3.743   2.931  1.00  0.00     0.202 C 
BRANCH  17  18
ATOM     18  C   UNL     1      -1.286   3.695   2.651  1.00  0.00     0.261 C 
BRANCH  18  19
ATOM     19  O   UNL     1      -0.578   4.646   3.429  1.00  0.00    -0.460 OA
BRANCH  19  20
ATOM     20  C   UNL     1       0.229   5.433   2.697  1.00  0.00     0.338 C 
ATOM     21  O   UNL     1       0.116   5.805   1.549  1.00  0.00    -0.246 OA
BRANCH  20  22
ATOM     22  C   UNL     1       1.460   5.594   3.432  1.00  0.00     0.060 A 
ATOM     23  C   UNL     1       1.416   6.087   4.732  1.00  0.00     0.016 A 
ATOM     24  C   UNL     1       2.645   5.291   2.754  1.00  0.00     0.016 A 
ATOM     25  C   UNL     1       2.610   6.386   5.343  1.00  0.00     0.010 A 
ATOM     26  C   UNL     1       3.838   5.547   3.384  1.00  0.00     0.010 A 
ATOM     27  C   UNL     1       3.808   6.130   4.657  1.00  0.00    -0.014 A 
BRANCH  27  28
ATOM     28  C   UNL     1       5.075   6.421   5.313  1.00  0.00     0.031 A 
ATOM     29  C   UNL     1       5.867   7.601   4.868  1.00  0.00     0.074 A 
ATOM     30  C   UNL     1       5.471   5.535   6.237  1.00  0.00     0.049 A 
ATOM     31  N   UNL     1       7.020   8.015   5.304  1.00  0.00    -0.248 NA
ATOM     32  C   UNL     1       5.307   8.413   3.770  1.00  0.00     0.031 C 
ATOM     33  C   UNL     1       4.728   4.322   6.604  1.00  0.00     0.029 A 
ATOM     34  N   UNL     1       6.591   5.489   7.005  1.00  0.00    -0.354 N 
ATOM     35  C   UNL     1       7.343   9.116   4.523  1.00  0.00     0.074 A 
ATOM     36  C   UNL     1       6.272   9.300   3.570  1.00  0.00     0.031 C 
ATOM     37  C   UNL     1       5.426   3.642   7.522  1.00  0.00     0.029 A 
ATOM     38  C   UNL     1       6.663   4.362   7.785  1.00  0.00     0.049 A 
ATOM     39  H   UNL     1       7.281   6.192   7.002  1.00  0.00     0.167 HD
ATOM     40  C   UNL     1       8.442   9.896   4.623  1.00  0.00     0.034 A 
ATOM     41  C   UNL     1       7.641   3.968   8.615  1.00  0.00     0.034 A 
ATOM     42  C   UNL     1       9.464   9.649   5.606  1.00  0.00     0.049 A 
ATOM     43  C   UNL     1       8.798   4.906   8.775  1.00  0.00     0.074 A 
ATOM     44  C   UNL     1      10.604  10.377   5.876  1.00  0.00     0.029 A 
ATOM     45  N   UNL     1       9.456   8.568   6.483  1.00  0.00    -0.354 N 
ATOM     46  N   UNL     1       9.037   6.026   8.129  1.00  0.00    -0.248 NA
ATOM     47  C   UNL     1       9.787   4.570   9.799  1.00  0.00     0.031 C 
ATOM     48  C   UNL     1      11.291   9.729   6.910  1.00  0.00     0.029 A 
ATOM     49  C   UNL     1      10.568   8.608   7.300  1.00  0.00     0.049 A 
ATOM     50  H   UNL     1       8.758   7.874   6.516  1.00  0.00     0.167 HD
ATOM     51  C   UNL     1      10.195   6.546   8.681  1.00  0.00     0.074 A 
ATOM     52  C   UNL     1      10.591   5.624   9.734  1.00  0.00     0.031 C 
ATOM     53  C   UNL     1      10.884   7.666   8.347  1.00  0.00     0.034 A 
BRANCH  40  54
ATOM     54  C   UNL     1       8.560  11.072   3.689  1.00  0.00     0.023 A 
ATOM     55  C   UNL     1       7.690  12.173   3.841  1.00  0.00     0.012 A 
ATOM     56  C   UNL     1       9.538  11.107   2.675  1.00  0.00     0.148 A 
ATOM     57  C   UNL     1       7.767  13.270   2.981  1.00  0.00     0.002 A 
ATOM     58  C   UNL     1       9.635  12.222   1.847  1.00  0.00     0.091 A 
ATOM     59  F   UNL     1      10.340  10.044   2.524  1.00  0.00    -0.205 F 
ATOM     60  C   UNL     1       8.744  13.298   1.991  1.00  0.00     0.022 A 
BRANCH  58  61
ATOM     61  S   UNL     1      10.898  12.387   0.579  1.00  0.00     0.127 S 
ATOM     62  O   UNL     1      10.102  12.300  -0.645  1.00  0.00    -0.237 OA
ATOM     63  O   UNL     1      11.441  13.716   0.859  1.00  0.00    -0.237 OA
ATOM     64  O   UNL     1      11.831  11.290   0.795  1.00  0.00    -0.744 OA
ENDBRANCH  58  61
ENDBRANCH  40  54
BRANCH  41  65
ATOM     65  C   UNL     1       7.475   2.709   9.386  1.00  0.00     0.023 A 
ATOM     66  C   UNL     1       7.178   2.774  10.759  1.00  0.00     0.012 A 
ATOM     67  C   UNL     1       7.466   1.456   8.739  1.00  0.00     0.148 A 
ATOM     68  C   UNL     1       6.895   1.612  11.480  1.00  0.00     0.002 A 
ATOM     69  C   UNL     1       7.131   0.310   9.451  1.00  0.00     0.091 A 
ATOM     70  F   UNL     1       7.745   1.415   7.428  1.00  0.00    -0.205 F 
ATOM     71  C   UNL     1       6.858   0.384  10.825  1.00  0.00     0.022 A 
BRANCH  69  72
ATOM     72  S   UNL     1       6.902  -1.279   8.642  1.00  0.00     0.127 S 
ATOM     73  O   UNL     1       8.145  -1.967   8.976  1.00  0.00    -0.237 OA
ATOM     74  O   UNL     1       5.710  -1.800   9.313  1.00  0.00    -0.237 OA
ATOM     75  O   UNL     1       6.699  -0.969   7.232  1.00  0.00    -0.744 OA
ENDBRANCH  69  72
ENDBRANCH  41  65
BRANCH  53  76
ATOM     76  C   UNL     1      12.125   7.936   9.144  1.00  0.00     0.023 A 
ATOM     77  C   UNL     1      13.284   7.174   8.900  1.00  0.00     0.012 A 
ATOM     78  C   UNL     1      12.155   8.983  10.082  1.00  0.00     0.148 A 
ATOM     79  C   UNL     1      14.453   7.432   9.608  1.00  0.00     0.002 A 
ATOM     80  C   UNL     1      13.338   9.266  10.747  1.00  0.00     0.091 A 
ATOM     81  F   UNL     1      11.028   9.673  10.309  1.00  0.00    -0.205 F 
ATOM     82  C   UNL     1      14.484   8.485  10.521  1.00  0.00     0.022 A 
BRANCH  80  83
ATOM     83  S   UNL     1      13.491  10.661  11.864  1.00  0.00     0.127 S 
ATOM     84  O   UNL     1      13.485  10.000  13.167  1.00  0.00    -0.237 OA
ATOM     85  O   UNL     1      14.780  11.232  11.473  1.00  0.00    -0.237 OA
ATOM     86  O   UNL     1      12.345  11.518  11.590  1.00  0.00    -0.744 OA
ENDBRANCH  80  83
ENDBRANCH  53  76
ENDBRANCH  27  28
ENDBRANCH  20  22
ENDBRANCH  19  20
ENDBRANCH  18  19
ENDBRANCH  17  18
ENDBRANCH   1  17
TORSDOF 20
