REMARK SMILES Cc1cc(NC(=O)CC2(CC(=O)OCCOCCOC(=O)c3ccc(-c4c5nc(c(-c6cccc(S(=O)(=O)[O-])c6F)c6ccc([nH]6)c(-c6cccc(S(=O)(=O)[O-])c6F)c6nc(c(-c7cccc(S(=O)(=O)[O-])c7F)c7ccc4[nH]7)C=C6)C=C5)cc3)CCCC2)ccn1
REMARK SMILES IDX 15 1 14 2 13 3 11 4 12 5 10 6 9 7 85 8 88 9 86 10 87 11 8 12
REMARK SMILES IDX 6 13 5 14 7 16 4 17 1 18 2 19 3 20 91 21 90 22 89 23 16 24
REMARK SMILES IDX 17 25 18 26 19 27 20 28 21 29 22 30 23 31 84 32 24 33 83 34
REMARK SMILES IDX 25 35 26 36 27 37 77 38 28 39 82 40 76 41 78 42 29 43 81 44
REMARK SMILES IDX 75 45 74 46 30 48 62 49 42 50 61 51 43 52 46 53 60 54 79 55
REMARK SMILES IDX 44 56 45 57 59 59 80 60 47 61 31 62 32 63 40 64 33 65 35 66
REMARK SMILES IDX 41 67 34 68 36 69 37 70 38 71 39 72 63 73 64 74 72 75 65 76
REMARK SMILES IDX 67 77 73 78 66 79 68 80 69 81 70 82 71 83 48 84 49 85 57 86
REMARK SMILES IDX 50 87 52 88 58 89 51 90 53 91 54 92 55 93 56 94
REMARK H PARENT 5 15 78 47 46 58
REMARK Flexibility Score: inf
ROOT
ATOM      1  C   UNL     1      -8.734  -0.536   1.250  1.00  0.00     0.202 C 
ENDROOT
BRANCH   1   2
ATOM      2  C   UNL     1      -8.071  -0.518   2.634  1.00  0.00     0.261 C 
BRANCH   2   3
ATOM      3  O   UNL     1      -6.645  -0.283   2.566  1.00  0.00    -0.463 OA
BRANCH   3   4
ATOM      4  C   UNL     1      -5.842  -1.302   2.968  1.00  0.00     0.306 C 
ATOM      5  O   UNL     1      -6.242  -2.409   3.309  1.00  0.00    -0.252 OA
BRANCH   4   6
ATOM      6  C   UNL     1      -4.381  -0.904   3.062  1.00  0.00     0.130 C 
BRANCH   6   7
ATOM      7  C   UNL     1      -3.622  -0.274   1.852  1.00  0.00    -0.011 C 
ATOM      8  C   UNL     1      -2.183   0.013   2.337  1.00  0.00     0.008 C 
ATOM      9  C   UNL     1      -4.086   1.164   1.524  1.00  0.00     0.008 C 
ATOM     10  C   UNL     1      -2.261   1.310   3.138  1.00  0.00     0.001 C 
ATOM     11  C   UNL     1      -3.454   2.073   2.574  1.00  0.00     0.001 C 
BRANCH   7  12
ATOM     12  C   UNL     1      -3.709  -1.143   0.571  1.00  0.00     0.108 C 
BRANCH  12  13
ATOM     13  C   UNL     1      -2.745  -2.288   0.356  1.00  0.00     0.224 C 
ATOM     14  N   UNL     1      -1.492  -2.142  -0.150  1.00  0.00    -0.326 N 
ATOM     15  H   UNL     1      -1.020  -2.997  -0.269  1.00  0.00     0.169 HD
ATOM     16  O   UNL     1      -3.090  -3.436   0.663  1.00  0.00    -0.275 OA
BRANCH  14  17
ATOM     17  C   UNL     1      -0.729  -1.030  -0.540  1.00  0.00     0.044 A 
ATOM     18  C   UNL     1       2.895  -0.074  -0.069  1.00  0.00     0.067 C 
ATOM     19  C   UNL     1       1.454  -0.027  -0.477  1.00  0.00     0.039 A 
ATOM     20  C   UNL     1       0.646  -1.147  -0.327  1.00  0.00     0.049 A 
ATOM     21  N   UNL     1       0.968   1.167  -0.878  1.00  0.00    -0.261 NA
ATOM     22  C   UNL     1      -0.350   1.238  -1.155  1.00  0.00     0.113 A 
ATOM     23  C   UNL     1      -1.229   0.174  -1.018  1.00  0.00     0.046 A 
ENDBRANCH  14  17
ENDBRANCH  12  13
ENDBRANCH   7  12
ENDBRANCH   6   7
ENDBRANCH   4   6
ENDBRANCH   3   4
ENDBRANCH   2   3
ENDBRANCH   1   2
BRANCH   1  24
ATOM     24  O   UNL     1      -8.575  -1.732   0.479  1.00  0.00    -0.374 OA
BRANCH  24  25
ATOM     25  C   UNL     1      -7.281  -1.930  -0.081  1.00  0.00     0.202 C 
BRANCH  25  26
ATOM     26  C   UNL     1      -7.031  -1.276  -1.444  1.00  0.00     0.261 C 
BRANCH  26  27
ATOM     27  O   UNL     1      -7.121   0.157  -1.359  1.00  0.00    -0.460 OA
BRANCH  27  28
ATOM     28  C   UNL     1      -8.235   0.675  -1.926  1.00  0.00     0.338 C 
ATOM     29  O   UNL     1      -9.055   0.079  -2.618  1.00  0.00    -0.246 OA
BRANCH  28  30
ATOM     30  C   UNL     1      -8.466   2.049  -1.450  1.00  0.00     0.060 A 
ATOM     31  C   UNL     1      -9.728   2.322  -0.908  1.00  0.00     0.016 A 
ATOM     32  C   UNL     1      -7.518   3.064  -1.595  1.00  0.00     0.016 A 
ATOM     33  C   UNL     1     -10.076   3.627  -0.576  1.00  0.00     0.010 A 
ATOM     34  C   UNL     1      -7.873   4.378  -1.264  1.00  0.00     0.010 A 
ATOM     35  C   UNL     1      -9.169   4.670  -0.801  1.00  0.00    -0.014 A 
BRANCH  35  36
ATOM     36  C   UNL     1      -9.655   6.068  -0.706  1.00  0.00     0.031 A 
ATOM     37  C   UNL     1      -9.998   6.807  -1.972  1.00  0.00     0.074 A 
ATOM     38  C   UNL     1      -9.844   6.651   0.491  1.00  0.00     0.049 A 
ATOM     39  N   UNL     1     -10.469   8.017  -2.123  1.00  0.00    -0.248 NA
ATOM     40  C   UNL     1      -9.783   6.085  -3.238  1.00  0.00     0.031 C 
ATOM     41  C   UNL     1      -9.564   6.030   1.784  1.00  0.00     0.029 A 
ATOM     42  N   UNL     1     -10.306   7.903   0.809  1.00  0.00    -0.354 N 
ATOM     43  C   UNL     1     -10.582   8.212  -3.494  1.00  0.00     0.074 A 
ATOM     44  C   UNL     1     -10.117   7.002  -4.135  1.00  0.00     0.031 C 
ATOM     45  C   UNL     1      -9.841   6.913   2.759  1.00  0.00     0.029 A 
ATOM     46  C   UNL     1     -10.295   8.166   2.159  1.00  0.00     0.049 A 
ATOM     47  H   UNL     1     -10.615   8.551   0.136  1.00  0.00     0.167 HD
ATOM     48  C   UNL     1     -11.048   9.295  -4.161  1.00  0.00     0.034 A 
ATOM     49  C   UNL     1     -10.601   9.294   2.829  1.00  0.00     0.034 A 
ATOM     50  C   UNL     1     -11.533  10.487  -3.521  1.00  0.00     0.049 A 
ATOM     51  C   UNL     1     -11.094  10.494   2.062  1.00  0.00     0.074 A 
ATOM     52  C   UNL     1     -12.066  11.621  -4.107  1.00  0.00     0.029 A 
ATOM     53  N   UNL     1     -11.533  10.706  -2.152  1.00  0.00    -0.354 N 
ATOM     54  N   UNL     1     -11.300  10.622   0.773  1.00  0.00    -0.248 NA
ATOM     55  C   UNL     1     -11.432  11.692   2.845  1.00  0.00     0.031 C 
ATOM     56  C   UNL     1     -12.361  12.539  -3.093  1.00  0.00     0.029 A 
ATOM     57  C   UNL     1     -12.043  11.961  -1.874  1.00  0.00     0.049 A 
ATOM     58  H   UNL     1     -11.217  10.062  -1.478  1.00  0.00     0.167 HD
ATOM     59  C   UNL     1     -11.825  11.898   0.595  1.00  0.00     0.074 A 
ATOM     60  C   UNL     1     -11.922  12.496   1.911  1.00  0.00     0.031 C 
ATOM     61  C   UNL     1     -12.184  12.523  -0.554  1.00  0.00     0.034 A 
BRANCH  48  62
ATOM     62  C   UNL     1     -11.073   9.233  -5.666  1.00  0.00     0.023 A 
ATOM     63  C   UNL     1     -12.023   8.422  -6.319  1.00  0.00     0.012 A 
ATOM     64  C   UNL     1     -10.193  10.021  -6.434  1.00  0.00     0.148 A 
ATOM     65  C   UNL     1     -12.077   8.372  -7.712  1.00  0.00     0.002 A 
ATOM     66  C   UNL     1     -10.282  10.001  -7.821  1.00  0.00     0.091 A 
ATOM     67  F   UNL     1      -9.281  10.768  -5.795  1.00  0.00    -0.205 F 
ATOM     68  C   UNL     1     -11.215   9.168  -8.461  1.00  0.00     0.022 A 
BRANCH  66  69
ATOM     69  S   UNL     1      -9.268  11.047  -8.871  1.00  0.00     0.127 S 
ATOM     70  O   UNL     1      -8.372  10.069  -9.485  1.00  0.00    -0.237 OA
ATOM     71  O   UNL     1     -10.259  11.621  -9.782  1.00  0.00    -0.237 OA
ATOM     72  O   UNL     1      -8.630  12.009  -7.984  1.00  0.00    -0.744 OA
ENDBRANCH  66  69
ENDBRANCH  48  62
BRANCH  49  73
ATOM     73  C   UNL     1     -10.476   9.333   4.314  1.00  0.00     0.023 A 
ATOM     74  C   UNL     1     -11.632   9.425   5.112  1.00  0.00     0.012 A 
ATOM     75  C   UNL     1      -9.214   9.259   4.937  1.00  0.00     0.148 A 
ATOM     76  C   UNL     1     -11.532   9.472   6.504  1.00  0.00     0.002 A 
ATOM     77  C   UNL     1      -9.126   9.248   6.324  1.00  0.00     0.091 A 
ATOM     78  F   UNL     1      -8.125   9.192   4.159  1.00  0.00    -0.205 F 
ATOM     79  C   UNL     1     -10.282   9.373   7.109  1.00  0.00     0.022 A 
BRANCH  77  80
ATOM     80  S   UNL     1      -7.572   8.989   7.186  1.00  0.00     0.127 S 
ATOM     81  O   UNL     1      -7.328  10.307   7.766  1.00  0.00    -0.237 OA
ATOM     82  O   UNL     1      -7.931   7.948   8.149  1.00  0.00    -0.237 OA
ATOM     83  O   UNL     1      -6.624   8.560   6.166  1.00  0.00    -0.744 OA
ENDBRANCH  77  80
ENDBRANCH  49  73
BRANCH  61  84
ATOM     84  C   UNL     1     -12.758  13.912  -0.449  1.00  0.00     0.023 A 
ATOM     85  C   UNL     1     -11.918  14.998  -0.131  1.00  0.00     0.012 A 
ATOM     86  C   UNL     1     -14.114  14.151  -0.747  1.00  0.00     0.148 A 
ATOM     87  C   UNL     1     -12.428  16.295  -0.079  1.00  0.00     0.002 A 
ATOM     88  C   UNL     1     -14.603  15.451  -0.742  1.00  0.00     0.091 A 
ATOM     89  F   UNL     1     -14.901  13.102  -1.031  1.00  0.00    -0.205 F 
ATOM     90  C   UNL     1     -13.765  16.523  -0.396  1.00  0.00     0.022 A 
BRANCH  88  91
ATOM     91  S   UNL     1     -16.285  15.850  -1.233  1.00  0.00     0.127 S 
ATOM     92  O   UNL     1     -16.892  16.205   0.048  1.00  0.00    -0.237 OA
ATOM     93  O   UNL     1     -16.082  16.977  -2.145  1.00  0.00    -0.237 OA
ATOM     94  O   UNL     1     -16.814  14.649  -1.865  1.00  0.00    -0.744 OA
ENDBRANCH  88  91
ENDBRANCH  61  84
ENDBRANCH  35  36
ENDBRANCH  28  30
ENDBRANCH  27  28
ENDBRANCH  26  27
ENDBRANCH  25  26
ENDBRANCH  24  25
ENDBRANCH   1  24
TORSDOF 21
