REMARK SMILES O=C(OCCOCCOC(=O)c1cc(/C=C/c2cc(O)cc(O)c2)ccc1O)c1ccc(-c2c3nc(c(-c4cccc(S(=O)(=O)[O-])c4F)c4ccc([nH]4)c(-c4cccc(S(=O)(=O)[O-])c4F)c4nc(c(-c5cccc(S(=O)(=O)[O-])c5F)c5ccc2[nH]5)C=C4)C=C3)cc1
REMARK SMILES IDX 6 1 5 2 4 3 3 4 2 5 1 6 29 7 30 8 91 9 31 10 90 11 32 12
REMARK SMILES IDX 33 13 34 14 84 15 35 16 89 17 83 18 85 19 36 20 88 21 82 22
REMARK SMILES IDX 81 23 37 25 69 26 49 27 68 28 50 29 53 30 67 31 86 32 51 33
REMARK SMILES IDX 52 34 66 36 87 37 54 38 38 39 39 40 47 41 40 42 42 43 48 44
REMARK SMILES IDX 41 45 43 46 44 47 45 48 46 49 70 50 71 51 79 52 72 53 74 54
REMARK SMILES IDX 80 55 73 56 75 57 76 58 77 59 78 60 55 61 56 62 64 63 57 64
REMARK SMILES IDX 59 65 65 66 58 67 60 68 61 69 62 70 63 71 7 72 8 73 9 74
REMARK SMILES IDX 10 75 11 76 12 77 13 78 27 79 14 80 26 81 25 82 28 83 15 85
REMARK SMILES IDX 16 86 17 87 18 88 24 89 19 90 22 91 21 92 20 93 23 95
REMARK H PARENT 85 24 53 35 28 84 20 94 23 96
REMARK Flexibility Score: inf
ROOT
ATOM      1  O   UNL     1       4.010   0.729  -1.556  1.00  0.00    -0.374 OA
ENDROOT
BRANCH   1   2
ATOM      2  C   UNL     1       4.132  -0.691  -1.584  1.00  0.00     0.202 C 
BRANCH   2   3
ATOM      3  C   UNL     1       3.737  -1.380  -0.276  1.00  0.00     0.261 C 
BRANCH   3   4
ATOM      4  O   UNL     1       2.365  -1.099   0.042  1.00  0.00    -0.460 OA
BRANCH   4   5
ATOM      5  C   UNL     1       1.870  -0.222   0.947  1.00  0.00     0.338 C 
ATOM      6  O   UNL     1       0.650  -0.177   1.101  1.00  0.00    -0.246 OA
BRANCH   5   7
ATOM      7  C   UNL     1       2.719   0.675   1.791  1.00  0.00     0.060 A 
ATOM      8  C   UNL     1       3.991   1.135   1.446  1.00  0.00     0.016 A 
ATOM      9  C   UNL     1       2.159   1.144   2.992  1.00  0.00     0.016 A 
ATOM     10  C   UNL     1       4.723   1.957   2.289  1.00  0.00     0.010 A 
ATOM     11  C   UNL     1       2.871   2.010   3.830  1.00  0.00     0.010 A 
ATOM     12  C   UNL     1       4.172   2.391   3.489  1.00  0.00    -0.014 A 
BRANCH  12  13
ATOM     13  C   UNL     1       5.050   3.144   4.401  1.00  0.00     0.031 A 
ATOM     14  C   UNL     1       5.652   2.421   5.566  1.00  0.00     0.074 A 
ATOM     15  C   UNL     1       5.410   4.401   4.083  1.00  0.00     0.049 A 
ATOM     16  N   UNL     1       6.515   2.849   6.445  1.00  0.00    -0.248 NA
ATOM     17  C   UNL     1       5.243   1.017   5.756  1.00  0.00     0.031 C 
ATOM     18  C   UNL     1       4.934   5.141   2.911  1.00  0.00     0.029 A 
ATOM     19  N   UNL     1       6.282   5.263   4.691  1.00  0.00    -0.354 N 
ATOM     20  C   UNL     1       6.717   1.788   7.317  1.00  0.00     0.074 A 
ATOM     21  C   UNL     1       5.902   0.688   6.855  1.00  0.00     0.031 C 
ATOM     22  C   UNL     1       5.537   6.339   2.874  1.00  0.00     0.029 A 
ATOM     23  C   UNL     1       6.405   6.469   4.040  1.00  0.00     0.049 A 
ATOM     24  H   UNL     1       6.773   5.042   5.515  1.00  0.00     0.167 HD
ATOM     25  C   UNL     1       7.515   1.741   8.408  1.00  0.00     0.034 A 
ATOM     26  C   UNL     1       7.133   7.554   4.365  1.00  0.00     0.034 A 
ATOM     27  C   UNL     1       8.327   2.844   8.837  1.00  0.00     0.049 A 
ATOM     28  C   UNL     1       7.991   7.481   5.599  1.00  0.00     0.074 A 
ATOM     29  C   UNL     1       9.142   2.936   9.948  1.00  0.00     0.029 A 
ATOM     30  N   UNL     1       8.419   4.056   8.165  1.00  0.00    -0.354 N 
ATOM     31  N   UNL     1       8.196   6.462   6.402  1.00  0.00    -0.248 NA
ATOM     32  C   UNL     1       8.732   8.694   5.967  1.00  0.00     0.031 C 
ATOM     33  C   UNL     1       9.715   4.213   9.957  1.00  0.00     0.029 A 
ATOM     34  C   UNL     1       9.275   4.906   8.838  1.00  0.00     0.049 A 
ATOM     35  H   UNL     1       7.945   4.276   7.331  1.00  0.00     0.167 HD
ATOM     36  C   UNL     1       9.107   6.901   7.354  1.00  0.00     0.074 A 
ATOM     37  C   UNL     1       9.433   8.273   7.010  1.00  0.00     0.031 C 
ATOM     38  C   UNL     1       9.614   6.246   8.427  1.00  0.00     0.034 A 
BRANCH  25  39
ATOM     39  C   UNL     1       7.504   0.470   9.209  1.00  0.00     0.023 A 
ATOM     40  C   UNL     1       8.174  -0.674   8.730  1.00  0.00     0.012 A 
ATOM     41  C   UNL     1       6.802   0.402  10.428  1.00  0.00     0.148 A 
ATOM     42  C   UNL     1       8.116  -1.876   9.435  1.00  0.00     0.002 A 
ATOM     43  C   UNL     1       6.777  -0.790  11.142  1.00  0.00     0.091 A 
ATOM     44  F   UNL     1       6.143   1.491  10.847  1.00  0.00    -0.205 F 
ATOM     45  C   UNL     1       7.424  -1.932  10.642  1.00  0.00     0.022 A 
BRANCH  43  46
ATOM     46  S   UNL     1       5.949  -0.947  12.727  1.00  0.00     0.127 S 
ATOM     47  O   UNL     1       4.787  -1.761  12.374  1.00  0.00    -0.237 OA
ATOM     48  O   UNL     1       6.956  -1.639  13.533  1.00  0.00    -0.237 OA
ATOM     49  O   UNL     1       5.655   0.411  13.162  1.00  0.00    -0.744 OA
ENDBRANCH  43  46
ENDBRANCH  25  39
BRANCH  26  50
ATOM     50  C   UNL     1       7.103   8.771   3.503  1.00  0.00     0.023 A 
ATOM     51  C   UNL     1       8.263   9.168   2.812  1.00  0.00     0.012 A 
ATOM     52  C   UNL     1       5.923   9.526   3.343  1.00  0.00     0.148 A 
ATOM     53  C   UNL     1       8.257  10.306   2.000  1.00  0.00     0.002 A 
ATOM     54  C   UNL     1       5.907  10.624   2.490  1.00  0.00     0.091 A 
ATOM     55  F   UNL     1       4.832   9.153   4.027  1.00  0.00    -0.205 F 
ATOM     56  C   UNL     1       7.077  11.026   1.830  1.00  0.00     0.022 A 
BRANCH  54  57
ATOM     57  S   UNL     1       4.396  11.524   2.120  1.00  0.00     0.127 S 
ATOM     58  O   UNL     1       4.565  12.735   2.918  1.00  0.00    -0.237 OA
ATOM     59  O   UNL     1       4.501  11.719   0.673  1.00  0.00    -0.237 OA
ATOM     60  O   UNL     1       3.311  10.639   2.524  1.00  0.00    -0.744 OA
ENDBRANCH  54  57
ENDBRANCH  26  50
BRANCH  38  61
ATOM     61  C   UNL     1      10.595   6.992   9.287  1.00  0.00     0.023 A 
ATOM     62  C   UNL     1      10.135   7.995  10.161  1.00  0.00     0.012 A 
ATOM     63  C   UNL     1      11.957   6.634   9.290  1.00  0.00     0.148 A 
ATOM     64  C   UNL     1      11.024   8.651  11.011  1.00  0.00     0.002 A 
ATOM     65  C   UNL     1      12.827   7.258  10.174  1.00  0.00     0.091 A 
ATOM     66  F   UNL     1      12.376   5.693   8.431  1.00  0.00    -0.205 F 
ATOM     67  C   UNL     1      12.365   8.274  11.027  1.00  0.00     0.022 A 
BRANCH  65  68
ATOM     68  S   UNL     1      14.543   6.752  10.328  1.00  0.00     0.127 S 
ATOM     69  O   UNL     1      15.229   7.783   9.552  1.00  0.00    -0.237 OA
ATOM     70  O   UNL     1      14.765   6.827  11.773  1.00  0.00    -0.237 OA
ATOM     71  O   UNL     1      14.606   5.403   9.782  1.00  0.00    -0.744 OA
ENDBRANCH  65  68
ENDBRANCH  38  61
ENDBRANCH  12  13
ENDBRANCH   5   7
ENDBRANCH   4   5
ENDBRANCH   3   4
ENDBRANCH   2   3
ENDBRANCH   1   2
BRANCH   1  72
ATOM     72  C   UNL     1       2.741   1.250  -1.968  1.00  0.00     0.202 C 
BRANCH  72  73
ATOM     73  C   UNL     1       2.929   2.122  -3.209  1.00  0.00     0.261 C 
BRANCH  73  74
ATOM     74  O   UNL     1       3.423   1.286  -4.266  1.00  0.00    -0.460 OA
BRANCH  74  75
ATOM     75  C   UNL     1       4.771   1.260  -4.429  1.00  0.00     0.342 C 
ATOM     76  O   UNL     1       5.596   2.031  -3.966  1.00  0.00    -0.246 OA
BRANCH  75  77
ATOM     77  C   UNL     1       5.117  -0.041  -5.035  1.00  0.00     0.102 A 
ATOM     78  C   UNL     1       6.085  -0.824  -4.376  1.00  0.00     0.027 A 
ATOM     79  C   UNL     1       4.434  -0.551  -6.141  1.00  0.00     0.130 A 
ATOM     80  C   UNL     1       6.300  -2.151  -4.760  1.00  0.00    -0.025 A 
ATOM     81  C   UNL     1       4.679  -1.852  -6.564  1.00  0.00     0.048 A 
ATOM     82  C   UNL     1       5.596  -2.646  -5.869  1.00  0.00     0.012 A 
BRANCH  79  83
ATOM     83  O   UNL     1       3.534   0.222  -6.818  1.00  0.00    -0.507 OA
ATOM     84  H   UNL     1       3.365   1.099  -6.537  1.00  0.00     0.293 HD
ENDBRANCH  79  83
BRANCH  80  85
ATOM     85  C   UNL     1       7.239  -3.061  -4.082  1.00  0.00     0.009 C 
ATOM     86  C   UNL     1       7.613  -3.025  -2.791  1.00  0.00     0.009 C 
BRANCH  86  87
ATOM     87  C   UNL     1       8.522  -4.037  -2.219  1.00  0.00    -0.018 A 
ATOM     88  C   UNL     1       9.656  -4.474  -2.923  1.00  0.00     0.054 A 
ATOM     89  C   UNL     1       8.267  -4.570  -0.946  1.00  0.00     0.054 A 
ATOM     90  C   UNL     1      10.479  -5.461  -2.384  1.00  0.00     0.119 A 
ATOM     91  C   UNL     1       9.110  -5.555  -0.423  1.00  0.00     0.119 A 
ATOM     92  C   UNL     1      10.208  -6.013  -1.141  1.00  0.00     0.092 A 
BRANCH  90  93
ATOM     93  O   UNL     1      11.573  -5.915  -3.062  1.00  0.00    -0.508 OA
ATOM     94  H   UNL     1      11.782  -5.561  -3.904  1.00  0.00     0.293 HD
ENDBRANCH  90  93
BRANCH  91  95
ATOM     95  O   UNL     1       8.884  -6.110   0.803  1.00  0.00    -0.508 OA
ATOM     96  H   UNL     1       9.463  -6.769   1.132  1.00  0.00     0.293 HD
ENDBRANCH  91  95
ENDBRANCH  86  87
ENDBRANCH  80  85
ENDBRANCH  75  77
ENDBRANCH  74  75
ENDBRANCH  73  74
ENDBRANCH  72  73
ENDBRANCH   1  72
TORSDOF 22
