REMARK SMILES O=C(OCCOCCOC(=O)[C@H]1C[C@](O)(c2ccccc2Cl)[C@@H](c2ccccc2Cl)O1)c1ccc(-c2c3nc(c(-c4cccc(S(=O)(=O)[O-])c4F)c4ccc([nH]4)c(-c4cccc(S(=O)(=O)[O-])c4F)c4nc(c(-c5cccc(S(=O)(=O)[O-])c5F)c5ccc2[nH]5)C=C4)C=C3)cc1
REMARK SMILES IDX 5 1 4 2 3 3 2 4 1 5 32 6 33 7 94 8 34 9 93 10 35 11 36 12
REMARK SMILES IDX 37 13 87 14 38 15 92 16 86 17 88 18 39 19 91 20 85 21 84 22
REMARK SMILES IDX 40 24 72 25 52 26 71 27 53 28 56 29 70 30 89 31 54 32 55 33
REMARK SMILES IDX 69 35 90 36 57 37 41 38 42 39 50 40 43 41 45 42 51 43 44 44
REMARK SMILES IDX 46 45 47 46 48 47 49 48 73 49 74 50 82 51 75 52 77 53 83 54
REMARK SMILES IDX 76 55 78 56 79 57 80 58 81 59 58 60 59 61 67 62 60 63 62 64
REMARK SMILES IDX 68 65 61 66 63 67 64 68 65 69 66 70 6 71 7 72 8 73 9 74
REMARK SMILES IDX 10 75 11 76 12 77 13 78 31 79 14 80 23 81 16 82 17 83 21 84
REMARK SMILES IDX 18 85 20 86 22 87 19 88 15 89 24 91 25 92 29 93 26 94 28 95
REMARK SMILES IDX 30 96 27 97
REMARK H PARENT 88 23 56 34 15 90
REMARK Flexibility Score: inf
ROOT
ATOM      1  C   UNL     1       6.897   0.036   2.152  1.00  0.00     0.202 C 
ENDROOT
BRANCH   1   2
ATOM      2  C   UNL     1       7.731  -0.041   0.867  1.00  0.00     0.261 C 
BRANCH   2   3
ATOM      3  O   UNL     1       8.328  -1.333   0.708  1.00  0.00    -0.460 OA
BRANCH   3   4
ATOM      4  C   UNL     1       9.575  -1.702   1.090  1.00  0.00     0.338 C 
ATOM      5  O   UNL     1       9.905  -2.879   0.958  1.00  0.00    -0.246 OA
BRANCH   4   6
ATOM      6  C   UNL     1      10.575  -0.743   1.650  1.00  0.00     0.060 A 
ATOM      7  C   UNL     1      10.262   0.378   2.425  1.00  0.00     0.016 A 
ATOM      8  C   UNL     1      11.929  -1.055   1.459  1.00  0.00     0.016 A 
ATOM      9  C   UNL     1      11.237   1.194   2.959  1.00  0.00     0.010 A 
ATOM     10  C   UNL     1      12.926  -0.262   2.031  1.00  0.00     0.010 A 
ATOM     11  C   UNL     1      12.571   0.864   2.782  1.00  0.00    -0.014 A 
BRANCH  11  12
ATOM     12  C   UNL     1      13.565   1.767   3.368  1.00  0.00     0.031 A 
ATOM     13  C   UNL     1      14.302   2.689   2.459  1.00  0.00     0.074 A 
ATOM     14  C   UNL     1      13.704   1.797   4.705  1.00  0.00     0.049 A 
ATOM     15  N   UNL     1      15.272   3.509   2.739  1.00  0.00    -0.248 NA
ATOM     16  C   UNL     1      13.882   2.703   1.045  1.00  0.00     0.031 C 
ATOM     17  C   UNL     1      12.924   0.993   5.654  1.00  0.00     0.029 A 
ATOM     18  N   UNL     1      14.547   2.522   5.499  1.00  0.00    -0.354 N 
ATOM     19  C   UNL     1      15.632   4.081   1.528  1.00  0.00     0.074 A 
ATOM     20  C   UNL     1      14.748   3.554   0.515  1.00  0.00     0.031 C 
ATOM     21  C   UNL     1      13.349   1.250   6.901  1.00  0.00     0.029 A 
ATOM     22  C   UNL     1      14.474   2.171   6.827  1.00  0.00     0.049 A 
ATOM     23  H   UNL     1      15.146   3.224   5.156  1.00  0.00     0.167 HD
ATOM     24  C   UNL     1      16.637   4.951   1.299  1.00  0.00     0.034 A 
ATOM     25  C   UNL     1      15.284   2.509   7.848  1.00  0.00     0.034 A 
ATOM     26  C   UNL     1      17.486   5.455   2.340  1.00  0.00     0.049 A 
ATOM     27  C   UNL     1      16.433   3.432   7.542  1.00  0.00     0.074 A 
ATOM     28  C   UNL     1      18.535   6.346   2.239  1.00  0.00     0.029 A 
ATOM     29  N   UNL     1      17.391   5.085   3.675  1.00  0.00    -0.354 N 
ATOM     30  N   UNL     1      16.738   4.018   6.407  1.00  0.00    -0.248 NA
ATOM     31  C   UNL     1      17.344   3.747   8.648  1.00  0.00     0.031 C 
ATOM     32  C   UNL     1      19.107   6.478   3.508  1.00  0.00     0.029 A 
ATOM     33  C   UNL     1      18.384   5.705   4.407  1.00  0.00     0.049 A 
ATOM     34  H   UNL     1      16.716   4.472   4.045  1.00  0.00     0.167 HD
ATOM     35  C   UNL     1      17.866   4.783   6.665  1.00  0.00     0.074 A 
ATOM     36  C   UNL     1      18.165   4.616   8.075  1.00  0.00     0.031 C 
ATOM     37  C   UNL     1      18.609   5.538   5.820  1.00  0.00     0.034 A 
BRANCH  24  38
ATOM     38  C   UNL     1      16.910   5.348  -0.122  1.00  0.00     0.023 A 
ATOM     39  C   UNL     1      16.062   6.251  -0.792  1.00  0.00     0.012 A 
ATOM     40  C   UNL     1      18.048   4.843  -0.779  1.00  0.00     0.148 A 
ATOM     41  C   UNL     1      16.337   6.632  -2.106  1.00  0.00     0.002 A 
ATOM     42  C   UNL     1      18.340   5.261  -2.070  1.00  0.00     0.091 A 
ATOM     43  F   UNL     1      18.819   3.959  -0.129  1.00  0.00    -0.205 F 
ATOM     44  C   UNL     1      17.480   6.147  -2.739  1.00  0.00     0.022 A 
BRANCH  42  45
ATOM     45  S   UNL     1      19.821   4.747  -2.942  1.00  0.00     0.127 S 
ATOM     46  O   UNL     1      19.257   4.042  -4.094  1.00  0.00    -0.237 OA
ATOM     47  O   UNL     1      20.446   6.031  -3.258  1.00  0.00    -0.237 OA
ATOM     48  O   UNL     1      20.569   3.909  -2.016  1.00  0.00    -0.744 OA
ENDBRANCH  42  45
ENDBRANCH  24  38
BRANCH  25  49
ATOM     49  C   UNL     1      15.087   1.930   9.208  1.00  0.00     0.023 A 
ATOM     50  C   UNL     1      14.792   2.773  10.295  1.00  0.00     0.012 A 
ATOM     51  C   UNL     1      15.216   0.544   9.435  1.00  0.00     0.148 A 
ATOM     52  C   UNL     1      14.677   2.255  11.587  1.00  0.00     0.002 A 
ATOM     53  C   UNL     1      15.040   0.027  10.713  1.00  0.00     0.091 A 
ATOM     54  F   UNL     1      15.518  -0.248   8.396  1.00  0.00    -0.205 F 
ATOM     55  C   UNL     1      14.792   0.883  11.795  1.00  0.00     0.022 A 
BRANCH  53  56
ATOM     56  S   UNL     1      15.051  -1.739  11.042  1.00  0.00     0.127 S 
ATOM     57  O   UNL     1      16.345  -1.913  11.695  1.00  0.00    -0.237 OA
ATOM     58  O   UNL     1      13.891  -1.892  11.921  1.00  0.00    -0.237 OA
ATOM     59  O   UNL     1      14.902  -2.379   9.741  1.00  0.00    -0.744 OA
ENDBRANCH  53  56
ENDBRANCH  25  49
BRANCH  37  60
ATOM     60  C   UNL     1      19.792   6.255   6.404  1.00  0.00     0.023 A 
ATOM     61  C   UNL     1      20.945   5.529   6.759  1.00  0.00     0.012 A 
ATOM     62  C   UNL     1      19.789   7.659   6.509  1.00  0.00     0.148 A 
ATOM     63  C   UNL     1      22.072   6.191   7.239  1.00  0.00     0.002 A 
ATOM     64  C   UNL     1      20.935   8.315   6.931  1.00  0.00     0.091 A 
ATOM     65  F   UNL     1      18.671   8.322   6.178  1.00  0.00    -0.205 F 
ATOM     66  C   UNL     1      22.073   7.582   7.310  1.00  0.00     0.022 A 
BRANCH  64  67
ATOM     67  S   UNL     1      21.066  10.104   6.946  1.00  0.00     0.127 S 
ATOM     68  O   UNL     1      21.133  10.385   8.380  1.00  0.00    -0.237 OA
ATOM     69  O   UNL     1      22.316  10.327   6.220  1.00  0.00    -0.237 OA
ATOM     70  O   UNL     1      19.875  10.603   6.272  1.00  0.00    -0.744 OA
ENDBRANCH  64  67
ENDBRANCH  37  60
ENDBRANCH  11  12
ENDBRANCH   4   6
ENDBRANCH   3   4
ENDBRANCH   2   3
ENDBRANCH   1   2
BRANCH   1  71
ATOM     71  O   UNL     1       7.551  -0.367   3.362  1.00  0.00    -0.374 OA
BRANCH  71  72
ATOM     72  C   UNL     1       7.651  -1.779   3.585  1.00  0.00     0.202 C 
BRANCH  72  73
ATOM     73  C   UNL     1       6.992  -2.143   4.911  1.00  0.00     0.261 C 
BRANCH  73  74
ATOM     74  O   UNL     1       5.645  -1.658   4.847  1.00  0.00    -0.461 OA
BRANCH  74  75
ATOM     75  C   UNL     1       5.482  -0.477   5.507  1.00  0.00     0.335 C 
ATOM     76  O   UNL     1       5.946  -0.244   6.618  1.00  0.00    -0.249 OA
BRANCH  75  77
ATOM     77  C   UNL     1       4.643   0.482   4.659  1.00  0.00     0.232 C 
ATOM     78  C   UNL     1       3.443   0.950   5.422  1.00  0.00     0.087 C 
ATOM     79  O   UNL     1       5.302   1.622   4.144  1.00  0.00    -0.355 OA
ATOM     80  C   UNL     1       3.646   2.453   5.722  1.00  0.00     0.124 C 
ATOM     81  C   UNL     1       4.837   2.841   4.770  1.00  0.00     0.187 C 
BRANCH  80  82
ATOM     82  C   UNL     1       2.204   3.007   5.651  1.00  0.00     0.005 A 
ATOM     83  C   UNL     1       1.304   2.449   6.612  1.00  0.00     0.008 A 
ATOM     84  C   UNL     1       1.618   3.839   4.684  1.00  0.00     0.047 A 
ATOM     85  C   UNL     1      -0.077   2.646   6.575  1.00  0.00     0.001 A 
ATOM     86  C   UNL     1       0.225   4.063   4.673  1.00  0.00     0.021 A 
ATOM     87  Cl  UNL     1       2.448   4.630   3.404  1.00  0.00    -0.084 Cl
ATOM     88  C   UNL     1      -0.620   3.457   5.597  1.00  0.00     0.002 A 
ENDBRANCH  80  82
BRANCH  80  89
ATOM     89  O   UNL     1       4.035   2.549   7.103  1.00  0.00    -0.382 OA
ATOM     90  H   UNL     1       4.939   2.214   7.208  1.00  0.00     0.212 HD
ENDBRANCH  80  89
BRANCH  81  91
ATOM     91  C   UNL     1       6.120   3.501   5.291  1.00  0.00     0.003 A 
ATOM     92  C   UNL     1       6.960   2.793   6.176  1.00  0.00     0.008 A 
ATOM     93  C   UNL     1       6.625   4.720   4.801  1.00  0.00     0.046 A 
ATOM     94  C   UNL     1       8.259   3.212   6.481  1.00  0.00     0.000 A 
ATOM     95  C   UNL     1       7.926   5.153   5.121  1.00  0.00     0.021 A 
ATOM     96  Cl  UNL     1       5.715   5.764   3.772  1.00  0.00    -0.084 Cl
ATOM     97  C   UNL     1       8.752   4.386   5.937  1.00  0.00     0.002 A 
ENDBRANCH  81  91
ENDBRANCH  75  77
ENDBRANCH  74  75
ENDBRANCH  73  74
ENDBRANCH  72  73
ENDBRANCH  71  72
ENDBRANCH   1  71
TORSDOF 20
