REMARK SMILES Cc1nc2cc(C(=O)OCCOCCOC(=O)c3ccc(-c4c5nc(c(-c6cccc(S(=O)(=O)[O-])c6F)c6ccc([nH]6)c(-c6cccc(S(=O)(=O)[O-])c6F)c6nc(c(-c7cccc(S(=O)(=O)[O-])c7F)c7ccc4[nH]7)C=C6)C=C5)cc3)ccc2n1C
REMARK SMILES IDX 13 1 12 2 11 3 10 4 9 5 7 6 8 7 6 8 1 9 2 10 3 11 84 12 4 13
REMARK SMILES IDX 83 14 85 15 5 16 82 17 81 18 14 19 15 20 16 21 17 22 18 23
REMARK SMILES IDX 19 24 80 25 20 26 79 27 21 28 22 29 23 30 73 31 24 32 78 33
REMARK SMILES IDX 72 34 74 35 25 36 77 37 71 38 70 39 26 41 58 42 38 43 57 44
REMARK SMILES IDX 39 45 42 46 56 47 75 48 40 49 41 50 55 52 76 53 43 54 27 55
REMARK SMILES IDX 28 56 36 57 29 58 31 59 37 60 30 61 32 62 33 63 34 64 35 65
REMARK SMILES IDX 59 66 60 67 68 68 61 69 63 70 69 71 62 72 64 73 65 74 66 75
REMARK SMILES IDX 67 76 44 77 45 78 53 79 46 80 48 81 54 82 47 83 49 84 50 85
REMARK SMILES IDX 51 86 52 87
REMARK H PARENT 74 40 42 51
REMARK Flexibility Score: inf
ROOT
ATOM      1  C   UNL     1      -2.222  -5.650   5.391  1.00  0.00     0.202 C 
ENDROOT
BRANCH   1   2
ATOM      2  O   UNL     1      -1.542  -6.583   6.232  1.00  0.00    -0.374 OA
BRANCH   2   3
ATOM      3  C   UNL     1      -1.313  -6.224   7.594  1.00  0.00     0.202 C 
BRANCH   3   4
ATOM      4  C   UNL     1      -0.247  -5.159   7.908  1.00  0.00     0.261 C 
BRANCH   4   5
ATOM      5  O   UNL     1      -0.375  -3.967   7.123  1.00  0.00    -0.460 OA
BRANCH   5   6
ATOM      6  C   UNL     1       0.519  -3.891   6.105  1.00  0.00     0.338 C 
ATOM      7  O   UNL     1       1.344  -4.737   5.792  1.00  0.00    -0.246 OA
BRANCH   6   8
ATOM      8  C   UNL     1       0.225  -2.730   5.232  1.00  0.00     0.062 A 
ATOM      9  C   UNL     1       0.798   0.109   0.020  1.00  0.00     0.087 C 
ATOM     10  C   UNL     1       0.458  -0.469   1.343  1.00  0.00     0.106 A 
ATOM     11  N   UNL     1       0.690  -1.719   1.679  1.00  0.00    -0.233 NA
ATOM     12  N   UNL     1      -0.070   0.234   2.406  1.00  0.00    -0.331 N 
ATOM     13  C   UNL     1       0.387  -1.805   3.011  1.00  0.00     0.090 A 
ATOM     14  C   UNL     1      -0.143  -0.612   3.491  1.00  0.00     0.068 A 
ATOM     15  C   UNL     1      -0.373   1.644   2.406  1.00  0.00     0.151 C 
ATOM     16  C   UNL     1       0.571  -2.881   3.880  1.00  0.00     0.046 A 
ATOM     17  C   UNL     1      -0.559  -0.457   4.824  1.00  0.00     0.029 A 
ATOM     18  C   UNL     1      -0.360  -1.544   5.691  1.00  0.00     0.018 A 
ENDBRANCH   6   8
ENDBRANCH   5   6
ENDBRANCH   4   5
ENDBRANCH   3   4
ENDBRANCH   2   3
ENDBRANCH   1   2
BRANCH   1  19
ATOM     19  C   UNL     1      -3.620  -5.191   5.818  1.00  0.00     0.261 C 
BRANCH  19  20
ATOM     20  O   UNL     1      -3.548  -4.274   6.921  1.00  0.00    -0.460 OA
BRANCH  20  21
ATOM     21  C   UNL     1      -4.343  -4.554   7.979  1.00  0.00     0.338 C 
ATOM     22  O   UNL     1      -5.200  -5.420   8.068  1.00  0.00    -0.246 OA
BRANCH  21  23
ATOM     23  C   UNL     1      -3.925  -3.688   9.085  1.00  0.00     0.060 A 
ATOM     24  C   UNL     1      -4.388  -2.374   9.151  1.00  0.00     0.016 A 
ATOM     25  C   UNL     1      -3.068  -4.199  10.062  1.00  0.00     0.016 A 
ATOM     26  C   UNL     1      -4.000  -1.573  10.224  1.00  0.00     0.010 A 
ATOM     27  C   UNL     1      -2.646  -3.382  11.103  1.00  0.00     0.010 A 
ATOM     28  C   UNL     1      -3.140  -2.077  11.216  1.00  0.00    -0.014 A 
BRANCH  28  29
ATOM     29  C   UNL     1      -2.939  -1.288  12.450  1.00  0.00     0.031 A 
ATOM     30  C   UNL     1      -3.000  -2.084  13.723  1.00  0.00     0.074 A 
ATOM     31  C   UNL     1      -2.261  -0.122  12.444  1.00  0.00     0.049 A 
ATOM     32  N   UNL     1      -1.985  -2.750  14.194  1.00  0.00    -0.248 NA
ATOM     33  C   UNL     1      -4.268  -2.417  14.373  1.00  0.00     0.031 C 
ATOM     34  C   UNL     1      -1.067   0.111  11.620  1.00  0.00     0.029 A 
ATOM     35  N   UNL     1      -2.294   0.947  13.312  1.00  0.00    -0.354 N 
ATOM     36  C   UNL     1      -2.466  -3.624  15.156  1.00  0.00     0.074 A 
ATOM     37  C   UNL     1      -3.888  -3.368  15.243  1.00  0.00     0.031 C 
ATOM     38  C   UNL     1      -0.384   1.153  12.140  1.00  0.00     0.029 A 
ATOM     39  C   UNL     1      -1.154   1.747  13.231  1.00  0.00     0.049 A 
ATOM     40  H   UNL     1      -3.042   1.127  13.925  1.00  0.00     0.167 HD
ATOM     41  C   UNL     1      -1.673  -4.508  15.824  1.00  0.00     0.034 A 
ATOM     42  C   UNL     1      -0.636   2.455  14.276  1.00  0.00     0.034 A 
ATOM     43  C   UNL     1      -0.280  -4.459  15.481  1.00  0.00     0.049 A 
ATOM     44  C   UNL     1       0.021   1.337  15.056  1.00  0.00     0.074 A 
ATOM     45  C   UNL     1       0.604  -5.166  14.695  1.00  0.00     0.029 A 
ATOM     46  N   UNL     1       0.465  -3.418  15.980  1.00  0.00    -0.354 N 
ATOM     47  N   UNL     1       1.131   0.720  14.740  1.00  0.00    -0.248 NA
ATOM     48  C   UNL     1      -0.833   0.616  16.003  1.00  0.00     0.031 C 
ATOM     49  C   UNL     1       1.660  -4.247  14.389  1.00  0.00     0.029 A 
ATOM     50  C   UNL     1       1.344  -3.035  15.000  1.00  0.00     0.049 A 
ATOM     51  H   UNL     1       0.383  -3.020  16.877  1.00  0.00     0.167 HD
ATOM     52  C   UNL     1       0.957  -0.593  15.187  1.00  0.00     0.074 A 
ATOM     53  C   UNL     1      -0.271  -0.583  15.959  1.00  0.00     0.031 C 
ATOM     54  C   UNL     1       1.712  -1.654  14.775  1.00  0.00     0.034 A 
BRANCH  41  55
ATOM     55  C   UNL     1      -2.100  -5.300  17.005  1.00  0.00     0.023 A 
ATOM     56  C   UNL     1      -1.912  -4.685  18.259  1.00  0.00     0.012 A 
ATOM     57  C   UNL     1      -2.453  -6.661  16.948  1.00  0.00     0.148 A 
ATOM     58  C   UNL     1      -2.026  -5.413  19.440  1.00  0.00     0.002 A 
ATOM     59  C   UNL     1      -2.576  -7.383  18.136  1.00  0.00     0.091 A 
ATOM     60  F   UNL     1      -2.619  -7.232  15.747  1.00  0.00    -0.205 F 
ATOM     61  C   UNL     1      -2.350  -6.763  19.378  1.00  0.00     0.022 A 
BRANCH  59  62
ATOM     62  S   UNL     1      -2.977  -9.135  18.199  1.00  0.00     0.127 S 
ATOM     63  O   UNL     1      -1.763  -9.705  18.782  1.00  0.00    -0.237 OA
ATOM     64  O   UNL     1      -4.141  -9.146  19.087  1.00  0.00    -0.237 OA
ATOM     65  O   UNL     1      -3.256  -9.533  16.826  1.00  0.00    -0.744 OA
ENDBRANCH  59  62
ENDBRANCH  41  55
BRANCH  42  66
ATOM     66  C   UNL     1      -1.568   3.460  14.908  1.00  0.00     0.023 A 
ATOM     67  C   UNL     1      -2.334   4.269  14.032  1.00  0.00     0.012 A 
ATOM     68  C   UNL     1      -1.743   3.664  16.290  1.00  0.00     0.148 A 
ATOM     69  C   UNL     1      -3.321   5.139  14.500  1.00  0.00     0.002 A 
ATOM     70  C   UNL     1      -2.764   4.496  16.755  1.00  0.00     0.091 A 
ATOM     71  F   UNL     1      -0.930   3.033  17.147  1.00  0.00    -0.205 F 
ATOM     72  C   UNL     1      -3.559   5.226  15.863  1.00  0.00     0.022 A 
BRANCH  70  73
ATOM     73  S   UNL     1      -3.187   4.634  18.498  1.00  0.00     0.127 S 
ATOM     74  O   UNL     1      -3.277   6.083  18.678  1.00  0.00    -0.237 OA
ATOM     75  O   UNL     1      -4.466   3.928  18.539  1.00  0.00    -0.237 OA
ATOM     76  O   UNL     1      -2.097   3.994  19.221  1.00  0.00    -0.744 OA
ENDBRANCH  70  73
ENDBRANCH  42  66
BRANCH  54  77
ATOM     77  C   UNL     1       2.895  -1.349  13.912  1.00  0.00     0.023 A 
ATOM     78  C   UNL     1       4.023  -0.765  14.516  1.00  0.00     0.012 A 
ATOM     79  C   UNL     1       2.953  -1.722  12.553  1.00  0.00     0.148 A 
ATOM     80  C   UNL     1       5.202  -0.586  13.796  1.00  0.00     0.002 A 
ATOM     81  C   UNL     1       4.140  -1.560  11.846  1.00  0.00     0.091 A 
ATOM     82  F   UNL     1       1.864  -2.260  11.982  1.00  0.00    -0.205 F 
ATOM     83  C   UNL     1       5.266  -0.996  12.468  1.00  0.00     0.022 A 
BRANCH  81  84
ATOM     84  S   UNL     1       4.342  -2.083  10.138  1.00  0.00     0.127 S 
ATOM     85  O   UNL     1       4.832  -0.860   9.501  1.00  0.00    -0.237 OA
ATOM     86  O   UNL     1       5.341  -3.144  10.267  1.00  0.00    -0.237 OA
ATOM     87  O   UNL     1       3.027  -2.518   9.686  1.00  0.00    -0.744 OA
ENDBRANCH  81  84
ENDBRANCH  54  77
ENDBRANCH  28  29
ENDBRANCH  21  23
ENDBRANCH  20  21
ENDBRANCH  19  20
ENDBRANCH   1  19
TORSDOF 17
