REMARK SMILES O=C(OCCOCCOC(=O)c1ccc2c(=O)n(CCC[NH+]3CCOCC3)c(=O)[nH]c2c1)c1ccc(-c2c3nc(c(-c4cccc(S(=O)(=O)[O-])c4F)c4ccc([nH]4)c(-c4cccc(S(=O)(=O)[O-])c4F)c4nc(c(-c5cccc(S(=O)(=O)[O-])c5F)c5ccc2[nH]5)C=C4)C=C3)cc1
REMARK SMILES IDX 7 1 6 2 5 3 4 4 3 5 2 6 1 7 33 8 34 9 95 10 35 11 94 12
REMARK SMILES IDX 36 13 37 14 38 15 88 16 39 17 93 18 87 19 89 20 40 21 92 22
REMARK SMILES IDX 86 23 85 24 41 26 73 27 53 28 72 29 54 30 57 31 71 32 90 33
REMARK SMILES IDX 55 34 56 35 70 37 91 38 58 39 42 40 43 41 51 42 44 43 46 44
REMARK SMILES IDX 52 45 45 46 47 47 48 48 49 49 50 50 74 51 75 52 83 53 76 54
REMARK SMILES IDX 78 55 84 56 77 57 79 58 80 59 81 60 82 61 59 62 60 63 68 64
REMARK SMILES IDX 61 65 63 66 69 67 62 68 64 69 65 70 66 71 67 72 8 73 9 74
REMARK SMILES IDX 10 75 11 76 12 77 13 78 32 79 14 80 31 81 15 82 30 83 16 84
REMARK SMILES IDX 28 85 17 87 18 88 29 89 19 90 20 91 21 92 22 93 23 94 27 95
REMARK SMILES IDX 24 97 26 98 25 99
REMARK H PARENT 89 25 57 36 30 86 22 96
REMARK Flexibility Score: inf
ROOT
ATOM      1  C   UNL     1       2.639  -1.409  -1.235  1.00  0.00     0.202 C 
ENDROOT
BRANCH   1   2
ATOM      2  O   UNL     1       3.964  -0.952  -0.960  1.00  0.00    -0.374 OA
BRANCH   2   3
ATOM      3  C   UNL     1       4.448  -1.173   0.362  1.00  0.00     0.202 C 
BRANCH   3   4
ATOM      4  C   UNL     1       4.338   0.030   1.299  1.00  0.00     0.261 C 
BRANCH   4   5
ATOM      5  O   UNL     1       2.993   0.496   1.398  1.00  0.00    -0.460 OA
BRANCH   5   6
ATOM      6  C   UNL     1       2.338   1.333   0.562  1.00  0.00     0.338 C 
ATOM      7  O   UNL     1       1.133   1.492   0.764  1.00  0.00    -0.246 OA
BRANCH   6   8
ATOM      8  C   UNL     1       2.947   2.055  -0.610  1.00  0.00     0.060 A 
ATOM      9  C   UNL     1       2.121   3.015  -1.226  1.00  0.00     0.016 A 
ATOM     10  C   UNL     1       4.187   1.802  -1.204  1.00  0.00     0.016 A 
ATOM     11  C   UNL     1       2.489   3.631  -2.424  1.00  0.00     0.010 A 
ATOM     12  C   UNL     1       4.551   2.385  -2.412  1.00  0.00     0.010 A 
ATOM     13  C   UNL     1       3.696   3.287  -3.033  1.00  0.00    -0.014 A 
BRANCH  13  14
ATOM     14  C   UNL     1       4.182   3.950  -4.247  1.00  0.00     0.031 A 
ATOM     15  C   UNL     1       4.113   3.269  -5.575  1.00  0.00     0.074 A 
ATOM     16  C   UNL     1       4.844   5.104  -4.070  1.00  0.00     0.049 A 
ATOM     17  N   UNL     1       4.530   3.701  -6.734  1.00  0.00    -0.248 NA
ATOM     18  C   UNL     1       3.518   1.923  -5.608  1.00  0.00     0.031 C 
ATOM     19  C   UNL     1       5.059   5.750  -2.771  1.00  0.00     0.029 A 
ATOM     20  N   UNL     1       5.497   5.905  -4.960  1.00  0.00    -0.354 N 
ATOM     21  C   UNL     1       4.237   2.692  -7.641  1.00  0.00     0.074 A 
ATOM     22  C   UNL     1       3.643   1.605  -6.891  1.00  0.00     0.031 C 
ATOM     23  C   UNL     1       5.813   6.842  -2.948  1.00  0.00     0.029 A 
ATOM     24  C   UNL     1       6.123   6.971  -4.367  1.00  0.00     0.049 A 
ATOM     25  H   UNL     1       5.518   5.735  -5.930  1.00  0.00     0.167 HD
ATOM     26  C   UNL     1       4.425   2.699  -8.982  1.00  0.00     0.034 A 
ATOM     27  C   UNL     1       6.857   7.954  -4.914  1.00  0.00     0.034 A 
ATOM     28  C   UNL     1       5.046   3.792  -9.684  1.00  0.00     0.049 A 
ATOM     29  C   UNL     1       7.022   7.965  -6.401  1.00  0.00     0.074 A 
ATOM     30  C   UNL     1       5.235   3.952 -11.044  1.00  0.00     0.029 A 
ATOM     31  N   UNL     1       5.598   4.910  -9.069  1.00  0.00    -0.354 N 
ATOM     32  N   UNL     1       6.598   7.083  -7.275  1.00  0.00    -0.248 NA
ATOM     33  C   UNL     1       7.717   9.116  -6.982  1.00  0.00     0.031 C 
ATOM     34  C   UNL     1       5.911   5.161 -11.249  1.00  0.00     0.029 A 
ATOM     35  C   UNL     1       6.129   5.764 -10.019  1.00  0.00     0.049 A 
ATOM     36  H   UNL     1       5.609   5.071  -8.098  1.00  0.00     0.167 HD
ATOM     37  C   UNL     1       6.963   7.575  -8.519  1.00  0.00     0.074 A 
ATOM     38  C   UNL     1       7.625   8.846  -8.279  1.00  0.00     0.031 C 
ATOM     39  C   UNL     1       6.776   7.024  -9.744  1.00  0.00     0.034 A 
BRANCH  26  40
ATOM     40  C   UNL     1       3.877   1.541  -9.776  1.00  0.00     0.023 A 
ATOM     41  C   UNL     1       2.479   1.435  -9.938  1.00  0.00     0.012 A 
ATOM     42  C   UNL     1       4.716   0.609 -10.417  1.00  0.00     0.148 A 
ATOM     43  C   UNL     1       1.923   0.412 -10.706  1.00  0.00     0.002 A 
ATOM     44  C   UNL     1       4.155  -0.393 -11.206  1.00  0.00     0.091 A 
ATOM     45  F   UNL     1       6.041   0.717 -10.244  1.00  0.00    -0.205 F 
ATOM     46  C   UNL     1       2.761  -0.495 -11.346  1.00  0.00     0.022 A 
BRANCH  44  47
ATOM     47  S   UNL     1       5.139  -1.593 -12.113  1.00  0.00     0.127 S 
ATOM     48  O   UNL     1       4.776  -2.840 -11.440  1.00  0.00    -0.237 OA
ATOM     49  O   UNL     1       4.610  -1.458 -13.470  1.00  0.00    -0.237 OA
ATOM     50  O   UNL     1       6.526  -1.183 -11.952  1.00  0.00    -0.744 OA
ENDBRANCH  44  47
ENDBRANCH  26  40
BRANCH  27  51
ATOM     51  C   UNL     1       7.334   9.041  -4.025  1.00  0.00     0.023 A 
ATOM     52  C   UNL     1       6.556  10.209  -3.917  1.00  0.00     0.012 A 
ATOM     53  C   UNL     1       8.413   8.840  -3.142  1.00  0.00     0.148 A 
ATOM     54  C   UNL     1       6.835  11.156  -2.933  1.00  0.00     0.002 A 
ATOM     55  C   UNL     1       8.667   9.774  -2.144  1.00  0.00     0.091 A 
ATOM     56  F   UNL     1       9.117   7.704  -3.253  1.00  0.00    -0.205 F 
ATOM     57  C   UNL     1       7.881  10.933  -2.040  1.00  0.00     0.022 A 
BRANCH  55  58
ATOM     58  S   UNL     1       9.912   9.526  -0.874  1.00  0.00     0.127 S 
ATOM     59  O   UNL     1      10.791  10.674  -1.090  1.00  0.00    -0.237 OA
ATOM     60  O   UNL     1       9.108   9.588   0.347  1.00  0.00    -0.237 OA
ATOM     61  O   UNL     1      10.509   8.226  -1.147  1.00  0.00    -0.744 OA
ENDBRANCH  55  58
ENDBRANCH  27  51
BRANCH  39  62
ATOM     62  C   UNL     1       7.318   7.788 -10.918  1.00  0.00     0.023 A 
ATOM     63  C   UNL     1       8.704   7.774 -11.168  1.00  0.00     0.012 A 
ATOM     64  C   UNL     1       6.454   8.457 -11.805  1.00  0.00     0.148 A 
ATOM     65  C   UNL     1       9.226   8.438 -12.276  1.00  0.00     0.002 A 
ATOM     66  C   UNL     1       6.978   9.086 -12.926  1.00  0.00     0.091 A 
ATOM     67  F   UNL     1       5.141   8.462 -11.534  1.00  0.00    -0.205 F 
ATOM     68  C   UNL     1       8.364   9.085 -13.159  1.00  0.00     0.022 A 
BRANCH  66  69
ATOM     69  S   UNL     1       5.944   9.892 -14.152  1.00  0.00     0.127 S 
ATOM     70  O   UNL     1       6.288  11.299 -13.951  1.00  0.00    -0.237 OA
ATOM     71  O   UNL     1       6.441   9.315 -15.402  1.00  0.00    -0.237 OA
ATOM     72  O   UNL     1       4.571   9.535 -13.822  1.00  0.00    -0.744 OA
ENDBRANCH  66  69
ENDBRANCH  39  62
ENDBRANCH  13  14
ENDBRANCH   6   8
ENDBRANCH   5   6
ENDBRANCH   4   5
ENDBRANCH   3   4
ENDBRANCH   2   3
ENDBRANCH   1   2
BRANCH   1  73
ATOM     73  C   UNL     1       2.663  -2.652  -2.126  1.00  0.00     0.261 C 
BRANCH  73  74
ATOM     74  O   UNL     1       3.313  -3.725  -1.429  1.00  0.00    -0.460 OA
BRANCH  74  75
ATOM     75  C   UNL     1       4.653  -3.768  -1.613  1.00  0.00     0.338 C 
ATOM     76  O   UNL     1       5.333  -3.146  -2.412  1.00  0.00    -0.246 OA
BRANCH  75  77
ATOM     77  C   UNL     1       5.238  -4.571  -0.535  1.00  0.00     0.062 A 
ATOM     78  C   UNL     1       4.759  -5.860  -0.279  1.00  0.00     0.016 A 
ATOM     79  C   UNL     1       6.298  -4.016   0.205  1.00  0.00     0.042 A 
ATOM     80  C   UNL     1       5.450  -6.653   0.624  1.00  0.00     0.017 A 
ATOM     81  C   UNL     1       6.881  -4.765   1.205  1.00  0.00     0.056 A 
ATOM     82  C   UNL     1       6.532  -6.098   1.310  1.00  0.00     0.064 A 
ATOM     83  N   UNL     1       7.786  -4.229   2.123  1.00  0.00    -0.307 N 
ATOM     84  C   UNL     1       7.463  -6.923   2.058  1.00  0.00     0.264 A 
ATOM     85  C   UNL     1       8.292  -4.955   3.181  1.00  0.00     0.328 A 
ATOM     86  H   UNL     1       8.075  -3.295   2.010  1.00  0.00     0.171 HD
ATOM     87  O   UNL     1       7.718  -8.031   1.606  1.00  0.00    -0.268 OA
ATOM     88  N   UNL     1       8.041  -6.320   3.159  1.00  0.00    -0.260 N 
ATOM     89  O   UNL     1       8.942  -4.382   4.054  1.00  0.00    -0.248 OA
BRANCH  88  90
ATOM     90  C   UNL     1       8.617  -7.191   4.176  1.00  0.00     0.137 C 
BRANCH  90  91
ATOM     91  C   UNL     1       7.557  -7.811   5.106  1.00  0.00     0.083 C 
BRANCH  91  92
ATOM     92  C   UNL     1       6.576  -8.801   4.448  1.00  0.00     0.264 C 
BRANCH  92  93
ATOM     93  N   UNL     1       7.235  -9.841   3.661  1.00  0.00    -0.331 N 
ATOM     94  C   UNL     1       6.319 -10.535   2.733  1.00  0.00     0.291 C 
ATOM     95  C   UNL     1       7.982 -10.842   4.429  1.00  0.00     0.291 C 
ATOM     96  H   UNL     1       7.921  -9.304   3.131  1.00  0.00     0.348 HD
ATOM     97  C   UNL     1       5.437 -11.583   3.424  1.00  0.00     0.221 C 
ATOM     98  C   UNL     1       7.066 -11.862   5.115  1.00  0.00     0.221 C 
ATOM     99  O   UNL     1       6.218 -12.528   4.170  1.00  0.00    -0.370 OA
ENDBRANCH  92  93
ENDBRANCH  91  92
ENDBRANCH  90  91
ENDBRANCH  88  90
ENDBRANCH  75  77
ENDBRANCH  74  75
ENDBRANCH  73  74
ENDBRANCH   1  73
TORSDOF 21
