REMARK SMILES CC(C)[C@H](NC(=O)[C@H](C)NC(=O)C[NH3+])C(=O)OCCOCCOC(=O)c1ccc(-c2c3nc(c(-c4cccc(S(=O)(=O)[O-])c4F)c4ccc([nH]4)c(-c4cccc(S(=O)(=O)[O-])c4F)c4nc(c(-c5cccc(S(=O)(=O)[O-])c5F)c5ccc2[nH]5)C=C4)C=C3)cc1
REMARK SMILES IDX 19 1 18 2 17 3 15 4 16 5 4 6 2 7 1 8 3 9 5 10 6 11 7 13 8 14
REMARK SMILES IDX 9 15 10 16 11 17 12 19 13 20 14 21 20 25 21 26 22 27 23 28
REMARK SMILES IDX 24 29 25 30 26 31 27 32 88 33 28 34 87 35 29 36 30 37 31 38
REMARK SMILES IDX 81 39 32 40 86 41 80 42 82 43 33 44 85 45 79 46 78 47 34 49
REMARK SMILES IDX 66 50 46 51 65 52 47 53 50 54 64 55 83 56 48 57 49 58 63 60
REMARK SMILES IDX 84 61 51 62 35 63 36 64 44 65 37 66 39 67 45 68 38 69 40 70
REMARK SMILES IDX 41 71 42 72 43 73 67 74 68 75 76 76 69 77 71 78 77 79 70 80
REMARK SMILES IDX 72 81 73 82 74 83 75 84 52 85 53 86 61 87 54 88 56 89 62 90
REMARK SMILES IDX 55 91 57 92 58 93 59 94 60 95
REMARK H PARENT 5 12 10 18 14 22 14 23 14 24 82 48 50 59
REMARK Flexibility Score: inf
ROOT
ATOM      1  C   UNL     1      -6.219   3.748   0.529  1.00  0.00     0.202 C 
ENDROOT
BRANCH   1   2
ATOM      2  C   UNL     1      -4.809   3.386   1.005  1.00  0.00     0.261 C 
BRANCH   2   3
ATOM      3  O   UNL     1      -3.832   4.384   0.663  1.00  0.00    -0.462 OA
BRANCH   3   4
ATOM      4  C   UNL     1      -3.049   4.046  -0.395  1.00  0.00     0.328 C 
ATOM      5  O   UNL     1      -3.086   2.955  -0.956  1.00  0.00    -0.250 OA
BRANCH   4   6
ATOM      6  C   UNL     1      -2.137   5.192  -0.883  1.00  0.00     0.194 C 
BRANCH   6   7
ATOM      7  C   UNL     1      -0.647   4.809  -0.915  1.00  0.00     0.017 C 
ATOM      8  C   UNL     1      -0.344   3.407  -1.454  1.00  0.00     0.010 C 
ATOM      9  C   UNL     1       0.171   5.830  -1.710  1.00  0.00     0.010 C 
ENDBRANCH   6   7
BRANCH   6  10
ATOM     10  N   UNL     1      -2.441   6.554  -0.371  1.00  0.00    -0.341 N 
ATOM     11  C   UNL     1      -2.175   7.373   0.673  1.00  0.00     0.243 C 
ATOM     12  H   UNL     1      -3.038   7.015  -1.004  1.00  0.00     0.164 HD
ATOM     13  O   UNL     1      -2.822   8.432   0.633  1.00  0.00    -0.273 OA
BRANCH  11  14
ATOM     14  C   UNL     1      -1.297   7.047   1.907  1.00  0.00     0.168 C 
ATOM     15  C   UNL     1      -1.067   8.330   2.723  1.00  0.00     0.041 C 
BRANCH  14  16
ATOM     16  N   UNL     1       0.022   6.502   1.610  1.00  0.00    -0.340 N 
ATOM     17  C   UNL     1       0.623   5.409   2.175  1.00  0.00     0.275 C 
ATOM     18  H   UNL     1       0.543   6.976   0.923  1.00  0.00     0.164 HD
ATOM     19  O   UNL     1       1.815   5.198   1.941  1.00  0.00    -0.268 OA
BRANCH  17  20
ATOM     20  C   UNL     1      -0.225   4.433   2.996  1.00  0.00     0.360 C 
BRANCH  20  21
ATOM     21  N   UNL     1      -0.417   4.947   4.349  1.00  0.00    -0.350 N 
ATOM     22  H   UNL     1       0.490   5.057   4.803  1.00  0.00     0.344 HD
ATOM     23  H   UNL     1      -0.987   4.292   4.884  1.00  0.00     0.344 HD
ATOM     24  H   UNL     1      -0.888   5.851   4.306  1.00  0.00     0.344 HD
ENDBRANCH  20  21
ENDBRANCH  17  20
ENDBRANCH  14  16
ENDBRANCH  11  14
ENDBRANCH   6  10
ENDBRANCH   4   6
ENDBRANCH   3   4
ENDBRANCH   2   3
ENDBRANCH   1   2
BRANCH   1  25
ATOM     25  O   UNL     1      -6.389   4.057  -0.853  1.00  0.00    -0.374 OA
BRANCH  25  26
ATOM     26  C   UNL     1      -5.989   5.351  -1.305  1.00  0.00     0.202 C 
BRANCH  26  27
ATOM     27  C   UNL     1      -6.834   6.556  -0.878  1.00  0.00     0.261 C 
BRANCH  27  28
ATOM     28  O   UNL     1      -6.766   6.788   0.538  1.00  0.00    -0.460 OA
BRANCH  28  29
ATOM     29  C   UNL     1      -7.932   6.585   1.190  1.00  0.00     0.338 C 
ATOM     30  O   UNL     1      -9.019   6.318   0.684  1.00  0.00    -0.246 OA
BRANCH  29  31
ATOM     31  C   UNL     1      -7.716   6.518   2.646  1.00  0.00     0.060 A 
ATOM     32  C   UNL     1      -8.301   5.437   3.320  1.00  0.00     0.016 A 
ATOM     33  C   UNL     1      -7.064   7.530   3.353  1.00  0.00     0.016 A 
ATOM     34  C   UNL     1      -8.338   5.422   4.709  1.00  0.00     0.010 A 
ATOM     35  C   UNL     1      -7.106   7.516   4.752  1.00  0.00     0.010 A 
ATOM     36  C   UNL     1      -7.806   6.499   5.428  1.00  0.00    -0.014 A 
BRANCH  36  37
ATOM     37  C   UNL     1      -8.211   6.657   6.846  1.00  0.00     0.031 A 
ATOM     38  C   UNL     1      -9.350   7.592   7.165  1.00  0.00     0.074 A 
ATOM     39  C   UNL     1      -7.641   5.926   7.818  1.00  0.00     0.049 A 
ATOM     40  N   UNL     1      -9.933   7.827   8.311  1.00  0.00    -0.248 NA
ATOM     41  C   UNL     1      -9.910   8.361   6.040  1.00  0.00     0.031 C 
ATOM     42  C   UNL     1      -6.542   4.981   7.630  1.00  0.00     0.029 A 
ATOM     43  N   UNL     1      -7.911   5.869   9.162  1.00  0.00    -0.354 N 
ATOM     44  C   UNL     1     -10.908   8.784   8.051  1.00  0.00     0.074 A 
ATOM     45  C   UNL     1     -10.827   9.102   6.643  1.00  0.00     0.031 C 
ATOM     46  C   UNL     1      -6.219   4.448   8.822  1.00  0.00     0.029 A 
ATOM     47  C   UNL     1      -7.082   5.020   9.854  1.00  0.00     0.049 A 
ATOM     48  H   UNL     1      -8.631   6.387   9.589  1.00  0.00     0.167 HD
ATOM     49  C   UNL     1     -11.809   9.332   8.900  1.00  0.00     0.034 A 
ATOM     50  C   UNL     1      -7.027   4.741  11.172  1.00  0.00     0.034 A 
ATOM     51  C   UNL     1     -11.909   8.994  10.293  1.00  0.00     0.049 A 
ATOM     52  C   UNL     1      -8.042   5.363  12.097  1.00  0.00     0.074 A 
ATOM     53  C   UNL     1     -12.806   9.469  11.232  1.00  0.00     0.029 A 
ATOM     54  N   UNL     1     -11.080   8.096  10.947  1.00  0.00    -0.354 N 
ATOM     55  N   UNL     1      -9.030   6.178  11.812  1.00  0.00    -0.248 NA
ATOM     56  C   UNL     1      -7.963   4.991  13.517  1.00  0.00     0.031 C 
ATOM     57  C   UNL     1     -12.508   8.870  12.461  1.00  0.00     0.029 A 
ATOM     58  C   UNL     1     -11.443   8.002  12.279  1.00  0.00     0.049 A 
ATOM     59  H   UNL     1     -10.342   7.598  10.526  1.00  0.00     0.167 HD
ATOM     60  C   UNL     1      -9.716   6.379  13.006  1.00  0.00     0.074 A 
ATOM     61  C   UNL     1      -9.039   5.587  14.013  1.00  0.00     0.031 C 
ATOM     62  C   UNL     1     -10.800   7.157  13.251  1.00  0.00     0.034 A 
BRANCH  49  63
ATOM     63  C   UNL     1     -12.779  10.335   8.334  1.00  0.00     0.023 A 
ATOM     64  C   UNL     1     -13.833   9.896   7.507  1.00  0.00     0.012 A 
ATOM     65  C   UNL     1     -12.676  11.702   8.655  1.00  0.00     0.148 A 
ATOM     66  C   UNL     1     -14.750  10.806   6.982  1.00  0.00     0.002 A 
ATOM     67  C   UNL     1     -13.619  12.597   8.164  1.00  0.00     0.091 A 
ATOM     68  F   UNL     1     -11.652  12.104   9.421  1.00  0.00    -0.205 F 
ATOM     69  C   UNL     1     -14.650  12.153   7.319  1.00  0.00     0.022 A 
BRANCH  67  70
ATOM     70  S   UNL     1     -13.619  14.339   8.603  1.00  0.00     0.127 S 
ATOM     71  O   UNL     1     -13.178  14.958   7.354  1.00  0.00    -0.237 OA
ATOM     72  O   UNL     1     -15.024  14.574   8.937  1.00  0.00    -0.237 OA
ATOM     73  O   UNL     1     -12.700  14.469   9.725  1.00  0.00    -0.744 OA
ENDBRANCH  67  70
ENDBRANCH  49  63
BRANCH  50  74
ATOM     74  C   UNL     1      -6.010   3.781  11.687  1.00  0.00     0.023 A 
ATOM     75  C   UNL     1      -6.419   2.526  12.178  1.00  0.00     0.012 A 
ATOM     76  C   UNL     1      -4.639   4.101  11.678  1.00  0.00     0.148 A 
ATOM     77  C   UNL     1      -5.485   1.620  12.681  1.00  0.00     0.002 A 
ATOM     78  C   UNL     1      -3.708   3.172  12.128  1.00  0.00     0.091 A 
ATOM     79  F   UNL     1      -4.270   5.307  11.224  1.00  0.00    -0.205 F 
ATOM     80  C   UNL     1      -4.130   1.938  12.647  1.00  0.00     0.022 A 
BRANCH  78  81
ATOM     81  S   UNL     1      -1.938   3.445  11.994  1.00  0.00     0.127 S 
ATOM     82  O   UNL     1      -1.564   3.675  13.386  1.00  0.00    -0.237 OA
ATOM     83  O   UNL     1      -1.477   2.175  11.432  1.00  0.00    -0.237 OA
ATOM     84  O   UNL     1      -1.785   4.583  11.098  1.00  0.00    -0.744 OA
ENDBRANCH  78  81
ENDBRANCH  50  74
BRANCH  62  85
ATOM     85  C   UNL     1     -11.361   7.155  14.649  1.00  0.00     0.023 A 
ATOM     86  C   UNL     1     -10.668   7.806  15.688  1.00  0.00     0.012 A 
ATOM     87  C   UNL     1     -12.614   6.568  14.917  1.00  0.00     0.148 A 
ATOM     88  C   UNL     1     -11.194   7.840  16.979  1.00  0.00     0.002 A 
ATOM     89  C   UNL     1     -13.155   6.648  16.195  1.00  0.00     0.091 A 
ATOM     90  F   UNL     1     -13.252   5.934  13.921  1.00  0.00    -0.205 F 
ATOM     91  C   UNL     1     -12.441   7.272  17.230  1.00  0.00     0.022 A 
BRANCH  89  92
ATOM     92  S   UNL     1     -14.798   6.028  16.575  1.00  0.00     0.127 S 
ATOM     93  O   UNL     1     -14.493   4.757  17.230  1.00  0.00    -0.237 OA
ATOM     94  O   UNL     1     -15.327   7.062  17.465  1.00  0.00    -0.237 OA
ATOM     95  O   UNL     1     -15.488   5.929  15.296  1.00  0.00    -0.744 OA
ENDBRANCH  89  92
ENDBRANCH  62  85
ENDBRANCH  36  37
ENDBRANCH  29  31
ENDBRANCH  28  29
ENDBRANCH  27  28
ENDBRANCH  26  27
ENDBRANCH  25  26
ENDBRANCH   1  25
TORSDOF 23
