REMARK SMILES O=C(CCN1C(=O)S/C(=C\c2ccccc2F)C1=O)Nc1ccc(C(=O)OCCOCCOC(=O)c2ccc(-c3c4nc(c(-c5cccc(S(=O)(=O)[O-])c5F)c5ccc([nH]5)c(-c5cccc(S(=O)(=O)[O-])c5F)c5nc(c(-c6cccc(S(=O)(=O)[O-])c6F)c6ccc3[nH]6)C=C5)C=C4)cc2)c(O)c1
REMARK SMILES IDX 29 1 28 2 27 3 25 4 26 5 24 6 21 7 22 8 101 9 23 10 99 11
REMARK SMILES IDX 20 12 1 13 2 14 3 16 4 17 5 18 6 19 18 20 7 21 8 22 9 23
REMARK SMILES IDX 19 24 10 25 11 26 12 27 16 28 13 29 15 30 17 31 14 32 100 33
REMARK SMILES IDX 30 35 31 36 32 37 33 38 34 39 35 40 36 41 37 42 98 43 38 44
REMARK SMILES IDX 97 45 39 46 40 47 41 48 91 49 42 50 96 51 90 52 92 53 43 54
REMARK SMILES IDX 95 55 89 56 88 57 44 59 76 60 56 61 75 62 57 63 60 64 74 65
REMARK SMILES IDX 93 66 58 67 59 68 73 70 94 71 61 72 45 73 46 74 54 75 47 76
REMARK SMILES IDX 49 77 55 78 48 79 50 80 51 81 52 82 53 83 77 84 78 85 86 86
REMARK SMILES IDX 79 87 81 88 87 89 80 90 82 91 83 92 84 93 85 94 62 95 63 96
REMARK SMILES IDX 71 97 64 98 66 99 72 100 65 101 67 102 68 103 69 104 70 105
REMARK H PARENT 20 15 100 34 92 58 60 69
REMARK Flexibility Score: inf
ROOT
ATOM      1  C   UNL     1      -0.988  -8.221  -2.463  1.00  0.00     0.202 C 
ENDROOT
BRANCH   1   2
ATOM      2  C   UNL     1       0.352  -7.968  -3.165  1.00  0.00     0.261 C 
BRANCH   2   3
ATOM      3  O   UNL     1       1.058  -6.855  -2.597  1.00  0.00    -0.460 OA
BRANCH   3   4
ATOM      4  C   UNL     1       1.020  -5.723  -3.348  1.00  0.00     0.341 C 
ATOM      5  O   UNL     1       0.578  -5.607  -4.479  1.00  0.00    -0.246 OA
BRANCH   4   6
ATOM      6  C   UNL     1       1.442  -4.567  -2.529  1.00  0.00     0.101 A 
ATOM      7  C   UNL     1       2.212  -2.240  -1.175  1.00  0.00     0.044 A 
ATOM      8  C   UNL     1       1.153  -2.189  -2.072  1.00  0.00     0.027 A 
ATOM      9  C   UNL     1       2.835  -3.466  -0.909  1.00  0.00     0.073 A 
ATOM     10  C   UNL     1       0.791  -3.344  -2.771  1.00  0.00     0.022 A 
ATOM     11  C   UNL     1       2.427  -4.632  -1.548  1.00  0.00     0.132 A 
BRANCH   7  12
ATOM     12  N   UNL     1       2.761  -1.107  -0.560  1.00  0.00    -0.326 N 
ATOM     13  O   UNL     1       0.977   0.369  -0.483  1.00  0.00    -0.275 OA
ATOM     14  C   UNL     1       2.158   0.099  -0.291  1.00  0.00     0.226 C 
ATOM     15  H   UNL     1       3.704  -1.185  -0.285  1.00  0.00     0.169 HD
BRANCH  14  16
ATOM     16  C   UNL     1       3.128   1.145   0.246  1.00  0.00     0.122 C 
BRANCH  16  17
ATOM     17  C   UNL     1       3.848   0.768   1.549  1.00  0.00     0.140 C 
BRANCH  17  18
ATOM     18  N   UNL     1       4.925  -0.204   1.370  1.00  0.00    -0.268 N 
ATOM     19  C   UNL     1       6.115   0.149   0.782  1.00  0.00     0.293 C 
ATOM     20  C   UNL     1       4.814  -1.507   1.805  1.00  0.00     0.268 C 
ATOM     21  O   UNL     1       6.430   1.258   0.388  1.00  0.00    -0.261 OA
ATOM     22  S   UNL     1       7.140  -1.262   0.608  1.00  0.00    -0.022 SA
ATOM     23  C   UNL     1       5.975  -2.302   1.324  1.00  0.00     0.083 C 
ATOM     24  O   UNL     1       3.847  -1.980   2.383  1.00  0.00    -0.268 OA
ATOM     25  C   UNL     1       5.960  -3.642   1.358  1.00  0.00     0.032 C 
BRANCH  25  26
ATOM     26  C   UNL     1       6.993  -4.531   0.820  1.00  0.00     0.012 A 
ATOM     27  C   UNL     1       6.697  -5.375  -0.259  1.00  0.00     0.011 A 
ATOM     28  C   UNL     1       8.264  -4.597   1.399  1.00  0.00     0.130 A 
ATOM     29  C   UNL     1       7.666  -6.259  -0.746  1.00  0.00     0.001 A 
ATOM     30  C   UNL     1       9.230  -5.474   0.917  1.00  0.00     0.040 A 
ATOM     31  F   UNL     1       8.565  -3.818   2.450  1.00  0.00    -0.206 F 
ATOM     32  C   UNL     1       8.930  -6.309  -0.158  1.00  0.00     0.003 A 
ENDBRANCH  25  26
ENDBRANCH  17  18
ENDBRANCH  16  17
ENDBRANCH  14  16
ENDBRANCH   7  12
BRANCH  11  33
ATOM     33  O   UNL     1       3.052  -5.779  -1.151  1.00  0.00    -0.507 OA
ATOM     34  H   UNL     1       2.822  -6.598  -1.544  1.00  0.00     0.293 HD
ENDBRANCH  11  33
ENDBRANCH   4   6
ENDBRANCH   3   4
ENDBRANCH   2   3
ENDBRANCH   1   2
BRANCH   1  35
ATOM     35  O   UNL     1      -1.937  -7.156  -2.434  1.00  0.00    -0.374 OA
BRANCH  35  36
ATOM     36  C   UNL     1      -1.729  -6.099  -1.497  1.00  0.00     0.202 C 
BRANCH  36  37
ATOM     37  C   UNL     1      -2.017  -6.364  -0.014  1.00  0.00     0.261 C 
BRANCH  37  38
ATOM     38  O   UNL     1      -1.227  -7.431   0.532  1.00  0.00    -0.460 OA
BRANCH  38  39
ATOM     39  C   UNL     1      -1.922  -8.573   0.761  1.00  0.00     0.338 C 
ATOM     40  O   UNL     1      -3.118  -8.751   0.598  1.00  0.00    -0.246 OA
BRANCH  39  41
ATOM     41  C   UNL     1      -0.996  -9.678   1.065  1.00  0.00     0.060 A 
ATOM     42  C   UNL     1      -1.086 -10.825   0.268  1.00  0.00     0.016 A 
ATOM     43  C   UNL     1      -0.117  -9.631   2.149  1.00  0.00     0.016 A 
ATOM     44  C   UNL     1      -0.335 -11.952   0.585  1.00  0.00     0.010 A 
ATOM     45  C   UNL     1       0.635 -10.768   2.466  1.00  0.00     0.010 A 
ATOM     46  C   UNL     1       0.502 -11.945   1.708  1.00  0.00    -0.014 A 
BRANCH  46  47
ATOM     47  C   UNL     1       1.161 -13.208   2.124  1.00  0.00     0.031 A 
ATOM     48  C   UNL     1       0.631 -13.972   3.306  1.00  0.00     0.074 A 
ATOM     49  C   UNL     1       2.201 -13.690   1.418  1.00  0.00     0.049 A 
ATOM     50  N   UNL     1       1.037 -15.114   3.796  1.00  0.00    -0.248 NA
ATOM     51  C   UNL     1      -0.504 -13.378   4.031  1.00  0.00     0.031 C 
ATOM     52  C   UNL     1       2.797 -13.037   0.253  1.00  0.00     0.029 A 
ATOM     53  N   UNL     1       2.942 -14.833   1.581  1.00  0.00    -0.354 N 
ATOM     54  C   UNL     1       0.227 -15.366   4.896  1.00  0.00     0.074 A 
ATOM     55  C   UNL     1      -0.686 -14.250   5.014  1.00  0.00     0.031 C 
ATOM     56  C   UNL     1       3.818 -13.788  -0.191  1.00  0.00     0.029 A 
ATOM     57  C   UNL     1       3.967 -14.958   0.673  1.00  0.00     0.049 A 
ATOM     58  H   UNL     1       2.757 -15.500   2.281  1.00  0.00     0.167 HD
ATOM     59  C   UNL     1       0.233 -16.439   5.721  1.00  0.00     0.034 A 
ATOM     60  C   UNL     1       4.926 -15.899   0.557  1.00  0.00     0.034 A 
ATOM     61  C   UNL     1       1.127 -17.556   5.583  1.00  0.00     0.049 A 
ATOM     62  C   UNL     1       4.922 -17.074   1.498  1.00  0.00     0.074 A 
ATOM     63  C   UNL     1       1.172 -18.714   6.340  1.00  0.00     0.029 A 
ATOM     64  N   UNL     1       2.138 -17.655   4.640  1.00  0.00    -0.354 N 
ATOM     65  N   UNL     1       4.082 -17.347   2.467  1.00  0.00    -0.248 NA
ATOM     66  C   UNL     1       5.972 -18.086   1.314  1.00  0.00     0.031 C 
ATOM     67  C   UNL     1       2.238 -19.492   5.884  1.00  0.00     0.029 A 
ATOM     68  C   UNL     1       2.824 -18.845   4.807  1.00  0.00     0.049 A 
ATOM     69  H   UNL     1       2.339 -16.979   3.953  1.00  0.00     0.167 HD
ATOM     70  C   UNL     1       4.476 -18.578   2.981  1.00  0.00     0.074 A 
ATOM     71  C   UNL     1       5.627 -19.002   2.212  1.00  0.00     0.031 C 
ATOM     72  C   UNL     1       3.934 -19.286   4.001  1.00  0.00     0.034 A 
BRANCH  59  73
ATOM     73  C   UNL     1      -0.777 -16.489   6.839  1.00  0.00     0.023 A 
ATOM     74  C   UNL     1      -2.133 -16.736   6.545  1.00  0.00     0.012 A 
ATOM     75  C   UNL     1      -0.363 -16.412   8.184  1.00  0.00     0.148 A 
ATOM     76  C   UNL     1      -3.064 -16.890   7.572  1.00  0.00     0.002 A 
ATOM     77  C   UNL     1      -1.287 -16.615   9.201  1.00  0.00     0.091 A 
ATOM     78  F   UNL     1       0.929 -16.159   8.440  1.00  0.00    -0.205 F 
ATOM     79  C   UNL     1      -2.639 -16.844   8.898  1.00  0.00     0.022 A 
BRANCH  77  80
ATOM     80  S   UNL     1      -0.824 -16.669  10.936  1.00  0.00     0.127 S 
ATOM     81  O   UNL     1      -1.488 -15.473  11.455  1.00  0.00    -0.237 OA
ATOM     82  O   UNL     1      -1.417 -17.933  11.372  1.00  0.00    -0.237 OA
ATOM     83  O   UNL     1       0.631 -16.634  10.968  1.00  0.00    -0.744 OA
ENDBRANCH  77  80
ENDBRANCH  59  73
BRANCH  60  84
ATOM     84  C   UNL     1       5.937 -15.781  -0.531  1.00  0.00     0.023 A 
ATOM     85  C   UNL     1       5.912 -16.684  -1.610  1.00  0.00     0.012 A 
ATOM     86  C   UNL     1       6.881 -14.735  -0.532  1.00  0.00     0.148 A 
ATOM     87  C   UNL     1       6.819 -16.557  -2.664  1.00  0.00     0.002 A 
ATOM     88  C   UNL     1       7.739 -14.576  -1.614  1.00  0.00     0.091 A 
ATOM     89  F   UNL     1       6.897 -13.894   0.512  1.00  0.00    -0.205 F 
ATOM     90  C   UNL     1       7.721 -15.496  -2.673  1.00  0.00     0.022 A 
BRANCH  88  91
ATOM     91  S   UNL     1       8.826 -13.156  -1.782  1.00  0.00     0.127 S 
ATOM     92  O   UNL     1      10.146 -13.775  -1.688  1.00  0.00    -0.237 OA
ATOM     93  O   UNL     1       8.468 -12.661  -3.112  1.00  0.00    -0.237 OA
ATOM     94  O   UNL     1       8.475 -12.254  -0.693  1.00  0.00    -0.744 OA
ENDBRANCH  88  91
ENDBRANCH  60  84
BRANCH  72  95
ATOM     95  C   UNL     1       4.530 -20.627   4.343  1.00  0.00     0.023 A 
ATOM     96  C   UNL     1       5.766 -20.699   5.015  1.00  0.00     0.012 A 
ATOM     97  C   UNL     1       3.787 -21.807   4.131  1.00  0.00     0.148 A 
ATOM     98  C   UNL     1       6.258 -21.926   5.460  1.00  0.00     0.002 A 
ATOM     99  C   UNL     1       4.258 -23.017   4.625  1.00  0.00     0.091 A 
ATOM    100  F   UNL     1       2.619 -21.715   3.478  1.00  0.00    -0.205 F 
ATOM    101  C   UNL     1       5.497 -23.080   5.280  1.00  0.00     0.022 A 
BRANCH  99 102
ATOM    102  S   UNL     1       3.299 -24.534   4.542  1.00  0.00     0.127 S 
ATOM    103  O   UNL     1       4.107 -25.347   3.633  1.00  0.00    -0.237 OA
ATOM    104  O   UNL     1       3.310 -24.982   5.934  1.00  0.00    -0.237 OA
ATOM    105  O   UNL     1       1.987 -24.158   4.034  1.00  0.00    -0.744 OA
ENDBRANCH  99 102
ENDBRANCH  72  95
ENDBRANCH  46  47
ENDBRANCH  39  41
ENDBRANCH  38  39
ENDBRANCH  37  38
ENDBRANCH  36  37
ENDBRANCH  35  36
ENDBRANCH   1  35
TORSDOF 23
