REMARK SMILES Cc1cccc(-c2cc(OCC(=O)OCCOCCOC(=O)c3ccc(-c4c5nc(c(-c6cccc(S(=O)(=O)[O-])c6F)c6ccc([nH]6)c(-c6cccc(S(=O)(=O)[O-])c6F)c6nc(c(-c7cccc(S(=O)(=O)[O-])c7F)c7ccc4[nH]7)C=C6)C=C5)cc3)nc(Nc3ccccc3C)n2)c1
REMARK SMILES IDX 16 1 15 2 14 3 12 4 13 5 11 6 10 7 9 8 7 9 8 10 96 11 87 12
REMARK SMILES IDX 86 13 6 14 1 15 2 16 3 17 97 18 4 19 5 20 88 21 89 23 90 24
REMARK SMILES IDX 94 25 91 26 93 27 95 28 92 29 17 30 18 31 19 32 20 33 21 34
REMARK SMILES IDX 22 35 23 36 24 37 85 38 25 39 84 40 26 41 27 42 28 43 78 44
REMARK SMILES IDX 29 45 83 46 77 47 79 48 30 49 82 50 76 51 75 52 31 54 63 55
REMARK SMILES IDX 43 56 62 57 44 58 47 59 61 60 80 61 45 62 46 63 60 65 81 66
REMARK SMILES IDX 48 67 32 68 33 69 41 70 34 71 36 72 42 73 35 74 37 75 38 76
REMARK SMILES IDX 39 77 40 78 64 79 65 80 73 81 66 82 68 83 74 84 67 85 69 86
REMARK SMILES IDX 70 87 71 88 72 89 49 90 50 91 58 92 51 93 53 94 59 95 52 96
REMARK SMILES IDX 54 97 55 98 56 99 57 100
REMARK H PARENT 88 22 79 53 47 64
REMARK Flexibility Score: inf
ROOT
ATOM      1  C   UNL     1       0.181   6.285   0.445  1.00  0.00     0.202 C 
ENDROOT
BRANCH   1   2
ATOM      2  C   UNL     1      -0.128   6.436  -1.018  1.00  0.00     0.261 C 
BRANCH   2   3
ATOM      3  O   UNL     1      -1.362   5.864  -1.493  1.00  0.00    -0.461 OA
BRANCH   3   4
ATOM      4  C   UNL     1      -1.244   5.060  -2.593  1.00  0.00     0.344 C 
ATOM      5  O   UNL     1      -0.201   4.665  -3.081  1.00  0.00    -0.248 OA
BRANCH   4   6
ATOM      6  C   UNL     1      -2.580   4.744  -3.248  1.00  0.00     0.353 C 
BRANCH   6   7
ATOM      7  O   UNL     1      -3.702   4.433  -2.451  1.00  0.00    -0.466 OA
BRANCH   7   8
ATOM      8  C   UNL     1      -3.438   3.596  -1.405  1.00  0.00     0.219 A 
ATOM      9  C   UNL     1      -2.609   1.683  -0.358  1.00  0.00     0.080 A 
ATOM     10  C   UNL     1      -2.754   2.405  -1.524  1.00  0.00     0.097 A 
ATOM     11  N   UNL     1      -3.098   2.134   0.819  1.00  0.00    -0.212 NA
ATOM     12  C   UNL     1      -3.741   3.315   0.836  1.00  0.00     0.231 A 
ATOM     13  N   UNL     1      -3.942   4.055  -0.253  1.00  0.00    -0.177 NA
BRANCH   9  14
ATOM     14  C   UNL     1      -1.855   0.416  -0.291  1.00  0.00     0.001 A 
ATOM     15  C   UNL     1       1.777  -0.700   0.298  1.00  0.00     0.044 C 
ATOM     16  C   UNL     1       0.294  -0.761   0.057  1.00  0.00    -0.050 A 
ATOM     17  C   UNL     1      -0.358  -1.982  -0.063  1.00  0.00     0.003 A 
ATOM     18  C   UNL     1      -0.464   0.410  -0.094  1.00  0.00     0.013 A 
ATOM     19  C   UNL     1      -1.738  -2.015  -0.279  1.00  0.00     0.001 A 
ATOM     20  C   UNL     1      -2.481  -0.830  -0.380  1.00  0.00     0.010 A 
ENDBRANCH   9  14
BRANCH  12  21
ATOM     21  N   UNL     1      -4.236   3.860   2.025  1.00  0.00    -0.324 N 
ATOM     22  H   UNL     1      -4.377   4.834   2.057  1.00  0.00     0.170 HD
BRANCH  21  23
ATOM     23  C   UNL     1      -4.546   3.121   3.172  1.00  0.00     0.044 A 
ATOM     24  C   UNL     1      -5.803   2.511   3.263  1.00  0.00     0.026 A 
ATOM     25  C   UNL     1      -3.601   2.904   4.190  1.00  0.00    -0.027 A 
ATOM     26  C   UNL     1      -6.080   1.611   4.290  1.00  0.00     0.002 A 
ATOM     27  C   UNL     1      -3.873   1.968   5.195  1.00  0.00     0.005 A 
ATOM     28  C   UNL     1      -2.316   3.674   4.229  1.00  0.00     0.046 C 
ATOM     29  C   UNL     1      -5.102   1.312   5.233  1.00  0.00     0.000 A 
ENDBRANCH  21  23
ENDBRANCH  12  21
ENDBRANCH   7   8
ENDBRANCH   6   7
ENDBRANCH   4   6
ENDBRANCH   3   4
ENDBRANCH   2   3
ENDBRANCH   1   2
BRANCH   1  30
ATOM     30  O   UNL     1       0.735   5.007   0.650  1.00  0.00    -0.374 OA
BRANCH  30  31
ATOM     31  C   UNL     1      -0.187   3.946   0.660  1.00  0.00     0.202 C 
BRANCH  31  32
ATOM     32  C   UNL     1       0.198   3.153   1.900  1.00  0.00     0.261 C 
BRANCH  32  33
ATOM     33  O   UNL     1       1.430   2.413   1.770  1.00  0.00    -0.460 OA
BRANCH  33  34
ATOM     34  C   UNL     1       2.582   3.132   1.869  1.00  0.00     0.338 C 
ATOM     35  O   UNL     1       3.126   3.392   2.940  1.00  0.00    -0.246 OA
BRANCH  34  36
ATOM     36  C   UNL     1       3.084   3.487   0.516  1.00  0.00     0.060 A 
ATOM     37  C   UNL     1       3.894   4.611   0.327  1.00  0.00     0.016 A 
ATOM     38  C   UNL     1       2.522   2.845  -0.588  1.00  0.00     0.016 A 
ATOM     39  C   UNL     1       4.000   5.177  -0.948  1.00  0.00     0.010 A 
ATOM     40  C   UNL     1       2.516   3.473  -1.810  1.00  0.00     0.010 A 
ATOM     41  C   UNL     1       3.245   4.652  -1.990  1.00  0.00    -0.014 A 
BRANCH  41  42
ATOM     42  C   UNL     1       3.295   5.106  -3.371  1.00  0.00     0.031 A 
ATOM     43  C   UNL     1       4.144   4.309  -4.272  1.00  0.00     0.074 A 
ATOM     44  C   UNL     1       2.430   6.019  -3.868  1.00  0.00     0.049 A 
ATOM     45  N   UNL     1       4.483   4.702  -5.444  1.00  0.00    -0.248 NA
ATOM     46  C   UNL     1       4.692   2.998  -3.925  1.00  0.00     0.031 C 
ATOM     47  C   UNL     1       1.985   6.203  -5.248  1.00  0.00     0.029 A 
ATOM     48  N   UNL     1       1.656   6.970  -3.193  1.00  0.00    -0.354 N 
ATOM     49  C   UNL     1       4.996   3.614  -6.105  1.00  0.00     0.074 A 
ATOM     50  C   UNL     1       5.207   2.610  -5.093  1.00  0.00     0.031 C 
ATOM     51  C   UNL     1       1.298   7.359  -5.339  1.00  0.00     0.029 A 
ATOM     52  C   UNL     1       1.432   8.044  -4.061  1.00  0.00     0.049 A 
ATOM     53  H   UNL     1       1.327   6.896  -2.268  1.00  0.00     0.167 HD
ATOM     54  C   UNL     1       5.014   3.646  -7.465  1.00  0.00     0.034 A 
ATOM     55  C   UNL     1       1.966   9.273  -3.811  1.00  0.00     0.034 A 
ATOM     56  C   UNL     1       4.454   4.930  -7.955  1.00  0.00     0.049 A 
ATOM     57  C   UNL     1       2.979   9.625  -4.874  1.00  0.00     0.074 A 
ATOM     58  C   UNL     1       3.233   5.319  -8.487  1.00  0.00     0.029 A 
ATOM     59  N   UNL     1       5.073   6.116  -7.569  1.00  0.00    -0.354 N 
ATOM     60  N   UNL     1       3.155   8.930  -5.964  1.00  0.00    -0.248 NA
ATOM     61  C   UNL     1       3.934  10.718  -4.755  1.00  0.00     0.031 C 
ATOM     62  C   UNL     1       3.142   6.750  -8.420  1.00  0.00     0.029 A 
ATOM     63  C   UNL     1       4.315   7.241  -7.873  1.00  0.00     0.049 A 
ATOM     64  H   UNL     1       5.952   6.153  -7.127  1.00  0.00     0.167 HD
ATOM     65  C   UNL     1       4.328   9.285  -6.555  1.00  0.00     0.074 A 
ATOM     66  C   UNL     1       4.752  10.454  -5.788  1.00  0.00     0.031 C 
ATOM     67  C   UNL     1       4.887   8.559  -7.576  1.00  0.00     0.034 A 
BRANCH  54  68
ATOM     68  C   UNL     1       5.253   2.420  -8.329  1.00  0.00     0.023 A 
ATOM     69  C   UNL     1       4.705   2.436  -9.628  1.00  0.00     0.012 A 
ATOM     70  C   UNL     1       5.950   1.237  -7.966  1.00  0.00     0.148 A 
ATOM     71  C   UNL     1       4.763   1.331 -10.485  1.00  0.00     0.002 A 
ATOM     72  C   UNL     1       5.947   0.106  -8.793  1.00  0.00     0.091 A 
ATOM     73  F   UNL     1       6.702   1.216  -6.860  1.00  0.00    -0.205 F 
ATOM     74  C   UNL     1       5.354   0.153 -10.056  1.00  0.00     0.022 A 
BRANCH  72  75
ATOM     75  S   UNL     1       6.614  -1.488  -8.270  1.00  0.00     0.127 S 
ATOM     76  O   UNL     1       5.564  -2.419  -8.695  1.00  0.00    -0.237 OA
ATOM     77  O   UNL     1       7.851  -1.584  -9.040  1.00  0.00    -0.237 OA
ATOM     78  O   UNL     1       6.768  -1.400  -6.823  1.00  0.00    -0.744 OA
ENDBRANCH  72  75
ENDBRANCH  54  68
BRANCH  55  79
ATOM     79  C   UNL     1       2.046   9.626  -2.350  1.00  0.00     0.023 A 
ATOM     80  C   UNL     1       0.837   9.923  -1.669  1.00  0.00     0.012 A 
ATOM     81  C   UNL     1       3.190   9.344  -1.579  1.00  0.00     0.148 A 
ATOM     82  C   UNL     1       0.746   9.836  -0.273  1.00  0.00     0.002 A 
ATOM     83  C   UNL     1       3.086   9.232  -0.192  1.00  0.00     0.091 A 
ATOM     84  F   UNL     1       4.352   9.145  -2.214  1.00  0.00    -0.205 F 
ATOM     85  C   UNL     1       1.863   9.457   0.460  1.00  0.00     0.022 A 
BRANCH  83  86
ATOM     86  S   UNL     1       4.444   8.653   0.837  1.00  0.00     0.127 S 
ATOM     87  O   UNL     1       4.816   9.876   1.545  1.00  0.00    -0.237 OA
ATOM     88  O   UNL     1       3.787   7.644   1.668  1.00  0.00    -0.237 OA
ATOM     89  O   UNL     1       5.441   8.131  -0.084  1.00  0.00    -0.744 OA
ENDBRANCH  83  86
ENDBRANCH  55  79
BRANCH  67  90
ATOM     90  C   UNL     1       6.116   9.020  -8.331  1.00  0.00     0.023 A 
ATOM     91  C   UNL     1       6.461  10.381  -8.396  1.00  0.00     0.012 A 
ATOM     92  C   UNL     1       6.922   8.133  -9.086  1.00  0.00     0.148 A 
ATOM     93  C   UNL     1       7.648  10.815  -8.988  1.00  0.00     0.002 A 
ATOM     94  C   UNL     1       8.087   8.564  -9.702  1.00  0.00     0.091 A 
ATOM     95  F   UNL     1       6.539   6.870  -9.283  1.00  0.00    -0.205 F 
ATOM     96  C   UNL     1       8.479   9.899  -9.614  1.00  0.00     0.022 A 
BRANCH  94  97
ATOM     97  S   UNL     1       9.112   7.455 -10.674  1.00  0.00     0.127 S 
ATOM     98  O   UNL     1       8.940   8.010 -12.017  1.00  0.00    -0.237 OA
ATOM     99  O   UNL     1      10.431   7.677 -10.082  1.00  0.00    -0.237 OA
ATOM    100  O   UNL     1       8.573   6.117 -10.483  1.00  0.00    -0.744 OA
ENDBRANCH  94  97
ENDBRANCH  67  90
ENDBRANCH  41  42
ENDBRANCH  34  36
ENDBRANCH  33  34
ENDBRANCH  32  33
ENDBRANCH  31  32
ENDBRANCH  30  31
ENDBRANCH   1  30
TORSDOF 22
