REMARK SMILES Cc1cccc2nc([C@@H]3CCCC[C@@H]3C(=O)OCCOCCOC(=O)c3ccc(-c4c5nc(c(-c6cccc(S(=O)(=O)[O-])c6F)c6ccc([nH]6)c(-c6cccc(S(=O)(=O)[O-])c6F)c6nc(c(-c7cccc(S(=O)(=O)[O-])c7F)c7ccc4[nH]7)C=C6)C=C5)cc3)oc12
REMARK SMILES IDX 21 1 20 2 19 3 18 4 17 5 15 6 16 7 14 8 9 9 10 10 11 11
REMARK SMILES IDX 13 12 12 13 8 14 1 15 2 16 3 17 90 18 4 19 6 20 89 21 5 22
REMARK SMILES IDX 7 23 22 24 23 25 24 26 25 27 26 28 27 29 88 30 28 31 87 32
REMARK SMILES IDX 29 33 30 34 31 35 81 36 32 37 86 38 80 39 82 40 33 41 85 42
REMARK SMILES IDX 79 43 78 44 34 46 66 47 46 48 65 49 47 50 50 51 64 52 83 53
REMARK SMILES IDX 48 54 49 55 63 57 84 58 51 59 35 60 36 61 44 62 37 63 39 64
REMARK SMILES IDX 45 65 38 66 40 67 41 68 42 69 43 70 67 71 68 72 76 73 69 74
REMARK SMILES IDX 71 75 77 76 70 77 72 78 73 79 74 80 75 81 52 82 53 83 61 84
REMARK SMILES IDX 54 85 56 86 62 87 55 88 57 89 58 90 59 91 60 92
REMARK H PARENT 82 45 50 56
REMARK Flexibility Score: inf
ROOT
ATOM      1  C   UNL     1       2.731   9.056  -1.431  1.00  0.00     0.202 C 
ENDROOT
BRANCH   1   2
ATOM      2  O   UNL     1       1.389   9.428  -1.122  1.00  0.00    -0.374 OA
BRANCH   2   3
ATOM      3  C   UNL     1       0.546   8.426  -0.539  1.00  0.00     0.202 C 
BRANCH   3   4
ATOM      4  C   UNL     1       0.044   7.364  -1.508  1.00  0.00     0.261 C 
BRANCH   4   5
ATOM      5  O   UNL     1       1.095   6.411  -1.756  1.00  0.00    -0.463 OA
BRANCH   5   6
ATOM      6  C   UNL     1       1.568   6.282  -3.005  1.00  0.00     0.309 C 
ATOM      7  O   UNL     1       1.124   6.907  -3.964  1.00  0.00    -0.252 OA
BRANCH   6   8
ATOM      8  C   UNL     1       2.708   5.264  -3.153  1.00  0.00     0.111 C 
ATOM      9  C   UNL     1       3.330   4.511  -1.946  1.00  0.00     0.090 C 
ATOM     10  C   UNL     1       4.469   5.256  -1.238  1.00  0.00     0.014 C 
ATOM     11  C   UNL     1       5.532   5.759  -2.202  1.00  0.00     0.001 C 
ATOM     12  C   UNL     1       3.812   5.887  -4.046  1.00  0.00     0.016 C 
ATOM     13  C   UNL     1       4.921   6.619  -3.293  1.00  0.00     0.001 C 
BRANCH   9  14
ATOM     14  C   UNL     1       2.351   3.990  -0.940  1.00  0.00     0.199 A 
ATOM     15  C   UNL     1       0.987  -0.071  -0.071  1.00  0.00     0.048 C 
ATOM     16  C   UNL     1       0.601   1.268   0.464  1.00  0.00    -0.006 A 
ATOM     17  C   UNL     1      -0.418   1.421   1.425  1.00  0.00     0.007 A 
ATOM     18  C   UNL     1       1.191   2.462   0.051  1.00  0.00     0.157 A 
ATOM     19  C   UNL     1      -0.758   2.672   1.959  1.00  0.00     0.003 A 
ATOM     20  C   UNL     1       0.908   3.708   0.583  1.00  0.00     0.110 A 
ATOM     21  O   UNL     1       2.122   2.637  -0.939  1.00  0.00    -0.440 OA
ATOM     22  C   UNL     1      -0.082   3.832   1.563  1.00  0.00     0.032 A 
ATOM     23  N   UNL     1       1.701   4.653  -0.004  1.00  0.00    -0.213 NA
ENDBRANCH   9  14
ENDBRANCH   6   8
ENDBRANCH   5   6
ENDBRANCH   4   5
ENDBRANCH   3   4
ENDBRANCH   2   3
ENDBRANCH   1   2
BRANCH   1  24
ATOM     24  C   UNL     1       3.744   9.183  -0.301  1.00  0.00     0.261 C 
BRANCH  24  25
ATOM     25  O   UNL     1       3.455   8.221   0.699  1.00  0.00    -0.460 OA
BRANCH  25  26
ATOM     26  C   UNL     1       2.623   8.649   1.679  1.00  0.00     0.338 C 
ATOM     27  O   UNL     1       2.120   9.743   1.792  1.00  0.00    -0.246 OA
BRANCH  26  28
ATOM     28  C   UNL     1       2.514   7.565   2.679  1.00  0.00     0.060 A 
ATOM     29  C   UNL     1       2.171   8.054   3.934  1.00  0.00     0.016 A 
ATOM     30  C   UNL     1       3.341   6.447   2.506  1.00  0.00     0.016 A 
ATOM     31  C   UNL     1       3.024   7.742   4.957  1.00  0.00     0.010 A 
ATOM     32  C   UNL     1       4.220   6.161   3.514  1.00  0.00     0.010 A 
ATOM     33  C   UNL     1       4.109   6.898   4.686  1.00  0.00    -0.014 A 
BRANCH  33  34
ATOM     34  C   UNL     1       5.036   6.665   5.759  1.00  0.00     0.031 A 
ATOM     35  C   UNL     1       4.457   5.708   6.718  1.00  0.00     0.074 A 
ATOM     36  C   UNL     1       6.252   7.231   5.826  1.00  0.00     0.049 A 
ATOM     37  N   UNL     1       3.879   5.990   7.838  1.00  0.00    -0.248 NA
ATOM     38  C   UNL     1       4.242   4.330   6.249  1.00  0.00     0.031 C 
ATOM     39  C   UNL     1       6.988   7.948   4.780  1.00  0.00     0.029 A 
ATOM     40  N   UNL     1       7.144   7.174   6.846  1.00  0.00    -0.354 N 
ATOM     41  C   UNL     1       3.472   4.759   8.331  1.00  0.00     0.074 A 
ATOM     42  C   UNL     1       3.477   3.840   7.223  1.00  0.00     0.031 C 
ATOM     43  C   UNL     1       8.292   8.034   5.141  1.00  0.00     0.029 A 
ATOM     44  C   UNL     1       8.444   7.514   6.489  1.00  0.00     0.049 A 
ATOM     45  H   UNL     1       6.892   6.913   7.761  1.00  0.00     0.167 HD
ATOM     46  C   UNL     1       3.522   4.496   9.661  1.00  0.00     0.034 A 
ATOM     47  C   UNL     1       9.541   7.282   7.251  1.00  0.00     0.034 A 
ATOM     48  C   UNL     1       3.695   5.692  10.435  1.00  0.00     0.049 A 
ATOM     49  C   UNL     1       9.057   7.120   8.643  1.00  0.00     0.074 A 
ATOM     50  C   UNL     1       2.930   6.793  10.750  1.00  0.00     0.029 A 
ATOM     51  N   UNL     1       5.009   6.027  10.642  1.00  0.00    -0.354 N 
ATOM     52  N   UNL     1       8.512   8.080   9.335  1.00  0.00    -0.248 NA
ATOM     53  C   UNL     1       8.865   5.776   9.176  1.00  0.00     0.031 C 
ATOM     54  C   UNL     1       3.850   7.870  10.913  1.00  0.00     0.029 A 
ATOM     55  C   UNL     1       5.145   7.385  10.724  1.00  0.00     0.049 A 
ATOM     56  H   UNL     1       5.749   5.382  10.720  1.00  0.00     0.167 HD
ATOM     57  C   UNL     1       7.567   7.440  10.118  1.00  0.00     0.074 A 
ATOM     58  C   UNL     1       7.952   6.035  10.115  1.00  0.00     0.031 C 
ATOM     59  C   UNL     1       6.393   8.056  10.431  1.00  0.00     0.034 A 
BRANCH  46  60
ATOM     60  C   UNL     1       3.911   3.148  10.202  1.00  0.00     0.023 A 
ATOM     61  C   UNL     1       3.624   2.865  11.549  1.00  0.00     0.012 A 
ATOM     62  C   UNL     1       4.769   2.253   9.520  1.00  0.00     0.148 A 
ATOM     63  C   UNL     1       4.144   1.727  12.175  1.00  0.00     0.002 A 
ATOM     64  C   UNL     1       5.197   1.074  10.111  1.00  0.00     0.091 A 
ATOM     65  F   UNL     1       5.305   2.607   8.347  1.00  0.00    -0.205 F 
ATOM     66  C   UNL     1       4.906   0.815  11.449  1.00  0.00     0.022 A 
BRANCH  64  67
ATOM     67  S   UNL     1       6.126  -0.147   9.179  1.00  0.00     0.127 S 
ATOM     68  O   UNL     1       7.472   0.041   9.709  1.00  0.00    -0.237 OA
ATOM     69  O   UNL     1       5.467  -1.391   9.577  1.00  0.00    -0.237 OA
ATOM     70  O   UNL     1       5.927   0.207   7.778  1.00  0.00    -0.744 OA
ENDBRANCH  64  67
ENDBRANCH  46  60
BRANCH  47  71
ATOM     71  C   UNL     1      10.936   6.920   6.894  1.00  0.00     0.023 A 
ATOM     72  C   UNL     1      11.915   6.950   7.913  1.00  0.00     0.012 A 
ATOM     73  C   UNL     1      11.240   6.229   5.703  1.00  0.00     0.148 A 
ATOM     74  C   UNL     1      13.111   6.236   7.793  1.00  0.00     0.002 A 
ATOM     75  C   UNL     1      12.438   5.526   5.585  1.00  0.00     0.091 A 
ATOM     76  F   UNL     1      10.320   6.172   4.732  1.00  0.00    -0.205 F 
ATOM     77  C   UNL     1      13.364   5.507   6.637  1.00  0.00     0.022 A 
BRANCH  75  78
ATOM     78  S   UNL     1      12.835   4.549   4.128  1.00  0.00     0.127 S 
ATOM     79  O   UNL     1      14.238   4.897   3.898  1.00  0.00    -0.237 OA
ATOM     80  O   UNL     1      12.614   3.188   4.607  1.00  0.00    -0.237 OA
ATOM     81  O   UNL     1      11.928   5.012   3.085  1.00  0.00    -0.744 OA
ENDBRANCH  75  78
ENDBRANCH  47  71
BRANCH  59  82
ATOM     82  C   UNL     1       6.340   9.548  10.287  1.00  0.00     0.023 A 
ATOM     83  C   UNL     1       6.252  10.195   9.038  1.00  0.00     0.012 A 
ATOM     84  C   UNL     1       6.220  10.300  11.465  1.00  0.00     0.148 A 
ATOM     85  C   UNL     1       6.043  11.576   8.972  1.00  0.00     0.002 A 
ATOM     86  C   UNL     1       5.972  11.662  11.396  1.00  0.00     0.091 A 
ATOM     87  F   UNL     1       6.309   9.652  12.636  1.00  0.00    -0.205 F 
ATOM     88  C   UNL     1       5.887  12.307  10.151  1.00  0.00     0.022 A 
BRANCH  86  89
ATOM     89  S   UNL     1       5.653  12.635  12.867  1.00  0.00     0.127 S 
ATOM     90  O   UNL     1       6.816  13.520  12.908  1.00  0.00    -0.237 OA
ATOM     91  O   UNL     1       4.391  13.295  12.533  1.00  0.00    -0.237 OA
ATOM     92  O   UNL     1       5.558  11.685  13.970  1.00  0.00    -0.744 OA
ENDBRANCH  86  89
ENDBRANCH  59  82
ENDBRANCH  33  34
ENDBRANCH  26  28
ENDBRANCH  25  26
ENDBRANCH  24  25
ENDBRANCH   1  24
TORSDOF 18
