REMARK SMILES C[C@H]1[C@H](C(=O)OCCOCCOC(=O)c2ccc(-c3c4nc(c(-c5cccc(S(=O)(=O)[O-])c5F)c5ccc([nH]5)c(-c5cccc(S(=O)(=O)[O-])c5F)c5nc(c(-c6cccc(S(=O)(=O)[O-])c6F)c6ccc3[nH]6)C=C5)C=C4)cc2)CCN1C(=O)CC[NH2+]C1CC1
REMARK SMILES IDX 8 1 7 2 6 3 4 4 5 5 3 6 1 7 2 8 80 9 78 10 79 11 81 12 82 13
REMARK SMILES IDX 83 14 84 15 85 16 86 19 87 20 88 21 9 22 10 23 11 24 12 25
REMARK SMILES IDX 13 26 14 27 15 28 16 29 77 30 17 31 76 32 18 33 19 34 20 35
REMARK SMILES IDX 70 36 21 37 75 38 69 39 71 40 22 41 74 42 68 43 67 44 23 46
REMARK SMILES IDX 55 47 35 48 54 49 36 50 39 51 53 52 72 53 37 54 38 55 52 57
REMARK SMILES IDX 73 58 40 59 24 60 25 61 33 62 26 63 28 64 34 65 27 66 29 67
REMARK SMILES IDX 30 68 31 69 32 70 56 71 57 72 65 73 58 74 60 75 66 76 59 77
REMARK SMILES IDX 61 78 62 79 63 80 64 81 41 82 42 83 50 84 43 85 45 86 51 87
REMARK SMILES IDX 44 88 46 89 47 90 48 91 49 92
REMARK H PARENT 85 17 85 18 71 45 39 56
REMARK Flexibility Score: inf
ROOT
ATOM      1  C   UNL     1       0.373   3.813   3.438  1.00  0.00     0.202 C 
ENDROOT
BRANCH   1   2
ATOM      2  C   UNL     1      -1.003   3.366   2.933  1.00  0.00     0.261 C 
BRANCH   2   3
ATOM      3  O   UNL     1      -0.929   2.216   2.068  1.00  0.00    -0.463 OA
BRANCH   3   4
ATOM      4  C   UNL     1      -1.354   2.410   0.793  1.00  0.00     0.311 C 
ATOM      5  O   UNL     1      -1.809   3.460   0.355  1.00  0.00    -0.252 OA
BRANCH   4   6
ATOM      6  C   UNL     1      -1.238   1.178  -0.074  1.00  0.00     0.123 C 
ATOM      7  C   UNL     1       1.007   0.583  -1.000  1.00  0.00     0.032 C 
ATOM      8  C   UNL     1       0.017   0.306   0.134  1.00  0.00     0.096 C 
ATOM      9  N   UNL     1      -0.468  -1.076   0.068  1.00  0.00    -0.339 N 
ATOM     10  C   UNL     1      -2.411   0.220   0.099  1.00  0.00     0.039 C 
ATOM     11  C   UNL     1      -1.845  -1.107  -0.382  1.00  0.00     0.121 C 
BRANCH   9  12
ATOM     12  C   UNL     1       0.192  -2.248   0.385  1.00  0.00     0.228 C 
ATOM     13  O   UNL     1      -0.265  -3.347   0.059  1.00  0.00    -0.275 OA
BRANCH  12  14
ATOM     14  C   UNL     1       1.496  -2.177   1.166  1.00  0.00     0.161 C 
BRANCH  14  15
ATOM     15  C   UNL     1       2.719  -2.387   0.269  1.00  0.00     0.270 C 
BRANCH  15  16
ATOM     16  N   UNL     1       3.626  -1.231   0.322  1.00  0.00    -0.343 N 
ATOM     17  H   UNL     1       4.113  -1.248   1.218  1.00  0.00     0.346 HD
ATOM     18  H   UNL     1       3.046  -0.401   0.200  1.00  0.00     0.346 HD
BRANCH  16  19
ATOM     19  C   UNL     1       4.629  -1.202  -0.746  1.00  0.00     0.182 C 
ATOM     20  C   UNL     1       4.258  -1.197  -2.205  1.00  0.00     0.071 C 
ATOM     21  C   UNL     1       4.762   0.059  -1.564  1.00  0.00     0.071 C 
ENDBRANCH  16  19
ENDBRANCH  15  16
ENDBRANCH  14  15
ENDBRANCH  12  14
ENDBRANCH   9  12
ENDBRANCH   4   6
ENDBRANCH   3   4
ENDBRANCH   2   3
ENDBRANCH   1   2
BRANCH   1  22
ATOM     22  O   UNL     1       1.318   4.214   2.446  1.00  0.00    -0.374 OA
BRANCH  22  23
ATOM     23  C   UNL     1       1.984   3.179   1.727  1.00  0.00     0.202 C 
BRANCH  23  24
ATOM     24  C   UNL     1       3.082   2.408   2.471  1.00  0.00     0.261 C 
BRANCH  24  25
ATOM     25  O   UNL     1       2.554   1.621   3.554  1.00  0.00    -0.460 OA
BRANCH  25  26
ATOM     26  C   UNL     1       2.978   2.011   4.783  1.00  0.00     0.338 C 
ATOM     27  O   UNL     1       3.803   2.875   5.032  1.00  0.00    -0.246 OA
BRANCH  26  28
ATOM     28  C   UNL     1       2.164   1.383   5.843  1.00  0.00     0.060 A 
ATOM     29  C   UNL     1       1.597   2.239   6.795  1.00  0.00     0.016 A 
ATOM     30  C   UNL     1       2.045  -0.002   5.974  1.00  0.00     0.016 A 
ATOM     31  C   UNL     1       0.978   1.714   7.925  1.00  0.00     0.010 A 
ATOM     32  C   UNL     1       1.424  -0.529   7.115  1.00  0.00     0.010 A 
ATOM     33  C   UNL     1       0.936   0.327   8.120  1.00  0.00    -0.014 A 
BRANCH  33  34
ATOM     34  C   UNL     1       0.545  -0.191   9.456  1.00  0.00     0.031 A 
ATOM     35  C   UNL     1       1.623  -0.596  10.427  1.00  0.00     0.074 A 
ATOM     36  C   UNL     1      -0.747  -0.238   9.827  1.00  0.00     0.049 A 
ATOM     37  N   UNL     1       1.513  -0.988  11.670  1.00  0.00    -0.248 NA
ATOM     38  C   UNL     1       3.010  -0.551   9.933  1.00  0.00     0.031 C 
ATOM     39  C   UNL     1      -1.883   0.124   8.981  1.00  0.00     0.029 A 
ATOM     40  N   UNL     1      -1.319  -0.617  11.016  1.00  0.00    -0.354 N 
ATOM     41  C   UNL     1       2.808  -1.255  12.100  1.00  0.00     0.074 A 
ATOM     42  C   UNL     1       3.687  -1.000  10.979  1.00  0.00     0.031 C 
ATOM     43  C   UNL     1      -3.019  -0.065   9.675  1.00  0.00     0.029 A 
ATOM     44  C   UNL     1      -2.692  -0.566  11.008  1.00  0.00     0.049 A 
ATOM     45  H   UNL     1      -0.795  -0.898  11.801  1.00  0.00     0.167 HD
ATOM     46  C   UNL     1       3.234  -1.651  13.323  1.00  0.00     0.034 A 
ATOM     47  C   UNL     1      -3.583  -0.889  11.968  1.00  0.00     0.034 A 
ATOM     48  C   UNL     1       2.366  -1.879  14.446  1.00  0.00     0.049 A 
ATOM     49  C   UNL     1      -3.084  -1.327  13.321  1.00  0.00     0.074 A 
ATOM     50  C   UNL     1       2.706  -2.239  15.738  1.00  0.00     0.029 A 
ATOM     51  N   UNL     1       0.984  -1.778  14.411  1.00  0.00    -0.354 N 
ATOM     52  N   UNL     1      -1.850  -1.444  13.749  1.00  0.00    -0.248 NA
ATOM     53  C   UNL     1      -4.101  -1.636  14.337  1.00  0.00     0.031 C 
ATOM     54  C   UNL     1       1.527  -2.374  16.480  1.00  0.00     0.029 A 
ATOM     55  C   UNL     1       0.455  -2.075  15.655  1.00  0.00     0.049 A 
ATOM     56  H   UNL     1       0.457  -1.531  13.617  1.00  0.00     0.167 HD
ATOM     57  C   UNL     1      -1.942  -1.803  15.090  1.00  0.00     0.074 A 
ATOM     58  C   UNL     1      -3.354  -1.861  15.409  1.00  0.00     0.031 C 
ATOM     59  C   UNL     1      -0.950  -2.075  15.974  1.00  0.00     0.034 A 
BRANCH  46  60
ATOM     60  C   UNL     1       4.717  -1.827  13.521  1.00  0.00     0.023 A 
ATOM     61  C   UNL     1       5.547  -0.691  13.606  1.00  0.00     0.012 A 
ATOM     62  C   UNL     1       5.282  -3.109  13.671  1.00  0.00     0.148 A 
ATOM     63  C   UNL     1       6.920  -0.827  13.807  1.00  0.00     0.002 A 
ATOM     64  C   UNL     1       6.645  -3.235  13.912  1.00  0.00     0.091 A 
ATOM     65  F   UNL     1       4.480  -4.178  13.561  1.00  0.00    -0.205 F 
ATOM     66  C   UNL     1       7.466  -2.097  13.970  1.00  0.00     0.022 A 
BRANCH  64  67
ATOM     67  S   UNL     1       7.431  -4.823  14.209  1.00  0.00     0.127 S 
ATOM     68  O   UNL     1       8.173  -5.022  12.965  1.00  0.00    -0.237 OA
ATOM     69  O   UNL     1       8.265  -4.542  15.377  1.00  0.00    -0.237 OA
ATOM     70  O   UNL     1       6.348  -5.766  14.450  1.00  0.00    -0.744 OA
ENDBRANCH  64  67
ENDBRANCH  46  60
BRANCH  47  71
ATOM     71  C   UNL     1      -5.043  -0.755  11.702  1.00  0.00     0.023 A 
ATOM     72  C   UNL     1      -5.783   0.247  12.360  1.00  0.00     0.012 A 
ATOM     73  C   UNL     1      -5.698  -1.603  10.789  1.00  0.00     0.148 A 
ATOM     74  C   UNL     1      -7.154   0.381  12.137  1.00  0.00     0.002 A 
ATOM     75  C   UNL     1      -7.053  -1.428  10.529  1.00  0.00     0.091 A 
ATOM     76  F   UNL     1      -4.982  -2.564  10.187  1.00  0.00    -0.205 F 
ATOM     77  C   UNL     1      -7.786  -0.448  11.214  1.00  0.00     0.022 A 
BRANCH  75  78
ATOM     78  S   UNL     1      -7.916  -2.364   9.262  1.00  0.00     0.127 S 
ATOM     79  O   UNL     1      -8.744  -3.261  10.063  1.00  0.00    -0.237 OA
ATOM     80  O   UNL     1      -8.649  -1.312   8.556  1.00  0.00    -0.237 OA
ATOM     81  O   UNL     1      -6.873  -3.001   8.468  1.00  0.00    -0.744 OA
ENDBRANCH  75  78
ENDBRANCH  47  71
BRANCH  59  82
ATOM     82  C   UNL     1      -1.347  -2.429  17.384  1.00  0.00     0.023 A 
ATOM     83  C   UNL     1      -1.934  -3.681  17.653  1.00  0.00     0.012 A 
ATOM     84  C   UNL     1      -1.082  -1.548  18.452  1.00  0.00     0.148 A 
ATOM     85  C   UNL     1      -2.284  -4.036  18.956  1.00  0.00     0.002 A 
ATOM     86  C   UNL     1      -1.390  -1.928  19.753  1.00  0.00     0.091 A 
ATOM     87  F   UNL     1      -0.541  -0.351  18.177  1.00  0.00    -0.205 F 
ATOM     88  C   UNL     1      -2.003  -3.166  20.006  1.00  0.00     0.022 A 
BRANCH  86  89
ATOM     89  S   UNL     1      -0.973  -0.905  21.171  1.00  0.00     0.127 S 
ATOM     90  O   UNL     1      -2.262  -0.294  21.489  1.00  0.00    -0.237 OA
ATOM     91  O   UNL     1      -0.509  -1.893  22.146  1.00  0.00    -0.237 OA
ATOM     92  O   UNL     1       0.062   0.010  20.707  1.00  0.00    -0.744 OA
ENDBRANCH  86  89
ENDBRANCH  59  82
ENDBRANCH  33  34
ENDBRANCH  26  28
ENDBRANCH  25  26
ENDBRANCH  24  25
ENDBRANCH  23  24
ENDBRANCH  22  23
ENDBRANCH   1  22
TORSDOF 22
