REMARK SMILES O=C(/C=C/c1cccs1)NCC(=O)OCCOCCOC(=O)c1ccc(-c2c3nc(c(-c4cccc(S(=O)(=O)[O-])c4F)c4ccc([nH]4)c(-c4cccc(S(=O)(=O)[O-])c4F)c4nc(c(-c5cccc(S(=O)(=O)[O-])c5F)c5ccc2[nH]5)C=C4)C=C3)cc1
REMARK SMILES IDX 17 1 16 2 15 3 14 4 12 5 13 6 11 7 10 8 1 9 2 10 3 12 4 13
REMARK SMILES IDX 5 14 6 15 9 16 7 17 8 18 18 19 19 20 20 21 21 22 22 23 23 24
REMARK SMILES IDX 24 25 85 26 25 27 84 28 26 29 27 30 28 31 78 32 29 33 83 34
REMARK SMILES IDX 77 35 79 36 30 37 82 38 76 39 75 40 31 42 63 43 43 44 62 45
REMARK SMILES IDX 44 46 47 47 61 48 80 49 45 50 46 51 60 53 81 54 48 55 32 56
REMARK SMILES IDX 33 57 41 58 34 59 36 60 42 61 35 62 37 63 38 64 39 65 40 66
REMARK SMILES IDX 64 67 65 68 73 69 66 70 68 71 74 72 67 73 69 74 70 75 71 76
REMARK SMILES IDX 72 77 49 78 50 79 58 80 51 81 53 82 59 83 52 84 54 85 55 86
REMARK SMILES IDX 56 87 57 88
REMARK H PARENT 10 11 79 41 47 52
REMARK Flexibility Score: inf
ROOT
ATOM      1  O   UNL     1       4.491   3.699  -3.812  1.00  0.00    -0.374 OA
ENDROOT
BRANCH   1   2
ATOM      2  C   UNL     1       3.589   4.529  -3.074  1.00  0.00     0.202 C 
BRANCH   2   3
ATOM      3  C   UNL     1       2.139   4.044  -3.003  1.00  0.00     0.261 C 
BRANCH   3   4
ATOM      4  O   UNL     1       2.056   2.803  -2.281  1.00  0.00    -0.462 OA
BRANCH   4   5
ATOM      5  C   UNL     1       1.288   1.841  -2.862  1.00  0.00     0.325 C 
ATOM      6  O   UNL     1       0.579   2.006  -3.849  1.00  0.00    -0.250 OA
BRANCH   5   7
ATOM      7  C   UNL     1       1.533   0.463  -2.256  1.00  0.00     0.239 C 
BRANCH   7   8
ATOM      8  N   UNL     1       2.348   0.382  -1.049  1.00  0.00    -0.342 N 
ATOM      9  O   UNL     1       0.638  -0.374   0.260  1.00  0.00    -0.270 OA
ATOM     10  C   UNL     1       1.825  -0.102   0.116  1.00  0.00     0.244 C 
ATOM     11  H   UNL     1       3.286   0.679  -1.075  1.00  0.00     0.164 HD
BRANCH  10  12
ATOM     12  C   UNL     1       2.765  -0.398   1.226  1.00  0.00     0.072 C 
ATOM     13  C   UNL     1       4.101  -0.281   1.236  1.00  0.00     0.024 C 
BRANCH  13  14
ATOM     14  C   UNL     1       4.859  -0.745   2.355  1.00  0.00     0.027 A 
ATOM     15  C   UNL     1       4.599  -1.779   3.242  1.00  0.00     0.020 A 
ATOM     16  S   UNL     1       6.368  -0.004   2.734  1.00  0.00    -0.144 S 
ATOM     17  C   UNL     1       5.606  -1.936   4.237  1.00  0.00     0.012 A 
ATOM     18  C   UNL     1       6.619  -1.019   4.086  1.00  0.00     0.065 A 
ENDBRANCH  13  14
ENDBRANCH  10  12
ENDBRANCH   7   8
ENDBRANCH   5   7
ENDBRANCH   4   5
ENDBRANCH   3   4
ENDBRANCH   2   3
ENDBRANCH   1   2
BRANCH   1  19
ATOM     19  C   UNL     1       4.868   2.450  -3.237  1.00  0.00     0.202 C 
BRANCH  19  20
ATOM     20  C   UNL     1       5.864   2.493  -2.070  1.00  0.00     0.261 C 
BRANCH  20  21
ATOM     21  O   UNL     1       5.369   3.220  -0.932  1.00  0.00    -0.460 OA
BRANCH  21  22
ATOM     22  C   UNL     1       6.058   4.358  -0.662  1.00  0.00     0.338 C 
ATOM     23  O   UNL     1       7.072   4.748  -1.229  1.00  0.00    -0.246 OA
BRANCH  22  24
ATOM     24  C   UNL     1       5.348   5.204   0.316  1.00  0.00     0.060 A 
ATOM     25  C   UNL     1       5.141   6.543  -0.038  1.00  0.00     0.016 A 
ATOM     26  C   UNL     1       5.000   4.747   1.589  1.00  0.00     0.016 A 
ATOM     27  C   UNL     1       4.652   7.448   0.902  1.00  0.00     0.010 A 
ATOM     28  C   UNL     1       4.509   5.661   2.534  1.00  0.00     0.010 A 
ATOM     29  C   UNL     1       4.379   7.024   2.209  1.00  0.00    -0.014 A 
BRANCH  29  30
ATOM     30  C   UNL     1       4.105   8.049   3.248  1.00  0.00     0.031 A 
ATOM     31  C   UNL     1       5.216   8.480   4.171  1.00  0.00     0.074 A 
ATOM     32  C   UNL     1       2.899   8.639   3.333  1.00  0.00     0.049 A 
ATOM     33  N   UNL     1       5.220   9.424   5.077  1.00  0.00    -0.248 NA
ATOM     34  C   UNL     1       6.492   7.755   4.055  1.00  0.00     0.031 C 
ATOM     35  C   UNL     1       1.739   8.309   2.507  1.00  0.00     0.029 A 
ATOM     36  N   UNL     1       2.450   9.638   4.161  1.00  0.00    -0.354 N 
ATOM     37  C   UNL     1       6.486   9.397   5.649  1.00  0.00     0.074 A 
ATOM     38  C   UNL     1       7.218   8.329   5.004  1.00  0.00     0.031 C 
ATOM     39  C   UNL     1       0.705   9.084   2.879  1.00  0.00     0.029 A 
ATOM     40  C   UNL     1       1.128   9.960   3.970  1.00  0.00     0.049 A 
ATOM     41  H   UNL     1       3.022  10.082   4.828  1.00  0.00     0.167 HD
ATOM     42  C   UNL     1       7.004  10.202   6.607  1.00  0.00     0.034 A 
ATOM     43  C   UNL     1       0.347  10.860   4.602  1.00  0.00     0.034 A 
ATOM     44  C   UNL     1       6.289  11.281   7.234  1.00  0.00     0.049 A 
ATOM     45  C   UNL     1       0.950  11.748   5.660  1.00  0.00     0.074 A 
ATOM     46  C   UNL     1       6.744  12.178   8.184  1.00  0.00     0.029 A 
ATOM     47  N   UNL     1       4.966  11.607   6.979  1.00  0.00    -0.354 N 
ATOM     48  N   UNL     1       2.187  11.799   6.090  1.00  0.00    -0.248 NA
ATOM     49  C   UNL     1       0.057  12.734   6.289  1.00  0.00     0.031 C 
ATOM     50  C   UNL     1       5.691  13.038   8.515  1.00  0.00     0.029 A 
ATOM     51  C   UNL     1       4.586  12.688   7.755  1.00  0.00     0.049 A 
ATOM     52  H   UNL     1       4.383  11.138   6.340  1.00  0.00     0.167 HD
ATOM     53  C   UNL     1       2.231  12.845   7.006  1.00  0.00     0.074 A 
ATOM     54  C   UNL     1       0.900  13.413   7.056  1.00  0.00     0.031 C 
ATOM     55  C   UNL     1       3.276  13.287   7.750  1.00  0.00     0.034 A 
BRANCH  42  56
ATOM     56  C   UNL     1       8.438   9.974   7.010  1.00  0.00     0.023 A 
ATOM     57  C   UNL     1       9.473  10.376   6.141  1.00  0.00     0.012 A 
ATOM     58  C   UNL     1       8.763   9.420   8.263  1.00  0.00     0.148 A 
ATOM     59  C   UNL     1      10.809  10.206   6.501  1.00  0.00     0.002 A 
ATOM     60  C   UNL     1      10.097   9.289   8.631  1.00  0.00     0.091 A 
ATOM     61  F   UNL     1       7.765   9.021   9.064  1.00  0.00    -0.205 F 
ATOM     62  C   UNL     1      11.121   9.672   7.748  1.00  0.00     0.022 A 
BRANCH  60  63
ATOM     63  S   UNL     1      10.597   8.679  10.245  1.00  0.00     0.127 S 
ATOM     64  O   UNL     1      11.073   7.336   9.919  1.00  0.00    -0.237 OA
ATOM     65  O   UNL     1      11.649   9.624  10.623  1.00  0.00    -0.237 OA
ATOM     66  O   UNL     1       9.405   8.737  11.080  1.00  0.00    -0.744 OA
ENDBRANCH  60  63
ENDBRANCH  42  56
BRANCH  43  67
ATOM     67  C   UNL     1      -1.080  11.014   4.202  1.00  0.00     0.023 A 
ATOM     68  C   UNL     1      -1.493  12.180   3.529  1.00  0.00     0.012 A 
ATOM     69  C   UNL     1      -2.024  10.002   4.467  1.00  0.00     0.148 A 
ATOM     70  C   UNL     1      -2.826  12.348   3.152  1.00  0.00     0.002 A 
ATOM     71  C   UNL     1      -3.338  10.153   4.041  1.00  0.00     0.091 A 
ATOM     72  F   UNL     1      -1.616   8.910   5.128  1.00  0.00    -0.205 F 
ATOM     73  C   UNL     1      -3.745  11.332   3.397  1.00  0.00     0.022 A 
BRANCH  71  74
ATOM     74  S   UNL     1      -4.554   8.841   4.202  1.00  0.00     0.127 S 
ATOM     75  O   UNL     1      -5.394   9.344   5.286  1.00  0.00    -0.237 OA
ATOM     76  O   UNL     1      -5.183   8.845   2.881  1.00  0.00    -0.237 OA
ATOM     77  O   UNL     1      -3.789   7.636   4.496  1.00  0.00    -0.744 OA
ENDBRANCH  71  74
ENDBRANCH  43  67
BRANCH  55  78
ATOM     78  C   UNL     1       3.044  14.467   8.657  1.00  0.00     0.023 A 
ATOM     79  C   UNL     1       2.293  14.306   9.838  1.00  0.00     0.012 A 
ATOM     80  C   UNL     1       3.631  15.718   8.377  1.00  0.00     0.148 A 
ATOM     81  C   UNL     1       2.101  15.378  10.709  1.00  0.00     0.002 A 
ATOM     82  C   UNL     1       3.473  16.770   9.273  1.00  0.00     0.091 A 
ATOM     83  F   UNL     1       4.325  15.861   7.239  1.00  0.00    -0.205 F 
ATOM     84  C   UNL     1       2.700  16.605  10.433  1.00  0.00     0.022 A 
BRANCH  82  85
ATOM     85  S   UNL     1       4.289  18.353   9.037  1.00  0.00     0.127 S 
ATOM     86  O   UNL     1       3.202  19.174   8.507  1.00  0.00    -0.237 OA
ATOM     87  O   UNL     1       4.707  18.699  10.396  1.00  0.00    -0.237 OA
ATOM     88  O   UNL     1       5.391  18.096   8.119  1.00  0.00    -0.744 OA
ENDBRANCH  82  85
ENDBRANCH  55  78
ENDBRANCH  29  30
ENDBRANCH  22  24
ENDBRANCH  21  22
ENDBRANCH  20  21
ENDBRANCH  19  20
ENDBRANCH   1  19
TORSDOF 20
