REMARK SMILES O=C(Cc1ccn(C(F)F)c(=O)c1)OCCOCCOC(=O)c1ccc(-c2c3nc(c(-c4cccc(S(=O)(=O)[O-])c4F)c4ccc([nH]4)c(-c4cccc(S(=O)(=O)[O-])c4F)c4nc(c(-c5cccc(S(=O)(=O)[O-])c5F)c5ccc2[nH]5)C=C4)C=C3)cc1
REMARK SMILES IDX 18 1 17 2 16 3 15 4 14 5 2 6 1 7 3 8 4 9 5 10 13 11 6 12
REMARK SMILES IDX 11 13 7 14 12 15 8 16 9 17 10 18 19 19 20 20 21 21 22 22
REMARK SMILES IDX 23 23 24 24 85 25 25 26 84 27 26 28 27 29 28 30 78 31 29 32
REMARK SMILES IDX 83 33 77 34 79 35 30 36 82 37 76 38 75 39 31 41 63 42 43 43
REMARK SMILES IDX 62 44 44 45 47 46 61 47 80 48 45 49 46 50 60 52 81 53 48 54
REMARK SMILES IDX 32 55 33 56 41 57 34 58 36 59 42 60 35 61 37 62 38 63 39 64
REMARK SMILES IDX 40 65 64 66 65 67 73 68 66 69 68 70 74 71 67 72 69 73 70 74
REMARK SMILES IDX 71 75 72 76 49 77 50 78 58 79 51 80 53 81 59 82 52 83 54 84
REMARK SMILES IDX 55 85 56 86 57 87
REMARK H PARENT 79 40 47 51
REMARK Flexibility Score: inf
ROOT
ATOM      1  C   UNL     1       2.977  -1.068   2.121  1.00  0.00     0.202 C 
ENDROOT
BRANCH   1   2
ATOM      2  O   UNL     1       4.183  -1.209   1.362  1.00  0.00    -0.374 OA
BRANCH   2   3
ATOM      3  C   UNL     1       4.883  -0.023   1.014  1.00  0.00     0.202 C 
BRANCH   3   4
ATOM      4  C   UNL     1       4.355   0.788  -0.166  1.00  0.00     0.261 C 
BRANCH   4   5
ATOM      5  O   UNL     1       2.930   0.948  -0.215  1.00  0.00    -0.463 OA
BRANCH   5   6
ATOM      6  C   UNL     1       2.084   0.140  -0.895  1.00  0.00     0.310 C 
ATOM      7  O   UNL     1       0.898   0.451  -1.004  1.00  0.00    -0.252 OA
BRANCH   6   8
ATOM      8  C   UNL     1       2.583  -1.183  -1.456  1.00  0.00     0.158 C 
BRANCH   8   9
ATOM      9  C   UNL     1       3.551  -1.163  -2.606  1.00  0.00    -0.030 A 
ATOM     10  C   UNL     1       3.713   0.023  -3.424  1.00  0.00     0.023 A 
ATOM     11  C   UNL     1       4.314  -2.240  -2.861  1.00  0.00     0.076 A 
ATOM     12  C   UNL     1       4.652   0.060  -4.376  1.00  0.00     0.095 A 
ATOM     13  C   UNL     1       5.288  -2.249  -3.987  1.00  0.00     0.255 A 
ATOM     14  N   UNL     1       5.438  -1.044  -4.653  1.00  0.00    -0.258 N 
ATOM     15  O   UNL     1       5.876  -3.295  -4.238  1.00  0.00    -0.269 OA
BRANCH  14  16
ATOM     16  C   UNL     1       6.341  -1.015  -5.774  1.00  0.00     0.451 C 
ATOM     17  F   UNL     1       7.523  -1.616  -5.495  1.00  0.00    -0.185 F 
ATOM     18  F   UNL     1       5.789  -1.657  -6.833  1.00  0.00    -0.185 F 
ENDBRANCH  14  16
ENDBRANCH   8   9
ENDBRANCH   6   8
ENDBRANCH   5   6
ENDBRANCH   4   5
ENDBRANCH   3   4
ENDBRANCH   2   3
ENDBRANCH   1   2
BRANCH   1  19
ATOM     19  C   UNL     1       3.108  -0.624   3.582  1.00  0.00     0.261 C 
BRANCH  19  20
ATOM     20  O   UNL     1       3.385   0.782   3.679  1.00  0.00    -0.460 OA
BRANCH  20  21
ATOM     21  C   UNL     1       4.627   1.111   4.116  1.00  0.00     0.338 C 
ATOM     22  O   UNL     1       5.502   0.345   4.483  1.00  0.00    -0.246 OA
BRANCH  21  23
ATOM     23  C   UNL     1       4.848   2.542   3.833  1.00  0.00     0.060 A 
ATOM     24  C   UNL     1       3.901   3.498   4.201  1.00  0.00     0.016 A 
ATOM     25  C   UNL     1       6.032   2.922   3.183  1.00  0.00     0.016 A 
ATOM     26  C   UNL     1       4.160   4.845   3.953  1.00  0.00     0.010 A 
ATOM     27  C   UNL     1       6.289   4.270   2.935  1.00  0.00     0.010 A 
ATOM     28  C   UNL     1       5.367   5.240   3.346  1.00  0.00    -0.014 A 
BRANCH  28  29
ATOM     29  C   UNL     1       5.732   6.674   3.333  1.00  0.00     0.031 A 
ATOM     30  C   UNL     1       5.680   7.498   2.085  1.00  0.00     0.074 A 
ATOM     31  C   UNL     1       6.127   7.222   4.498  1.00  0.00     0.049 A 
ATOM     32  N   UNL     1       5.870   8.784   1.954  1.00  0.00    -0.248 NA
ATOM     33  C   UNL     1       5.385   6.799   0.826  1.00  0.00     0.031 C 
ATOM     34  C   UNL     1       6.274   6.489   5.759  1.00  0.00     0.029 A 
ATOM     35  N   UNL     1       6.468   8.509   4.819  1.00  0.00    -0.354 N 
ATOM     36  C   UNL     1       5.720   9.056   0.602  1.00  0.00     0.074 A 
ATOM     37  C   UNL     1       5.442   7.795  -0.053  1.00  0.00     0.031 C 
ATOM     38  C   UNL     1       6.646   7.344   6.722  1.00  0.00     0.029 A 
ATOM     39  C   UNL     1       6.784   8.677   6.145  1.00  0.00     0.049 A 
ATOM     40  H   UNL     1       6.484   9.243   4.163  1.00  0.00     0.167 HD
ATOM     41  C   UNL     1       5.787  10.254  -0.024  1.00  0.00     0.034 A 
ATOM     42  C   UNL     1       7.136   9.781   6.829  1.00  0.00     0.034 A 
ATOM     43  C   UNL     1       6.055  11.502   0.641  1.00  0.00     0.049 A 
ATOM     44  C   UNL     1       7.187  11.097   6.112  1.00  0.00     0.074 A 
ATOM     45  C   UNL     1       6.084  12.774   0.096  1.00  0.00     0.029 A 
ATOM     46  N   UNL     1       6.352  11.638   1.988  1.00  0.00    -0.354 N 
ATOM     47  N   UNL     1       6.916  11.355   4.856  1.00  0.00    -0.248 NA
ATOM     48  C   UNL     1       7.561  12.276   6.904  1.00  0.00     0.031 C 
ATOM     49  C   UNL     1       6.420  13.676   1.109  1.00  0.00     0.029 A 
ATOM     50  C   UNL     1       6.575  12.970   2.291  1.00  0.00     0.049 A 
ATOM     51  H   UNL     1       6.397  10.896   2.634  1.00  0.00     0.167 HD
ATOM     52  C   UNL     1       7.064  12.727   4.710  1.00  0.00     0.074 A 
ATOM     53  C   UNL     1       7.439  13.249   6.009  1.00  0.00     0.031 C 
ATOM     54  C   UNL     1       6.911  13.481   3.595  1.00  0.00     0.034 A 
BRANCH  41  55
ATOM     55  C   UNL     1       5.514  10.301  -1.502  1.00  0.00     0.023 A 
ATOM     56  C   UNL     1       4.181  10.240  -1.954  1.00  0.00     0.012 A 
ATOM     57  C   UNL     1       6.552  10.528  -2.426  1.00  0.00     0.148 A 
ATOM     58  C   UNL     1       3.884  10.400  -3.307  1.00  0.00     0.002 A 
ATOM     59  C   UNL     1       6.247  10.712  -3.769  1.00  0.00     0.091 A 
ATOM     60  F   UNL     1       7.812  10.573  -1.971  1.00  0.00    -0.205 F 
ATOM     61  C   UNL     1       4.914  10.646  -4.211  1.00  0.00     0.022 A 
BRANCH  59  62
ATOM     62  S   UNL     1       7.491  11.077  -5.012  1.00  0.00     0.127 S 
ATOM     63  O   UNL     1       7.417   9.886  -5.858  1.00  0.00    -0.237 OA
ATOM     64  O   UNL     1       6.965  12.296  -5.625  1.00  0.00    -0.237 OA
ATOM     65  O   UNL     1       8.746  11.243  -4.291  1.00  0.00    -0.744 OA
ENDBRANCH  59  62
ENDBRANCH  41  55
BRANCH  42  66
ATOM     66  C   UNL     1       7.390   9.675   8.289  1.00  0.00     0.023 A 
ATOM     67  C   UNL     1       6.411  10.125   9.194  1.00  0.00     0.012 A 
ATOM     68  C   UNL     1       8.549   9.042   8.777  1.00  0.00     0.148 A 
ATOM     69  C   UNL     1       6.584   9.949  10.567  1.00  0.00     0.002 A 
ATOM     70  C   UNL     1       8.698   8.836  10.142  1.00  0.00     0.091 A 
ATOM     71  F   UNL     1       9.458   8.618   7.889  1.00  0.00    -0.205 F 
ATOM     72  C   UNL     1       7.721   9.297  11.040  1.00  0.00     0.022 A 
BRANCH  70  73
ATOM     73  S   UNL     1      10.076   7.921  10.839  1.00  0.00     0.127 S 
ATOM     74  O   UNL     1      10.722   8.939  11.664  1.00  0.00    -0.237 OA
ATOM     75  O   UNL     1       9.386   6.869  11.586  1.00  0.00    -0.237 OA
ATOM     76  O   UNL     1      10.856   7.450   9.704  1.00  0.00    -0.744 OA
ENDBRANCH  70  73
ENDBRANCH  42  66
BRANCH  54  77
ATOM     77  C   UNL     1       7.128  14.963   3.711  1.00  0.00     0.023 A 
ATOM     78  C   UNL     1       8.441  15.472   3.752  1.00  0.00     0.012 A 
ATOM     79  C   UNL     1       6.037  15.852   3.650  1.00  0.00     0.148 A 
ATOM     80  C   UNL     1       8.664  16.848   3.737  1.00  0.00     0.002 A 
ATOM     81  C   UNL     1       6.269  17.220   3.599  1.00  0.00     0.091 A 
ATOM     82  F   UNL     1       4.799  15.339   3.621  1.00  0.00    -0.205 F 
ATOM     83  C   UNL     1       7.581  17.720   3.647  1.00  0.00     0.022 A 
BRANCH  81  84
ATOM     84  S   UNL     1       4.945  18.420   3.410  1.00  0.00     0.127 S 
ATOM     85  O   UNL     1       5.009  19.136   4.684  1.00  0.00    -0.237 OA
ATOM     86  O   UNL     1       5.394  19.193   2.252  1.00  0.00    -0.237 OA
ATOM     87  O   UNL     1       3.727  17.650   3.196  1.00  0.00    -0.744 OA
ENDBRANCH  81  84
ENDBRANCH  54  77
ENDBRANCH  28  29
ENDBRANCH  21  23
ENDBRANCH  20  21
ENDBRANCH  19  20
ENDBRANCH   1  19
TORSDOF 19
