REMARK SMILES CC(C)[C@@H](C)NC(=O)N1CCO[C@H](CC(=O)OCCOCCOC(=O)c2ccc(-c3c4nc(c(-c5cccc(S(=O)(=O)[O-])c5F)c5ccc([nH]5)c(-c5cccc(S(=O)(=O)[O-])c5F)c5nc(c(-c6cccc(S(=O)(=O)[O-])c6F)c6ccc3[nH]6)C=C5)C=C4)cc2)C1
REMARK SMILES IDX 19 1 18 2 17 3 15 4 16 5 14 6 13 7 9 8 10 9 89 10 11 11
REMARK SMILES IDX 12 12 7 13 6 14 8 16 4 17 5 18 2 19 1 20 3 21 20 22 21 23
REMARK SMILES IDX 22 24 23 25 24 26 25 27 26 28 27 29 88 30 28 31 87 32 29 33
REMARK SMILES IDX 30 34 31 35 81 36 32 37 86 38 80 39 82 40 33 41 85 42 79 43
REMARK SMILES IDX 78 44 34 46 66 47 46 48 65 49 47 50 50 51 64 52 83 53 48 54
REMARK SMILES IDX 49 55 63 57 84 58 51 59 35 60 36 61 44 62 37 63 39 64 45 65
REMARK SMILES IDX 38 66 40 67 41 68 42 69 43 70 67 71 68 72 76 73 69 74 71 75
REMARK SMILES IDX 77 76 70 77 72 78 73 79 74 80 75 81 52 82 53 83 61 84 54 85
REMARK SMILES IDX 56 86 62 87 55 88 57 89 58 90 59 91 60 92
REMARK H PARENT 6 15 82 45 50 56
REMARK Flexibility Score: inf
ROOT
ATOM      1  C   UNL     1       0.524   2.471   7.099  1.00  0.00     0.202 C 
ENDROOT
BRANCH   1   2
ATOM      2  C   UNL     1       0.891   3.505   6.028  1.00  0.00     0.261 C 
BRANCH   2   3
ATOM      3  O   UNL     1      -0.053   3.611   4.938  1.00  0.00    -0.463 OA
BRANCH   3   4
ATOM      4  C   UNL     1       0.512   3.565   3.706  1.00  0.00     0.308 C 
ATOM      5  O   UNL     1       1.714   3.405   3.498  1.00  0.00    -0.252 OA
BRANCH   4   6
ATOM      6  C   UNL     1      -0.428   3.705   2.538  1.00  0.00     0.156 C 
BRANCH   6   7
ATOM      7  C   UNL     1      -1.921   3.976   2.728  1.00  0.00     0.149 C 
ATOM      8  N   UNL     1      -2.672   1.673   2.360  1.00  0.00    -0.320 N 
ATOM      9  C   UNL     1      -3.200   2.006   1.039  1.00  0.00     0.150 C 
ATOM     10  C   UNL     1      -2.737   2.801   3.287  1.00  0.00     0.154 C 
ATOM     11  C   UNL     1      -2.525   3.266   0.485  1.00  0.00     0.182 C 
ATOM     12  O   UNL     1      -2.500   4.348   1.440  1.00  0.00    -0.374 OA
BRANCH   8  13
ATOM     13  C   UNL     1      -2.572   0.406   2.848  1.00  0.00     0.317 C 
ATOM     14  N   UNL     1      -1.848  -0.518   2.178  1.00  0.00    -0.335 N 
ATOM     15  H   UNL     1      -1.873  -1.415   2.583  1.00  0.00     0.165 HD
ATOM     16  O   UNL     1      -3.029   0.079   3.941  1.00  0.00    -0.249 OA
BRANCH  14  17
ATOM     17  C   UNL     1      -1.038  -0.435   0.968  1.00  0.00     0.083 C 
ATOM     18  C   UNL     1      -1.653  -1.410  -0.041  1.00  0.00     0.031 C 
BRANCH  17  19
ATOM     19  C   UNL     1       0.460  -0.761   1.227  1.00  0.00     0.005 C 
ATOM     20  C   UNL     1       1.292  -0.535  -0.045  1.00  0.00     0.009 C 
ATOM     21  C   UNL     1       1.074   0.079   2.351  1.00  0.00     0.009 C 
ENDBRANCH  17  19
ENDBRANCH  14  17
ENDBRANCH   8  13
ENDBRANCH   6   7
ENDBRANCH   4   6
ENDBRANCH   3   4
ENDBRANCH   2   3
ENDBRANCH   1   2
BRANCH   1  22
ATOM     22  O   UNL     1       0.338   1.129   6.657  1.00  0.00    -0.374 OA
BRANCH  22  23
ATOM     23  C   UNL     1      -0.884   0.847   5.967  1.00  0.00     0.202 C 
BRANCH  23  24
ATOM     24  C   UNL     1      -2.164   0.984   6.803  1.00  0.00     0.261 C 
BRANCH  24  25
ATOM     25  O   UNL     1      -2.438   2.360   7.132  1.00  0.00    -0.460 OA
BRANCH  25  26
ATOM     26  C   UNL     1      -2.872   2.531   8.400  1.00  0.00     0.338 C 
ATOM     27  O   UNL     1      -3.217   1.657   9.189  1.00  0.00    -0.246 OA
BRANCH  26  28
ATOM     28  C   UNL     1      -2.679   3.925   8.821  1.00  0.00     0.060 A 
ATOM     29  C   UNL     1      -1.804   4.148   9.891  1.00  0.00     0.016 A 
ATOM     30  C   UNL     1      -3.437   4.968   8.284  1.00  0.00     0.016 A 
ATOM     31  C   UNL     1      -1.759   5.397  10.498  1.00  0.00     0.010 A 
ATOM     32  C   UNL     1      -3.388   6.226   8.897  1.00  0.00     0.010 A 
ATOM     33  C   UNL     1      -2.601   6.422  10.046  1.00  0.00    -0.014 A 
BRANCH  33  34
ATOM     34  C   UNL     1      -2.808   7.597  10.929  1.00  0.00     0.031 A 
ATOM     35  C   UNL     1      -4.022   7.620  11.822  1.00  0.00     0.074 A 
ATOM     36  C   UNL     1      -1.893   8.579  11.000  1.00  0.00     0.049 A 
ATOM     37  N   UNL     1      -4.359   8.488  12.740  1.00  0.00    -0.248 NA
ATOM     38  C   UNL     1      -4.984   6.515  11.663  1.00  0.00     0.031 C 
ATOM     39  C   UNL     1      -0.676   8.659  10.194  1.00  0.00     0.029 A 
ATOM     40  N   UNL     1      -1.847   9.697  11.793  1.00  0.00    -0.354 N 
ATOM     41  C   UNL     1      -5.573   8.045  13.254  1.00  0.00     0.074 A 
ATOM     42  C   UNL     1      -5.928   6.845  12.530  1.00  0.00     0.031 C 
ATOM     43  C   UNL     1      -0.005   9.775  10.528  1.00  0.00     0.029 A 
ATOM     44  C   UNL     1      -0.747  10.489  11.566  1.00  0.00     0.049 A 
ATOM     45  H   UNL     1      -2.537   9.912  12.461  1.00  0.00     0.167 HD
ATOM     46  C   UNL     1      -6.314   8.572  14.257  1.00  0.00     0.034 A 
ATOM     47  C   UNL     1      -0.381  11.654  12.136  1.00  0.00     0.034 A 
ATOM     48  C   UNL     1      -5.944   9.747  14.996  1.00  0.00     0.049 A 
ATOM     49  C   UNL     1      -1.221  12.217  13.254  1.00  0.00     0.074 A 
ATOM     50  C   UNL     1      -6.614  10.354  16.043  1.00  0.00     0.029 A 
ATOM     51  N   UNL     1      -4.800  10.495  14.765  1.00  0.00    -0.354 N 
ATOM     52  N   UNL     1      -2.308  11.726  13.799  1.00  0.00    -0.248 NA
ATOM     53  C   UNL     1      -0.758  13.471  13.867  1.00  0.00     0.031 C 
ATOM     54  C   UNL     1      -5.878  11.475  16.440  1.00  0.00     0.029 A 
ATOM     55  C   UNL     1      -4.741  11.555  15.651  1.00  0.00     0.049 A 
ATOM     56  H   UNL     1      -4.128  10.300  14.072  1.00  0.00     0.167 HD
ATOM     57  C   UNL     1      -2.634  12.585  14.843  1.00  0.00     0.074 A 
ATOM     58  C   UNL     1      -1.619  13.619  14.865  1.00  0.00     0.031 C 
ATOM     59  C   UNL     1      -3.685  12.534  15.699  1.00  0.00     0.034 A 
BRANCH  46  60
ATOM     60  C   UNL     1      -7.580   7.852  14.639  1.00  0.00     0.023 A 
ATOM     61  C   UNL     1      -7.501   6.639  15.352  1.00  0.00     0.012 A 
ATOM     62  C   UNL     1      -8.844   8.392  14.331  1.00  0.00     0.148 A 
ATOM     63  C   UNL     1      -8.658   5.958  15.729  1.00  0.00     0.002 A 
ATOM     64  C   UNL     1      -9.994   7.728  14.745  1.00  0.00     0.091 A 
ATOM     65  F   UNL     1      -8.900   9.532  13.629  1.00  0.00    -0.205 F 
ATOM     66  C   UNL     1      -9.903   6.507  15.434  1.00  0.00     0.022 A 
BRANCH  64  67
ATOM     67  S   UNL     1     -11.641   8.391  14.473  1.00  0.00     0.127 S 
ATOM     68  O   UNL     1     -12.141   7.519  13.412  1.00  0.00    -0.237 OA
ATOM     69  O   UNL     1     -12.275   8.189  15.777  1.00  0.00    -0.237 OA
ATOM     70  O   UNL     1     -11.454   9.787  14.103  1.00  0.00    -0.744 OA
ENDBRANCH  64  67
ENDBRANCH  46  60
BRANCH  47  71
ATOM     71  C   UNL     1       0.876  12.330  11.707  1.00  0.00     0.023 A 
ATOM     72  C   UNL     1       1.976  12.380  12.586  1.00  0.00     0.012 A 
ATOM     73  C   UNL     1       0.995  12.904  10.427  1.00  0.00     0.148 A 
ATOM     74  C   UNL     1       3.160  13.014  12.208  1.00  0.00     0.002 A 
ATOM     75  C   UNL     1       2.195  13.487  10.037  1.00  0.00     0.091 A 
ATOM     76  F   UNL     1      -0.069  12.867   9.612  1.00  0.00    -0.205 F 
ATOM     77  C   UNL     1       3.274  13.558  10.931  1.00  0.00     0.022 A 
BRANCH  75  78
ATOM     78  S   UNL     1       2.465  14.092   8.367  1.00  0.00     0.127 S 
ATOM     79  O   UNL     1       2.386  15.537   8.555  1.00  0.00    -0.237 OA
ATOM     80  O   UNL     1       3.804  13.581   8.069  1.00  0.00    -0.237 OA
ATOM     81  O   UNL     1       1.407  13.494   7.563  1.00  0.00    -0.744 OA
ENDBRANCH  75  78
ENDBRANCH  47  71
BRANCH  59  82
ATOM     82  C   UNL     1      -3.773  13.595  16.763  1.00  0.00     0.023 A 
ATOM     83  C   UNL     1      -4.152  14.907  16.415  1.00  0.00     0.012 A 
ATOM     84  C   UNL     1      -3.554  13.275  18.117  1.00  0.00     0.148 A 
ATOM     85  C   UNL     1      -4.278  15.891  17.394  1.00  0.00     0.002 A 
ATOM     86  C   UNL     1      -3.726  14.250  19.093  1.00  0.00     0.091 A 
ATOM     87  F   UNL     1      -3.174  12.027  18.429  1.00  0.00    -0.205 F 
ATOM     88  C   UNL     1      -4.077  15.561  18.733  1.00  0.00     0.022 A 
BRANCH  86  89
ATOM     89  S   UNL     1      -3.578  13.879  20.845  1.00  0.00     0.127 S 
ATOM     90  O   UNL     1      -2.232  14.365  21.141  1.00  0.00    -0.237 OA
ATOM     91  O   UNL     1      -4.657  14.676  21.429  1.00  0.00    -0.237 OA
ATOM     92  O   UNL     1      -3.770  12.439  20.959  1.00  0.00    -0.744 OA
ENDBRANCH  86  89
ENDBRANCH  59  82
ENDBRANCH  33  34
ENDBRANCH  26  28
ENDBRANCH  25  26
ENDBRANCH  24  25
ENDBRANCH  23  24
ENDBRANCH  22  23
ENDBRANCH   1  22
TORSDOF 21
