REMARK SMILES COc1c(C(=O)OCCOCCOC(=O)c2ccc(-c3c4nc(c(-c5cccc(S(=O)(=O)[O-])c5F)c5ccc([nH]5)c(-c5cccc(S(=O)(=O)[O-])c5F)c5nc(c(-c6cccc(S(=O)(=O)[O-])c6F)c6ccc3[nH]6)C=C5)C=C4)cc2)cccc1-c1ccc2ccccc2c1
REMARK SMILES IDX 11 1 10 2 9 3 8 4 7 5 5 6 6 7 4 8 3 9 82 10 79 11 81 12
REMARK SMILES IDX 80 13 2 14 1 15 83 16 84 17 92 18 85 19 91 20 86 21 90 22
REMARK SMILES IDX 87 23 89 24 88 25 12 26 13 27 14 28 15 29 16 30 17 31 78 32
REMARK SMILES IDX 18 33 77 34 19 35 20 36 21 37 71 38 22 39 76 40 70 41 72 42
REMARK SMILES IDX 23 43 75 44 69 45 68 46 24 48 56 49 36 50 55 51 37 52 40 53
REMARK SMILES IDX 54 54 73 55 38 56 39 57 53 59 74 60 41 61 25 62 26 63 34 64
REMARK SMILES IDX 27 65 29 66 35 67 28 68 30 69 31 70 32 71 33 72 57 73 58 74
REMARK SMILES IDX 66 75 59 76 61 77 67 78 60 79 62 80 63 81 64 82 65 83 42 84
REMARK SMILES IDX 43 85 51 86 44 87 46 88 52 89 45 90 47 91 48 92 49 93 50 94
REMARK H PARENT 72 47 40 58
REMARK Flexibility Score: inf
ROOT
ATOM      1  C   UNL     1      -2.719  -3.576   1.705  1.00  0.00     0.202 C 
ENDROOT
BRANCH   1   2
ATOM      2  O   UNL     1      -3.905  -2.930   2.170  1.00  0.00    -0.374 OA
BRANCH   2   3
ATOM      3  C   UNL     1      -4.100  -1.570   1.778  1.00  0.00     0.202 C 
BRANCH   3   4
ATOM      4  C   UNL     1      -3.279  -0.512   2.522  1.00  0.00     0.261 C 
BRANCH   4   5
ATOM      5  O   UNL     1      -1.871  -0.714   2.323  1.00  0.00    -0.460 OA
BRANCH   5   6
ATOM      6  C   UNL     1      -1.138  -0.889   3.450  1.00  0.00     0.342 C 
ATOM      7  O   UNL     1      -1.536  -0.800   4.602  1.00  0.00    -0.246 OA
BRANCH   6   8
ATOM      8  C   UNL     1       0.167  -1.500   3.110  1.00  0.00     0.102 A 
ATOM      9  C   UNL     1       1.022  -1.017   2.106  1.00  0.00     0.141 A 
ATOM     10  C   UNL     1       2.229  -1.701   1.830  1.00  0.00     0.025 A 
ATOM     11  C   UNL     1       0.493  -2.663   3.827  1.00  0.00     0.019 A 
ATOM     12  C   UNL     1       2.535  -2.859   2.579  1.00  0.00     0.012 A 
ATOM     13  C   UNL     1       1.676  -3.340   3.564  1.00  0.00     0.002 A 
BRANCH   9  14
ATOM     14  O   UNL     1       0.693   0.174   1.508  1.00  0.00    -0.495 OA
ATOM     15  C   UNL     1       0.471   0.078   0.100  1.00  0.00     0.278 C 
ENDBRANCH   9  14
BRANCH  10  16
ATOM     16  C   UNL     1       3.166  -1.307   0.766  1.00  0.00    -0.014 A 
ATOM     17  C   UNL     1       3.270  -2.106  -0.383  1.00  0.00     0.009 A 
ATOM     18  C   UNL     1       3.949  -0.145   0.848  1.00  0.00     0.017 A 
ATOM     19  C   UNL     1       4.092  -1.733  -1.446  1.00  0.00     0.009 A 
ATOM     20  C   UNL     1       4.800   0.235  -0.210  1.00  0.00    -0.018 A 
ATOM     21  C   UNL     1       4.852  -0.560  -1.378  1.00  0.00    -0.018 A 
ATOM     22  C   UNL     1       5.586   1.398  -0.147  1.00  0.00     0.009 A 
ATOM     23  C   UNL     1       5.652  -0.159  -2.458  1.00  0.00     0.009 A 
ATOM     24  C   UNL     1       6.394   1.774  -1.223  1.00  0.00     0.001 A 
ATOM     25  C   UNL     1       6.419   1.003  -2.381  1.00  0.00     0.001 A 
ENDBRANCH  10  16
ENDBRANCH   6   8
ENDBRANCH   5   6
ENDBRANCH   4   5
ENDBRANCH   3   4
ENDBRANCH   2   3
ENDBRANCH   1   2
BRANCH   1  26
ATOM     26  C   UNL     1      -2.697  -4.029   0.238  1.00  0.00     0.261 C 
BRANCH  26  27
ATOM     27  O   UNL     1      -2.754  -2.931  -0.688  1.00  0.00    -0.460 OA
BRANCH  27  28
ATOM     28  C   UNL     1      -3.916  -2.829  -1.384  1.00  0.00     0.338 C 
ATOM     29  O   UNL     1      -4.865  -3.591  -1.351  1.00  0.00    -0.246 OA
BRANCH  28  30
ATOM     30  C   UNL     1      -3.958  -1.529  -2.082  1.00  0.00     0.060 A 
ATOM     31  C   UNL     1      -5.012  -0.657  -1.777  1.00  0.00     0.016 A 
ATOM     32  C   UNL     1      -3.016  -1.193  -3.054  1.00  0.00     0.016 A 
ATOM     33  C   UNL     1      -5.137   0.553  -2.459  1.00  0.00     0.010 A 
ATOM     34  C   UNL     1      -3.152   0.015  -3.746  1.00  0.00     0.010 A 
ATOM     35  C   UNL     1      -4.223   0.885  -3.467  1.00  0.00    -0.014 A 
BRANCH  35  36
ATOM     36  C   UNL     1      -4.423   2.105  -4.287  1.00  0.00     0.031 A 
ATOM     37  C   UNL     1      -4.969   1.977  -5.682  1.00  0.00     0.074 A 
ATOM     38  C   UNL     1      -4.076   3.313  -3.804  1.00  0.00     0.049 A 
ATOM     39  N   UNL     1      -5.127   2.899  -6.594  1.00  0.00    -0.248 NA
ATOM     40  C   UNL     1      -5.389   0.631  -6.107  1.00  0.00     0.031 C 
ATOM     41  C   UNL     1      -3.535   3.564  -2.468  1.00  0.00     0.029 A 
ATOM     42  N   UNL     1      -4.088   4.550  -4.400  1.00  0.00    -0.354 N 
ATOM     43  C   UNL     1      -5.621   2.243  -7.715  1.00  0.00     0.074 A 
ATOM     44  C   UNL     1      -5.748   0.845  -7.366  1.00  0.00     0.031 C 
ATOM     45  C   UNL     1      -3.219   4.866  -2.364  1.00  0.00     0.029 A 
ATOM     46  C   UNL     1      -3.506   5.532  -3.633  1.00  0.00     0.049 A 
ATOM     47  H   UNL     1      -4.474   4.717  -5.290  1.00  0.00     0.167 HD
ATOM     48  C   UNL     1      -5.941   2.762  -8.924  1.00  0.00     0.034 A 
ATOM     49  C   UNL     1      -3.199   6.810  -3.934  1.00  0.00     0.034 A 
ATOM     50  C   UNL     1      -5.841   4.157  -9.259  1.00  0.00     0.049 A 
ATOM     51  C   UNL     1      -3.555   7.352  -5.295  1.00  0.00     0.074 A 
ATOM     52  C   UNL     1      -6.218   4.785 -10.434  1.00  0.00     0.029 A 
ATOM     53  N   UNL     1      -5.309   5.135  -8.436  1.00  0.00    -0.354 N 
ATOM     54  N   UNL     1      -4.156   6.752  -6.294  1.00  0.00    -0.248 NA
ATOM     55  C   UNL     1      -3.216   8.759  -5.561  1.00  0.00     0.031 C 
ATOM     56  C   UNL     1      -5.876   6.137 -10.335  1.00  0.00     0.029 A 
ATOM     57  C   UNL     1      -5.323   6.357  -9.085  1.00  0.00     0.049 A 
ATOM     58  H   UNL     1      -4.970   4.983  -7.524  1.00  0.00     0.167 HD
ATOM     59  C   UNL     1      -4.297   7.715  -7.288  1.00  0.00     0.074 A 
ATOM     60  C   UNL     1      -3.744   8.944  -6.763  1.00  0.00     0.031 C 
ATOM     61  C   UNL     1      -4.822   7.588  -8.532  1.00  0.00     0.034 A 
BRANCH  48  62
ATOM     62  C   UNL     1      -6.446   1.827  -9.990  1.00  0.00     0.023 A 
ATOM     63  C   UNL     1      -7.762   1.330  -9.922  1.00  0.00     0.012 A 
ATOM     64  C   UNL     1      -5.651   1.537 -11.117  1.00  0.00     0.148 A 
ATOM     65  C   UNL     1      -8.276   0.547 -10.955  1.00  0.00     0.002 A 
ATOM     66  C   UNL     1      -6.184   0.793 -12.161  1.00  0.00     0.091 A 
ATOM     67  F   UNL     1      -4.396   2.006 -11.149  1.00  0.00    -0.205 F 
ATOM     68  C   UNL     1      -7.494   0.291 -12.079  1.00  0.00     0.022 A 
BRANCH  66  69
ATOM     69  S   UNL     1      -5.288   0.477 -13.685  1.00  0.00     0.127 S 
ATOM     70  O   UNL     1      -5.109  -0.973 -13.626  1.00  0.00    -0.237 OA
ATOM     71  O   UNL     1      -6.239   0.933 -14.699  1.00  0.00    -0.237 OA
ATOM     72  O   UNL     1      -4.061   1.256 -13.602  1.00  0.00    -0.744 OA
ENDBRANCH  66  69
ENDBRANCH  48  62
BRANCH  49  73
ATOM     73  C   UNL     1      -2.507   7.674  -2.936  1.00  0.00     0.023 A 
ATOM     74  C   UNL     1      -3.176   8.786  -2.389  1.00  0.00     0.012 A 
ATOM     75  C   UNL     1      -1.179   7.412  -2.545  1.00  0.00     0.148 A 
ATOM     76  C   UNL     1      -2.521   9.646  -1.506  1.00  0.00     0.002 A 
ATOM     77  C   UNL     1      -0.553   8.239  -1.620  1.00  0.00     0.091 A 
ATOM     78  F   UNL     1      -0.549   6.363  -3.092  1.00  0.00    -0.205 F 
ATOM     79  C   UNL     1      -1.214   9.368  -1.115  1.00  0.00     0.022 A 
BRANCH  77  80
ATOM     80  S   UNL     1       1.081   7.878  -0.968  1.00  0.00     0.127 S 
ATOM     81  O   UNL     1       1.905   8.865  -1.661  1.00  0.00    -0.237 OA
ATOM     82  O   UNL     1       0.899   8.123   0.463  1.00  0.00    -0.237 OA
ATOM     83  O   UNL     1       1.336   6.485  -1.308  1.00  0.00    -0.744 OA
ENDBRANCH  77  80
ENDBRANCH  49  73
BRANCH  61  84
ATOM     84  C   UNL     1      -4.867   8.817  -9.405  1.00  0.00     0.023 A 
ATOM     85  C   UNL     1      -3.676   9.335  -9.951  1.00  0.00     0.012 A 
ATOM     86  C   UNL     1      -6.099   9.412  -9.742  1.00  0.00     0.148 A 
ATOM     87  C   UNL     1      -3.708  10.449 -10.790  1.00  0.00     0.002 A 
ATOM     88  C   UNL     1      -6.127  10.489 -10.620  1.00  0.00     0.091 A 
ATOM     89  F   UNL     1      -7.220   8.914  -9.201  1.00  0.00    -0.205 F 
ATOM     90  C   UNL     1      -4.932  11.018 -11.133  1.00  0.00     0.022 A 
BRANCH  88  91
ATOM     91  S   UNL     1      -7.662  11.223 -11.197  1.00  0.00     0.127 S 
ATOM     92  O   UNL     1      -7.653  12.512 -10.507  1.00  0.00    -0.237 OA
ATOM     93  O   UNL     1      -7.444  11.303 -12.641  1.00  0.00    -0.237 OA
ATOM     94  O   UNL     1      -8.722  10.308 -10.795  1.00  0.00    -0.744 OA
ENDBRANCH  88  91
ENDBRANCH  61  84
ENDBRANCH  35  36
ENDBRANCH  28  30
ENDBRANCH  27  28
ENDBRANCH  26  27
ENDBRANCH   1  26
TORSDOF 19
