REMARK SMILES CC(C)n1ccc(C[C@@H](C(=O)OCCOCCOC(=O)c2ccc(-c3c4nc(c(-c5cccc(S(=O)(=O)[O-])c5F)c5ccc([nH]5)c(-c5cccc(S(=O)(=O)[O-])c5F)c5nc(c(-c6cccc(S(=O)(=O)[O-])c6F)c6ccc3[nH]6)C=C5)C=C4)cc2)c2cccc(Cl)c2)n1
REMARK SMILES IDX 15 1 14 2 13 3 12 4 10 5 11 6 9 7 8 8 7 9 4 10 5 11 91 12
REMARK SMILES IDX 6 13 2 14 1 15 3 16 84 17 85 18 90 19 86 20 88 21 87 22
REMARK SMILES IDX 89 23 16 24 17 25 18 26 19 27 20 28 21 29 22 30 83 31 23 32
REMARK SMILES IDX 82 33 24 34 25 35 26 36 76 37 27 38 81 39 75 40 77 41 28 42
REMARK SMILES IDX 80 43 74 44 73 45 29 47 61 48 41 49 60 50 42 51 45 52 59 53
REMARK SMILES IDX 78 54 43 55 44 56 58 58 79 59 46 60 30 61 31 62 39 63 32 64
REMARK SMILES IDX 34 65 40 66 33 67 35 68 36 69 37 70 38 71 62 72 63 73 71 74
REMARK SMILES IDX 64 75 66 76 72 77 65 78 67 79 68 80 69 81 70 82 47 83 48 84
REMARK SMILES IDX 56 85 49 86 51 87 57 88 50 89 52 90 53 91 54 92 55 93
REMARK H PARENT 77 46 45 57
REMARK Flexibility Score: inf
ROOT
ATOM      1  O   UNL     1      -7.457  -2.315   1.228  1.00  0.00    -0.374 OA
ENDROOT
BRANCH   1   2
ATOM      2  C   UNL     1      -6.292  -2.979   0.726  1.00  0.00     0.202 C 
BRANCH   2   3
ATOM      3  C   UNL     1      -5.737  -2.399  -0.578  1.00  0.00     0.261 C 
BRANCH   3   4
ATOM      4  O   UNL     1      -5.137  -1.121  -0.295  1.00  0.00    -0.463 OA
BRANCH   4   5
ATOM      5  C   UNL     1      -5.508  -0.043  -1.014  1.00  0.00     0.313 C 
ATOM      6  O   UNL     1      -6.210  -0.107  -2.018  1.00  0.00    -0.252 OA
BRANCH   5   7
ATOM      7  C   UNL     1      -5.047   1.287  -0.383  1.00  0.00     0.135 C 
BRANCH   7   8
ATOM      8  C   UNL     1      -4.195   1.228   0.917  1.00  0.00     0.078 C 
BRANCH   8   9
ATOM      9  C   UNL     1      -2.962   0.364   0.959  1.00  0.00     0.064 A 
ATOM     10  N   UNL     1      -0.903  -0.146   1.178  1.00  0.00    -0.270 N 
ATOM     11  C   UNL     1      -1.566  -1.317   1.392  1.00  0.00     0.109 A 
ATOM     12  N   UNL     1      -1.727   0.879   0.833  1.00  0.00    -0.178 NA
ATOM     13  C   UNL     1      -2.894  -1.006   1.304  1.00  0.00     0.045 A 
BRANCH  10  14
ATOM     14  C   UNL     1       0.546   0.004   1.274  1.00  0.00     0.101 C 
ATOM     15  C   UNL     1       1.158   0.190  -0.108  1.00  0.00     0.033 C 
ATOM     16  C   UNL     1       0.969   1.091   2.257  1.00  0.00     0.033 C 
ENDBRANCH  10  14
ENDBRANCH   8   9
ENDBRANCH   7   8
BRANCH   7  17
ATOM     17  C   UNL     1      -6.255   2.231  -0.134  1.00  0.00    -0.032 A 
ATOM     18  C   UNL     1      -6.043   3.614  -0.009  1.00  0.00     0.005 A 
ATOM     19  C   UNL     1      -7.575   1.763   0.034  1.00  0.00     0.025 A 
ATOM     20  C   UNL     1      -7.098   4.486   0.291  1.00  0.00     0.002 A 
ATOM     21  C   UNL     1      -8.622   2.633   0.353  1.00  0.00     0.041 A 
ATOM     22  C   UNL     1      -8.388   3.995   0.483  1.00  0.00     0.020 A 
ATOM     23  Cl  UNL     1     -10.209   2.011   0.603  1.00  0.00    -0.084 Cl
ENDBRANCH   7  17
ENDBRANCH   5   7
ENDBRANCH   4   5
ENDBRANCH   3   4
ENDBRANCH   2   3
ENDBRANCH   1   2
BRANCH   1  24
ATOM     24  C   UNL     1      -7.272  -1.070   1.898  1.00  0.00     0.202 C 
BRANCH  24  25
ATOM     25  C   UNL     1      -6.912  -1.130   3.369  1.00  0.00     0.261 C 
BRANCH  25  26
ATOM     26  O   UNL     1      -5.584  -1.597   3.518  1.00  0.00    -0.460 OA
BRANCH  26  27
ATOM     27  C   UNL     1      -5.443  -2.895   3.842  1.00  0.00     0.338 C 
ATOM     28  O   UNL     1      -6.300  -3.769   3.821  1.00  0.00    -0.246 OA
BRANCH  27  29
ATOM     29  C   UNL     1      -4.088  -3.055   4.367  1.00  0.00     0.060 A 
ATOM     30  C   UNL     1      -3.784  -4.268   4.982  1.00  0.00     0.016 A 
ATOM     31  C   UNL     1      -3.256  -1.927   4.483  1.00  0.00     0.016 A 
ATOM     32  C   UNL     1      -2.780  -4.271   5.919  1.00  0.00     0.010 A 
ATOM     33  C   UNL     1      -2.244  -1.937   5.395  1.00  0.00     0.010 A 
ATOM     34  C   UNL     1      -2.106  -3.071   6.178  1.00  0.00    -0.014 A 
BRANCH  34  35
ATOM     35  C   UNL     1      -1.145  -3.027   7.248  1.00  0.00     0.031 A 
ATOM     36  C   UNL     1       0.084  -3.747   6.864  1.00  0.00     0.074 A 
ATOM     37  C   UNL     1      -1.371  -2.306   8.364  1.00  0.00     0.049 A 
ATOM     38  N   UNL     1       0.430  -4.933   7.238  1.00  0.00    -0.248 NA
ATOM     39  C   UNL     1       0.856  -3.233   5.718  1.00  0.00     0.031 C 
ATOM     40  C   UNL     1      -2.464  -1.361   8.629  1.00  0.00     0.029 A 
ATOM     41  N   UNL     1      -0.589  -2.166   9.462  1.00  0.00    -0.354 N 
ATOM     42  C   UNL     1       1.646  -5.154   6.604  1.00  0.00     0.074 A 
ATOM     43  C   UNL     1       1.678  -4.258   5.483  1.00  0.00     0.031 C 
ATOM     44  C   UNL     1      -2.125  -0.570   9.675  1.00  0.00     0.029 A 
ATOM     45  C   UNL     1      -0.865  -1.036  10.228  1.00  0.00     0.049 A 
ATOM     46  H   UNL     1       0.116  -2.811   9.699  1.00  0.00     0.167 HD
ATOM     47  C   UNL     1       2.661  -5.754   7.282  1.00  0.00     0.034 A 
ATOM     48  C   UNL     1      -0.060  -0.497  11.182  1.00  0.00     0.034 A 
ATOM     49  C   UNL     1       2.155  -6.422   8.461  1.00  0.00     0.049 A 
ATOM     50  C   UNL     1       0.916  -1.545  11.565  1.00  0.00     0.074 A 
ATOM     51  C   UNL     1       1.221  -7.409   8.701  1.00  0.00     0.029 A 
ATOM     52  N   UNL     1       2.327  -5.753   9.649  1.00  0.00    -0.354 N 
ATOM     53  N   UNL     1       0.580  -2.642  12.181  1.00  0.00    -0.248 NA
ATOM     54  C   UNL     1       2.175  -1.594  10.837  1.00  0.00     0.031 C 
ATOM     55  C   UNL     1       0.562  -7.011   9.901  1.00  0.00     0.029 A 
ATOM     56  C   UNL     1       1.181  -5.858  10.387  1.00  0.00     0.049 A 
ATOM     57  H   UNL     1       3.143  -5.276   9.925  1.00  0.00     0.167 HD
ATOM     58  C   UNL     1       1.298  -3.632  11.523  1.00  0.00     0.074 A 
ATOM     59  C   UNL     1       2.344  -2.919  10.787  1.00  0.00     0.031 C 
ATOM     60  C   UNL     1       0.780  -4.888  11.383  1.00  0.00     0.034 A 
BRANCH  47  61
ATOM     61  C   UNL     1       4.119  -5.354   7.172  1.00  0.00     0.023 A 
ATOM     62  C   UNL     1       5.038  -6.127   7.916  1.00  0.00     0.012 A 
ATOM     63  C   UNL     1       4.601  -4.133   6.640  1.00  0.00     0.148 A 
ATOM     64  C   UNL     1       6.334  -5.672   8.183  1.00  0.00     0.002 A 
ATOM     65  C   UNL     1       5.911  -3.719   6.847  1.00  0.00     0.091 A 
ATOM     66  F   UNL     1       3.779  -3.284   6.028  1.00  0.00    -0.205 F 
ATOM     67  C   UNL     1       6.771  -4.467   7.648  1.00  0.00     0.022 A 
BRANCH  65  68
ATOM     68  S   UNL     1       6.534  -2.182   6.148  1.00  0.00     0.127 S 
ATOM     69  O   UNL     1       6.706  -1.366   7.346  1.00  0.00    -0.237 OA
ATOM     70  O   UNL     1       7.773  -2.629   5.514  1.00  0.00    -0.237 OA
ATOM     71  O   UNL     1       5.515  -1.726   5.209  1.00  0.00    -0.744 OA
ENDBRANCH  65  68
ENDBRANCH  47  61
BRANCH  48  72
ATOM     72  C   UNL     1       0.150   0.919  11.577  1.00  0.00     0.023 A 
ATOM     73  C   UNL     1       0.769   1.217  12.810  1.00  0.00     0.012 A 
ATOM     74  C   UNL     1       0.036   1.957  10.627  1.00  0.00     0.148 A 
ATOM     75  C   UNL     1       1.289   2.491  13.073  1.00  0.00     0.002 A 
ATOM     76  C   UNL     1       0.554   3.223  10.891  1.00  0.00     0.091 A 
ATOM     77  F   UNL     1      -0.493   1.677   9.429  1.00  0.00    -0.205 F 
ATOM     78  C   UNL     1       1.192   3.491  12.109  1.00  0.00     0.022 A 
BRANCH  76  79
ATOM     79  S   UNL     1       0.510   4.550   9.678  1.00  0.00     0.127 S 
ATOM     80  O   UNL     1      -0.065   5.649  10.455  1.00  0.00    -0.237 OA
ATOM     81  O   UNL     1       1.925   4.706   9.351  1.00  0.00    -0.237 OA
ATOM     82  O   UNL     1      -0.337   4.071   8.594  1.00  0.00    -0.744 OA
ENDBRANCH  76  79
ENDBRANCH  48  72
BRANCH  60  83
ATOM     83  C   UNL     1      -0.433  -5.239  12.207  1.00  0.00     0.023 A 
ATOM     84  C   UNL     1      -1.694  -4.626  12.040  1.00  0.00     0.012 A 
ATOM     85  C   UNL     1      -0.320  -6.333  13.078  1.00  0.00     0.148 A 
ATOM     86  C   UNL     1      -2.809  -5.085  12.749  1.00  0.00     0.002 A 
ATOM     87  C   UNL     1      -1.438  -6.816  13.742  1.00  0.00     0.091 A 
ATOM     88  F   UNL     1       0.887  -6.901  13.223  1.00  0.00    -0.205 F 
ATOM     89  C   UNL     1      -2.684  -6.189  13.590  1.00  0.00     0.022 A 
BRANCH  87  90
ATOM     90  S   UNL     1      -1.349  -8.304  14.736  1.00  0.00     0.127 S 
ATOM     91  O   UNL     1      -1.360  -7.764  16.093  1.00  0.00    -0.237 OA
ATOM     92  O   UNL     1      -2.567  -9.015  14.348  1.00  0.00    -0.237 OA
ATOM     93  O   UNL     1      -0.118  -8.977  14.337  1.00  0.00    -0.744 OA
ENDBRANCH  87  90
ENDBRANCH  60  83
ENDBRANCH  34  35
ENDBRANCH  27  29
ENDBRANCH  26  27
ENDBRANCH  25  26
ENDBRANCH  24  25
ENDBRANCH   1  24
TORSDOF 21
