REMARK SMILES CC(C)C[C@H](NC(=O)CNC(=O)[C@@H](NC(=O)OCc1ccccc1)C(C)C)C(=O)N[C@@H](C)C(=O)OCCOCCOC(=O)c1ccc(-c2c3nc(c(-c4cccc(S(=O)(=O)[O-])c4F)c4ccc([nH]4)c(-c4cccc(S(=O)(=O)[O-])c4F)c4nc(c(-c5cccc(S(=O)(=O)[O-])c5F)c5ccc2[nH]5)C=C4)C=C3)cc1
REMARK SMILES IDX 33 1 34 2 31 3 32 4 30 5 28 6 29 7 5 9 4 10 2 11 1 12 3 13
REMARK SMILES IDX 6 14 7 15 8 17 9 18 10 19 11 20 12 22 13 23 14 24 15 25
REMARK SMILES IDX 16 27 17 28 18 29 19 30 20 31 24 32 21 33 23 34 22 35 25 36
REMARK SMILES IDX 26 37 27 38 35 39 36 40 37 41 38 42 39 43 40 44 41 45 42 46
REMARK SMILES IDX 43 47 44 48 45 49 106 50 46 51 105 52 47 53 48 54 49 55
REMARK SMILES IDX 99 56 50 57 104 58 98 59 100 60 51 61 103 62 97 63 96 64
REMARK SMILES IDX 52 66 84 67 64 68 83 69 65 70 68 71 82 72 101 73 66 74 67 75
REMARK SMILES IDX 81 77 102 78 69 79 53 80 54 81 62 82 55 83 57 84 63 85 56 86
REMARK SMILES IDX 58 87 59 88 60 89 61 90 85 91 86 92 94 93 87 94 89 95 95 96
REMARK SMILES IDX 88 97 90 98 91 99 92 100 93 101 70 102 71 103 79 104 72 105
REMARK SMILES IDX 74 106 80 107 73 108 75 109 76 110 77 111 78 112
REMARK H PARENT 30 8 6 16 10 21 14 26 100 65 68 76
REMARK Flexibility Score: inf
ROOT
ATOM      1  C   UNL     1      -3.180   3.174   4.309  1.00  0.00     0.328 C 
ATOM      2  O   UNL     1      -2.452   3.932   4.940  1.00  0.00    -0.250 OA
ENDROOT
BRANCH   1   3
ATOM      3  C   UNL     1      -2.876   2.752   2.857  1.00  0.00     0.189 C 
ATOM      4  C   UNL     1      -3.391   3.861   1.947  1.00  0.00     0.043 C 
BRANCH   3   5
ATOM      5  N   UNL     1      -3.461   1.468   2.445  1.00  0.00    -0.341 N 
ATOM      6  C   UNL     1      -2.914   0.295   2.024  1.00  0.00     0.243 C 
ATOM      7  O   UNL     1      -3.681  -0.675   1.918  1.00  0.00    -0.273 OA
ATOM      8  H   UNL     1      -4.445   1.454   2.481  1.00  0.00     0.164 HD
BRANCH   6   9
ATOM      9  C   UNL     1      -1.395   0.042   1.799  1.00  0.00     0.171 C 
BRANCH   9  10
ATOM     10  C   UNL     1      -0.636  -0.200   3.127  1.00  0.00     0.038 C 
BRANCH  10  11
ATOM     11  C   UNL     1      -0.639  -1.688   3.584  1.00  0.00    -0.015 C 
ATOM     12  C   UNL     1       0.299  -2.543   2.735  1.00  0.00     0.007 C 
ATOM     13  C   UNL     1      -0.183  -1.873   5.034  1.00  0.00     0.007 C 
ENDBRANCH  10  11
ENDBRANCH   9  10
BRANCH   9  14
ATOM     14  N   UNL     1      -0.736   1.053   0.977  1.00  0.00    -0.343 N 
ATOM     15  C   UNL     1      -0.220   1.018  -0.278  1.00  0.00     0.240 C 
ATOM     16  H   UNL     1      -0.649   1.929   1.418  1.00  0.00     0.164 HD
ATOM     17  O   UNL     1       0.150   2.109  -0.734  1.00  0.00    -0.273 OA
BRANCH  15  18
ATOM     18  C   UNL     1      -0.146  -0.225  -1.195  1.00  0.00     0.216 C 
BRANCH  18  19
ATOM     19  N   UNL     1      -0.053  -1.570  -0.666  1.00  0.00    -0.345 N 
ATOM     20  C   UNL     1      -0.891  -2.641  -0.707  1.00  0.00     0.243 C 
ATOM     21  H   UNL     1       0.785  -1.744  -0.179  1.00  0.00     0.164 HD
ATOM     22  O   UNL     1      -0.397  -3.718  -0.346  1.00  0.00    -0.273 OA
BRANCH  20  23
ATOM     23  C   UNL     1      -2.336  -2.613  -1.268  1.00  0.00     0.177 C 
BRANCH  23  24
ATOM     24  N   UNL     1      -3.045  -1.405  -0.838  1.00  0.00    -0.309 N 
ATOM     25  C   UNL     1      -3.312  -0.236  -1.469  1.00  0.00     0.408 C 
ATOM     26  H   UNL     1      -3.392  -1.452   0.082  1.00  0.00     0.167 HD
ATOM     27  O   UNL     1      -3.504   0.792  -0.827  1.00  0.00    -0.225 OA
BRANCH  25  28
ATOM     28  O   UNL     1      -3.360  -0.325  -2.812  1.00  0.00    -0.445 OA
BRANCH  28  29
ATOM     29  C   UNL     1      -3.910   0.814  -3.487  1.00  0.00     0.270 C 
BRANCH  29  30
ATOM     30  C   UNL     1      -5.421   0.749  -3.564  1.00  0.00    -0.011 A 
ATOM     31  C   UNL     1      -6.071   0.776  -4.806  1.00  0.00     0.007 A 
ATOM     32  C   UNL     1      -6.213   0.719  -2.404  1.00  0.00     0.007 A 
ATOM     33  C   UNL     1      -7.467   0.775  -4.879  1.00  0.00     0.000 A 
ATOM     34  C   UNL     1      -7.605   0.706  -2.477  1.00  0.00     0.000 A 
ATOM     35  C   UNL     1      -8.233   0.740  -3.715  1.00  0.00     0.000 A 
ENDBRANCH  29  30
ENDBRANCH  28  29
ENDBRANCH  25  28
ENDBRANCH  23  24
BRANCH  23  36
ATOM     36  C   UNL     1      -2.392  -2.997  -2.764  1.00  0.00     0.015 C 
ATOM     37  C   UNL     1      -1.564  -4.254  -3.079  1.00  0.00     0.010 C 
ATOM     38  C   UNL     1      -3.835  -3.273  -3.210  1.00  0.00     0.010 C 
ENDBRANCH  23  36
ENDBRANCH  20  23
ENDBRANCH  18  19
ENDBRANCH  15  18
ENDBRANCH   9  14
ENDBRANCH   6   9
ENDBRANCH   3   5
ENDBRANCH   1   3
BRANCH   1  39
ATOM     39  O   UNL     1      -4.367   2.680   4.755  1.00  0.00    -0.462 OA
BRANCH  39  40
ATOM     40  C   UNL     1      -4.635   2.836   6.164  1.00  0.00     0.261 C 
BRANCH  40  41
ATOM     41  C   UNL     1      -4.847   1.467   6.820  1.00  0.00     0.202 C 
BRANCH  41  42
ATOM     42  O   UNL     1      -3.708   0.606   6.819  1.00  0.00    -0.374 OA
BRANCH  42  43
ATOM     43  C   UNL     1      -3.421  -0.031   5.578  1.00  0.00     0.202 C 
BRANCH  43  44
ATOM     44  C   UNL     1      -4.090  -1.378   5.317  1.00  0.00     0.261 C 
BRANCH  44  45
ATOM     45  O   UNL     1      -5.504  -1.207   5.174  1.00  0.00    -0.460 OA
BRANCH  45  46
ATOM     46  C   UNL     1      -6.218  -1.608   6.248  1.00  0.00     0.338 C 
ATOM     47  O   UNL     1      -5.809  -2.212   7.225  1.00  0.00    -0.246 OA
BRANCH  46  48
ATOM     48  C   UNL     1      -7.557  -1.005   6.178  1.00  0.00     0.060 A 
ATOM     49  C   UNL     1      -7.992  -0.317   7.317  1.00  0.00     0.016 A 
ATOM     50  C   UNL     1      -8.374  -1.125   5.052  1.00  0.00     0.016 A 
ATOM     51  C   UNL     1      -9.280   0.195   7.363  1.00  0.00     0.010 A 
ATOM     52  C   UNL     1      -9.672  -0.614   5.103  1.00  0.00     0.010 A 
ATOM     53  C   UNL     1     -10.141   0.004   6.276  1.00  0.00    -0.014 A 
BRANCH  53  54
ATOM     54  C   UNL     1     -11.578   0.308   6.446  1.00  0.00     0.031 A 
ATOM     55  C   UNL     1     -12.531  -0.827   6.694  1.00  0.00     0.074 A 
ATOM     56  C   UNL     1     -12.012   1.579   6.422  1.00  0.00     0.049 A 
ATOM     57  N   UNL     1     -13.824  -0.794   6.878  1.00  0.00    -0.248 NA
ATOM     58  C   UNL     1     -11.950  -2.180   6.741  1.00  0.00     0.031 C 
ATOM     59  C   UNL     1     -11.169   2.755   6.204  1.00  0.00     0.029 A 
ATOM     60  N   UNL     1     -13.276   2.089   6.564  1.00  0.00    -0.354 N 
ATOM     61  C   UNL     1     -14.217  -2.118   7.028  1.00  0.00     0.074 A 
ATOM     62  C   UNL     1     -13.029  -2.932   6.903  1.00  0.00     0.031 C 
ATOM     63  C   UNL     1     -11.946   3.851   6.202  1.00  0.00     0.029 A 
ATOM     64  C   UNL     1     -13.339   3.450   6.388  1.00  0.00     0.049 A 
ATOM     65  H   UNL     1     -14.062   1.535   6.773  1.00  0.00     0.167 HD
ATOM     66  C   UNL     1     -15.456  -2.610   7.262  1.00  0.00     0.034 A 
ATOM     67  C   UNL     1     -14.405   4.272   6.354  1.00  0.00     0.034 A 
ATOM     68  C   UNL     1     -16.629  -1.790   7.400  1.00  0.00     0.049 A 
ATOM     69  C   UNL     1     -15.777   3.696   6.587  1.00  0.00     0.074 A 
ATOM     70  C   UNL     1     -17.924  -2.182   7.685  1.00  0.00     0.029 A 
ATOM     71  N   UNL     1     -16.652  -0.412   7.243  1.00  0.00    -0.354 N 
ATOM     72  N   UNL     1     -16.121   2.456   6.838  1.00  0.00    -0.248 NA
ATOM     73  C   UNL     1     -16.905   4.639   6.566  1.00  0.00     0.031 C 
ATOM     74  C   UNL     1     -18.738  -1.046   7.659  1.00  0.00     0.029 A 
ATOM     75  C   UNL     1     -17.943   0.061   7.406  1.00  0.00     0.049 A 
ATOM     76  H   UNL     1     -15.867   0.147   7.045  1.00  0.00     0.167 HD
ATOM     77  C   UNL     1     -17.496   2.474   7.042  1.00  0.00     0.074 A 
ATOM     78  C   UNL     1     -17.918   3.853   6.904  1.00  0.00     0.031 C 
ATOM     79  C   UNL     1     -18.337   1.443   7.310  1.00  0.00     0.034 A 
BRANCH  66  80
ATOM     80  C   UNL     1     -15.605  -4.103   7.387  1.00  0.00     0.023 A 
ATOM     81  C   UNL     1     -15.097  -4.771   8.520  1.00  0.00     0.012 A 
ATOM     82  C   UNL     1     -16.290  -4.839   6.401  1.00  0.00     0.148 A 
ATOM     83  C   UNL     1     -15.239  -6.152   8.653  1.00  0.00     0.002 A 
ATOM     84  C   UNL     1     -16.470  -6.207   6.564  1.00  0.00     0.091 A 
ATOM     85  F   UNL     1     -16.744  -4.191   5.319  1.00  0.00    -0.205 F 
ATOM     86  C   UNL     1     -15.934  -6.867   7.681  1.00  0.00     0.022 A 
BRANCH  84  87
ATOM     87  S   UNL     1     -17.420  -7.203   5.410  1.00  0.00     0.127 S 
ATOM     88  O   UNL     1     -16.375  -8.023   4.798  1.00  0.00    -0.237 OA
ATOM     89  O   UNL     1     -18.322  -7.930   6.303  1.00  0.00    -0.237 OA
ATOM     90  O   UNL     1     -18.079  -6.263   4.514  1.00  0.00    -0.744 OA
ENDBRANCH  84  87
ENDBRANCH  66  80
BRANCH  67  91
ATOM     91  C   UNL     1     -14.214   5.728   6.104  1.00  0.00     0.023 A 
ATOM     92  C   UNL     1     -14.473   6.655   7.131  1.00  0.00     0.012 A 
ATOM     93  C   UNL     1     -13.758   6.194   4.855  1.00  0.00     0.148 A 
ATOM     94  C   UNL     1     -14.314   8.024   6.908  1.00  0.00     0.002 A 
ATOM     95  C   UNL     1     -13.545   7.552   4.659  1.00  0.00     0.091 A 
ATOM     96  F   UNL     1     -13.529   5.295   3.888  1.00  0.00    -0.205 F 
ATOM     97  C   UNL     1     -13.841   8.471   5.677  1.00  0.00     0.022 A 
BRANCH  95  98
ATOM     98  S   UNL     1     -12.814   8.204   3.154  1.00  0.00     0.127 S 
ATOM     99  O   UNL     1     -13.934   8.936   2.570  1.00  0.00    -0.237 OA
ATOM    100  O   UNL     1     -11.737   9.042   3.683  1.00  0.00    -0.237 OA
ATOM    101  O   UNL     1     -12.357   7.044   2.402  1.00  0.00    -0.744 OA
ENDBRANCH  95  98
ENDBRANCH  67  91
BRANCH  79 102
ATOM    102  C   UNL     1     -19.794   1.766   7.520  1.00  0.00     0.023 A 
ATOM    103  C   UNL     1     -20.597   2.154   6.429  1.00  0.00     0.012 A 
ATOM    104  C   UNL     1     -20.381   1.613   8.792  1.00  0.00     0.148 A 
ATOM    105  C   UNL     1     -21.954   2.421   6.609  1.00  0.00     0.002 A 
ATOM    106  C   UNL     1     -21.744   1.827   8.952  1.00  0.00     0.091 A 
ATOM    107  F   UNL     1     -19.596   1.258   9.820  1.00  0.00    -0.205 F 
ATOM    108  C   UNL     1     -22.529   2.245   7.866  1.00  0.00     0.022 A 
BRANCH 106 109
ATOM    109  S   UNL     1     -22.590   1.528  10.508  1.00  0.00     0.127 S 
ATOM    110  O   UNL     1     -22.922   2.887  10.932  1.00  0.00    -0.237 OA
ATOM    111  O   UNL     1     -23.737   0.723  10.086  1.00  0.00    -0.237 OA
ATOM    112  O   UNL     1     -21.637   0.825  11.357  1.00  0.00    -0.744 OA
ENDBRANCH 106 109
ENDBRANCH  79 102
ENDBRANCH  53  54
ENDBRANCH  46  48
ENDBRANCH  45  46
ENDBRANCH  44  45
ENDBRANCH  43  44
ENDBRANCH  42  43
ENDBRANCH  41  42
ENDBRANCH  40  41
ENDBRANCH  39  40
ENDBRANCH   1  39
TORSDOF 30
