REMARK SMILES C[C@@H]1C[N@@H+](C[C@]2(C(=O)OCCOCCOC(=O)c3ccc(-c4c5nc(c(-c6cccc(S(=O)(=O)[O-])c6F)c6ccc([nH]6)c(-c6cccc(S(=O)(=O)[O-])c6F)c6nc(c(-c7cccc(S(=O)(=O)[O-])c7F)c7ccc4[nH]7)C=C6)C=C5)cc3)CCOC2)C[C@@H]1C
REMARK SMILES IDX 13 1 12 2 11 3 10 4 9 5 7 6 8 7 6 8 81 9 84 10 82 11 83 12
REMARK SMILES IDX 5 13 4 14 1 15 2 16 3 17 86 18 85 19 87 20 14 22 15 23 16 24
REMARK SMILES IDX 17 25 18 26 19 27 80 28 20 29 79 30 21 31 22 32 23 33 73 34
REMARK SMILES IDX 24 35 78 36 72 37 74 38 25 39 77 40 71 41 70 42 26 44 58 45
REMARK SMILES IDX 38 46 57 47 39 48 42 49 56 50 75 51 40 52 41 53 55 55 76 56
REMARK SMILES IDX 43 57 27 58 28 59 36 60 29 61 31 62 37 63 30 64 32 65 33 66
REMARK SMILES IDX 34 67 35 68 59 69 60 70 68 71 61 72 63 73 69 74 62 75 64 76
REMARK SMILES IDX 65 77 66 78 67 79 44 80 45 81 53 82 46 83 48 84 54 85 47 86
REMARK SMILES IDX 49 87 50 88 51 89 52 90
REMARK H PARENT 4 21 74 43 42 54
REMARK Flexibility Score: inf
ROOT
ATOM      1  C   UNL     1       2.104   3.840   0.636  1.00  0.00     0.202 C 
ENDROOT
BRANCH   1   2
ATOM      2  O   UNL     1       2.837   4.670  -0.263  1.00  0.00    -0.374 OA
BRANCH   2   3
ATOM      3  C   UNL     1       2.326   5.976  -0.532  1.00  0.00     0.202 C 
BRANCH   3   4
ATOM      4  C   UNL     1       1.036   6.071  -1.347  1.00  0.00     0.261 C 
BRANCH   4   5
ATOM      5  O   UNL     1      -0.072   5.460  -0.661  1.00  0.00    -0.463 OA
BRANCH   5   6
ATOM      6  C   UNL     1      -0.825   4.627  -1.421  1.00  0.00     0.320 C 
ATOM      7  O   UNL     1      -0.698   4.505  -2.638  1.00  0.00    -0.251 OA
BRANCH   6   8
ATOM      8  C   UNL     1      -1.876   3.839  -0.636  1.00  0.00     0.142 C 
ATOM      9  C   UNL     1      -1.740   2.401  -1.155  1.00  0.00     0.055 C 
ATOM     10  C   UNL     1      -1.578   3.680   0.857  1.00  0.00     0.185 C 
ATOM     11  C   UNL     1      -1.891   1.525   0.057  1.00  0.00     0.161 C 
ATOM     12  O   UNL     1      -1.351   2.284   1.137  1.00  0.00    -0.380 OA
BRANCH   8  13
ATOM     13  C   UNL     1      -3.204   4.595  -0.930  1.00  0.00     0.283 C 
BRANCH  13  14
ATOM     14  N   UNL     1      -4.508   4.130  -0.486  1.00  0.00    -0.333 N 
ATOM     15  C   UNL     1      -6.009   2.695   2.592  1.00  0.00     0.014 C 
ATOM     16  C   UNL     1      -5.223   2.836   1.302  1.00  0.00     0.049 C 
ATOM     17  C   UNL     1      -4.935   4.274   0.894  1.00  0.00     0.265 C 
ATOM     18  C   UNL     1      -5.862   2.243   0.034  1.00  0.00     0.049 C 
ATOM     19  C   UNL     1      -5.112   2.961  -1.099  1.00  0.00     0.265 C 
ATOM     20  C   UNL     1      -7.369   2.467  -0.078  1.00  0.00     0.014 C 
ATOM     21  H   UNL     1      -4.903   4.944  -0.956  1.00  0.00     0.348 HD
ENDBRANCH  13  14
ENDBRANCH   8  13
ENDBRANCH   6   8
ENDBRANCH   5   6
ENDBRANCH   4   5
ENDBRANCH   3   4
ENDBRANCH   2   3
ENDBRANCH   1   2
BRANCH   1  22
ATOM     22  C   UNL     1       2.116   4.218   2.128  1.00  0.00     0.261 C 
BRANCH  22  23
ATOM     23  O   UNL     1       1.661   5.557   2.394  1.00  0.00    -0.460 OA
BRANCH  23  24
ATOM     24  C   UNL     1       2.623   6.398   2.850  1.00  0.00     0.338 C 
ATOM     25  O   UNL     1       3.780   6.108   3.133  1.00  0.00    -0.246 OA
BRANCH  24  26
ATOM     26  C   UNL     1       2.167   7.799   2.791  1.00  0.00     0.060 A 
ATOM     27  C   UNL     1       2.928   8.688   2.021  1.00  0.00     0.016 A 
ATOM     28  C   UNL     1       1.087   8.260   3.546  1.00  0.00     0.016 A 
ATOM     29  C   UNL     1       2.648  10.052   2.045  1.00  0.00     0.010 A 
ATOM     30  C   UNL     1       0.814   9.634   3.576  1.00  0.00     0.010 A 
ATOM     31  C   UNL     1       1.620  10.539   2.861  1.00  0.00    -0.014 A 
BRANCH  31  32
ATOM     32  C   UNL     1       1.515  12.002   3.088  1.00  0.00     0.031 A 
ATOM     33  C   UNL     1       2.114  12.590   4.338  1.00  0.00     0.074 A 
ATOM     34  C   UNL     1       0.932  12.804   2.179  1.00  0.00     0.049 A 
ATOM     35  N   UNL     1       2.179  13.840   4.717  1.00  0.00    -0.248 NA
ATOM     36  C   UNL     1       2.722  11.642   5.286  1.00  0.00     0.031 C 
ATOM     37  C   UNL     1       0.330  12.359   0.925  1.00  0.00     0.029 A 
ATOM     38  N   UNL     1       0.746  14.164   2.180  1.00  0.00    -0.354 N 
ATOM     39  C   UNL     1       2.805  13.827   5.958  1.00  0.00     0.074 A 
ATOM     40  C   UNL     1       3.091  12.445   6.274  1.00  0.00     0.031 C 
ATOM     41  C   UNL     1      -0.171  13.427   0.280  1.00  0.00     0.029 A 
ATOM     42  C   UNL     1       0.059  14.627   1.084  1.00  0.00     0.049 A 
ATOM     43  H   UNL     1       1.074  14.752   2.898  1.00  0.00     0.167 HD
ATOM     44  C   UNL     1       3.127  14.872   6.758  1.00  0.00     0.034 A 
ATOM     45  C   UNL     1      -0.345  15.874   0.770  1.00  0.00     0.034 A 
ATOM     46  C   UNL     1       2.869  16.248   6.431  1.00  0.00     0.049 A 
ATOM     47  C   UNL     1       0.003  17.016   1.689  1.00  0.00     0.074 A 
ATOM     48  C   UNL     1       3.219  17.381   7.144  1.00  0.00     0.029 A 
ATOM     49  N   UNL     1       2.183  16.678   5.307  1.00  0.00    -0.354 N 
ATOM     50  N   UNL     1       0.712  17.003   2.792  1.00  0.00    -0.248 NA
ATOM     51  C   UNL     1      -0.478  18.351   1.303  1.00  0.00     0.031 C 
ATOM     52  C   UNL     1       2.716  18.496   6.464  1.00  0.00     0.029 A 
ATOM     53  C   UNL     1       2.077  18.058   5.315  1.00  0.00     0.049 A 
ATOM     54  H   UNL     1       1.823  16.088   4.605  1.00  0.00     0.167 HD
ATOM     55  C   UNL     1       0.794  18.327   3.211  1.00  0.00     0.074 A 
ATOM     56  C   UNL     1       0.074  19.118   2.234  1.00  0.00     0.031 C 
ATOM     57  C   UNL     1       1.401  18.840   4.310  1.00  0.00     0.034 A 
BRANCH  44  58
ATOM     58  C   UNL     1       3.813  14.562   8.063  1.00  0.00     0.023 A 
ATOM     59  C   UNL     1       5.160  14.146   8.066  1.00  0.00     0.012 A 
ATOM     60  C   UNL     1       3.134  14.716   9.287  1.00  0.00     0.148 A 
ATOM     61  C   UNL     1       5.809  13.853   9.265  1.00  0.00     0.002 A 
ATOM     62  C   UNL     1       3.800  14.463  10.480  1.00  0.00     0.091 A 
ATOM     63  F   UNL     1       1.845  15.086   9.263  1.00  0.00    -0.205 F 
ATOM     64  C   UNL     1       5.133  14.021  10.471  1.00  0.00     0.022 A 
BRANCH  62  65
ATOM     65  S   UNL     1       3.032  14.724  12.083  1.00  0.00     0.127 S 
ATOM     66  O   UNL     1       2.732  13.353  12.493  1.00  0.00    -0.237 OA
ATOM     67  O   UNL     1       4.105  15.367  12.842  1.00  0.00    -0.237 OA
ATOM     68  O   UNL     1       1.876  15.575  11.835  1.00  0.00    -0.744 OA
ENDBRANCH  62  65
ENDBRANCH  44  58
BRANCH  45  69
ATOM     69  C   UNL     1      -1.079  16.117  -0.505  1.00  0.00     0.023 A 
ATOM     70  C   UNL     1      -0.444  16.823  -1.545  1.00  0.00     0.012 A 
ATOM     71  C   UNL     1      -2.386  15.630  -0.702  1.00  0.00     0.148 A 
ATOM     72  C   UNL     1      -1.104  17.058  -2.751  1.00  0.00     0.002 A 
ATOM     73  C   UNL     1      -3.018  15.821  -1.925  1.00  0.00     0.091 A 
ATOM     74  F   UNL     1      -2.978  14.977   0.307  1.00  0.00    -0.205 F 
ATOM     75  C   UNL     1      -2.385  16.548  -2.946  1.00  0.00     0.022 A 
BRANCH  73  76
ATOM     76  S   UNL     1      -4.616  15.097  -2.310  1.00  0.00     0.127 S 
ATOM     77  O   UNL     1      -5.467  16.280  -2.404  1.00  0.00    -0.237 OA
ATOM     78  O   UNL     1      -4.343  14.431  -3.584  1.00  0.00    -0.237 OA
ATOM     79  O   UNL     1      -4.914  14.191  -1.210  1.00  0.00    -0.744 OA
ENDBRANCH  73  76
ENDBRANCH  45  69
BRANCH  57  80
ATOM     80  C   UNL     1       1.347  20.333   4.511  1.00  0.00     0.023 A 
ATOM     81  C   UNL     1       0.141  20.942   4.910  1.00  0.00     0.012 A 
ATOM     82  C   UNL     1       2.509  21.120   4.383  1.00  0.00     0.148 A 
ATOM     83  C   UNL     1       0.085  22.315   5.151  1.00  0.00     0.002 A 
ATOM     84  C   UNL     1       2.457  22.479   4.671  1.00  0.00     0.091 A 
ATOM     85  F   UNL     1       3.643  20.526   3.984  1.00  0.00    -0.205 F 
ATOM     86  C   UNL     1       1.244  23.080   5.043  1.00  0.00     0.022 A 
BRANCH  84  87
ATOM     87  S   UNL     1       3.921  23.522   4.654  1.00  0.00     0.127 S 
ATOM     88  O   UNL     1       3.726  24.289   3.425  1.00  0.00    -0.237 OA
ATOM     89  O   UNL     1       3.768  24.295   5.887  1.00  0.00    -0.237 OA
ATOM     90  O   UNL     1       5.059  22.612   4.651  1.00  0.00    -0.744 OA
ENDBRANCH  84  87
ENDBRANCH  57  80
ENDBRANCH  31  32
ENDBRANCH  24  26
ENDBRANCH  23  24
ENDBRANCH  22  23
ENDBRANCH   1  22
TORSDOF 19
