REMARK SMILES O=C(OCCOCCOC(=O)c1cncc(Oc2cc(F)ccc2F)n1)c1ccc(-c2c3nc(c(-c4cccc(S(=O)(=O)[O-])c4F)c4ccc([nH]4)c(-c4cccc(S(=O)(=O)[O-])c4F)c4nc(c(-c5cccc(S(=O)(=O)[O-])c5F)c5ccc2[nH]5)C=C4)C=C3)cc1
REMARK SMILES IDX 5 1 4 2 3 3 2 4 1 5 27 6 28 7 89 8 29 9 88 10 30 11 31 12
REMARK SMILES IDX 32 13 82 14 33 15 87 16 81 17 83 18 34 19 86 20 80 21 79 22
REMARK SMILES IDX 35 24 67 25 47 26 66 27 48 28 51 29 65 30 84 31 49 32 50 33
REMARK SMILES IDX 64 35 85 36 52 37 36 38 37 39 45 40 38 41 40 42 46 43 39 44
REMARK SMILES IDX 41 45 42 46 43 47 44 48 68 49 69 50 77 51 70 52 72 53 78 54
REMARK SMILES IDX 71 55 73 56 74 57 75 58 76 59 53 60 54 61 62 62 55 63 57 64
REMARK SMILES IDX 63 65 56 66 58 67 59 68 60 69 61 70 6 71 7 72 8 73 9 74
REMARK SMILES IDX 10 75 11 76 12 77 13 78 26 79 14 80 16 81 15 82 17 83 18 84
REMARK SMILES IDX 19 85 24 86 20 87 23 88 25 89 21 90 22 91
REMARK H PARENT 83 23 51 34
REMARK Flexibility Score: inf
ROOT
ATOM      1  C   UNL     1       4.367  -0.637  -1.737  1.00  0.00     0.202 C 
ENDROOT
BRANCH   1   2
ATOM      2  C   UNL     1       4.081  -1.458  -0.475  1.00  0.00     0.261 C 
BRANCH   2   3
ATOM      3  O   UNL     1       2.707  -1.305  -0.081  1.00  0.00    -0.460 OA
BRANCH   3   4
ATOM      4  C   UNL     1       2.173  -0.448   0.823  1.00  0.00     0.338 C 
ATOM      5  O   UNL     1       0.952  -0.458   0.971  1.00  0.00    -0.246 OA
BRANCH   4   6
ATOM      6  C   UNL     1       2.976   0.489   1.672  1.00  0.00     0.060 A 
ATOM      7  C   UNL     1       4.248   0.973   1.365  1.00  0.00     0.016 A 
ATOM      8  C   UNL     1       2.364   0.967   2.846  1.00  0.00     0.016 A 
ATOM      9  C   UNL     1       4.929   1.828   2.217  1.00  0.00     0.010 A 
ATOM     10  C   UNL     1       3.027   1.860   3.696  1.00  0.00     0.010 A 
ATOM     11  C   UNL     1       4.330   2.263   3.393  1.00  0.00    -0.014 A 
BRANCH  11  12
ATOM     12  C   UNL     1       5.173   3.026   4.329  1.00  0.00     0.031 A 
ATOM     13  C   UNL     1       5.759   2.303   5.503  1.00  0.00     0.074 A 
ATOM     14  C   UNL     1       5.529   4.286   4.020  1.00  0.00     0.049 A 
ATOM     15  N   UNL     1       6.615   2.729   6.390  1.00  0.00    -0.248 NA
ATOM     16  C   UNL     1       5.345   0.900   5.689  1.00  0.00     0.031 C 
ATOM     17  C   UNL     1       5.069   5.025   2.842  1.00  0.00     0.029 A 
ATOM     18  N   UNL     1       6.384   5.152   4.646  1.00  0.00    -0.354 N 
ATOM     19  C   UNL     1       6.808   1.667   7.263  1.00  0.00     0.074 A 
ATOM     20  C   UNL     1       5.993   0.570   6.795  1.00  0.00     0.031 C 
ATOM     21  C   UNL     1       5.663   6.229   2.821  1.00  0.00     0.029 A 
ATOM     22  C   UNL     1       6.509   6.360   4.001  1.00  0.00     0.049 A 
ATOM     23  H   UNL     1       6.863   4.932   5.477  1.00  0.00     0.167 HD
ATOM     24  C   UNL     1       7.599   1.617   8.358  1.00  0.00     0.034 A 
ATOM     25  C   UNL     1       7.225   7.449   4.342  1.00  0.00     0.034 A 
ATOM     26  C   UNL     1       8.410   2.718   8.794  1.00  0.00     0.049 A 
ATOM     27  C   UNL     1       8.070   7.374   5.585  1.00  0.00     0.074 A 
ATOM     28  C   UNL     1       9.225   2.803   9.905  1.00  0.00     0.029 A 
ATOM     29  N   UNL     1       8.498   3.935   8.132  1.00  0.00    -0.354 N 
ATOM     30  N   UNL     1       8.273   6.352   6.385  1.00  0.00    -0.248 NA
ATOM     31  C   UNL     1       8.802   8.589   5.965  1.00  0.00     0.031 C 
ATOM     32  C   UNL     1       9.789   4.084   9.928  1.00  0.00     0.029 A 
ATOM     33  C   UNL     1       9.349   4.784   8.813  1.00  0.00     0.049 A 
ATOM     34  H   UNL     1       8.024   4.160   7.298  1.00  0.00     0.167 HD
ATOM     35  C   UNL     1       9.177   6.789   7.343  1.00  0.00     0.074 A 
ATOM     36  C   UNL     1       9.500   8.163   7.009  1.00  0.00     0.031 C 
ATOM     37  C   UNL     1       9.684   6.128   8.414  1.00  0.00     0.034 A 
BRANCH  24  38
ATOM     38  C   UNL     1       7.580   0.345   9.160  1.00  0.00     0.023 A 
ATOM     39  C   UNL     1       8.228  -0.809   8.674  1.00  0.00     0.012 A 
ATOM     40  C   UNL     1       6.896   0.290  10.389  1.00  0.00     0.148 A 
ATOM     41  C   UNL     1       8.163  -2.009   9.384  1.00  0.00     0.002 A 
ATOM     42  C   UNL     1       6.869  -0.898  11.109  1.00  0.00     0.091 A 
ATOM     43  F   UNL     1       6.260   1.390  10.816  1.00  0.00    -0.205 F 
ATOM     44  C   UNL     1       7.490  -2.051  10.603  1.00  0.00     0.022 A 
BRANCH  42  45
ATOM     45  S   UNL     1       6.073  -1.038  12.712  1.00  0.00     0.127 S 
ATOM     46  O   UNL     1       4.910  -1.866  12.394  1.00  0.00    -0.237 OA
ATOM     47  O   UNL     1       7.101  -1.710  13.508  1.00  0.00    -0.237 OA
ATOM     48  O   UNL     1       5.774   0.324  13.133  1.00  0.00    -0.744 OA
ENDBRANCH  42  45
ENDBRANCH  24  38
BRANCH  25  49
ATOM     49  C   UNL     1       7.191   8.674   3.491  1.00  0.00     0.023 A 
ATOM     50  C   UNL     1       8.355   9.093   2.818  1.00  0.00     0.012 A 
ATOM     51  C   UNL     1       6.005   9.418   3.329  1.00  0.00     0.148 A 
ATOM     52  C   UNL     1       8.346  10.243   2.026  1.00  0.00     0.002 A 
ATOM     53  C   UNL     1       5.988  10.530   2.495  1.00  0.00     0.091 A 
ATOM     54  F   UNL     1       4.910   9.021   3.994  1.00  0.00    -0.205 F 
ATOM     55  C   UNL     1       7.162  10.955   1.855  1.00  0.00     0.022 A 
BRANCH  53  56
ATOM     56  S   UNL     1       4.475  11.426   2.124  1.00  0.00     0.127 S 
ATOM     57  O   UNL     1       4.655  12.650   2.901  1.00  0.00    -0.237 OA
ATOM     58  O   UNL     1       4.569  11.598   0.674  1.00  0.00    -0.237 OA
ATOM     59  O   UNL     1       3.390  10.554   2.553  1.00  0.00    -0.744 OA
ENDBRANCH  53  56
ENDBRANCH  25  49
BRANCH  37  60
ATOM     60  C   UNL     1      10.668   6.868   9.276  1.00  0.00     0.023 A 
ATOM     61  C   UNL     1      10.216   7.882  10.143  1.00  0.00     0.012 A 
ATOM     62  C   UNL     1      12.025   6.496   9.288  1.00  0.00     0.148 A 
ATOM     63  C   UNL     1      11.109   8.537  10.988  1.00  0.00     0.002 A 
ATOM     64  C   UNL     1      12.899   7.116  10.170  1.00  0.00     0.091 A 
ATOM     65  F   UNL     1      12.436   5.543   8.438  1.00  0.00    -0.205 F 
ATOM     66  C   UNL     1      12.446   8.145  11.012  1.00  0.00     0.022 A 
BRANCH  64  67
ATOM     67  S   UNL     1      14.608   6.593  10.339  1.00  0.00     0.127 S 
ATOM     68  O   UNL     1      15.314   7.635   9.596  1.00  0.00    -0.237 OA
ATOM     69  O   UNL     1      14.808   6.635  11.788  1.00  0.00    -0.237 OA
ATOM     70  O   UNL     1      14.672   5.256   9.764  1.00  0.00    -0.744 OA
ENDBRANCH  64  67
ENDBRANCH  37  60
ENDBRANCH  11  12
ENDBRANCH   4   6
ENDBRANCH   3   4
ENDBRANCH   2   3
ENDBRANCH   1   2
BRANCH   1  71
ATOM     71  O   UNL     1       4.104   0.758  -1.593  1.00  0.00    -0.374 OA
BRANCH  71  72
ATOM     72  C   UNL     1       2.792   1.189  -1.963  1.00  0.00     0.202 C 
BRANCH  72  73
ATOM     73  C   UNL     1       2.878   2.093  -3.193  1.00  0.00     0.261 C 
BRANCH  73  74
ATOM     74  O   UNL     1       3.414   1.326  -4.287  1.00  0.00    -0.458 OA
BRANCH  74  75
ATOM     75  C   UNL     1       4.772   1.351  -4.398  1.00  0.00     0.358 C 
ATOM     76  O   UNL     1       5.532   2.180  -3.930  1.00  0.00    -0.244 OA
BRANCH  75  77
ATOM     77  C   UNL     1       5.189   0.097  -5.071  1.00  0.00     0.170 A 
ATOM     78  C   UNL     1       4.426  -0.417  -6.112  1.00  0.00     0.147 A 
ATOM     79  N   UNL     1       6.289  -0.548  -4.579  1.00  0.00    -0.203 NA
ATOM     80  N   UNL     1       4.723  -1.591  -6.722  1.00  0.00    -0.257 NA
ATOM     81  C   UNL     1       6.579  -1.720  -5.184  1.00  0.00     0.238 A 
ATOM     82  C   UNL     1       5.821  -2.221  -6.237  1.00  0.00     0.179 A 
BRANCH  81  83
ATOM     83  O   UNL     1       7.705  -2.450  -4.833  1.00  0.00    -0.434 OA
BRANCH  83  84
ATOM     84  C   UNL     1       8.153  -2.366  -3.537  1.00  0.00     0.168 A 
ATOM     85  C   UNL     1       7.387  -2.821  -2.463  1.00  0.00     0.089 A 
ATOM     86  C   UNL     1       9.482  -1.991  -3.327  1.00  0.00     0.166 A 
ATOM     87  C   UNL     1       7.958  -2.866  -1.193  1.00  0.00     0.127 A 
ATOM     88  C   UNL     1      10.049  -2.042  -2.055  1.00  0.00     0.046 A 
ATOM     89  F   UNL     1      10.244  -1.615  -4.364  1.00  0.00    -0.203 F 
ATOM     90  F   UNL     1       7.226  -3.311  -0.163  1.00  0.00    -0.207 F 
ATOM     91  C   UNL     1       9.281  -2.485  -0.978  1.00  0.00     0.042 A 
ENDBRANCH  83  84
ENDBRANCH  81  83
ENDBRANCH  75  77
ENDBRANCH  74  75
ENDBRANCH  73  74
ENDBRANCH  72  73
ENDBRANCH  71  72
ENDBRANCH   1  71
TORSDOF 19
