REMARK SMILES CCc1ccc(-c2cc(Cl)cc3c2O[C@@H](C(F)(F)F)C(C(=O)OCCOCCOC(=O)c2ccc(-c4c5nc(c(-c6cccc(S(=O)(=O)[O-])c6F)c6ccc([nH]6)c(-c6cccc(S(=O)(=O)[O-])c6F)c6nc(c(-c7cccc(S(=O)(=O)[O-])c7F)c7ccc4[nH]7)C=C6)C=C5)cc2)=C3)cc1
REMARK SMILES IDX 27 1 26 2 25 3 24 4 23 5 21 6 22 7 20 8 7 9 8 10 13 11 9 12
REMARK SMILES IDX 12 13 14 14 10 15 11 16 95 17 15 18 6 19 3 20 4 21 97 22
REMARK SMILES IDX 5 23 96 24 2 25 1 26 16 27 17 28 18 29 19 30 28 31 29 32
REMARK SMILES IDX 30 33 31 34 32 35 33 36 94 37 34 38 93 39 35 40 36 41 37 42
REMARK SMILES IDX 87 43 38 44 92 45 86 46 88 47 39 48 91 49 85 50 84 51 40 53
REMARK SMILES IDX 72 54 52 55 71 56 53 57 56 58 70 59 89 60 54 61 55 62 69 64
REMARK SMILES IDX 90 65 57 66 41 67 42 68 50 69 43 70 45 71 51 72 44 73 46 74
REMARK SMILES IDX 47 75 48 76 49 77 73 78 74 79 82 80 75 81 77 82 83 83 76 84
REMARK SMILES IDX 78 85 79 86 80 87 81 88 58 89 59 90 67 91 60 92 62 93 68 94
REMARK SMILES IDX 61 95 63 96 64 97 65 98 66 99
REMARK H PARENT 88 52 56 63
REMARK Flexibility Score: inf
ROOT
ATOM      1  C   UNL     1       3.365  -5.310  -9.220  1.00  0.00     0.202 C 
ENDROOT
BRANCH   1   2
ATOM      2  O   UNL     1       2.317  -5.044 -10.151  1.00  0.00    -0.374 OA
BRANCH   2   3
ATOM      3  C   UNL     1       2.641  -5.044 -11.536  1.00  0.00     0.202 C 
BRANCH   3   4
ATOM      4  C   UNL     1       3.579  -3.951 -12.073  1.00  0.00     0.261 C 
BRANCH   4   5
ATOM      5  O   UNL     1       4.341  -3.302 -11.044  1.00  0.00    -0.460 OA
BRANCH   5   6
ATOM      6  C   UNL     1       4.500  -1.972 -11.181  1.00  0.00     0.338 C 
ATOM      7  O   UNL     1       4.133  -1.310 -12.142  1.00  0.00    -0.246 OA
BRANCH   6   8
ATOM      8  C   UNL     1       5.004  -1.331  -9.942  1.00  0.00     0.087 C 
ATOM      9  C   UNL     1       2.934  -2.291  -6.470  1.00  0.00     0.026 A 
ATOM     10  C   UNL     1       1.688  -2.767  -6.938  1.00  0.00     0.033 A 
ATOM     11  C   UNL     1       3.789  -1.793  -7.476  1.00  0.00     0.135 A 
ATOM     12  C   UNL     1       1.199  -2.375  -8.184  1.00  0.00     0.042 A 
ATOM     13  C   UNL     1       3.223  -1.175  -8.601  1.00  0.00     0.019 A 
ATOM     14  O   UNL     1       5.059  -2.383  -7.649  1.00  0.00    -0.475 OA
ATOM     15  Cl  UNL     1      -0.361  -2.892  -8.684  1.00  0.00    -0.084 Cl
ATOM     16  C   UNL     1       1.922  -1.492  -8.974  1.00  0.00     0.032 A 
ATOM     17  C   UNL     1       4.111  -0.422  -9.512  1.00  0.00     0.027 C 
ATOM     18  C   UNL     1       5.842  -1.953  -8.843  1.00  0.00     0.316 C 
BRANCH   9  19
ATOM     19  C   UNL     1       2.823  -1.666  -5.092  1.00  0.00    -0.015 A 
ATOM     20  C   UNL     1       1.766  -0.270  -2.803  1.00  0.00    -0.048 A 
ATOM     21  C   UNL     1       1.654  -1.659  -2.918  1.00  0.00     0.004 A 
ATOM     22  C   UNL     1       2.480   0.405  -3.800  1.00  0.00     0.004 A 
ATOM     23  C   UNL     1       2.191  -2.343  -4.027  1.00  0.00     0.009 A 
ATOM     24  C   UNL     1       3.004  -0.279  -4.915  1.00  0.00     0.009 A 
BRANCH  20  25
ATOM     25  C   UNL     1       1.040   0.506  -1.722  1.00  0.00     0.032 C 
ATOM     26  C   UNL     1       1.258   0.000  -0.302  1.00  0.00     0.009 C 
ENDBRANCH  20  25
ENDBRANCH   9  19
BRANCH  18  27
ATOM     27  C   UNL     1       6.954  -2.917  -9.315  1.00  0.00     0.430 C 
ATOM     28  F   UNL     1       7.917  -2.204  -9.959  1.00  0.00    -0.167 F 
ATOM     29  F   UNL     1       7.564  -3.520  -8.267  1.00  0.00    -0.167 F 
ATOM     30  F   UNL     1       6.554  -3.888 -10.154  1.00  0.00    -0.167 F 
ENDBRANCH  18  27
ENDBRANCH   6   8
ENDBRANCH   5   6
ENDBRANCH   4   5
ENDBRANCH   3   4
ENDBRANCH   2   3
ENDBRANCH   1   2
BRANCH   1  31
ATOM     31  C   UNL     1       3.995  -6.706  -9.206  1.00  0.00     0.261 C 
BRANCH  31  32
ATOM     32  O   UNL     1       4.645  -7.051 -10.438  1.00  0.00    -0.460 OA
BRANCH  32  33
ATOM     33  C   UNL     1       4.097  -8.099 -11.100  1.00  0.00     0.338 C 
ATOM     34  O   UNL     1       3.125  -8.763 -10.767  1.00  0.00    -0.246 OA
BRANCH  33  35
ATOM     35  C   UNL     1       4.749  -8.244 -12.408  1.00  0.00     0.060 A 
ATOM     36  C   UNL     1       3.979  -8.049 -13.562  1.00  0.00     0.016 A 
ATOM     37  C   UNL     1       6.084  -8.638 -12.496  1.00  0.00     0.016 A 
ATOM     38  C   UNL     1       4.543  -8.260 -14.817  1.00  0.00     0.010 A 
ATOM     39  C   UNL     1       6.644  -8.860 -13.755  1.00  0.00     0.010 A 
ATOM     40  C   UNL     1       5.871  -8.692 -14.919  1.00  0.00    -0.014 A 
BRANCH  40  41
ATOM     41  C   UNL     1       6.437  -9.059 -16.237  1.00  0.00     0.031 A 
ATOM     42  C   UNL     1       6.587 -10.510 -16.593  1.00  0.00     0.074 A 
ATOM     43  C   UNL     1       6.854  -8.101 -17.083  1.00  0.00     0.049 A 
ATOM     44  N   UNL     1       7.143 -11.050 -17.645  1.00  0.00    -0.248 NA
ATOM     45  C   UNL     1       6.045 -11.482 -15.630  1.00  0.00     0.031 C 
ATOM     46  C   UNL     1       6.760  -6.663 -16.838  1.00  0.00     0.029 A 
ATOM     47  N   UNL     1       7.479  -8.198 -18.301  1.00  0.00    -0.354 N 
ATOM     48  C   UNL     1       7.054 -12.423 -17.457  1.00  0.00     0.074 A 
ATOM     49  C   UNL     1       6.393 -12.634 -16.186  1.00  0.00     0.031 C 
ATOM     50  C   UNL     1       7.350  -6.010 -17.853  1.00  0.00     0.029 A 
ATOM     51  C   UNL     1       7.891  -6.984 -18.798  1.00  0.00     0.049 A 
ATOM     52  H   UNL     1       7.619  -9.051 -18.771  1.00  0.00     0.167 HD
ATOM     53  C   UNL     1       7.478 -13.417 -18.273  1.00  0.00     0.034 A 
ATOM     54  C   UNL     1       8.654  -6.696 -19.870  1.00  0.00     0.034 A 
ATOM     55  C   UNL     1       8.127 -13.196 -19.537  1.00  0.00     0.049 A 
ATOM     56  C   UNL     1       9.140  -7.819 -20.748  1.00  0.00     0.074 A 
ATOM     57  C   UNL     1       8.541 -14.133 -20.467  1.00  0.00     0.029 A 
ATOM     58  N   UNL     1       8.481 -11.952 -20.038  1.00  0.00    -0.354 N 
ATOM     59  N   UNL     1       8.937  -9.109 -20.626  1.00  0.00    -0.248 NA
ATOM     60  C   UNL     1       9.934  -7.446 -21.928  1.00  0.00     0.031 C 
ATOM     61  C   UNL     1       9.182 -13.457 -21.510  1.00  0.00     0.029 A 
ATOM     62  C   UNL     1       9.130 -12.097 -21.252  1.00  0.00     0.049 A 
ATOM     63  H   UNL     1       8.297 -11.092 -19.595  1.00  0.00     0.167 HD
ATOM     64  C   UNL     1       9.552  -9.699 -21.725  1.00  0.00     0.074 A 
ATOM     65  C   UNL     1      10.116  -8.622 -22.514  1.00  0.00     0.031 C 
ATOM     66  C   UNL     1       9.650 -11.013 -22.047  1.00  0.00     0.034 A 
BRANCH  53  67
ATOM     67  C   UNL     1       7.248 -14.836 -17.823  1.00  0.00     0.023 A 
ATOM     68  C   UNL     1       5.941 -15.365 -17.803  1.00  0.00     0.012 A 
ATOM     69  C   UNL     1       8.331 -15.660 -17.459  1.00  0.00     0.148 A 
ATOM     70  C   UNL     1       5.712 -16.678 -17.391  1.00  0.00     0.002 A 
ATOM     71  C   UNL     1       8.100 -16.982 -17.095  1.00  0.00     0.091 A 
ATOM     72  F   UNL     1       9.564 -15.134 -17.462  1.00  0.00    -0.205 F 
ATOM     73  C   UNL     1       6.791 -17.488 -17.047  1.00  0.00     0.022 A 
BRANCH  71  74
ATOM     74  S   UNL     1       9.429 -18.127 -16.712  1.00  0.00     0.127 S 
ATOM     75  O   UNL     1       9.262 -18.301 -15.270  1.00  0.00    -0.237 OA
ATOM     76  O   UNL     1       9.067 -19.297 -17.513  1.00  0.00    -0.237 OA
ATOM     77  O   UNL     1      10.660 -17.467 -17.124  1.00  0.00    -0.744 OA
ENDBRANCH  71  74
ENDBRANCH  53  67
BRANCH  54  78
ATOM     78  C   UNL     1       9.000  -5.278 -20.172  1.00  0.00     0.023 A 
ATOM     79  C   UNL     1       8.446  -4.649 -21.302  1.00  0.00     0.012 A 
ATOM     80  C   UNL     1       9.850  -4.543 -19.322  1.00  0.00     0.148 A 
ATOM     81  C   UNL     1       8.755  -3.320 -21.597  1.00  0.00     0.002 A 
ATOM     82  C   UNL     1      10.108  -3.205 -19.589  1.00  0.00     0.091 A 
ATOM     83  F   UNL     1      10.377  -5.167 -18.258  1.00  0.00    -0.205 F 
ATOM     84  C   UNL     1       9.575  -2.596 -20.736  1.00  0.00     0.022 A 
BRANCH  82  85
ATOM     85  S   UNL     1      11.047  -2.160 -18.470  1.00  0.00     0.127 S 
ATOM     86  O   UNL     1      12.249  -1.886 -19.254  1.00  0.00    -0.237 OA
ATOM     87  O   UNL     1      10.148  -1.018 -18.301  1.00  0.00    -0.237 OA
ATOM     88  O   UNL     1      11.248  -2.952 -17.265  1.00  0.00    -0.744 OA
ENDBRANCH  82  85
ENDBRANCH  54  78
BRANCH  66  89
ATOM     89  C   UNL     1      10.365 -11.371 -23.325  1.00  0.00     0.023 A 
ATOM     90  C   UNL     1      11.766 -11.250 -23.406  1.00  0.00     0.012 A 
ATOM     91  C   UNL     1       9.653 -11.909 -24.416  1.00  0.00     0.148 A 
ATOM     92  C   UNL     1      12.445 -11.632 -24.563  1.00  0.00     0.002 A 
ATOM     93  C   UNL     1      10.341 -12.337 -25.545  1.00  0.00     0.091 A 
ATOM     94  F   UNL     1       8.319 -12.002 -24.325  1.00  0.00    -0.205 F 
ATOM     95  C   UNL     1      11.735 -12.187 -25.625  1.00  0.00     0.022 A 
BRANCH  93  96
ATOM     96  S   UNL     1       9.527 -13.152 -26.923  1.00  0.00     0.127 S 
ATOM     97  O   UNL     1       9.660 -12.153 -27.982  1.00  0.00    -0.237 OA
ATOM     98  O   UNL     1      10.351 -14.348 -27.104  1.00  0.00    -0.237 OA
ATOM     99  O   UNL     1       8.162 -13.417 -26.487  1.00  0.00    -0.744 OA
ENDBRANCH  93  96
ENDBRANCH  66  89
ENDBRANCH  40  41
ENDBRANCH  33  35
ENDBRANCH  32  33
ENDBRANCH  31  32
ENDBRANCH   1  31
TORSDOF 20
