REMARK SMILES O=C(OCCOCCOC(=O)[C@H]1O[C@@H](Oc2c(-c3cc(O)c(O)c(O)c3)oc3cc(O)cc(O)c3c2=O)[C@H](O)[C@@H](O)[C@@H]1O)c1ccc(-c2c3nc(c(-c4cccc(S(=O)(=O)[O-])c4F)c4ccc([nH]4)c(-c4cccc(S(=O)(=O)[O-])c4F)c4nc(c(-c5cccc(S(=O)(=O)[O-])c5F)c5ccc2[nH]5)C=C4)C=C3)cc1
REMARK SMILES IDX 7 1 6 2 5 3 4 4 3 5 2 6 1 7 44 8 45 9 106 10 46 11 105 12
REMARK SMILES IDX 47 13 48 14 49 15 99 16 50 17 104 18 98 19 100 20 51 21
REMARK SMILES IDX 103 22 97 23 96 24 52 26 84 27 64 28 83 29 65 30 68 31 82 32
REMARK SMILES IDX 101 33 66 34 67 35 81 37 102 38 69 39 53 40 54 41 62 42
REMARK SMILES IDX 55 43 57 44 63 45 56 46 58 47 59 48 60 49 61 50 85 51 86 52
REMARK SMILES IDX 94 53 87 54 89 55 95 56 88 57 90 58 91 59 92 60 93 61 70 62
REMARK SMILES IDX 71 63 79 64 72 65 74 66 80 67 73 68 75 69 76 70 77 71 78 72
REMARK SMILES IDX 8 73 9 74 10 75 11 76 12 77 13 78 42 79 14 80 40 81 38 82
REMARK SMILES IDX 43 83 15 85 16 86 17 87 36 88 27 89 35 90 37 91 28 92 33 93
REMARK SMILES IDX 29 94 32 95 30 96 18 97 19 98 26 99 20 100 24 101 22 102
REMARK SMILES IDX 21 103 25 105 23 107 34 109 31 111 41 113 39 115
REMARK H PARENT 100 25 68 36 43 84 21 104 25 106 23 108 34 110 31 112 41 114
REMARK H PARENT 39 116
REMARK Flexibility Score: inf
ROOT
ATOM      1  C   UNL     1       4.655  -6.819  -1.655  1.00  0.00     0.202 C 
ENDROOT
BRANCH   1   2
ATOM      2  O   UNL     1       4.457  -5.882  -0.597  1.00  0.00    -0.374 OA
BRANCH   2   3
ATOM      3  C   UNL     1       5.544  -5.013  -0.271  1.00  0.00     0.202 C 
BRANCH   3   4
ATOM      4  C   UNL     1       6.462  -5.528   0.836  1.00  0.00     0.261 C 
BRANCH   4   5
ATOM      5  O   UNL     1       7.062  -6.770   0.438  1.00  0.00    -0.460 OA
BRANCH   5   6
ATOM      6  C   UNL     1       6.580  -8.020   0.633  1.00  0.00     0.338 C 
ATOM      7  O   UNL     1       7.159  -8.954   0.080  1.00  0.00    -0.246 OA
BRANCH   6   8
ATOM      8  C   UNL     1       5.397  -8.336   1.492  1.00  0.00     0.060 A 
ATOM      9  C   UNL     1       4.327  -7.475   1.745  1.00  0.00     0.016 A 
ATOM     10  C   UNL     1       5.321  -9.641   2.007  1.00  0.00     0.016 A 
ATOM     11  C   UNL     1       3.221  -7.869   2.466  1.00  0.00     0.010 A 
ATOM     12  C   UNL     1       4.210 -10.054   2.746  1.00  0.00     0.010 A 
ATOM     13  C   UNL     1       3.163  -9.157   2.973  1.00  0.00    -0.014 A 
BRANCH  13  14
ATOM     14  C   UNL     1       2.043  -9.440   3.872  1.00  0.00     0.031 A 
ATOM     15  C   UNL     1       2.299  -9.348   5.339  1.00  0.00     0.074 A 
ATOM     16  C   UNL     1       0.812  -9.585   3.355  1.00  0.00     0.049 A 
ATOM     17  N   UNL     1       1.482  -9.552   6.330  1.00  0.00    -0.248 NA
ATOM     18  C   UNL     1       3.660  -8.947   5.745  1.00  0.00     0.031 C 
ATOM     19  C   UNL     1       0.484  -9.525   1.927  1.00  0.00     0.029 A 
ATOM     20  N   UNL     1      -0.392  -9.788   3.967  1.00  0.00    -0.354 N 
ATOM     21  C   UNL     1       2.239  -9.366   7.477  1.00  0.00     0.074 A 
ATOM     22  C   UNL     1       3.575  -9.004   7.064  1.00  0.00     0.031 C 
ATOM     23  C   UNL     1      -0.838  -9.701   1.774  1.00  0.00     0.029 A 
ATOM     24  C   UNL     1      -1.430  -9.951   3.081  1.00  0.00     0.049 A 
ATOM     25  H   UNL     1      -0.505  -9.814   4.944  1.00  0.00     0.167 HD
ATOM     26  C   UNL     1       1.842  -9.504   8.760  1.00  0.00     0.034 A 
ATOM     27  C   UNL     1      -2.703 -10.313   3.318  1.00  0.00     0.034 A 
ATOM     28  C   UNL     1       0.500  -9.864   9.119  1.00  0.00     0.049 A 
ATOM     29  C   UNL     1      -3.098 -10.541   4.752  1.00  0.00     0.074 A 
ATOM     30  C   UNL     1      -0.029 -10.090  10.373  1.00  0.00     0.029 A 
ATOM     31  N   UNL     1      -0.526 -10.062   8.202  1.00  0.00    -0.354 N 
ATOM     32  N   UNL     1      -2.378 -10.382   5.839  1.00  0.00    -0.248 NA
ATOM     33  C   UNL     1      -4.473 -10.986   4.998  1.00  0.00     0.031 C 
ATOM     34  C   UNL     1      -1.367 -10.464  10.210  1.00  0.00     0.029 A 
ATOM     35  C   UNL     1      -1.685 -10.422   8.859  1.00  0.00     0.049 A 
ATOM     36  H   UNL     1      -0.439  -9.960   7.226  1.00  0.00     0.167 HD
ATOM     37  C   UNL     1      -3.219 -10.678   6.902  1.00  0.00     0.074 A 
ATOM     38  C   UNL     1      -4.510 -11.005   6.324  1.00  0.00     0.031 C 
ATOM     39  C   UNL     1      -2.956 -10.694   8.233  1.00  0.00     0.034 A 
BRANCH  26  40
ATOM     40  C   UNL     1       2.890  -9.337   9.824  1.00  0.00     0.023 A 
ATOM     41  C   UNL     1       3.415  -8.063  10.120  1.00  0.00     0.012 A 
ATOM     42  C   UNL     1       3.382 -10.465  10.508  1.00  0.00     0.148 A 
ATOM     43  C   UNL     1       4.444  -7.921  11.052  1.00  0.00     0.002 A 
ATOM     44  C   UNL     1       4.375 -10.310  11.467  1.00  0.00     0.091 A 
ATOM     45  F   UNL     1       2.894 -11.671  10.185  1.00  0.00    -0.205 F 
ATOM     46  C   UNL     1       4.918  -9.042  11.730  1.00  0.00     0.022 A 
BRANCH  44  47
ATOM     47  S   UNL     1       5.009 -11.684  12.434  1.00  0.00     0.127 S 
ATOM     48  O   UNL     1       6.390 -11.765  11.960  1.00  0.00    -0.237 OA
ATOM     49  O   UNL     1       4.861 -11.185  13.801  1.00  0.00    -0.237 OA
ATOM     50  O   UNL     1       4.172 -12.830  12.107  1.00  0.00    -0.744 OA
ENDBRANCH  44  47
ENDBRANCH  26  40
BRANCH  27  51
ATOM     51  C   UNL     1      -3.658 -10.508   2.191  1.00  0.00     0.023 A 
ATOM     52  C   UNL     1      -4.783  -9.671   2.067  1.00  0.00     0.012 A 
ATOM     53  C   UNL     1      -3.449 -11.517   1.227  1.00  0.00     0.148 A 
ATOM     54  C   UNL     1      -5.696  -9.854   1.026  1.00  0.00     0.002 A 
ATOM     55  C   UNL     1      -4.330 -11.658   0.162  1.00  0.00     0.091 A 
ATOM     56  F   UNL     1      -2.382 -12.317   1.367  1.00  0.00    -0.205 F 
ATOM     57  C   UNL     1      -5.465 -10.840   0.070  1.00  0.00     0.022 A 
BRANCH  55  58
ATOM     58  S   UNL     1      -4.045 -12.820  -1.179  1.00  0.00     0.127 S 
ATOM     59  O   UNL     1      -5.104 -13.800  -0.955  1.00  0.00    -0.237 OA
ATOM     60  O   UNL     1      -4.229 -11.972  -2.357  1.00  0.00    -0.237 OA
ATOM     61  O   UNL     1      -2.685 -13.307  -0.998  1.00  0.00    -0.744 OA
ENDBRANCH  55  58
ENDBRANCH  27  51
BRANCH  39  62
ATOM     62  C   UNL     1      -4.098 -11.030   9.149  1.00  0.00     0.023 A 
ATOM     63  C   UNL     1      -4.565 -12.355   9.238  1.00  0.00     0.012 A 
ATOM     64  C   UNL     1      -4.638 -10.039   9.990  1.00  0.00     0.148 A 
ATOM     65  C   UNL     1      -5.580 -12.683  10.133  1.00  0.00     0.002 A 
ATOM     66  C   UNL     1      -5.606 -10.386  10.921  1.00  0.00     0.091 A 
ATOM     67  F   UNL     1      -4.187  -8.782   9.871  1.00  0.00    -0.205 F 
ATOM     68  C   UNL     1      -6.089 -11.704  10.984  1.00  0.00     0.022 A 
BRANCH  66  69
ATOM     69  S   UNL     1      -6.231  -9.218  12.131  1.00  0.00     0.127 S 
ATOM     70  O   UNL     1      -7.593  -8.991  11.650  1.00  0.00    -0.237 OA
ATOM     71  O   UNL     1      -6.141  -9.985  13.374  1.00  0.00    -0.237 OA
ATOM     72  O   UNL     1      -5.347  -8.062  12.070  1.00  0.00    -0.744 OA
ENDBRANCH  66  69
ENDBRANCH  39  62
ENDBRANCH  13  14
ENDBRANCH   6   8
ENDBRANCH   5   6
ENDBRANCH   4   5
ENDBRANCH   3   4
ENDBRANCH   2   3
ENDBRANCH   1   2
BRANCH   1  73
ATOM     73  C   UNL     1       3.654  -6.511  -2.763  1.00  0.00     0.261 C 
BRANCH  73  74
ATOM     74  O   UNL     1       3.949  -5.190  -3.242  1.00  0.00    -0.461 OA
BRANCH  74  75
ATOM     75  C   UNL     1       3.397  -4.163  -2.528  1.00  0.00     0.338 C 
ATOM     76  O   UNL     1       2.406  -4.245  -1.808  1.00  0.00    -0.249 OA
BRANCH  75  77
ATOM     77  C   UNL     1       4.181  -2.869  -2.749  1.00  0.00     0.263 C 
ATOM     78  O   UNL     1       5.147  -2.519  -1.734  1.00  0.00    -0.322 OA
ATOM     79  C   UNL     1       4.957  -2.926  -4.062  1.00  0.00     0.186 C 
ATOM     80  C   UNL     1       5.514  -1.137  -1.808  1.00  0.00     0.340 C 
ATOM     81  C   UNL     1       5.313  -1.499  -4.427  1.00  0.00     0.181 C 
ATOM     82  C   UNL     1       5.866  -0.698  -3.248  1.00  0.00     0.214 C 
BRANCH  79  83
ATOM     83  O   UNL     1       4.247  -3.435  -5.198  1.00  0.00    -0.387 OA
ATOM     84  H   UNL     1       3.495  -2.855  -5.396  1.00  0.00     0.211 HD
ENDBRANCH  79  83
BRANCH  80  85
ATOM     85  O   UNL     1       6.489  -0.645  -0.834  1.00  0.00    -0.454 OA
BRANCH  85  86
ATOM     86  C   UNL     1       7.759  -1.154  -0.593  1.00  0.00     0.214 A 
ATOM     87  C   UNL     1       8.887  -0.897  -1.307  1.00  0.00     0.181 A 
ATOM     88  C   UNL     1       7.998  -1.760   0.777  1.00  0.00     0.239 A 
ATOM     89  O   UNL     1      10.148  -1.365  -0.995  1.00  0.00    -0.452 OA
ATOM     90  C   UNL     1       9.413  -1.928   1.233  1.00  0.00     0.111 A 
ATOM     91  O   UNL     1       7.046  -2.094   1.476  1.00  0.00    -0.285 OA
ATOM     92  C   UNL     1      10.410  -1.752   0.282  1.00  0.00     0.146 A 
ATOM     93  C   UNL     1       9.810  -2.265   2.539  1.00  0.00     0.134 A 
ATOM     94  C   UNL     1      11.761  -1.951   0.583  1.00  0.00     0.094 A 
ATOM     95  C   UNL     1      11.167  -2.463   2.857  1.00  0.00     0.093 A 
ATOM     96  C   UNL     1      12.131  -2.315   1.866  1.00  0.00     0.123 A 
BRANCH  87  97
ATOM     97  C   UNL     1       8.962  -0.137  -2.564  1.00  0.00     0.029 A 
ATOM     98  C   UNL     1       9.286  -0.845  -3.741  1.00  0.00     0.062 A 
ATOM     99  C   UNL     1       8.580   1.213  -2.636  1.00  0.00     0.062 A 
ATOM    100  C   UNL     1       9.035  -0.251  -4.970  1.00  0.00     0.162 A 
ATOM    101  C   UNL     1       8.391   1.797  -3.885  1.00  0.00     0.162 A 
ATOM    102  C   UNL     1       8.580   1.058  -5.047  1.00  0.00     0.200 A 
BRANCH 100 103
ATOM    103  O   UNL     1       8.984  -1.029  -6.094  1.00  0.00    -0.504 OA
ATOM    104  H   UNL     1       9.286  -1.915  -6.064  1.00  0.00     0.293 HD
ENDBRANCH 100 103
BRANCH 101 105
ATOM    105  O   UNL     1       7.872   3.058  -3.966  1.00  0.00    -0.504 OA
ATOM    106  H   UNL     1       7.742   3.459  -4.803  1.00  0.00     0.293 HD
ENDBRANCH 101 105
BRANCH 102 107
ATOM    107  O   UNL     1       8.201   1.593  -6.250  1.00  0.00    -0.502 OA
ATOM    108  H   UNL     1       8.324   1.103  -7.039  1.00  0.00     0.293 HD
ENDBRANCH 102 107
ENDBRANCH  87  97
BRANCH  93 109
ATOM    109  O   UNL     1       8.889  -2.384   3.540  1.00  0.00    -0.507 OA
ATOM    110  H   UNL     1       9.165  -2.609   4.407  1.00  0.00     0.293 HD
ENDBRANCH  93 109
BRANCH  96 111
ATOM    111  O   UNL     1      13.458  -2.508   2.109  1.00  0.00    -0.508 OA
ATOM    112  H   UNL     1      14.081  -2.400   1.418  1.00  0.00     0.293 HD
ENDBRANCH  96 111
ENDBRANCH  85  86
ENDBRANCH  80  85
BRANCH  81 113
ATOM    113  O   UNL     1       6.279  -1.580  -5.514  1.00  0.00    -0.387 OA
ATOM    114  H   UNL     1       7.064  -2.063  -5.213  1.00  0.00     0.211 HD
ENDBRANCH  81 113
BRANCH  82 115
ATOM    115  O   UNL     1       5.571   0.692  -3.447  1.00  0.00    -0.384 OA
ATOM    116  H   UNL     1       4.611   0.827  -3.412  1.00  0.00     0.211 HD
ENDBRANCH  82 115
ENDBRANCH  75  77
ENDBRANCH  74  75
ENDBRANCH  73  74
ENDBRANCH   1  73
TORSDOF 28
