REMARK SMILES Cc1ccc([N+](=O)[O-])c(NCc2ccc(C(=O)OCCOCCOC(=O)c3ccc(-c4c5nc(c(-c6cccc(S(=O)(=O)[O-])c6F)c6ccc([nH]6)c(-c6cccc(S(=O)(=O)[O-])c6F)c6nc(c(-c7cccc(S(=O)(=O)[O-])c7F)c7ccc4[nH]7)C=C6)C=C5)cc3)cc2)c1
REMARK SMILES IDX 20 1 19 2 18 3 16 4 17 5 15 6 12 7 13 8 91 9 14 10 90 11
REMARK SMILES IDX 11 12 10 13 9 15 1 16 2 17 3 18 92 19 4 20 5 21 6 22 7 23
REMARK SMILES IDX 8 24 21 25 22 26 23 27 24 28 25 29 26 30 27 31 28 32 89 33
REMARK SMILES IDX 29 34 88 35 30 36 31 37 32 38 82 39 33 40 87 41 81 42 83 43
REMARK SMILES IDX 34 44 86 45 80 46 79 47 35 49 67 50 47 51 66 52 48 53 51 54
REMARK SMILES IDX 65 55 84 56 49 57 50 58 64 60 85 61 52 62 36 63 37 64 45 65
REMARK SMILES IDX 38 66 40 67 46 68 39 69 41 70 42 71 43 72 44 73 68 74 69 75
REMARK SMILES IDX 77 76 70 77 72 78 78 79 71 80 73 81 74 82 75 83 76 84 53 85
REMARK SMILES IDX 54 86 62 87 55 88 57 89 63 90 56 91 58 92 59 93 60 94 61 95
REMARK H PARENT 10 14 83 48 51 59
REMARK Flexibility Score: inf
ROOT
ATOM      1  C   UNL     1      -4.049   9.092  -2.196  1.00  0.00     0.202 C 
ENDROOT
BRANCH   1   2
ATOM      2  C   UNL     1      -3.578   9.447  -0.819  1.00  0.00     0.261 C 
BRANCH   2   3
ATOM      3  O   UNL     1      -3.562   8.280   0.033  1.00  0.00    -0.460 OA
BRANCH   3   4
ATOM      4  C   UNL     1      -4.689   7.581   0.358  1.00  0.00     0.338 C 
ATOM      5  O   UNL     1      -5.843   7.922   0.435  1.00  0.00    -0.246 OA
BRANCH   4   6
ATOM      6  C   UNL     1      -4.305   6.168   0.412  1.00  0.00     0.060 A 
ATOM      7  C   UNL     1      -3.605   3.521   0.040  1.00  0.00    -0.029 A 
ATOM      8  C   UNL     1      -4.956   3.874   0.204  1.00  0.00     0.006 A 
ATOM      9  C   UNL     1      -2.619   4.515   0.042  1.00  0.00     0.006 A 
ATOM     10  C   UNL     1      -5.311   5.200   0.387  1.00  0.00     0.016 A 
ATOM     11  C   UNL     1      -2.962   5.823   0.287  1.00  0.00     0.016 A 
BRANCH   7  12
ATOM     12  C   UNL     1      -3.295   2.061  -0.153  1.00  0.00     0.149 C 
BRANCH  12  13
ATOM     13  N   UNL     1      -1.890   1.774   0.005  1.00  0.00    -0.375 N 
ATOM     14  H   UNL     1      -1.320   2.562   0.160  1.00  0.00     0.161 HD
BRANCH  13  15
ATOM     15  C   UNL     1      -1.224   0.572  -0.027  1.00  0.00     0.114 A 
ATOM     16  C   UNL     1       2.570  -0.084  -0.004  1.00  0.00     0.044 C 
ATOM     17  C   UNL     1       1.092  -0.330  -0.019  1.00  0.00    -0.049 A 
ATOM     18  C   UNL     1       0.587  -1.622  -0.022  1.00  0.00     0.010 A 
ATOM     19  C   UNL     1       0.189   0.735  -0.032  1.00  0.00     0.036 A 
ATOM     20  C   UNL     1      -0.790  -1.829  -0.065  1.00  0.00     0.088 A 
ATOM     21  C   UNL     1      -1.702  -0.749  -0.086  1.00  0.00     0.292 A 
BRANCH  21  22
ATOM     22  N   UNL     1      -3.119  -1.152  -0.115  1.00  0.00     0.064 N 
ATOM     23  O   UNL     1      -3.404  -2.251   0.391  1.00  0.00    -0.258 OA
ATOM     24  O   UNL     1      -3.947  -0.450  -0.703  1.00  0.00    -0.258 OA
ENDBRANCH  21  22
ENDBRANCH  13  15
ENDBRANCH  12  13
ENDBRANCH   7  12
ENDBRANCH   4   6
ENDBRANCH   3   4
ENDBRANCH   2   3
ENDBRANCH   1   2
BRANCH   1  25
ATOM     25  O   UNL     1      -5.358   8.594  -2.034  1.00  0.00    -0.374 OA
BRANCH  25  26
ATOM     26  C   UNL     1      -5.909   7.848  -3.088  1.00  0.00     0.202 C 
BRANCH  26  27
ATOM     27  C   UNL     1      -6.060   8.715  -4.333  1.00  0.00     0.261 C 
BRANCH  27  28
ATOM     28  O   UNL     1      -7.006   9.778  -4.072  1.00  0.00    -0.460 OA
BRANCH  28  29
ATOM     29  C   UNL     1      -6.458  10.967  -3.673  1.00  0.00     0.338 C 
ATOM     30  O   UNL     1      -5.651  11.595  -4.340  1.00  0.00    -0.246 OA
BRANCH  29  31
ATOM     31  C   UNL     1      -6.792  11.250  -2.240  1.00  0.00     0.060 A 
ATOM     32  C   UNL     1      -6.059  12.212  -1.522  1.00  0.00     0.016 A 
ATOM     33  C   UNL     1      -7.582  10.340  -1.546  1.00  0.00     0.016 A 
ATOM     34  C   UNL     1      -5.941  12.117  -0.124  1.00  0.00     0.010 A 
ATOM     35  C   UNL     1      -7.377  10.196  -0.185  1.00  0.00     0.010 A 
ATOM     36  C   UNL     1      -6.489  11.027   0.531  1.00  0.00    -0.014 A 
BRANCH  36  37
ATOM     37  C   UNL     1      -6.300  10.667   1.950  1.00  0.00     0.031 A 
ATOM     38  C   UNL     1      -7.528  10.724   2.772  1.00  0.00     0.074 A 
ATOM     39  C   UNL     1      -5.230   9.978   2.436  1.00  0.00     0.049 A 
ATOM     40  N   UNL     1      -7.612  10.304   3.982  1.00  0.00    -0.248 NA
ATOM     41  C   UNL     1      -8.781  11.308   2.287  1.00  0.00     0.031 C 
ATOM     42  C   UNL     1      -5.283   8.851   3.384  1.00  0.00     0.029 A 
ATOM     43  N   UNL     1      -3.870  10.041   2.133  1.00  0.00    -0.354 N 
ATOM     44  C   UNL     1      -8.947  10.211   4.282  1.00  0.00     0.074 A 
ATOM     45  C   UNL     1      -9.619  10.981   3.273  1.00  0.00     0.031 C 
ATOM     46  C   UNL     1      -4.041   8.457   3.712  1.00  0.00     0.029 A 
ATOM     47  C   UNL     1      -3.125   9.429   3.153  1.00  0.00     0.049 A 
ATOM     48  H   UNL     1      -3.489  10.454   1.325  1.00  0.00     0.167 HD
ATOM     49  C   UNL     1      -9.311   9.353   5.269  1.00  0.00     0.034 A 
ATOM     50  C   UNL     1      -2.132  10.101   3.799  1.00  0.00     0.034 A 
ATOM     51  C   UNL     1      -8.122   8.910   6.028  1.00  0.00     0.049 A 
ATOM     52  C   UNL     1      -2.526  10.302   5.238  1.00  0.00     0.074 A 
ATOM     53  C   UNL     1      -7.411   7.725   6.091  1.00  0.00     0.029 A 
ATOM     54  N   UNL     1      -7.312   9.879   6.631  1.00  0.00    -0.354 N 
ATOM     55  N   UNL     1      -3.708   9.980   5.686  1.00  0.00    -0.248 NA
ATOM     56  C   UNL     1      -1.667  10.813   6.298  1.00  0.00     0.031 C 
ATOM     57  C   UNL     1      -6.127   8.016   6.648  1.00  0.00     0.029 A 
ATOM     58  C   UNL     1      -6.071   9.364   6.977  1.00  0.00     0.049 A 
ATOM     59  H   UNL     1      -7.588  10.810   6.790  1.00  0.00     0.167 HD
ATOM     60  C   UNL     1      -3.841  10.307   6.991  1.00  0.00     0.074 A 
ATOM     61  C   UNL     1      -2.509  10.776   7.350  1.00  0.00     0.031 C 
ATOM     62  C   UNL     1      -5.053  10.210   7.618  1.00  0.00     0.034 A 
BRANCH  49  63
ATOM     63  C   UNL     1     -10.706   8.783   5.465  1.00  0.00     0.023 A 
ATOM     64  C   UNL     1     -10.893   7.943   6.584  1.00  0.00     0.012 A 
ATOM     65  C   UNL     1     -11.829   8.924   4.603  1.00  0.00     0.148 A 
ATOM     66  C   UNL     1     -12.106   7.292   6.841  1.00  0.00     0.002 A 
ATOM     67  C   UNL     1     -13.062   8.330   4.898  1.00  0.00     0.091 A 
ATOM     68  F   UNL     1     -11.710   9.555   3.434  1.00  0.00    -0.205 F 
ATOM     69  C   UNL     1     -13.197   7.500   6.011  1.00  0.00     0.022 A 
BRANCH  67  70
ATOM     70  S   UNL     1     -14.542   8.592   3.897  1.00  0.00     0.127 S 
ATOM     71  O   UNL     1     -14.794   7.254   3.362  1.00  0.00    -0.237 OA
ATOM     72  O   UNL     1     -15.517   9.038   4.893  1.00  0.00    -0.237 OA
ATOM     73  O   UNL     1     -14.196   9.598   2.901  1.00  0.00    -0.744 OA
ENDBRANCH  67  70
ENDBRANCH  49  63
BRANCH  50  74
ATOM     74  C   UNL     1      -1.417  11.036   2.869  1.00  0.00     0.023 A 
ATOM     75  C   UNL     1      -0.606  10.419   1.878  1.00  0.00     0.012 A 
ATOM     76  C   UNL     1      -1.960  12.306   2.598  1.00  0.00     0.148 A 
ATOM     77  C   UNL     1      -0.489  10.969   0.598  1.00  0.00     0.002 A 
ATOM     78  C   UNL     1      -1.875  12.825   1.305  1.00  0.00     0.091 A 
ATOM     79  F   UNL     1      -2.639  12.930   3.569  1.00  0.00    -0.205 F 
ATOM     80  C   UNL     1      -1.174  12.141   0.297  1.00  0.00     0.022 A 
BRANCH  78  81
ATOM     81  S   UNL     1      -2.816  14.276   0.810  1.00  0.00     0.127 S 
ATOM     82  O   UNL     1      -1.813  15.331   0.922  1.00  0.00    -0.237 OA
ATOM     83  O   UNL     1      -3.201  13.947  -0.565  1.00  0.00    -0.237 OA
ATOM     84  O   UNL     1      -3.930  14.351   1.742  1.00  0.00    -0.744 OA
ENDBRANCH  78  81
ENDBRANCH  50  74
BRANCH  62  85
ATOM     85  C   UNL     1      -5.362  10.918   8.916  1.00  0.00     0.023 A 
ATOM     86  C   UNL     1      -4.573  11.988   9.383  1.00  0.00     0.012 A 
ATOM     87  C   UNL     1      -6.545  10.636   9.641  1.00  0.00     0.148 A 
ATOM     88  C   UNL     1      -4.868  12.669  10.564  1.00  0.00     0.002 A 
ATOM     89  C   UNL     1      -6.908  11.409  10.736  1.00  0.00     0.091 A 
ATOM     90  F   UNL     1      -7.321   9.603   9.286  1.00  0.00    -0.205 F 
ATOM     91  C   UNL     1      -6.049  12.392  11.231  1.00  0.00     0.022 A 
BRANCH  89  92
ATOM     92  S   UNL     1      -8.546  11.294  11.462  1.00  0.00     0.127 S 
ATOM     93  O   UNL     1      -8.285  10.504  12.663  1.00  0.00    -0.237 OA
ATOM     94  O   UNL     1      -8.868  12.700  11.712  1.00  0.00    -0.237 OA
ATOM     95  O   UNL     1      -9.380  10.661  10.449  1.00  0.00    -0.744 OA
ENDBRANCH  89  92
ENDBRANCH  62  85
ENDBRANCH  36  37
ENDBRANCH  29  31
ENDBRANCH  28  29
ENDBRANCH  27  28
ENDBRANCH  26  27
ENDBRANCH  25  26
ENDBRANCH   1  25
TORSDOF 21
