REMARK SMILES Cc1ccc(S(=O)(=O)n2cc(C(=O)C(=O)NCC(=O)NCC(=O)OCCOCCOC(=O)c3ccc(-c4c5nc(c(-c6cccc(S(=O)(=O)[O-])c6F)c6ccc([nH]6)c(-c6cccc(S(=O)(=O)[O-])c6F)c6nc(c(-c7cccc(S(=O)(=O)[O-])c7F)c7ccc4[nH]7)C=C6)C=C5)cc3)c3ccccc32)cc1
REMARK SMILES IDX 25 1 24 2 22 3 23 4 21 5 20 6 18 7 19 8 17 10 16 11 14 12
REMARK SMILES IDX 15 13 12 15 13 16 11 17 9 18 10 19 101 20 96 21 100 22 97 23
REMARK SMILES IDX 99 24 98 25 6 26 7 27 8 28 5 29 1 30 2 31 3 32 103 33 4 34
REMARK SMILES IDX 102 35 26 36 27 37 28 38 29 39 30 40 31 41 32 42 33 43 34 44
REMARK SMILES IDX 95 45 35 46 94 47 36 48 37 49 38 50 88 51 39 52 93 53 87 54
REMARK SMILES IDX 89 55 40 56 92 57 86 58 85 59 41 61 73 62 53 63 72 64 54 65
REMARK SMILES IDX 57 66 71 67 90 68 55 69 56 70 70 72 91 73 58 74 42 75 43 76
REMARK SMILES IDX 51 77 44 78 46 79 52 80 45 81 47 82 48 83 49 84 50 85 74 86
REMARK SMILES IDX 75 87 83 88 76 89 78 90 84 91 77 92 79 93 80 94 81 95 82 96
REMARK SMILES IDX 59 97 60 98 68 99 61 100 63 101 69 102 62 103 64 104 65 105
REMARK SMILES IDX 66 106 67 107
REMARK H PARENT 20 9 16 14 89 60 57 71
REMARK Flexibility Score: inf
ROOT
ATOM      1  C   UNL     1     -10.805   3.688   2.617  1.00  0.00     0.261 C 
ENDROOT
BRANCH   1   2
ATOM      2  O   UNL     1      -9.874   4.667   2.154  1.00  0.00    -0.462 OA
BRANCH   2   3
ATOM      3  C   UNL     1      -9.534   4.590   0.832  1.00  0.00     0.325 C 
ATOM      4  O   UNL     1      -9.611   3.610   0.105  1.00  0.00    -0.250 OA
BRANCH   3   5
ATOM      5  C   UNL     1      -9.057   5.961   0.353  1.00  0.00     0.238 C 
BRANCH   5   6
ATOM      6  N   UNL     1      -9.382   7.012   1.325  1.00  0.00    -0.344 N 
ATOM      7  C   UNL     1      -8.683   7.404   2.430  1.00  0.00     0.239 C 
ATOM      8  O   UNL     1      -9.255   8.116   3.259  1.00  0.00    -0.273 OA
ATOM      9  H   UNL     1     -10.220   7.501   1.156  1.00  0.00     0.164 HD
BRANCH   7  10
ATOM     10  C   UNL     1      -7.199   7.043   2.575  1.00  0.00     0.216 C 
BRANCH  10  11
ATOM     11  N   UNL     1      -7.021   5.608   2.631  1.00  0.00    -0.340 N 
ATOM     12  C   UNL     1      -6.244   4.819   1.821  1.00  0.00     0.292 C 
ATOM     13  O   UNL     1      -6.612   3.674   1.615  1.00  0.00    -0.265 OA
ATOM     14  H   UNL     1      -7.520   5.140   3.338  1.00  0.00     0.164 HD
BRANCH  12  15
ATOM     15  C   UNL     1      -4.980   5.317   1.103  1.00  0.00     0.252 C 
ATOM     16  O   UNL     1      -4.711   6.513   1.093  1.00  0.00    -0.283 OA
BRANCH  15  17
ATOM     17  C   UNL     1      -4.163   4.335   0.381  1.00  0.00     0.054 A 
ATOM     18  N   UNL     1      -3.095   2.445  -0.148  1.00  0.00    -0.240 N 
ATOM     19  C   UNL     1      -3.729   3.116   0.870  1.00  0.00     0.117 A 
ATOM     20  C   UNL     1      -3.129   3.178  -1.315  1.00  0.00     0.065 A 
ATOM     21  C   UNL     1      -3.753   4.393  -0.990  1.00  0.00     0.012 A 
ATOM     22  C   UNL     1      -2.717   2.883  -2.624  1.00  0.00     0.028 A 
ATOM     23  C   UNL     1      -3.938   5.351  -2.007  1.00  0.00     0.011 A 
ATOM     24  C   UNL     1      -2.919   3.850  -3.611  1.00  0.00     0.002 A 
ATOM     25  C   UNL     1      -3.511   5.071  -3.307  1.00  0.00     0.001 A 
BRANCH  18  26
ATOM     26  S   UNL     1      -2.579   0.831  -0.028  1.00  0.00     0.268 S 
ATOM     27  O   UNL     1      -3.185   0.169  -1.137  1.00  0.00    -0.201 OA
ATOM     28  O   UNL     1      -2.757   0.511   1.393  1.00  0.00    -0.201 OA
BRANCH  26  29
ATOM     29  C   UNL     1      -0.851   0.684  -0.237  1.00  0.00     0.088 A 
ATOM     30  C   UNL     1       3.339  -0.076  -0.028  1.00  0.00     0.044 C 
ATOM     31  C   UNL     1       1.874   0.203  -0.154  1.00  0.00    -0.051 A 
ATOM     32  C   UNL     1       0.988  -0.874  -0.258  1.00  0.00     0.005 A 
ATOM     33  C   UNL     1       1.380   1.518  -0.124  1.00  0.00     0.005 A 
ATOM     34  C   UNL     1      -0.376  -0.635  -0.301  1.00  0.00     0.022 A 
ATOM     35  C   UNL     1       0.010   1.768  -0.162  1.00  0.00     0.022 A 
ENDBRANCH  26  29
ENDBRANCH  18  26
ENDBRANCH  15  17
ENDBRANCH  12  15
ENDBRANCH  10  11
ENDBRANCH   7  10
ENDBRANCH   5   6
ENDBRANCH   3   5
ENDBRANCH   2   3
ENDBRANCH   1   2
BRANCH   1  36
ATOM     36  C   UNL     1     -12.216   4.218   2.399  1.00  0.00     0.202 C 
BRANCH  36  37
ATOM     37  O   UNL     1     -12.472   4.240   0.996  1.00  0.00    -0.374 OA
BRANCH  37  38
ATOM     38  C   UNL     1     -13.683   4.862   0.584  1.00  0.00     0.202 C 
BRANCH  38  39
ATOM     39  C   UNL     1     -14.964   4.306   1.221  1.00  0.00     0.261 C 
BRANCH  39  40
ATOM     40  O   UNL     1     -15.161   2.949   0.800  1.00  0.00    -0.460 OA
BRANCH  40  41
ATOM     41  C   UNL     1     -15.146   2.044   1.816  1.00  0.00     0.338 C 
ATOM     42  O   UNL     1     -15.871   2.097   2.794  1.00  0.00    -0.246 OA
BRANCH  41  43
ATOM     43  C   UNL     1     -13.968   1.153   1.653  1.00  0.00     0.060 A 
ATOM     44  C   UNL     1     -13.562   0.324   2.712  1.00  0.00     0.016 A 
ATOM     45  C   UNL     1     -13.141   1.332   0.542  1.00  0.00     0.016 A 
ATOM     46  C   UNL     1     -12.288  -0.249   2.703  1.00  0.00     0.010 A 
ATOM     47  C   UNL     1     -11.860   0.839   0.575  1.00  0.00     0.010 A 
ATOM     48  C   UNL     1     -11.430   0.055   1.655  1.00  0.00    -0.014 A 
BRANCH  48  49
ATOM     49  C   UNL     1     -10.048  -0.371   1.539  1.00  0.00     0.031 A 
ATOM     50  C   UNL     1      -9.712  -1.389   0.500  1.00  0.00     0.074 A 
ATOM     51  C   UNL     1      -9.099   0.409   2.100  1.00  0.00     0.049 A 
ATOM     52  N   UNL     1      -8.580  -1.999   0.401  1.00  0.00    -0.248 NA
ATOM     53  C   UNL     1     -10.674  -1.832  -0.513  1.00  0.00     0.031 C 
ATOM     54  C   UNL     1      -7.763   0.599   1.570  1.00  0.00     0.029 A 
ATOM     55  N   UNL     1      -9.086   1.212   3.240  1.00  0.00    -0.354 N 
ATOM     56  C   UNL     1      -8.550  -2.618  -0.838  1.00  0.00     0.074 A 
ATOM     57  C   UNL     1      -9.908  -2.579  -1.313  1.00  0.00     0.031 C 
ATOM     58  C   UNL     1      -6.992   1.145   2.518  1.00  0.00     0.029 A 
ATOM     59  C   UNL     1      -7.777   1.239   3.723  1.00  0.00     0.049 A 
ATOM     60  H   UNL     1      -9.860   1.676   3.632  1.00  0.00     0.167 HD
ATOM     61  C   UNL     1      -7.346  -2.906  -1.414  1.00  0.00     0.034 A 
ATOM     62  C   UNL     1      -7.363   0.835   4.957  1.00  0.00     0.034 A 
ATOM     63  C   UNL     1      -6.270  -2.437  -0.540  1.00  0.00     0.049 A 
ATOM     64  C   UNL     1      -6.396  -0.329   4.849  1.00  0.00     0.074 A 
ATOM     65  C   UNL     1      -5.705  -1.180  -0.493  1.00  0.00     0.029 A 
ATOM     66  N   UNL     1      -5.954  -3.067   0.662  1.00  0.00    -0.354 N 
ATOM     67  N   UNL     1      -6.144  -0.934   3.722  1.00  0.00    -0.248 NA
ATOM     68  C   UNL     1      -5.662  -0.931   5.954  1.00  0.00     0.031 C 
ATOM     69  C   UNL     1      -5.183  -1.018   0.803  1.00  0.00     0.029 A 
ATOM     70  C   UNL     1      -5.231  -2.209   1.489  1.00  0.00     0.049 A 
ATOM     71  H   UNL     1      -6.205  -3.990   0.895  1.00  0.00     0.167 HD
ATOM     72  C   UNL     1      -5.210  -1.914   3.880  1.00  0.00     0.074 A 
ATOM     73  C   UNL     1      -4.992  -1.916   5.323  1.00  0.00     0.031 C 
ATOM     74  C   UNL     1      -4.702  -2.595   2.799  1.00  0.00     0.034 A 
BRANCH  61  75
ATOM     75  C   UNL     1      -7.125  -3.156  -2.904  1.00  0.00     0.023 A 
ATOM     76  C   UNL     1      -5.861  -2.801  -3.441  1.00  0.00     0.012 A 
ATOM     77  C   UNL     1      -8.069  -3.647  -3.833  1.00  0.00     0.148 A 
ATOM     78  C   UNL     1      -5.582  -2.834  -4.812  1.00  0.00     0.002 A 
ATOM     79  C   UNL     1      -7.815  -3.619  -5.212  1.00  0.00     0.091 A 
ATOM     80  F   UNL     1      -9.193  -4.222  -3.394  1.00  0.00    -0.205 F 
ATOM     81  C   UNL     1      -6.572  -3.209  -5.704  1.00  0.00     0.022 A 
BRANCH  79  82
ATOM     82  S   UNL     1      -9.080  -4.012  -6.435  1.00  0.00     0.127 S 
ATOM     83  O   UNL     1      -8.919  -2.935  -7.416  1.00  0.00    -0.237 OA
ATOM     84  O   UNL     1      -8.662  -5.329  -6.910  1.00  0.00    -0.237 OA
ATOM     85  O   UNL     1     -10.350  -3.971  -5.720  1.00  0.00    -0.744 OA
ENDBRANCH  79  82
ENDBRANCH  61  75
BRANCH  62  86
ATOM     86  C   UNL     1      -8.372   1.102   6.011  1.00  0.00     0.023 A 
ATOM     87  C   UNL     1      -8.643   2.473   6.257  1.00  0.00     0.012 A 
ATOM     88  C   UNL     1      -9.348   0.143   6.314  1.00  0.00     0.148 A 
ATOM     89  C   UNL     1      -9.925   2.892   6.604  1.00  0.00     0.002 A 
ATOM     90  C   UNL     1     -10.632   0.573   6.639  1.00  0.00     0.091 A 
ATOM     91  F   UNL     1      -9.038  -1.153   6.183  1.00  0.00    -0.205 F 
ATOM     92  C   UNL     1     -10.931   1.944   6.742  1.00  0.00     0.022 A 
BRANCH  90  93
ATOM     93  S   UNL     1     -12.006  -0.579   6.745  1.00  0.00     0.127 S 
ATOM     94  O   UNL     1     -12.110  -0.777   8.187  1.00  0.00    -0.237 OA
ATOM     95  O   UNL     1     -13.098   0.191   6.146  1.00  0.00    -0.237 OA
ATOM     96  O   UNL     1     -11.595  -1.733   5.961  1.00  0.00    -0.744 OA
ENDBRANCH  90  93
ENDBRANCH  62  86
BRANCH  74  97
ATOM     97  C   UNL     1      -3.594  -3.630   2.861  1.00  0.00     0.023 A 
ATOM     98  C   UNL     1      -2.795  -3.818   4.000  1.00  0.00     0.012 A 
ATOM     99  C   UNL     1      -3.283  -4.450   1.748  1.00  0.00     0.148 A 
ATOM    100  C   UNL     1      -1.933  -4.910   4.130  1.00  0.00     0.002 A 
ATOM    101  C   UNL     1      -2.438  -5.544   1.872  1.00  0.00     0.091 A 
ATOM    102  F   UNL     1      -3.740  -4.140   0.531  1.00  0.00    -0.205 F 
ATOM    103  C   UNL     1      -1.798  -5.807   3.082  1.00  0.00     0.022 A 
BRANCH 101 104
ATOM    104  S   UNL     1      -2.144  -6.681   0.515  1.00  0.00     0.127 S 
ATOM    105  O   UNL     1      -0.712  -6.492   0.281  1.00  0.00    -0.237 OA
ATOM    106  O   UNL     1      -2.502  -7.962   1.123  1.00  0.00    -0.237 OA
ATOM    107  O   UNL     1      -3.011  -6.259  -0.575  1.00  0.00    -0.744 OA
ENDBRANCH 101 104
ENDBRANCH  74  97
ENDBRANCH  48  49
ENDBRANCH  41  43
ENDBRANCH  40  41
ENDBRANCH  39  40
ENDBRANCH  38  39
ENDBRANCH  37  38
ENDBRANCH  36  37
ENDBRANCH   1  36
TORSDOF 24
