REMARK SMILES Cc1ccccc1OCC(=O)N1C[C@@H](O)C[C@H]1C(=O)OCCOCCOC(=O)c1ccc(-c2c3nc(c(-c4cccc(S(=O)(=O)[O-])c4F)c4ccc([nH]4)c(-c4cccc(S(=O)(=O)[O-])c4F)c4nc(c(-c5cccc(S(=O)(=O)[O-])c5F)c5ccc2[nH]5)C=C4)C=C3)cc1
REMARK SMILES IDX 22 1 21 2 20 3 18 4 19 5 17 6 12 7 13 8 14 9 16 10 10 11
REMARK SMILES IDX 11 12 9 13 8 14 7 15 1 16 2 17 3 18 4 19 6 20 5 21 15 22
REMARK SMILES IDX 23 24 24 25 25 26 26 27 27 28 28 29 29 30 30 31 91 32 31 33
REMARK SMILES IDX 90 34 32 35 33 36 34 37 84 38 35 39 89 40 83 41 85 42 36 43
REMARK SMILES IDX 88 44 82 45 81 46 37 48 69 49 49 50 68 51 50 52 53 53 67 54
REMARK SMILES IDX 86 55 51 56 52 57 66 59 87 60 54 61 38 62 39 63 47 64 40 65
REMARK SMILES IDX 42 66 48 67 41 68 43 69 44 70 45 71 46 72 70 73 71 74 79 75
REMARK SMILES IDX 72 76 74 77 80 78 73 79 75 80 76 81 77 82 78 83 55 84 56 85
REMARK SMILES IDX 64 86 57 87 59 88 65 89 58 90 60 91 61 92 62 93 63 94
REMARK H PARENT 15 23 85 47 53 58
REMARK Flexibility Score: inf
ROOT
ATOM      1  C   UNL     1       2.982  -0.965   2.302  1.00  0.00     0.202 C 
ENDROOT
BRANCH   1   2
ATOM      2  C   UNL     1       2.326  -0.537   3.585  1.00  0.00     0.261 C 
BRANCH   2   3
ATOM      3  O   UNL     1       2.265   0.908   3.651  1.00  0.00    -0.462 OA
BRANCH   3   4
ATOM      4  C   UNL     1       3.395   1.653   3.874  1.00  0.00     0.329 C 
ATOM      5  O   UNL     1       4.399   1.274   4.454  1.00  0.00    -0.250 OA
BRANCH   4   6
ATOM      6  C   UNL     1       3.173   3.112   3.474  1.00  0.00     0.198 C 
ATOM      7  N   UNL     1       2.283   3.198   2.312  1.00  0.00    -0.323 N 
ATOM      8  C   UNL     1       0.921   3.424   2.737  1.00  0.00     0.152 C 
ATOM      9  C   UNL     1       1.070   4.211   4.040  1.00  0.00     0.136 C 
ATOM     10  C   UNL     1       2.442   3.832   4.611  1.00  0.00     0.070 C 
BRANCH   7  11
ATOM     11  C   UNL     1       2.775   2.990   1.047  1.00  0.00     0.261 C 
ATOM     12  O   UNL     1       3.992   2.899   0.852  1.00  0.00    -0.271 OA
BRANCH  11  13
ATOM     13  C   UNL     1       1.834   2.998  -0.173  1.00  0.00     0.329 C 
BRANCH  13  14
ATOM     14  O   UNL     1       0.492   2.595  -0.110  1.00  0.00    -0.484 OA
BRANCH  14  15
ATOM     15  C   UNL     1       0.055   1.307  -0.133  1.00  0.00     0.122 A 
ATOM     16  C   UNL     1       2.041  -0.007  -1.136  1.00  0.00     0.048 C 
ATOM     17  C   UNL     1       0.693   0.113  -0.491  1.00  0.00    -0.009 A 
ATOM     18  C   UNL     1      -0.021  -1.104  -0.346  1.00  0.00     0.007 A 
ATOM     19  C   UNL     1      -1.353  -1.134   0.060  1.00  0.00     0.001 A 
ATOM     20  C   UNL     1      -1.302   1.256   0.239  1.00  0.00     0.047 A 
ATOM     21  C   UNL     1      -2.007   0.057   0.323  1.00  0.00     0.004 A 
ENDBRANCH  14  15
ENDBRANCH  13  14
ENDBRANCH  11  13
ENDBRANCH   7  11
BRANCH   9  22
ATOM     22  O   UNL     1       0.023   3.937   4.959  1.00  0.00    -0.391 OA
ATOM     23  H   UNL     1       0.022   2.992   5.175  1.00  0.00     0.211 HD
ENDBRANCH   9  22
ENDBRANCH   4   6
ENDBRANCH   3   4
ENDBRANCH   2   3
ENDBRANCH   1   2
BRANCH   1  24
ATOM     24  O   UNL     1       4.320  -0.508   2.372  1.00  0.00    -0.374 OA
BRANCH  24  25
ATOM     25  C   UNL     1       4.990  -0.254   1.158  1.00  0.00     0.202 C 
BRANCH  25  26
ATOM     26  C   UNL     1       5.066  -1.480   0.251  1.00  0.00     0.261 C 
BRANCH  26  27
ATOM     27  O   UNL     1       5.960  -2.472   0.789  1.00  0.00    -0.460 OA
BRANCH  27  28
ATOM     28  C   UNL     1       5.348  -3.413   1.566  1.00  0.00     0.338 C 
ATOM     29  O   UNL     1       4.507  -4.196   1.141  1.00  0.00    -0.246 OA
BRANCH  28  30
ATOM     30  C   UNL     1       5.661  -3.173   3.005  1.00  0.00     0.060 A 
ATOM     31  C   UNL     1       4.866  -3.759   4.002  1.00  0.00     0.016 A 
ATOM     32  C   UNL     1       6.485  -2.097   3.322  1.00  0.00     0.016 A 
ATOM     33  C   UNL     1       4.741  -3.140   5.254  1.00  0.00     0.010 A 
ATOM     34  C   UNL     1       6.234  -1.410   4.491  1.00  0.00     0.010 A 
ATOM     35  C   UNL     1       5.341  -1.907   5.460  1.00  0.00    -0.014 A 
BRANCH  35  36
ATOM     36  C   UNL     1       5.253  -1.079   6.666  1.00  0.00     0.031 A 
ATOM     37  C   UNL     1       6.524  -0.920   7.417  1.00  0.00     0.074 A 
ATOM     38  C   UNL     1       4.220  -0.234   6.922  1.00  0.00     0.049 A 
ATOM     39  N   UNL     1       6.656  -0.172   8.451  1.00  0.00    -0.248 NA
ATOM     40  C   UNL     1       7.771  -1.608   7.062  1.00  0.00     0.031 C 
ATOM     41  C   UNL     1       4.303   1.075   7.585  1.00  0.00     0.029 A 
ATOM     42  N   UNL     1       2.855  -0.307   6.600  1.00  0.00    -0.354 N 
ATOM     43  C   UNL     1       8.001   0.021   8.643  1.00  0.00     0.074 A 
ATOM     44  C   UNL     1       8.649  -0.989   7.855  1.00  0.00     0.031 C 
ATOM     45  C   UNL     1       3.068   1.522   7.867  1.00  0.00     0.029 A 
ATOM     46  C   UNL     1       2.153   0.443   7.560  1.00  0.00     0.049 A 
ATOM     47  H   UNL     1       2.462  -0.794   5.840  1.00  0.00     0.167 HD
ATOM     48  C   UNL     1       8.383   1.122   9.339  1.00  0.00     0.034 A 
ATOM     49  C   UNL     1       1.252  -0.135   8.403  1.00  0.00     0.034 A 
ATOM     50  C   UNL     1       7.224   1.716  10.036  1.00  0.00     0.049 A 
ATOM     51  C   UNL     1       1.698   0.009   9.836  1.00  0.00     0.074 A 
ATOM     52  C   UNL     1       6.478   2.868   9.863  1.00  0.00     0.029 A 
ATOM     53  N   UNL     1       6.487   0.906  10.907  1.00  0.00    -0.354 N 
ATOM     54  N   UNL     1       2.868   0.490  10.156  1.00  0.00    -0.248 NA
ATOM     55  C   UNL     1       0.907  -0.313  11.017  1.00  0.00     0.031 C 
ATOM     56  C   UNL     1       5.234   2.686  10.545  1.00  0.00     0.029 A 
ATOM     57  C   UNL     1       5.241   1.451  11.178  1.00  0.00     0.049 A 
ATOM     58  H   UNL     1       6.812   0.056  11.281  1.00  0.00     0.167 HD
ATOM     59  C   UNL     1       3.062   0.450  11.497  1.00  0.00     0.074 A 
ATOM     60  C   UNL     1       1.774  -0.006  12.002  1.00  0.00     0.031 C 
ATOM     61  C   UNL     1       4.283   0.742  12.040  1.00  0.00     0.034 A 
BRANCH  48  62
ATOM     62  C   UNL     1       9.764   1.753   9.290  1.00  0.00     0.023 A 
ATOM     63  C   UNL     1       9.991   2.850  10.149  1.00  0.00     0.012 A 
ATOM     64  C   UNL     1      10.830   1.424   8.409  1.00  0.00     0.148 A 
ATOM     65  C   UNL     1      11.194   3.566  10.150  1.00  0.00     0.002 A 
ATOM     66  C   UNL     1      12.059   2.092   8.462  1.00  0.00     0.091 A 
ATOM     67  F   UNL     1      10.649   0.525   7.438  1.00  0.00    -0.205 F 
ATOM     68  C   UNL     1      12.238   3.175   9.323  1.00  0.00     0.022 A 
BRANCH  66  69
ATOM     69  S   UNL     1      13.482   1.607   7.461  1.00  0.00     0.127 S 
ATOM     70  O   UNL     1      13.648   2.763   6.579  1.00  0.00    -0.237 OA
ATOM     71  O   UNL     1      14.535   1.458   8.467  1.00  0.00    -0.237 OA
ATOM     72  O   UNL     1      13.111   0.367   6.791  1.00  0.00    -0.744 OA
ENDBRANCH  66  69
ENDBRANCH  48  62
BRANCH  49  73
ATOM     73  C   UNL     1       0.509  -1.256   7.747  1.00  0.00     0.023 A 
ATOM     74  C   UNL     1      -0.388  -0.880   6.711  1.00  0.00     0.012 A 
ATOM     75  C   UNL     1       1.010  -2.571   7.757  1.00  0.00     0.148 A 
ATOM     76  C   UNL     1      -0.649  -1.732   5.634  1.00  0.00     0.002 A 
ATOM     77  C   UNL     1       0.756  -3.411   6.670  1.00  0.00     0.091 A 
ATOM     78  F   UNL     1       1.784  -2.950   8.782  1.00  0.00    -0.205 F 
ATOM     79  C   UNL     1      -0.037  -2.978   5.592  1.00  0.00     0.022 A 
BRANCH  77  80
ATOM     80  S   UNL     1       1.536  -5.022   6.489  1.00  0.00     0.127 S 
ATOM     81  O   UNL     1       0.429  -5.922   6.805  1.00  0.00    -0.237 OA
ATOM     82  O   UNL     1       1.932  -5.018   5.079  1.00  0.00    -0.237 OA
ATOM     83  O   UNL     1       2.647  -5.030   7.428  1.00  0.00    -0.744 OA
ENDBRANCH  77  80
ENDBRANCH  49  73
BRANCH  61  84
ATOM     84  C   UNL     1       4.680   0.362  13.450  1.00  0.00     0.023 A 
ATOM     85  C   UNL     1       3.983  -0.619  14.183  1.00  0.00     0.012 A 
ATOM     86  C   UNL     1       5.869   0.864  14.032  1.00  0.00     0.148 A 
ATOM     87  C   UNL     1       4.386  -1.018  15.460  1.00  0.00     0.002 A 
ATOM     88  C   UNL     1       6.340   0.363  15.240  1.00  0.00     0.091 A 
ATOM     89  F   UNL     1       6.551   1.847  13.427  1.00  0.00    -0.205 F 
ATOM     90  C   UNL     1       5.579  -0.544  15.979  1.00  0.00     0.022 A 
BRANCH  88  91
ATOM     91  S   UNL     1       8.006   0.724  15.808  1.00  0.00     0.127 S 
ATOM     92  O   UNL     1       7.770   1.800  16.767  1.00  0.00    -0.237 OA
ATOM     93  O   UNL     1       8.411  -0.550  16.406  1.00  0.00    -0.237 OA
ATOM     94  O   UNL     1       8.751   1.082  14.609  1.00  0.00    -0.744 OA
ENDBRANCH  88  91
ENDBRANCH  61  84
ENDBRANCH  35  36
ENDBRANCH  28  30
ENDBRANCH  27  28
ENDBRANCH  26  27
ENDBRANCH  25  26
ENDBRANCH  24  25
ENDBRANCH   1  24
TORSDOF 22
