REMARK SMILES C[NH+]1CCC([NH+]2CCC(Oc3ccc4ccccc4c3)(C(=O)OCCOCCOC(=O)c3ccc(-c4c5nc(c(-c6cccc(S(=O)(=O)[O-])c6F)c6ccc([nH]6)c(-c6cccc(S(=O)(=O)[O-])c6F)c6nc(c(-c7cccc(S(=O)(=O)[O-])c7F)c7ccc4[nH]7)C=C6)C=C5)cc3)CC2)CC1
REMARK SMILES IDX 27 1 26 2 25 3 24 4 23 5 21 6 22 7 9 8 6 9 7 10 96 11 8 13
REMARK SMILES IDX 95 14 5 15 1 16 2 17 3 18 98 19 4 21 97 22 10 23 11 24 12 25
REMARK SMILES IDX 20 26 13 27 19 28 14 29 18 30 15 31 17 32 16 33 28 34 29 35
REMARK SMILES IDX 30 36 31 37 32 38 33 39 94 40 34 41 93 42 35 43 36 44 37 45
REMARK SMILES IDX 87 46 38 47 92 48 86 49 88 50 39 51 91 52 85 53 84 54 40 56
REMARK SMILES IDX 72 57 52 58 71 59 53 60 56 61 70 62 89 63 54 64 55 65 69 67
REMARK SMILES IDX 90 68 57 69 41 70 42 71 50 72 43 73 45 74 51 75 44 76 46 77
REMARK SMILES IDX 47 78 48 79 49 80 73 81 74 82 82 83 75 84 77 85 83 86 76 87
REMARK SMILES IDX 78 88 79 89 80 90 81 91 58 92 59 93 67 94 60 95 62 96 68 97
REMARK SMILES IDX 61 98 63 99 64 100 65 101 66 102
REMARK H PARENT 6 12 2 20 88 55 56 66
REMARK Flexibility Score: inf
ROOT
ATOM      1  C   UNL     1       2.655  -4.137   2.090  1.00  0.00     0.202 C 
ENDROOT
BRANCH   1   2
ATOM      2  O   UNL     1       3.118  -5.159   2.953  1.00  0.00    -0.374 OA
BRANCH   2   3
ATOM      3  C   UNL     1       4.072  -4.797   3.952  1.00  0.00     0.202 C 
BRANCH   3   4
ATOM      4  C   UNL     1       5.341  -4.052   3.515  1.00  0.00     0.261 C 
BRANCH   4   5
ATOM      5  O   UNL     1       5.114  -2.689   3.086  1.00  0.00    -0.460 OA
BRANCH   5   6
ATOM      6  C   UNL     1       5.577  -2.365   1.843  1.00  0.00     0.351 C 
ATOM      7  O   UNL     1       5.962  -3.207   1.032  1.00  0.00    -0.247 OA
BRANCH   6   8
ATOM      8  C   UNL     1       5.642  -0.841   1.562  1.00  0.00     0.216 C 
ATOM      9  N   UNL     1       3.233   0.191   0.112  1.00  0.00    -0.332 N 
ATOM     10  C   UNL     1       3.304   0.374   1.562  1.00  0.00     0.267 C 
ATOM     11  C   UNL     1       4.082  -0.873  -0.411  1.00  0.00     0.267 C 
ATOM     12  H   UNL     1       3.654   1.048  -0.248  1.00  0.00     0.348 HD
ATOM     13  C   UNL     1       4.595  -0.001   2.311  1.00  0.00     0.122 C 
ATOM     14  C   UNL     1       5.524  -0.649   0.040  1.00  0.00     0.122 C 
BRANCH   9  15
ATOM     15  C   UNL     1       1.854   0.199  -0.457  1.00  0.00     0.195 C 
ATOM     16  C   UNL     1      -2.486   0.238  -0.409  1.00  0.00     0.332 C 
ATOM     17  N   UNL     1      -1.058   0.218  -0.115  1.00  0.00    -0.337 N 
ATOM     18  C   UNL     1      -0.383   1.437  -0.569  1.00  0.00     0.268 C 
ATOM     19  C   UNL     1      -0.410  -0.966  -0.680  1.00  0.00     0.268 C 
ATOM     20  H   UNL     1      -0.973   0.177   0.901  1.00  0.00     0.347 HD
ATOM     21  C   UNL     1       1.062   1.465  -0.059  1.00  0.00     0.126 C 
ATOM     22  C   UNL     1       1.015  -1.053  -0.142  1.00  0.00     0.126 C 
ENDBRANCH   9  15
BRANCH   8  23
ATOM     23  O   UNL     1       6.973  -0.606   2.120  1.00  0.00    -0.475 OA
BRANCH  23  24
ATOM     24  C   UNL     1       7.711   0.420   1.605  1.00  0.00     0.121 A 
ATOM     25  C   UNL     1       7.526   1.728   2.037  1.00  0.00     0.047 A 
ATOM     26  C   UNL     1       8.774   0.112   0.756  1.00  0.00     0.055 A 
ATOM     27  C   UNL     1       8.343   2.749   1.551  1.00  0.00     0.012 A 
ATOM     28  C   UNL     1       9.628   1.125   0.281  1.00  0.00    -0.015 A 
ATOM     29  C   UNL     1       9.396   2.464   0.672  1.00  0.00    -0.018 A 
ATOM     30  C   UNL     1      10.720   0.842  -0.556  1.00  0.00     0.009 A 
ATOM     31  C   UNL     1      10.239   3.482   0.201  1.00  0.00     0.009 A 
ATOM     32  C   UNL     1      11.560   1.864  -1.006  1.00  0.00     0.001 A 
ATOM     33  C   UNL     1      11.316   3.183  -0.633  1.00  0.00     0.001 A 
ENDBRANCH  23  24
ENDBRANCH   8  23
ENDBRANCH   6   8
ENDBRANCH   5   6
ENDBRANCH   4   5
ENDBRANCH   3   4
ENDBRANCH   2   3
ENDBRANCH   1   2
BRANCH   1  34
ATOM     34  C   UNL     1       1.850  -2.986   2.697  1.00  0.00     0.261 C 
BRANCH  34  35
ATOM     35  O   UNL     1       2.127  -2.672   4.058  1.00  0.00    -0.460 OA
BRANCH  35  36
ATOM     36  C   UNL     1       1.100  -2.892   4.909  1.00  0.00     0.338 C 
ATOM     37  O   UNL     1      -0.031  -3.254   4.643  1.00  0.00    -0.246 OA
BRANCH  36  38
ATOM     38  C   UNL     1       1.602  -2.744   6.279  1.00  0.00     0.060 A 
ATOM     39  C   UNL     1       1.785  -3.907   7.030  1.00  0.00     0.016 A 
ATOM     40  C   UNL     1       1.825  -1.480   6.831  1.00  0.00     0.016 A 
ATOM     41  C   UNL     1       2.152  -3.808   8.367  1.00  0.00     0.010 A 
ATOM     42  C   UNL     1       2.195  -1.384   8.174  1.00  0.00     0.010 A 
ATOM     43  C   UNL     1       2.323  -2.546   8.955  1.00  0.00    -0.014 A 
BRANCH  43  44
ATOM     44  C   UNL     1       2.509  -2.458  10.420  1.00  0.00     0.031 A 
ATOM     45  C   UNL     1       1.325  -2.140  11.289  1.00  0.00     0.074 A 
ATOM     46  C   UNL     1       3.716  -2.695  10.964  1.00  0.00     0.049 A 
ATOM     47  N   UNL     1       1.250  -2.085  12.593  1.00  0.00    -0.248 NA
ATOM     48  C   UNL     1       0.058  -1.845  10.600  1.00  0.00     0.031 C 
ATOM     49  C   UNL     1       4.934  -2.996  10.213  1.00  0.00     0.029 A 
ATOM     50  N   UNL     1       4.115  -2.709  12.275  1.00  0.00    -0.354 N 
ATOM     51  C   UNL     1      -0.064  -1.737  12.881  1.00  0.00     0.074 A 
ATOM     52  C   UNL     1      -0.747  -1.571  11.617  1.00  0.00     0.031 C 
ATOM     53  C   UNL     1       5.951  -3.151  11.077  1.00  0.00     0.029 A 
ATOM     54  C   UNL     1       5.458  -2.951  12.438  1.00  0.00     0.049 A 
ATOM     55  H   UNL     1       3.499  -2.560  13.028  1.00  0.00     0.167 HD
ATOM     56  C   UNL     1      -0.654  -1.591  14.091  1.00  0.00     0.034 A 
ATOM     57  C   UNL     1       6.202  -3.001  13.560  1.00  0.00     0.034 A 
ATOM     58  C   UNL     1       0.028  -1.776  15.342  1.00  0.00     0.049 A 
ATOM     59  C   UNL     1       5.522  -2.833  14.893  1.00  0.00     0.074 A 
ATOM     60  C   UNL     1      -0.488  -1.700  16.623  1.00  0.00     0.029 A 
ATOM     61  N   UNL     1       1.379  -2.062  15.470  1.00  0.00    -0.354 N 
ATOM     62  N   UNL     1       4.250  -2.644  15.153  1.00  0.00    -0.248 NA
ATOM     63  C   UNL     1       6.371  -2.924  16.090  1.00  0.00     0.031 C 
ATOM     64  C   UNL     1       0.557  -1.923  17.527  1.00  0.00     0.029 A 
ATOM     65  C   UNL     1       1.718  -2.156  16.808  1.00  0.00     0.049 A 
ATOM     66  H   UNL     1       2.004  -2.182  14.719  1.00  0.00     0.167 HD
ATOM     67  C   UNL     1       4.141  -2.624  16.539  1.00  0.00     0.074 A 
ATOM     68  C   UNL     1       5.474  -2.843  17.064  1.00  0.00     0.031 C 
ATOM     69  C   UNL     1       3.042  -2.426  17.309  1.00  0.00     0.034 A 
BRANCH  56  70
ATOM     70  C   UNL     1      -2.120  -1.250  14.115  1.00  0.00     0.023 A 
ATOM     71  C   UNL     1      -3.068  -2.240  13.788  1.00  0.00     0.012 A 
ATOM     72  C   UNL     1      -2.562   0.029  14.505  1.00  0.00     0.148 A 
ATOM     73  C   UNL     1      -4.432  -1.957  13.821  1.00  0.00     0.002 A 
ATOM     74  C   UNL     1      -3.925   0.293  14.573  1.00  0.00     0.091 A 
ATOM     75  F   UNL     1      -1.645   0.965  14.787  1.00  0.00    -0.205 F 
ATOM     76  C   UNL     1      -4.861  -0.694  14.223  1.00  0.00     0.022 A 
BRANCH  74  77
ATOM     77  S   UNL     1      -4.577   1.867  15.144  1.00  0.00     0.127 S 
ATOM     78  O   UNL     1      -5.062   2.456  13.896  1.00  0.00    -0.237 OA
ATOM     79  O   UNL     1      -5.631   1.448  16.069  1.00  0.00    -0.237 OA
ATOM     80  O   UNL     1      -3.460   2.559  15.772  1.00  0.00    -0.744 OA
ENDBRANCH  74  77
ENDBRANCH  56  70
BRANCH  57  81
ATOM     81  C   UNL     1       7.664  -3.275  13.469  1.00  0.00     0.023 A 
ATOM     82  C   UNL     1       8.171  -4.507  13.923  1.00  0.00     0.012 A 
ATOM     83  C   UNL     1       8.547  -2.335  12.902  1.00  0.00     0.148 A 
ATOM     84  C   UNL     1       9.535  -4.790  13.837  1.00  0.00     0.002 A 
ATOM     85  C   UNL     1       9.896  -2.644  12.771  1.00  0.00     0.091 A 
ATOM     86  F   UNL     1       8.049  -1.159  12.495  1.00  0.00    -0.205 F 
ATOM     87  C   UNL     1      10.395  -3.864  13.251  1.00  0.00     0.022 A 
BRANCH  85  88
ATOM     88  S   UNL     1      11.046  -1.564  11.911  1.00  0.00     0.127 S 
ATOM     89  O   UNL     1      11.810  -0.997  13.019  1.00  0.00    -0.237 OA
ATOM     90  O   UNL     1      11.784  -2.510  11.074  1.00  0.00    -0.237 OA
ATOM     91  O   UNL     1      10.216  -0.628  11.165  1.00  0.00    -0.744 OA
ENDBRANCH  85  88
ENDBRANCH  57  81
BRANCH  69  92
ATOM     92  C   UNL     1       3.224  -2.458  18.803  1.00  0.00     0.023 A 
ATOM     93  C   UNL     1       3.844  -1.372  19.452  1.00  0.00     0.012 A 
ATOM     94  C   UNL     1       2.707  -3.520  19.570  1.00  0.00     0.148 A 
ATOM     95  C   UNL     1       3.974  -1.357  20.840  1.00  0.00     0.002 A 
ATOM     96  C   UNL     1       2.800  -3.477  20.957  1.00  0.00     0.091 A 
ATOM     97  F   UNL     1       2.138  -4.553  18.933  1.00  0.00    -0.205 F 
ATOM     98  C   UNL     1       3.442  -2.402  21.592  1.00  0.00     0.022 A 
BRANCH  96  99
ATOM     99  S   UNL     1       2.058  -4.732  22.006  1.00  0.00     0.127 S 
ATOM    100  O   UNL     1       3.230  -5.499  22.426  1.00  0.00    -0.237 OA
ATOM    101  O   UNL     1       1.442  -3.932  23.065  1.00  0.00    -0.237 OA
ATOM    102  O   UNL     1       1.109  -5.446  21.163  1.00  0.00    -0.744 OA
ENDBRANCH  96  99
ENDBRANCH  69  92
ENDBRANCH  43  44
ENDBRANCH  36  38
ENDBRANCH  35  36
ENDBRANCH  34  35
ENDBRANCH   1  34
TORSDOF 20
