REMARK SMILES CN1C(=O)C[C@@H](C(=O)OCCOCCOC(=O)c2ccc(-c3c4nc(c(-c5cccc(S(=O)(=O)[O-])c5F)c5ccc([nH]5)c(-c5cccc(S(=O)(=O)[O-])c5F)c5nc(c(-c6cccc(S(=O)(=O)[O-])c6F)c6ccc3[nH]6)C=C5)C=C4)cc2)C12CCN(c1ccc(Cl)cn1)CC2
REMARK SMILES IDX 13 1 12 2 11 3 10 4 9 5 7 6 8 7 6 8 1 9 2 10 3 11 81 12 4 13
REMARK SMILES IDX 5 14 82 15 93 16 83 17 92 18 84 19 85 20 86 21 91 22 87 23
REMARK SMILES IDX 90 24 88 25 89 26 14 27 15 28 16 29 17 30 18 31 19 32 80 33
REMARK SMILES IDX 20 34 79 35 21 36 22 37 23 38 73 39 24 40 78 41 72 42 74 43
REMARK SMILES IDX 25 44 77 45 71 46 70 47 26 49 58 50 38 51 57 52 39 53 42 54
REMARK SMILES IDX 56 55 75 56 40 57 41 58 55 60 76 61 43 62 27 63 28 64 36 65
REMARK SMILES IDX 29 66 31 67 37 68 30 69 32 70 33 71 34 72 35 73 59 74 60 75
REMARK SMILES IDX 68 76 61 77 63 78 69 79 62 80 64 81 65 82 66 83 67 84 44 85
REMARK SMILES IDX 45 86 53 87 46 88 48 89 54 90 47 91 49 92 50 93 51 94 52 95
REMARK H PARENT 74 48 42 59
REMARK Flexibility Score: inf
ROOT
ATOM      1  C   UNL     1      -3.201  -3.283   4.463  1.00  0.00     0.202 C 
ENDROOT
BRANCH   1   2
ATOM      2  O   UNL     1      -4.276  -2.403   4.777  1.00  0.00    -0.374 OA
BRANCH   2   3
ATOM      3  C   UNL     1      -4.550  -1.332   3.877  1.00  0.00     0.202 C 
BRANCH   3   4
ATOM      4  C   UNL     1      -3.527  -0.191   3.768  1.00  0.00     0.261 C 
BRANCH   4   5
ATOM      5  O   UNL     1      -2.223  -0.543   3.251  1.00  0.00    -0.463 OA
BRANCH   5   6
ATOM      6  C   UNL     1      -1.232  -0.553   4.172  1.00  0.00     0.311 C 
ATOM      7  O   UNL     1      -1.427  -0.530   5.386  1.00  0.00    -0.252 OA
BRANCH   6   8
ATOM      8  C   UNL     1       0.184  -0.477   3.638  1.00  0.00     0.134 C 
ATOM      9  C   UNL     1       0.840   0.254   0.000  1.00  0.00     0.147 C 
ATOM     10  N   UNL     1       0.630   0.226   1.440  1.00  0.00    -0.339 N 
ATOM     11  C   UNL     1       0.621   1.388   2.192  1.00  0.00     0.223 C 
ATOM     12  C   UNL     1       0.664  -0.998   2.258  1.00  0.00     0.060 C 
ATOM     13  O   UNL     1       0.727   2.529   1.779  1.00  0.00    -0.275 OA
ATOM     14  C   UNL     1       0.554   1.015   3.643  1.00  0.00     0.118 C 
ATOM     15  C   UNL     1      -0.155  -2.128   1.607  1.00  0.00     0.051 C 
ATOM     16  C   UNL     1       2.159  -1.463   2.406  1.00  0.00     0.051 C 
ATOM     17  C   UNL     1       0.061  -3.479   2.263  1.00  0.00     0.120 C 
ATOM     18  C   UNL     1       2.320  -2.869   3.006  1.00  0.00     0.120 C 
ATOM     19  N   UNL     1       1.487  -3.776   2.236  1.00  0.00    -0.356 N 
BRANCH  19  20
ATOM     20  C   UNL     1       1.797  -5.128   2.219  1.00  0.00     0.128 A 
ATOM     21  C   UNL     1       1.528  -5.857   1.054  1.00  0.00     0.048 A 
ATOM     22  N   UNL     1       2.297  -5.724   3.320  1.00  0.00    -0.238 NA
ATOM     23  C   UNL     1       1.727  -7.236   1.024  1.00  0.00     0.026 A 
ATOM     24  C   UNL     1       2.471  -7.072   3.274  1.00  0.00     0.134 A 
ATOM     25  C   UNL     1       2.194  -7.860   2.167  1.00  0.00     0.059 A 
ATOM     26  Cl  UNL     1       2.409  -9.562   2.209  1.00  0.00    -0.083 Cl
ENDBRANCH  19  20
ENDBRANCH   6   8
ENDBRANCH   5   6
ENDBRANCH   4   5
ENDBRANCH   3   4
ENDBRANCH   2   3
ENDBRANCH   1   2
BRANCH   1  27
ATOM     27  C   UNL     1      -3.370  -4.163   3.221  1.00  0.00     0.261 C 
BRANCH  27  28
ATOM     28  O   UNL     1      -3.582  -3.384   2.033  1.00  0.00    -0.460 OA
BRANCH  28  29
ATOM     29  C   UNL     1      -4.485  -3.928   1.179  1.00  0.00     0.338 C 
ATOM     30  O   UNL     1      -4.921  -5.065   1.202  1.00  0.00    -0.246 OA
BRANCH  29  31
ATOM     31  C   UNL     1      -5.014  -2.890   0.278  1.00  0.00     0.060 A 
ATOM     32  C   UNL     1      -6.281  -2.360   0.551  1.00  0.00     0.016 A 
ATOM     33  C   UNL     1      -4.327  -2.531  -0.882  1.00  0.00     0.016 A 
ATOM     34  C   UNL     1      -6.882  -1.489  -0.359  1.00  0.00     0.010 A 
ATOM     35  C   UNL     1      -4.934  -1.659  -1.794  1.00  0.00     0.010 A 
ATOM     36  C   UNL     1      -6.226  -1.159  -1.554  1.00  0.00    -0.014 A 
BRANCH  36  37
ATOM     37  C   UNL     1      -6.936  -0.368  -2.591  1.00  0.00     0.031 A 
ATOM     38  C   UNL     1      -7.549  -1.073  -3.771  1.00  0.00     0.074 A 
ATOM     39  C   UNL     1      -7.022   0.972  -2.484  1.00  0.00     0.049 A 
ATOM     40  N   UNL     1      -8.223  -0.570  -4.773  1.00  0.00    -0.248 NA
ATOM     41  C   UNL     1      -7.381  -2.534  -3.834  1.00  0.00     0.031 C 
ATOM     42  C   UNL     1      -6.452   1.769  -1.400  1.00  0.00     0.029 A 
ATOM     43  N   UNL     1      -7.602   1.899  -3.314  1.00  0.00    -0.354 N 
ATOM     44  C   UNL     1      -8.534  -1.644  -5.600  1.00  0.00     0.074 A 
ATOM     45  C   UNL     1      -7.973  -2.827  -4.985  1.00  0.00     0.031 C 
ATOM     46  C   UNL     1      -6.686   3.070  -1.645  1.00  0.00     0.029 A 
ATOM     47  C   UNL     1      -7.407   3.199  -2.910  1.00  0.00     0.049 A 
ATOM     48  H   UNL     1      -8.110   1.657  -4.122  1.00  0.00     0.167 HD
ATOM     49  C   UNL     1      -9.234  -1.644  -6.758  1.00  0.00     0.034 A 
ATOM     50  C   UNL     1      -7.752   4.360  -3.502  1.00  0.00     0.034 A 
ATOM     51  C   UNL     1      -9.820  -0.472  -7.349  1.00  0.00     0.049 A 
ATOM     52  C   UNL     1      -8.517   4.325  -4.800  1.00  0.00     0.074 A 
ATOM     53  C   UNL     1     -10.636  -0.390  -8.464  1.00  0.00     0.029 A 
ATOM     54  N   UNL     1      -9.634   0.822  -6.892  1.00  0.00    -0.354 N 
ATOM     55  N   UNL     1      -8.963   3.289  -5.468  1.00  0.00    -0.248 NA
ATOM     56  C   UNL     1      -8.851   5.620  -5.413  1.00  0.00     0.031 C 
ATOM     57  C   UNL     1     -10.915   0.960  -8.702  1.00  0.00     0.029 A 
ATOM     58  C   UNL     1     -10.290   1.714  -7.722  1.00  0.00     0.049 A 
ATOM     59  H   UNL     1      -9.113   1.070  -6.095  1.00  0.00     0.167 HD
ATOM     60  C   UNL     1      -9.651   3.805  -6.561  1.00  0.00     0.074 A 
ATOM     61  C   UNL     1      -9.587   5.248  -6.452  1.00  0.00     0.031 C 
ATOM     62  C   UNL     1     -10.263   3.146  -7.575  1.00  0.00     0.034 A 
BRANCH  49  63
ATOM     63  C   UNL     1      -9.439  -2.957  -7.464  1.00  0.00     0.023 A 
ATOM     64  C   UNL     1     -10.390  -3.873  -6.971  1.00  0.00     0.012 A 
ATOM     65  C   UNL     1      -8.763  -3.238  -8.668  1.00  0.00     0.148 A 
ATOM     66  C   UNL     1     -10.654  -5.057  -7.658  1.00  0.00     0.002 A 
ATOM     67  C   UNL     1      -9.058  -4.403  -9.366  1.00  0.00     0.091 A 
ATOM     68  F   UNL     1      -7.849  -2.361  -9.106  1.00  0.00    -0.205 F 
ATOM     69  C   UNL     1      -9.998  -5.316  -8.859  1.00  0.00     0.022 A 
BRANCH  67  70
ATOM     70  S   UNL     1      -8.319  -4.797 -10.955  1.00  0.00     0.127 S 
ATOM     71  O   UNL     1      -7.478  -5.943 -10.613  1.00  0.00    -0.237 OA
ATOM     72  O   UNL     1      -9.492  -5.122 -11.767  1.00  0.00    -0.237 OA
ATOM     73  O   UNL     1      -7.601  -3.601 -11.373  1.00  0.00    -0.744 OA
ENDBRANCH  67  70
ENDBRANCH  49  63
BRANCH  50  74
ATOM     74  C   UNL     1      -7.398   5.663  -2.869  1.00  0.00     0.023 A 
ATOM     75  C   UNL     1      -8.418   6.491  -2.362  1.00  0.00     0.012 A 
ATOM     76  C   UNL     1      -6.059   6.088  -2.774  1.00  0.00     0.148 A 
ATOM     77  C   UNL     1      -8.114   7.734  -1.803  1.00  0.00     0.002 A 
ATOM     78  C   UNL     1      -5.759   7.302  -2.167  1.00  0.00     0.091 A 
ATOM     79  F   UNL     1      -5.103   5.300  -3.286  1.00  0.00    -0.205 F 
ATOM     80  C   UNL     1      -6.785   8.134  -1.696  1.00  0.00     0.022 A 
BRANCH  78  81
ATOM     81  S   UNL     1      -4.066   7.830  -1.882  1.00  0.00     0.127 S 
ATOM     82  O   UNL     1      -3.881   8.824  -2.935  1.00  0.00    -0.237 OA
ATOM     83  O   UNL     1      -4.140   8.375  -0.525  1.00  0.00    -0.237 OA
ATOM     84  O   UNL     1      -3.263   6.620  -1.996  1.00  0.00    -0.744 OA
ENDBRANCH  78  81
ENDBRANCH  50  74
BRANCH  62  85
ATOM     85  C   UNL     1     -10.930   3.966  -8.647  1.00  0.00     0.023 A 
ATOM     86  C   UNL     1     -10.138   4.640  -9.598  1.00  0.00     0.012 A 
ATOM     87  C   UNL     1     -12.333   3.992  -8.772  1.00  0.00     0.148 A 
ATOM     88  C   UNL     1     -10.732   5.347 -10.642  1.00  0.00     0.002 A 
ATOM     89  C   UNL     1     -12.917   4.659  -9.842  1.00  0.00     0.091 A 
ATOM     90  F   UNL     1     -13.068   3.356  -7.848  1.00  0.00    -0.205 F 
ATOM     91  C   UNL     1     -12.119   5.346 -10.771  1.00  0.00     0.022 A 
BRANCH  89  92
ATOM     92  S   UNL     1     -14.688   4.633 -10.146  1.00  0.00     0.127 S 
ATOM     93  O   UNL     1     -15.065   6.010  -9.833  1.00  0.00    -0.237 OA
ATOM     94  O   UNL     1     -14.754   4.290 -11.567  1.00  0.00    -0.237 OA
ATOM     95  O   UNL     1     -15.235   3.619  -9.254  1.00  0.00    -0.744 OA
ENDBRANCH  89  92
ENDBRANCH  62  85
ENDBRANCH  36  37
ENDBRANCH  29  31
ENDBRANCH  28  29
ENDBRANCH  27  28
ENDBRANCH   1  27
TORSDOF 18
