REMARK SMILES C/C(=C(/F)C(=O)OCCOCCOC(=O)c1ccc(-c2c3nc(c(-c4cccc(S(=O)(=O)[O-])c4F)c4ccc([nH]4)c(-c4cccc(S(=O)(=O)[O-])c4F)c4nc(c(-c5cccc(S(=O)(=O)[O-])c5F)c5ccc2[nH]5)C=C4)C=C3)cc1)c1cccc(-n2cnnn2)c1
REMARK SMILES IDX 11 1 10 2 9 3 8 4 7 5 5 6 6 7 3 8 1 9 2 10 4 11 79 12 80 13
REMARK SMILES IDX 89 14 81 15 83 16 82 17 84 18 85 19 88 20 86 21 87 22 12 23
REMARK SMILES IDX 13 24 14 25 15 26 16 27 17 28 78 29 18 30 77 31 19 32 20 33
REMARK SMILES IDX 21 34 71 35 22 36 76 37 70 38 72 39 23 40 75 41 69 42 68 43
REMARK SMILES IDX 24 45 56 46 36 47 55 48 37 49 40 50 54 51 73 52 38 53 39 54
REMARK SMILES IDX 53 56 74 57 41 58 25 59 26 60 34 61 27 62 29 63 35 64 28 65
REMARK SMILES IDX 30 66 31 67 32 68 33 69 57 70 58 71 66 72 59 73 61 74 67 75
REMARK SMILES IDX 60 76 62 77 63 78 64 79 65 80 42 81 43 82 51 83 44 84 46 85
REMARK SMILES IDX 52 86 45 87 47 88 48 89 49 90 50 91
REMARK H PARENT 72 44 40 55
REMARK Flexibility Score: inf
ROOT
ATOM      1  C   UNL     1       1.034   3.080  -1.329  1.00  0.00     0.202 C 
ENDROOT
BRANCH   1   2
ATOM      2  O   UNL     1       0.194   3.056  -2.484  1.00  0.00    -0.374 OA
BRANCH   2   3
ATOM      3  C   UNL     1      -1.058   3.741  -2.395  1.00  0.00     0.202 C 
BRANCH   3   4
ATOM      4  C   UNL     1      -2.197   2.991  -1.697  1.00  0.00     0.261 C 
BRANCH   4   5
ATOM      5  O   UNL     1      -1.854   2.687  -0.338  1.00  0.00    -0.458 OA
BRANCH   5   6
ATOM      6  C   UNL     1      -1.658   1.372  -0.071  1.00  0.00     0.367 C 
ATOM      7  O   UNL     1      -1.911   0.432  -0.811  1.00  0.00    -0.243 OA
BRANCH   6   8
ATOM      8  C   UNL     1      -0.963   1.240   1.232  1.00  0.00     0.211 C 
ATOM      9  C   UNL     1       0.760  -0.362   0.341  1.00  0.00     0.048 C 
ATOM     10  C   UNL     1       0.094   0.427   1.445  1.00  0.00    -0.000 C 
ATOM     11  F   UNL     1      -1.445   2.045   2.206  1.00  0.00    -0.199 F 
BRANCH  10  12
ATOM     12  C   UNL     1       0.650   0.239   2.816  1.00  0.00    -0.017 A 
ATOM     13  C   UNL     1      -0.221   0.102   3.909  1.00  0.00     0.008 A 
ATOM     14  C   UNL     1       2.028   0.063   3.046  1.00  0.00     0.037 A 
ATOM     15  C   UNL     1       0.251  -0.236   5.178  1.00  0.00     0.003 A 
ATOM     16  C   UNL     1       2.505  -0.305   4.318  1.00  0.00     0.069 A 
ATOM     17  C   UNL     1       1.608  -0.467   5.380  1.00  0.00     0.028 A 
BRANCH  16  18
ATOM     18  N   UNL     1       3.880  -0.554   4.535  1.00  0.00    -0.201 N 
ATOM     19  C   UNL     1       4.961  -0.233   3.753  1.00  0.00     0.252 A 
ATOM     20  N   UNL     1       4.339  -1.225   5.618  1.00  0.00    -0.040 NA
ATOM     21  N   UNL     1       6.051  -0.731   4.290  1.00  0.00    -0.117 NA
ATOM     22  N   UNL     1       5.646  -1.353   5.441  1.00  0.00    -0.024 NA
ENDBRANCH  16  18
ENDBRANCH  10  12
ENDBRANCH   6   8
ENDBRANCH   5   6
ENDBRANCH   4   5
ENDBRANCH   3   4
ENDBRANCH   2   3
ENDBRANCH   1   2
BRANCH   1  23
ATOM     23  C   UNL     1       1.824   4.364  -1.054  1.00  0.00     0.261 C 
BRANCH  23  24
ATOM     24  O   UNL     1       0.969   5.471  -0.730  1.00  0.00    -0.460 OA
BRANCH  24  25
ATOM     25  C   UNL     1       0.881   6.420  -1.691  1.00  0.00     0.338 C 
ATOM     26  O   UNL     1       1.502   6.456  -2.747  1.00  0.00    -0.246 OA
BRANCH  25  27
ATOM     27  C   UNL     1      -0.228   7.342  -1.391  1.00  0.00     0.060 A 
ATOM     28  C   UNL     1      -1.181   7.554  -2.396  1.00  0.00     0.016 A 
ATOM     29  C   UNL     1      -0.307   8.030  -0.179  1.00  0.00     0.016 A 
ATOM     30  C   UNL     1      -2.188   8.497  -2.213  1.00  0.00     0.010 A 
ATOM     31  C   UNL     1      -1.316   8.982  -0.001  1.00  0.00     0.010 A 
ATOM     32  C   UNL     1      -2.237   9.245  -1.031  1.00  0.00    -0.014 A 
BRANCH  32  33
ATOM     33  C   UNL     1      -3.172  10.390  -0.927  1.00  0.00     0.031 A 
ATOM     34  C   UNL     1      -2.643  11.787  -1.109  1.00  0.00     0.074 A 
ATOM     35  C   UNL     1      -4.478  10.187  -0.673  1.00  0.00     0.049 A 
ATOM     36  N   UNL     1      -3.277  12.927  -1.036  1.00  0.00    -0.248 NA
ATOM     37  C   UNL     1      -1.207  11.915  -1.410  1.00  0.00     0.031 C 
ATOM     38  C   UNL     1      -5.105   8.881  -0.477  1.00  0.00     0.029 A 
ATOM     39  N   UNL     1      -5.504  11.083  -0.512  1.00  0.00    -0.354 N 
ATOM     40  C   UNL     1      -2.317  13.909  -1.249  1.00  0.00     0.074 A 
ATOM     41  C   UNL     1      -1.054  13.230  -1.444  1.00  0.00     0.031 C 
ATOM     42  C   UNL     1      -6.405   9.062  -0.190  1.00  0.00     0.029 A 
ATOM     43  C   UNL     1      -6.695  10.494  -0.160  1.00  0.00     0.049 A 
ATOM     44  H   UNL     1      -5.398  12.053  -0.637  1.00  0.00     0.167 HD
ATOM     45  C   UNL     1      -2.475  15.253  -1.292  1.00  0.00     0.034 A 
ATOM     46  C   UNL     1      -7.878  11.049   0.172  1.00  0.00     0.034 A 
ATOM     47  C   UNL     1      -3.736  15.922  -1.119  1.00  0.00     0.049 A 
ATOM     48  C   UNL     1      -8.023  12.548   0.132  1.00  0.00     0.074 A 
ATOM     49  C   UNL     1      -4.009  17.276  -1.202  1.00  0.00     0.029 A 
ATOM     50  N   UNL     1      -4.931  15.291  -0.812  1.00  0.00    -0.354 N 
ATOM     51  N   UNL     1      -7.135  13.456  -0.197  1.00  0.00    -0.248 NA
ATOM     52  C   UNL     1      -9.343  13.099   0.474  1.00  0.00     0.031 C 
ATOM     53  C   UNL     1      -5.364  17.466  -0.915  1.00  0.00     0.029 A 
ATOM     54  C   UNL     1      -5.942  16.227  -0.687  1.00  0.00     0.049 A 
ATOM     55  H   UNL     1      -5.044  14.319  -0.699  1.00  0.00     0.167 HD
ATOM     56  C   UNL     1      -7.797  14.678  -0.137  1.00  0.00     0.074 A 
ATOM     57  C   UNL     1      -9.166  14.392   0.240  1.00  0.00     0.031 C 
ATOM     58  C   UNL     1      -7.313  15.925  -0.362  1.00  0.00     0.034 A 
BRANCH  45  59
ATOM     59  C   UNL     1      -1.254  16.094  -1.557  1.00  0.00     0.023 A 
ATOM     60  C   UNL     1      -0.687  16.118  -2.847  1.00  0.00     0.012 A 
ATOM     61  C   UNL     1      -0.705  16.906  -0.545  1.00  0.00     0.148 A 
ATOM     62  C   UNL     1       0.425  16.914  -3.119  1.00  0.00     0.002 A 
ATOM     63  C   UNL     1       0.376  17.730  -0.835  1.00  0.00     0.091 A 
ATOM     64  F   UNL     1      -1.244  16.852   0.681  1.00  0.00    -0.205 F 
ATOM     65  C   UNL     1       0.949  17.727  -2.118  1.00  0.00     0.022 A 
BRANCH  63  66
ATOM     66  S   UNL     1       1.073  18.872   0.364  1.00  0.00     0.127 S 
ATOM     67  O   UNL     1       2.364  18.247   0.649  1.00  0.00    -0.237 OA
ATOM     68  O   UNL     1       1.152  20.114  -0.404  1.00  0.00    -0.237 OA
ATOM     69  O   UNL     1       0.136  18.905   1.478  1.00  0.00    -0.744 OA
ENDBRANCH  63  66
ENDBRANCH  45  59
BRANCH  46  70
ATOM     70  C   UNL     1      -9.029  10.180   0.545  1.00  0.00     0.023 A 
ATOM     71  C   UNL     1     -10.141  10.091  -0.313  1.00  0.00     0.012 A 
ATOM     72  C   UNL     1      -9.018   9.428   1.736  1.00  0.00     0.148 A 
ATOM     73  C   UNL     1     -11.236   9.293   0.023  1.00  0.00     0.002 A 
ATOM     74  C   UNL     1     -10.086   8.592   2.037  1.00  0.00     0.091 A 
ATOM     75  F   UNL     1      -7.957   9.540   2.548  1.00  0.00    -0.205 F 
ATOM     76  C   UNL     1     -11.204   8.536   1.192  1.00  0.00     0.022 A 
BRANCH  74  77
ATOM     77  S   UNL     1     -10.072   7.484   3.451  1.00  0.00     0.127 S 
ATOM     78  O   UNL     1     -11.073   8.097   4.321  1.00  0.00    -0.237 OA
ATOM     79  O   UNL     1     -10.476   6.216   2.844  1.00  0.00    -0.237 OA
ATOM     80  O   UNL     1      -8.704   7.501   3.951  1.00  0.00    -0.744 OA
ENDBRANCH  74  77
ENDBRANCH  46  70
BRANCH  58  81
ATOM     81  C   UNL     1      -8.273  17.081  -0.250  1.00  0.00     0.023 A 
ATOM     82  C   UNL     1      -8.734  17.493   1.016  1.00  0.00     0.012 A 
ATOM     83  C   UNL     1      -8.655  17.809  -1.395  1.00  0.00     0.148 A 
ATOM     84  C   UNL     1      -9.587  18.589   1.137  1.00  0.00     0.002 A 
ATOM     85  C   UNL     1      -9.465  18.931  -1.261  1.00  0.00     0.091 A 
ATOM     86  F   UNL     1      -8.220  17.392  -2.593  1.00  0.00    -0.205 F 
ATOM     87  C   UNL     1      -9.942  19.315   0.002  1.00  0.00     0.022 A 
BRANCH  85  88
ATOM     88  S   UNL     1      -9.892  19.982  -2.654  1.00  0.00     0.127 S 
ATOM     89  O   UNL     1     -11.305  19.661  -2.848  1.00  0.00    -0.237 OA
ATOM     90  O   UNL     1      -9.638  21.321  -2.122  1.00  0.00    -0.237 OA
ATOM     91  O   UNL     1      -9.007  19.587  -3.742  1.00  0.00    -0.744 OA
ENDBRANCH  85  88
ENDBRANCH  58  81
ENDBRANCH  32  33
ENDBRANCH  25  27
ENDBRANCH  24  25
ENDBRANCH  23  24
ENDBRANCH   1  23
TORSDOF 19
