REMARK SMILES Cc1cccc(NC(=O)C[C@H]([NH2+]C(C)C)C(=O)OCCOCCOC(=O)c2ccc(-c3c4nc(c(-c5cccc(S(=O)(=O)[O-])c5F)c5ccc([nH]5)c(-c5cccc(S(=O)(=O)[O-])c5F)c5nc(c(-c6cccc(S(=O)(=O)[O-])c6F)c6ccc3[nH]6)C=C5)C=C4)cc2)c1
REMARK SMILES IDX 21 1 20 2 19 3 18 4 16 5 17 6 11 7 10 8 8 9 7 10 9 12 6 13
REMARK SMILES IDX 1 14 2 15 3 16 90 17 4 18 5 19 12 20 13 23 14 24 15 25 22 26
REMARK SMILES IDX 23 27 24 28 25 29 26 30 27 31 28 32 89 33 29 34 88 35 30 36
REMARK SMILES IDX 31 37 32 38 82 39 33 40 87 41 81 42 83 43 34 44 86 45 80 46
REMARK SMILES IDX 79 47 35 49 67 50 47 51 66 52 48 53 51 54 65 55 84 56 49 57
REMARK SMILES IDX 50 58 64 60 85 61 52 62 36 63 37 64 45 65 38 66 40 67 46 68
REMARK SMILES IDX 39 69 41 70 42 71 43 72 44 73 68 74 69 75 77 76 70 77 72 78
REMARK SMILES IDX 78 79 71 80 73 81 74 82 75 83 76 84 53 85 54 86 62 87 55 88
REMARK SMILES IDX 57 89 63 90 56 91 58 92 59 93 60 94 61 95
REMARK H PARENT 7 11 12 21 12 22 83 48 51 59
REMARK Flexibility Score: inf
ROOT
ATOM      1  O   UNL     1      -7.978  -0.191  -1.972  1.00  0.00    -0.374 OA
ENDROOT
BRANCH   1   2
ATOM      2  C   UNL     1      -7.035  -0.553  -0.995  1.00  0.00     0.202 C 
BRANCH   2   3
ATOM      3  C   UNL     1      -5.752  -0.708  -1.710  1.00  0.00     0.261 C 
BRANCH   3   4
ATOM      4  O   UNL     1      -4.968   0.301  -1.151  1.00  0.00    -0.459 OA
BRANCH   4   5
ATOM      5  C   UNL     1      -4.334   1.207  -1.912  1.00  0.00     0.365 C 
ATOM      6  O   UNL     1      -4.608   1.546  -3.047  1.00  0.00    -0.245 OA
BRANCH   5   7
ATOM      7  C   UNL     1      -3.214   1.714  -1.001  1.00  0.00     0.303 C 
BRANCH   7   8
ATOM      8  C   UNL     1      -2.246   0.517  -0.623  1.00  0.00     0.177 C 
BRANCH   8   9
ATOM      9  C   UNL     1      -2.893  -0.870  -0.876  1.00  0.00     0.231 C 
ATOM     10  N   UNL     1      -3.443  -1.879  -0.013  1.00  0.00    -0.326 N 
ATOM     11  H   UNL     1      -4.212  -2.363  -0.393  1.00  0.00     0.169 HD
ATOM     12  O   UNL     1      -3.033  -1.088  -2.097  1.00  0.00    -0.274 OA
BRANCH  10  13
ATOM     13  C   UNL     1      -3.070  -2.308   1.310  1.00  0.00     0.041 A 
ATOM     14  C   UNL     1      -4.378  -4.303   5.070  1.00  0.00     0.044 C 
ATOM     15  C   UNL     1      -3.263  -3.470   4.403  1.00  0.00    -0.049 A 
ATOM     16  C   UNL     1      -3.043  -1.845   4.894  1.00  0.00     0.003 A 
ATOM     17  C   UNL     1      -3.222  -3.826   2.658  1.00  0.00     0.029 A 
ATOM     18  C   UNL     1      -2.812  -0.517   3.807  1.00  0.00     0.002 A 
ATOM     19  C   UNL     1      -2.823  -0.676   2.084  1.00  0.00     0.026 A 
ENDBRANCH  10  13
ENDBRANCH   8   9
ENDBRANCH   7   8
BRANCH   7  20
ATOM     20  N   UNL     1      -3.735   2.533   0.169  1.00  0.00    -0.332 N 
ATOM     21  H   UNL     1      -3.913   3.479  -0.170  1.00  0.00     0.347 HD
ATOM     22  H   UNL     1      -3.012   2.469   0.886  1.00  0.00     0.347 HD
BRANCH  20  23
ATOM     23  C   UNL     1      -4.977   2.046   0.820  1.00  0.00     0.176 C 
ATOM     24  C   UNL     1      -5.019   2.447   2.293  1.00  0.00     0.075 C 
ATOM     25  C   UNL     1      -6.253   2.591   0.144  1.00  0.00     0.075 C 
ENDBRANCH  20  23
ENDBRANCH   7  20
ENDBRANCH   5   7
ENDBRANCH   4   5
ENDBRANCH   3   4
ENDBRANCH   2   3
ENDBRANCH   1   2
BRANCH   1  26
ATOM     26  C   UNL     1      -9.201   0.227  -1.404  1.00  0.00     0.202 C 
BRANCH  26  27
ATOM     27  C   UNL     1      -9.729  -0.751  -0.340  1.00  0.00     0.261 C 
BRANCH  27  28
ATOM     28  O   UNL     1      -9.756  -2.084  -0.914  1.00  0.00    -0.460 OA
BRANCH  28  29
ATOM     29  C   UNL     1      -9.099  -3.065  -0.222  1.00  0.00     0.338 C 
ATOM     30  O   UNL     1      -9.065  -3.131   0.998  1.00  0.00    -0.246 OA
BRANCH  29  31
ATOM     31  C   UNL     1      -8.141  -3.795  -1.133  1.00  0.00     0.060 A 
ATOM     32  C   UNL     1      -7.364  -4.857  -0.691  1.00  0.00     0.016 A 
ATOM     33  C   UNL     1      -7.744  -3.193  -2.319  1.00  0.00     0.016 A 
ATOM     34  C   UNL     1      -6.110  -5.115  -1.298  1.00  0.00     0.010 A 
ATOM     35  C   UNL     1      -6.418  -3.334  -2.751  1.00  0.00     0.010 A 
ATOM     36  C   UNL     1      -5.505  -4.212  -2.149  1.00  0.00    -0.014 A 
BRANCH  36  37
ATOM     37  C   UNL     1      -4.163  -4.354  -2.805  1.00  0.00     0.031 A 
ATOM     38  C   UNL     1      -4.317  -5.028  -4.099  1.00  0.00     0.074 A 
ATOM     39  C   UNL     1      -2.904  -3.943  -2.419  1.00  0.00     0.049 A 
ATOM     40  N   UNL     1      -3.357  -5.606  -4.717  1.00  0.00    -0.248 NA
ATOM     41  C   UNL     1      -5.614  -5.253  -4.764  1.00  0.00     0.031 C 
ATOM     42  C   UNL     1      -1.776  -3.334  -3.153  1.00  0.00     0.029 A 
ATOM     43  N   UNL     1      -2.434  -3.701  -1.158  1.00  0.00    -0.354 N 
ATOM     44  C   UNL     1      -3.797  -5.663  -6.012  1.00  0.00     0.074 A 
ATOM     45  C   UNL     1      -5.219  -5.777  -5.920  1.00  0.00     0.031 C 
ATOM     46  C   UNL     1      -0.744  -2.967  -2.325  1.00  0.00     0.029 A 
ATOM     47  C   UNL     1      -1.097  -3.316  -0.946  1.00  0.00     0.049 A 
ATOM     48  H   UNL     1      -3.039  -3.798  -0.387  1.00  0.00     0.167 HD
ATOM     49  C   UNL     1      -2.940  -5.232  -6.972  1.00  0.00     0.034 A 
ATOM     50  C   UNL     1      -0.395  -3.700   0.185  1.00  0.00     0.034 A 
ATOM     51  C   UNL     1      -1.590  -4.962  -6.374  1.00  0.00     0.049 A 
ATOM     52  C   UNL     1       0.305  -4.939  -0.579  1.00  0.00     0.074 A 
ATOM     53  C   UNL     1      -0.770  -3.850  -6.268  1.00  0.00     0.029 A 
ATOM     54  N   UNL     1      -1.043  -5.897  -5.473  1.00  0.00    -0.354 N 
ATOM     55  N   UNL     1      -0.094  -5.314  -1.780  1.00  0.00    -0.248 NA
ATOM     56  C   UNL     1       1.546  -5.644  -0.244  1.00  0.00     0.031 C 
ATOM     57  C   UNL     1       0.243  -4.129  -5.279  1.00  0.00     0.029 A 
ATOM     58  C   UNL     1       0.014  -5.387  -4.726  1.00  0.00     0.049 A 
ATOM     59  H   UNL     1      -1.375  -6.819  -5.381  1.00  0.00     0.167 HD
ATOM     60  C   UNL     1       0.844  -6.011  -2.452  1.00  0.00     0.074 A 
ATOM     61  C   UNL     1       1.814  -6.304  -1.399  1.00  0.00     0.031 C 
ATOM     62  C   UNL     1       0.760  -6.270  -3.800  1.00  0.00     0.034 A 
BRANCH  49  63
ATOM     63  C   UNL     1      -3.368  -4.855  -8.391  1.00  0.00     0.023 A 
ATOM     64  C   UNL     1      -2.336  -4.423  -9.245  1.00  0.00     0.012 A 
ATOM     65  C   UNL     1      -4.668  -4.897  -8.982  1.00  0.00     0.148 A 
ATOM     66  C   UNL     1      -2.553  -4.098 -10.589  1.00  0.00     0.002 A 
ATOM     67  C   UNL     1      -4.879  -4.620 -10.338  1.00  0.00     0.091 A 
ATOM     68  F   UNL     1      -5.750  -5.162  -8.254  1.00  0.00    -0.205 F 
ATOM     69  C   UNL     1      -3.818  -4.218 -11.144  1.00  0.00     0.022 A 
BRANCH  67  70
ATOM     70  S   UNL     1      -6.493  -4.778 -11.144  1.00  0.00     0.127 S 
ATOM     71  O   UNL     1      -6.675  -3.452 -11.738  1.00  0.00    -0.237 OA
ATOM     72  O   UNL     1      -6.253  -5.846 -12.114  1.00  0.00    -0.237 OA
ATOM     73  O   UNL     1      -7.457  -5.106 -10.100  1.00  0.00    -0.744 OA
ENDBRANCH  67  70
ENDBRANCH  49  63
BRANCH  50  74
ATOM     74  C   UNL     1      -1.382  -3.797   1.594  1.00  0.00     0.023 A 
ATOM     75  C   UNL     1      -1.995  -2.494   2.804  1.00  0.00     0.012 A 
ATOM     76  C   UNL     1      -2.570  -4.861   0.883  1.00  0.00     0.148 A 
ATOM     77  C   UNL     1      -4.027  -2.206   2.884  1.00  0.00     0.002 A 
ATOM     78  C   UNL     1      -4.287  -4.639   0.964  1.00  0.00     0.091 A 
ATOM     79  F   UNL     1      -2.097  -6.049   0.453  1.00  0.00    -0.205 F 
ATOM     80  C   UNL     1      -5.058  -3.314   1.858  1.00  0.00     0.022 A 
BRANCH  78  81
ATOM     81  S   UNL     1      -4.968  -6.481   1.524  1.00  0.00     0.127 S 
ATOM     82  O   UNL     1      -4.067  -6.875   2.606  1.00  0.00    -0.237 OA
ATOM     83  O   UNL     1      -6.319  -6.144   1.958  1.00  0.00    -0.237 OA
ATOM     84  O   UNL     1      -4.853  -7.298   0.327  1.00  0.00    -0.744 OA
ENDBRANCH  78  81
ENDBRANCH  50  74
BRANCH  62  85
ATOM     85  C   UNL     1       1.392  -7.497  -4.399  1.00  0.00     0.023 A 
ATOM     86  C   UNL     1       1.698  -8.607  -3.593  1.00  0.00     0.012 A 
ATOM     87  C   UNL     1       1.458  -7.670  -5.804  1.00  0.00     0.148 A 
ATOM     88  C   UNL     1       2.160  -9.798  -4.145  1.00  0.00     0.002 A 
ATOM     89  C   UNL     1       1.751  -8.909  -6.345  1.00  0.00     0.091 A 
ATOM     90  F   UNL     1       1.239  -6.638  -6.631  1.00  0.00    -0.205 F 
ATOM     91  C   UNL     1       2.163  -9.957  -5.523  1.00  0.00     0.022 A 
BRANCH  89  92
ATOM     92  S   UNL     1       1.425  -9.260  -8.076  1.00  0.00     0.127 S 
ATOM     93  O   UNL     1       2.756  -9.124  -8.661  1.00  0.00    -0.237 OA
ATOM     94  O   UNL     1       0.919 -10.633  -8.019  1.00  0.00    -0.237 OA
ATOM     95  O   UNL     1       0.437  -8.277  -8.498  1.00  0.00    -0.744 OA
ENDBRANCH  89  92
ENDBRANCH  62  85
ENDBRANCH  36  37
ENDBRANCH  29  31
ENDBRANCH  28  29
ENDBRANCH  27  28
ENDBRANCH  26  27
ENDBRANCH   1  26
TORSDOF 22
