REMARK SMILES Cc1oc(CNC(=O)c2ccnn2C)cc1C(=O)OCCOCCOC(=O)c1ccc(-c2c3nc(c(-c4cccc(S(=O)(=O)[O-])c4F)c4ccc([nH]4)c(-c4cccc(S(=O)(=O)[O-])c4F)c4nc(c(-c5cccc(S(=O)(=O)[O-])c5F)c5ccc2[nH]5)C=C4)C=C3)cc1
REMARK SMILES IDX 22 1 21 2 20 3 19 4 17 5 18 6 16 7 1 8 2 9 3 10 4 11 15 12
REMARK SMILES IDX 5 13 6 14 7 15 8 17 9 18 10 19 13 20 11 21 12 22 14 23 23 24
REMARK SMILES IDX 24 25 25 26 26 27 27 28 28 29 29 30 90 31 30 32 89 33 31 34
REMARK SMILES IDX 32 35 33 36 83 37 34 38 88 39 82 40 84 41 35 42 87 43 81 44
REMARK SMILES IDX 80 45 36 47 68 48 48 49 67 50 49 51 52 52 66 53 85 54 50 55
REMARK SMILES IDX 51 56 65 58 86 59 53 60 37 61 38 62 46 63 39 64 41 65 47 66
REMARK SMILES IDX 40 67 42 68 43 69 44 70 45 71 69 72 70 73 78 74 71 75 73 76
REMARK SMILES IDX 79 77 72 78 74 79 75 80 76 81 77 82 54 83 55 84 63 85 56 86
REMARK SMILES IDX 58 87 64 88 57 89 59 90 60 91 61 92 62 93
REMARK H PARENT 6 16 84 46 52 57
REMARK Flexibility Score: inf
ROOT
ATOM      1  O   UNL     1      -0.145  -4.926   1.112  1.00  0.00    -0.374 OA
ENDROOT
BRANCH   1   2
ATOM      2  C   UNL     1       1.145  -5.128   0.526  1.00  0.00     0.202 C 
BRANCH   2   3
ATOM      3  C   UNL     1       1.305  -4.540  -0.878  1.00  0.00     0.261 C 
BRANCH   3   4
ATOM      4  O   UNL     1       1.252  -3.106  -0.813  1.00  0.00    -0.460 OA
BRANCH   4   5
ATOM      5  C   UNL     1       0.131  -2.550  -1.341  1.00  0.00     0.341 C 
ATOM      6  O   UNL     1      -0.667  -3.135  -2.065  1.00  0.00    -0.246 OA
BRANCH   5   7
ATOM      7  C   UNL     1      -0.146  -1.219  -0.835  1.00  0.00     0.101 A 
ATOM      8  C   UNL     1       2.163  -0.165  -0.070  1.00  0.00     0.088 C 
ATOM      9  C   UNL     1       0.703  -0.262  -0.299  1.00  0.00     0.115 A 
ATOM     10  O   UNL     1      -0.007   0.867   0.017  1.00  0.00    -0.464 OA
ATOM     11  C   UNL     1      -1.306   0.634  -0.311  1.00  0.00     0.124 A 
ATOM     12  C   UNL     1      -1.445  -0.642  -0.796  1.00  0.00     0.063 A 
BRANCH  11  13
ATOM     13  C   UNL     1      -2.267   1.752  -0.276  1.00  0.00     0.191 C 
BRANCH  13  14
ATOM     14  N   UNL     1      -2.142   2.583   0.893  1.00  0.00    -0.343 N 
ATOM     15  C   UNL     1      -2.120   3.952   0.949  1.00  0.00     0.269 C 
ATOM     16  H   UNL     1      -2.063   2.111   1.754  1.00  0.00     0.164 HD
ATOM     17  O   UNL     1      -2.023   4.493   2.048  1.00  0.00    -0.268 OA
BRANCH  15  18
ATOM     18  C   UNL     1      -2.153   4.697  -0.282  1.00  0.00     0.125 A 
ATOM     19  C   UNL     1      -1.211   5.608  -0.728  1.00  0.00     0.055 A 
ATOM     20  N   UNL     1      -3.127   4.700  -1.250  1.00  0.00    -0.263 N 
ATOM     21  C   UNL     1      -1.649   6.007  -1.999  1.00  0.00     0.136 A 
ATOM     22  N   UNL     1      -2.813   5.447  -2.329  1.00  0.00    -0.181 NA
ATOM     23  C   UNL     1      -4.390   3.999  -1.259  1.00  0.00     0.174 C 
ENDBRANCH  15  18
ENDBRANCH  13  14
ENDBRANCH  11  13
ENDBRANCH   5   7
ENDBRANCH   4   5
ENDBRANCH   3   4
ENDBRANCH   2   3
ENDBRANCH   1   2
BRANCH   1  24
ATOM     24  C   UNL     1      -0.331  -3.706   1.836  1.00  0.00     0.202 C 
BRANCH  24  25
ATOM     25  C   UNL     1       0.189  -3.708   3.277  1.00  0.00     0.261 C 
BRANCH  25  26
ATOM     26  O   UNL     1       1.627  -3.662   3.300  1.00  0.00    -0.460 OA
BRANCH  26  27
ATOM     27  C   UNL     1       2.230  -4.803   3.713  1.00  0.00     0.338 C 
ATOM     28  O   UNL     1       1.689  -5.795   4.171  1.00  0.00    -0.246 OA
BRANCH  27  29
ATOM     29  C   UNL     1       3.661  -4.769   3.345  1.00  0.00     0.060 A 
ATOM     30  C   UNL     1       4.193  -5.915   2.740  1.00  0.00     0.016 A 
ATOM     31  C   UNL     1       4.476  -3.665   3.610  1.00  0.00     0.016 A 
ATOM     32  C   UNL     1       5.553  -5.984   2.448  1.00  0.00     0.010 A 
ATOM     33  C   UNL     1       5.844  -3.740   3.324  1.00  0.00     0.010 A 
ATOM     34  C   UNL     1       6.393  -4.913   2.777  1.00  0.00    -0.014 A 
BRANCH  34  35
ATOM     35  C   UNL     1       7.862  -5.085   2.682  1.00  0.00     0.031 A 
ATOM     36  C   UNL     1       8.635  -5.439   3.922  1.00  0.00     0.074 A 
ATOM     37  C   UNL     1       8.497  -4.938   1.506  1.00  0.00     0.049 A 
ATOM     38  N   UNL     1       9.917  -5.647   4.065  1.00  0.00    -0.248 NA
ATOM     39  C   UNL     1       7.859  -5.578   5.166  1.00  0.00     0.031 C 
ATOM     40  C   UNL     1       7.858  -4.592   0.238  1.00  0.00     0.029 A 
ATOM     41  N   UNL     1       9.830  -5.043   1.195  1.00  0.00    -0.354 N 
ATOM     42  C   UNL     1      10.107  -5.921   5.414  1.00  0.00     0.074 A 
ATOM     43  C   UNL     1       8.811  -5.838   6.051  1.00  0.00     0.031 C 
ATOM     44  C   UNL     1       8.804  -4.484  -0.711  1.00  0.00     0.029 A 
ATOM     45  C   UNL     1      10.114  -4.742  -0.115  1.00  0.00     0.049 A 
ATOM     46  H   UNL     1      10.517  -5.308   1.849  1.00  0.00     0.167 HD
ATOM     47  C   UNL     1      11.254  -6.235   6.062  1.00  0.00     0.034 A 
ATOM     48  C   UNL     1      11.299  -4.670  -0.755  1.00  0.00     0.034 A 
ATOM     49  C   UNL     1      12.538  -6.340   5.426  1.00  0.00     0.049 A 
ATOM     50  C   UNL     1      12.563  -5.008  -0.008  1.00  0.00     0.074 A 
ATOM     51  C   UNL     1      13.750  -6.700   5.989  1.00  0.00     0.029 A 
ATOM     52  N   UNL     1      12.781  -6.074   4.088  1.00  0.00    -0.354 N 
ATOM     53  N   UNL     1      12.707  -5.399   1.235  1.00  0.00    -0.248 NA
ATOM     54  C   UNL     1      13.824  -4.929  -0.761  1.00  0.00     0.031 C 
ATOM     55  C   UNL     1      14.729  -6.638   4.992  1.00  0.00     0.029 A 
ATOM     56  C   UNL     1      14.124  -6.252   3.806  1.00  0.00     0.049 A 
ATOM     57  H   UNL     1      12.099  -5.798   3.434  1.00  0.00     0.167 HD
ATOM     58  C   UNL     1      14.066  -5.644   1.404  1.00  0.00     0.074 A 
ATOM     59  C   UNL     1      14.700  -5.376   0.130  1.00  0.00     0.031 C 
ATOM     60  C   UNL     1      14.732  -6.038   2.518  1.00  0.00     0.034 A 
BRANCH  47  61
ATOM     61  C   UNL     1      11.161  -6.532   7.534  1.00  0.00     0.023 A 
ATOM     62  C   UNL     1      10.626  -7.765   7.957  1.00  0.00     0.012 A 
ATOM     63  C   UNL     1      11.646  -5.621   8.492  1.00  0.00     0.148 A 
ATOM     64  C   UNL     1      10.551  -8.078   9.313  1.00  0.00     0.002 A 
ATOM     65  C   UNL     1      11.601  -5.955   9.840  1.00  0.00     0.091 A 
ATOM     66  F   UNL     1      12.124  -4.442   8.070  1.00  0.00    -0.205 F 
ATOM     67  C   UNL     1      11.048  -7.178  10.253  1.00  0.00     0.022 A 
BRANCH  65  68
ATOM     68  S   UNL     1      12.276  -4.889  11.119  1.00  0.00     0.127 S 
ATOM     69  O   UNL     1      11.061  -4.334  11.712  1.00  0.00    -0.237 OA
ATOM     70  O   UNL     1      12.991  -5.840  11.972  1.00  0.00    -0.237 OA
ATOM     71  O   UNL     1      13.133  -3.935  10.429  1.00  0.00    -0.744 OA
ENDBRANCH  65  68
ENDBRANCH  47  61
BRANCH  48  72
ATOM     72  C   UNL     1      11.339  -4.306  -2.200  1.00  0.00     0.023 A 
ATOM     73  C   UNL     1      11.683  -5.284  -3.152  1.00  0.00     0.012 A 
ATOM     74  C   UNL     1      11.015  -3.006  -2.635  1.00  0.00     0.148 A 
ATOM     75  C   UNL     1      11.727  -4.968  -4.511  1.00  0.00     0.002 A 
ATOM     76  C   UNL     1      11.009  -2.712  -3.993  1.00  0.00     0.091 A 
ATOM     77  F   UNL     1      10.714  -2.083  -1.711  1.00  0.00    -0.205 F 
ATOM     78  C   UNL     1      11.379  -3.687  -4.932  1.00  0.00     0.022 A 
BRANCH  76  79
ATOM     79  S   UNL     1      10.446  -1.127  -4.625  1.00  0.00     0.127 S 
ATOM     80  O   UNL     1      11.706  -0.487  -4.994  1.00  0.00    -0.237 OA
ATOM     81  O   UNL     1       9.605  -1.530  -5.753  1.00  0.00    -0.237 OA
ATOM     82  O   UNL     1       9.714  -0.510  -3.527  1.00  0.00    -0.744 OA
ENDBRANCH  76  79
ENDBRANCH  48  72
BRANCH  60  83
ATOM     83  C   UNL     1      16.222  -6.232   2.413  1.00  0.00     0.023 A 
ATOM     84  C   UNL     1      17.066  -5.106   2.354  1.00  0.00     0.012 A 
ATOM     85  C   UNL     1      16.788  -7.521   2.460  1.00  0.00     0.148 A 
ATOM     86  C   UNL     1      18.452  -5.261   2.318  1.00  0.00     0.002 A 
ATOM     87  C   UNL     1      18.171  -7.665   2.467  1.00  0.00     0.091 A 
ATOM     88  F   UNL     1      15.968  -8.581   2.495  1.00  0.00    -0.205 F 
ATOM     89  C   UNL     1      19.004  -6.538   2.387  1.00  0.00     0.022 A 
BRANCH  87  90
ATOM     90  S   UNL     1      18.965  -9.268   2.646  1.00  0.00     0.127 S 
ATOM     91  O   UNL     1      19.391  -9.545   1.276  1.00  0.00    -0.237 OA
ATOM     92  O   UNL     1      20.056  -8.976   3.577  1.00  0.00    -0.237 OA
ATOM     93  O   UNL     1      17.943 -10.159   3.180  1.00  0.00    -0.744 OA
ENDBRANCH  87  90
ENDBRANCH  60  83
ENDBRANCH  34  35
ENDBRANCH  27  29
ENDBRANCH  26  27
ENDBRANCH  25  26
ENDBRANCH  24  25
ENDBRANCH   1  24
TORSDOF 20
