REMARK SMILES COc1ccc(OCCNc2c(Cl)cccc2C(=O)OCCOCCOC(=O)c2ccc(-c3c4nc(c(-c5cccc(S(=O)(=O)[O-])c5F)c5ccc([nH]5)c(-c5cccc(S(=O)(=O)[O-])c5F)c5nc(c(-c6cccc(S(=O)(=O)[O-])c6F)c6ccc3[nH]6)C=C5)C=C4)cc2)cc1
REMARK SMILES IDX 21 1 20 2 18 3 19 4 17 5 11 6 12 7 13 8 14 9 16 10 15 11
REMARK SMILES IDX 10 12 9 14 8 15 7 16 6 17 3 18 4 19 93 20 5 21 92 22 2 23
REMARK SMILES IDX 1 24 22 25 23 26 24 27 25 28 26 29 27 30 28 31 29 32 30 33
REMARK SMILES IDX 91 34 31 35 90 36 32 37 33 38 34 39 84 40 35 41 89 42 83 43
REMARK SMILES IDX 85 44 36 45 88 46 82 47 81 48 37 50 69 51 49 52 68 53 50 54
REMARK SMILES IDX 53 55 67 56 86 57 51 58 52 59 66 61 87 62 54 63 38 64 39 65
REMARK SMILES IDX 47 66 40 67 42 68 48 69 41 70 43 71 44 72 45 73 46 74 70 75
REMARK SMILES IDX 71 76 79 77 72 78 74 79 80 80 73 81 75 82 76 83 77 84 78 85
REMARK SMILES IDX 55 86 56 87 64 88 57 89 59 90 65 91 58 92 60 93 61 94 62 95
REMARK SMILES IDX 63 96
REMARK H PARENT 10 13 85 49 53 60
REMARK Flexibility Score: inf
ROOT
ATOM      1  C   UNL     1       5.052   7.946   2.881  1.00  0.00     0.261 C 
ENDROOT
BRANCH   1   2
ATOM      2  O   UNL     1       5.019   6.686   2.195  1.00  0.00    -0.460 OA
BRANCH   2   3
ATOM      3  C   UNL     1       6.222   6.167   1.877  1.00  0.00     0.340 C 
ATOM      4  O   UNL     1       7.308   6.715   2.023  1.00  0.00    -0.246 OA
BRANCH   3   5
ATOM      5  C   UNL     1       6.125   4.731   1.544  1.00  0.00     0.084 A 
ATOM      6  C   UNL     1       5.292   4.145   0.579  1.00  0.00     0.068 A 
ATOM      7  C   UNL     1       5.605   2.785   0.275  1.00  0.00     0.065 A 
ATOM      8  Cl  UNL     1       4.960   1.991  -1.124  1.00  0.00    -0.082 Cl
ATOM      9  C   UNL     1       6.506   2.009   1.014  1.00  0.00     0.023 A 
ATOM     10  C   UNL     1       7.021   3.935   2.307  1.00  0.00     0.018 A 
ATOM     11  C   UNL     1       7.181   2.575   2.074  1.00  0.00     0.003 A 
BRANCH   6  12
ATOM     12  N   UNL     1       4.251   4.723  -0.122  1.00  0.00    -0.380 N 
ATOM     13  H   UNL     1       3.678   4.065  -0.578  1.00  0.00     0.160 HD
BRANCH  12  14
ATOM     14  C   UNL     1       3.818   6.103  -0.330  1.00  0.00     0.154 C 
BRANCH  14  15
ATOM     15  C   UNL     1       2.994   6.249  -1.640  1.00  0.00     0.250 C 
BRANCH  15  16
ATOM     16  O   UNL     1       1.606   5.904  -1.498  1.00  0.00    -0.492 OA
BRANCH  16  17
ATOM     17  C   UNL     1       1.203   4.605  -1.605  1.00  0.00     0.119 A 
ATOM     18  C   UNL     1       0.272   1.978  -1.297  1.00  0.00     0.119 A 
ATOM     19  C   UNL     1      -0.610   3.045  -1.167  1.00  0.00     0.050 A 
ATOM     20  C   UNL     1       1.565   2.215  -1.744  1.00  0.00     0.050 A 
ATOM     21  C   UNL     1      -0.138   4.357  -1.304  1.00  0.00     0.050 A 
ATOM     22  C   UNL     1       2.012   3.526  -1.938  1.00  0.00     0.050 A 
BRANCH  18  23
ATOM     23  O   UNL     1      -0.193   0.716  -1.043  1.00  0.00    -0.497 OA
ATOM     24  C   UNL     1       0.606   0.035  -0.073  1.00  0.00     0.278 C 
ENDBRANCH  18  23
ENDBRANCH  16  17
ENDBRANCH  15  16
ENDBRANCH  14  15
ENDBRANCH  12  14
ENDBRANCH   6  12
ENDBRANCH   3   5
ENDBRANCH   2   3
ENDBRANCH   1   2
BRANCH   1  25
ATOM     25  C   UNL     1       4.207   7.871   4.152  1.00  0.00     0.202 C 
BRANCH  25  26
ATOM     26  O   UNL     1       4.651   6.948   5.149  1.00  0.00    -0.374 OA
BRANCH  26  27
ATOM     27  C   UNL     1       4.417   5.560   4.908  1.00  0.00     0.202 C 
BRANCH  27  28
ATOM     28  C   UNL     1       2.990   5.037   5.119  1.00  0.00     0.261 C 
BRANCH  28  29
ATOM     29  O   UNL     1       2.026   5.624   4.230  1.00  0.00    -0.460 OA
BRANCH  29  30
ATOM     30  C   UNL     1       1.204   6.532   4.804  1.00  0.00     0.338 C 
ATOM     31  O   UNL     1       1.198   6.882   5.983  1.00  0.00    -0.246 OA
BRANCH  30  32
ATOM     32  C   UNL     1       0.389   7.204   3.782  1.00  0.00     0.060 A 
ATOM     33  C   UNL     1       0.476   8.600   3.686  1.00  0.00     0.016 A 
ATOM     34  C   UNL     1      -0.514   6.492   2.991  1.00  0.00     0.016 A 
ATOM     35  C   UNL     1      -0.371   9.293   2.824  1.00  0.00     0.010 A 
ATOM     36  C   UNL     1      -1.369   7.191   2.134  1.00  0.00     0.010 A 
ATOM     37  C   UNL     1      -1.323   8.595   2.069  1.00  0.00    -0.014 A 
BRANCH  37  38
ATOM     38  C   UNL     1      -2.335   9.342   1.283  1.00  0.00     0.031 A 
ATOM     39  C   UNL     1      -3.737   9.470   1.811  1.00  0.00     0.074 A 
ATOM     40  C   UNL     1      -2.004   9.888   0.100  1.00  0.00     0.049 A 
ATOM     41  N   UNL     1      -4.779  10.036   1.260  1.00  0.00    -0.248 NA
ATOM     42  C   UNL     1      -4.002   8.877   3.132  1.00  0.00     0.031 C 
ATOM     43  C   UNL     1      -0.679   9.829  -0.514  1.00  0.00     0.029 A 
ATOM     44  N   UNL     1      -2.768  10.574  -0.810  1.00  0.00    -0.354 N 
ATOM     45  C   UNL     1      -5.831   9.841   2.147  1.00  0.00     0.074 A 
ATOM     46  C   UNL     1      -5.302   9.098   3.272  1.00  0.00     0.031 C 
ATOM     47  C   UNL     1      -0.728  10.428  -1.715  1.00  0.00     0.029 A 
ATOM     48  C   UNL     1      -2.094  10.883  -1.968  1.00  0.00     0.049 A 
ATOM     49  H   UNL     1      -3.708  10.821  -0.650  1.00  0.00     0.167 HD
ATOM     50  C   UNL     1      -7.117  10.252   2.041  1.00  0.00     0.034 A 
ATOM     51  C   UNL     1      -2.536  11.441  -3.112  1.00  0.00     0.034 A 
ATOM     52  C   UNL     1      -7.634  11.005   0.929  1.00  0.00     0.049 A 
ATOM     53  C   UNL     1      -3.978  11.863  -3.217  1.00  0.00     0.074 A 
ATOM     54  C   UNL     1      -8.907  11.520   0.758  1.00  0.00     0.029 A 
ATOM     55  N   UNL     1      -6.914  11.334  -0.209  1.00  0.00    -0.354 N 
ATOM     56  N   UNL     1      -4.929  11.786  -2.318  1.00  0.00    -0.248 NA
ATOM     57  C   UNL     1      -4.402  12.474  -4.486  1.00  0.00     0.031 C 
ATOM     58  C   UNL     1      -8.966  12.129  -0.500  1.00  0.00     0.029 A 
ATOM     59  C   UNL     1      -7.720  12.025  -1.097  1.00  0.00     0.049 A 
ATOM     60  H   UNL     1      -5.968  11.109  -0.363  1.00  0.00     0.167 HD
ATOM     61  C   UNL     1      -6.053  12.365  -2.899  1.00  0.00     0.074 A 
ATOM     62  C   UNL     1      -5.657  12.809  -4.220  1.00  0.00     0.031 C 
ATOM     63  C   UNL     1      -7.303  12.503  -2.391  1.00  0.00     0.034 A 
BRANCH  50  64
ATOM     64  C   UNL     1      -8.058   9.912   3.167  1.00  0.00     0.023 A 
ATOM     65  C   UNL     1      -7.940  10.578   4.404  1.00  0.00     0.012 A 
ATOM     66  C   UNL     1      -9.097   8.978   2.983  1.00  0.00     0.148 A 
ATOM     67  C   UNL     1      -8.820  10.297   5.449  1.00  0.00     0.002 A 
ATOM     68  C   UNL     1      -9.996   8.736   4.014  1.00  0.00     0.091 A 
ATOM     69  F   UNL     1      -9.180   8.339   1.807  1.00  0.00    -0.205 F 
ATOM     70  C   UNL     1      -9.853   9.385   5.251  1.00  0.00     0.022 A 
BRANCH  68  71
ATOM     71  S   UNL     1     -11.406   7.637   3.832  1.00  0.00     0.127 S 
ATOM     72  O   UNL     1     -11.014   6.511   4.678  1.00  0.00    -0.237 OA
ATOM     73  O   UNL     1     -12.500   8.449   4.368  1.00  0.00    -0.237 OA
ATOM     74  O   UNL     1     -11.507   7.345   2.409  1.00  0.00    -0.744 OA
ENDBRANCH  68  71
ENDBRANCH  50  64
BRANCH  51  75
ATOM     75  C   UNL     1      -1.592  11.654  -4.246  1.00  0.00     0.023 A 
ATOM     76  C   UNL     1      -1.224  12.964  -4.607  1.00  0.00     0.012 A 
ATOM     77  C   UNL     1      -1.040  10.566  -4.950  1.00  0.00     0.148 A 
ATOM     78  C   UNL     1      -0.345  13.188  -5.667  1.00  0.00     0.002 A 
ATOM     79  C   UNL     1      -0.120  10.794  -5.965  1.00  0.00     0.091 A 
ATOM     80  F   UNL     1      -1.415   9.328  -4.599  1.00  0.00    -0.205 F 
ATOM     81  C   UNL     1       0.215  12.104  -6.338  1.00  0.00     0.022 A 
BRANCH  79  82
ATOM     82  S   UNL     1       0.754   9.462  -6.795  1.00  0.00     0.127 S 
ATOM     83  O   UNL     1       0.215   9.549  -8.150  1.00  0.00    -0.237 OA
ATOM     84  O   UNL     1       2.147   9.889  -6.657  1.00  0.00    -0.237 OA
ATOM     85  O   UNL     1       0.421   8.251  -6.059  1.00  0.00    -0.744 OA
ENDBRANCH  79  82
ENDBRANCH  51  75
BRANCH  63  86
ATOM     86  C   UNL     1      -8.337  13.189  -3.248  1.00  0.00     0.023 A 
ATOM     87  C   UNL     1      -8.867  12.526  -4.373  1.00  0.00     0.012 A 
ATOM     88  C   UNL     1      -8.840  14.457  -2.894  1.00  0.00     0.148 A 
ATOM     89  C   UNL     1      -9.857  13.128  -5.150  1.00  0.00     0.002 A 
ATOM     90  C   UNL     1      -9.861  15.028  -3.643  1.00  0.00     0.091 A 
ATOM     91  F   UNL     1      -8.312  15.078  -1.829  1.00  0.00    -0.205 F 
ATOM     92  C   UNL     1     -10.362  14.372  -4.779  1.00  0.00     0.022 A 
BRANCH  90  93
ATOM     93  S   UNL     1     -10.641  16.582  -3.188  1.00  0.00     0.127 S 
ATOM     94  O   UNL     1     -10.166  17.475  -4.244  1.00  0.00    -0.237 OA
ATOM     95  O   UNL     1     -12.064  16.248  -3.266  1.00  0.00    -0.237 OA
ATOM     96  O   UNL     1     -10.165  16.894  -1.847  1.00  0.00    -0.744 OA
ENDBRANCH  90  93
ENDBRANCH  63  86
ENDBRANCH  37  38
ENDBRANCH  30  32
ENDBRANCH  29  30
ENDBRANCH  28  29
ENDBRANCH  27  28
ENDBRANCH  26  27
ENDBRANCH  25  26
ENDBRANCH   1  25
TORSDOF 23
