REMARK SMILES COC(=O)c1ccc([C@H]([NH3+])CC(=O)OCCOCCOC(=O)c2ccc(-c3c4nc(c(-c5cccc(S(=O)(=O)[O-])c5F)c5ccc([nH]5)c(-c5cccc(S(=O)(=O)[O-])c5F)c5nc(c(-c6cccc(S(=O)(=O)[O-])c6F)c6ccc3[nH]6)C=C5)C=C4)cc2)cc1
REMARK SMILES IDX 16 1 15 2 14 3 12 4 13 5 11 6 9 7 8 8 5 9 6 10 87 11 7 12
REMARK SMILES IDX 86 13 3 14 4 15 2 16 1 17 10 18 17 22 18 23 19 24 20 25
REMARK SMILES IDX 21 26 22 27 23 28 24 29 85 30 25 31 84 32 26 33 27 34 28 35
REMARK SMILES IDX 78 36 29 37 83 38 77 39 79 40 30 41 82 42 76 43 75 44 31 46
REMARK SMILES IDX 63 47 43 48 62 49 44 50 47 51 61 52 80 53 45 54 46 55 60 57
REMARK SMILES IDX 81 58 48 59 32 60 33 61 41 62 34 63 36 64 42 65 35 66 37 67
REMARK SMILES IDX 38 68 39 69 40 70 64 71 65 72 73 73 66 74 68 75 74 76 67 77
REMARK SMILES IDX 69 78 70 79 71 80 72 81 49 82 50 83 58 84 51 85 53 86 59 87
REMARK SMILES IDX 52 88 54 89 55 90 56 91 57 92
REMARK H PARENT 10 19 10 20 10 21 79 45 47 56
REMARK Flexibility Score: inf
ROOT
ATOM      1  C   UNL     1      -0.951  -0.915   7.523  1.00  0.00     0.202 C 
ENDROOT
BRANCH   1   2
ATOM      2  C   UNL     1       0.365  -1.690   7.618  1.00  0.00     0.261 C 
BRANCH   2   3
ATOM      3  O   UNL     1       0.297  -2.940   6.910  1.00  0.00    -0.463 OA
BRANCH   3   4
ATOM      4  C   UNL     1       0.351  -4.064   7.672  1.00  0.00     0.312 C 
ATOM      5  O   UNL     1       0.438  -4.081   8.895  1.00  0.00    -0.252 OA
BRANCH   4   6
ATOM      6  C   UNL     1       0.352  -5.322   6.845  1.00  0.00     0.192 C 
BRANCH   6   7
ATOM      7  C   UNL     1      -0.677  -5.389   5.702  1.00  0.00     0.223 C 
BRANCH   7   8
ATOM      8  C   UNL     1      -0.817  -6.833   5.235  1.00  0.00     0.010 A 
ATOM      9  C   UNL     1      -1.001  -9.552   4.529  1.00  0.00     0.060 A 
ATOM     10  C   UNL     1      -2.144  -8.848   4.928  1.00  0.00     0.016 A 
ATOM     11  C   UNL     1       0.223  -8.883   4.433  1.00  0.00     0.016 A 
ATOM     12  C   UNL     1      -2.053  -7.497   5.283  1.00  0.00     0.011 A 
ATOM     13  C   UNL     1       0.308  -7.534   4.772  1.00  0.00     0.011 A 
BRANCH   9  14
ATOM     14  C   UNL     1      -1.115 -11.001   4.224  1.00  0.00     0.337 C 
ATOM     15  O   UNL     1      -2.173 -11.573   4.002  1.00  0.00    -0.246 OA
BRANCH  14  16
ATOM     16  O   UNL     1       0.109 -11.579   4.293  1.00  0.00    -0.465 OA
ATOM     17  C   UNL     1       0.136 -12.983   4.044  1.00  0.00     0.282 C 
ENDBRANCH  14  16
ENDBRANCH   9  14
ENDBRANCH   7   8
BRANCH   7  18
ATOM     18  N   UNL     1      -0.302  -4.552   4.565  1.00  0.00    -0.351 N 
ATOM     19  H   UNL     1       0.583  -4.881   4.178  1.00  0.00     0.345 HD
ATOM     20  H   UNL     1      -0.200  -3.585   4.873  1.00  0.00     0.345 HD
ATOM     21  H   UNL     1      -1.027  -4.606   3.849  1.00  0.00     0.345 HD
ENDBRANCH   7  18
ENDBRANCH   6   7
ENDBRANCH   4   6
ENDBRANCH   3   4
ENDBRANCH   2   3
ENDBRANCH   1   2
BRANCH   1  22
ATOM     22  O   UNL     1      -2.061  -1.473   8.226  1.00  0.00    -0.374 OA
BRANCH  22  23
ATOM     23  C   UNL     1      -2.732  -2.572   7.614  1.00  0.00     0.202 C 
BRANCH  23  24
ATOM     24  C   UNL     1      -3.699  -2.230   6.473  1.00  0.00     0.261 C 
BRANCH  24  25
ATOM     25  O   UNL     1      -3.011  -1.761   5.300  1.00  0.00    -0.460 OA
BRANCH  25  26
ATOM     26  C   UNL     1      -3.190  -0.446   5.023  1.00  0.00     0.338 C 
ATOM     27  O   UNL     1      -3.904   0.342   5.628  1.00  0.00    -0.246 OA
BRANCH  26  28
ATOM     28  C   UNL     1      -2.248  -0.016   3.973  1.00  0.00     0.060 A 
ATOM     29  C   UNL     1      -1.456   1.112   4.231  1.00  0.00     0.016 A 
ATOM     30  C   UNL     1      -2.189  -0.656   2.735  1.00  0.00     0.016 A 
ATOM     31  C   UNL     1      -0.635   1.634   3.233  1.00  0.00     0.010 A 
ATOM     32  C   UNL     1      -1.373  -0.125   1.732  1.00  0.00     0.010 A 
ATOM     33  C   UNL     1      -0.620   1.041   1.965  1.00  0.00    -0.014 A 
BRANCH  33  34
ATOM     34  C   UNL     1       0.057   1.716   0.832  1.00  0.00     0.031 A 
ATOM     35  C   UNL     1      -0.777   2.499  -0.145  1.00  0.00     0.074 A 
ATOM     36  C   UNL     1       1.385   1.606   0.655  1.00  0.00     0.049 A 
ATOM     37  N   UNL     1      -0.422   3.071  -1.265  1.00  0.00    -0.248 NA
ATOM     38  C   UNL     1      -2.205   2.651   0.182  1.00  0.00     0.031 C 
ATOM     39  C   UNL     1       2.299   0.892   1.544  1.00  0.00     0.029 A 
ATOM     40  N   UNL     1       2.190   2.067  -0.357  1.00  0.00    -0.354 N 
ATOM     41  C   UNL     1      -1.585   3.617  -1.796  1.00  0.00     0.074 A 
ATOM     42  C   UNL     1      -2.658   3.307  -0.876  1.00  0.00     0.031 C 
ATOM     43  C   UNL     1       3.535   0.927   1.017  1.00  0.00     0.029 A 
ATOM     44  C   UNL     1       3.492   1.637  -0.260  1.00  0.00     0.049 A 
ATOM     45  H   UNL     1       1.865   2.649  -1.082  1.00  0.00     0.167 HD
ATOM     46  C   UNL     1      -1.743   4.322  -2.940  1.00  0.00     0.034 A 
ATOM     47  C   UNL     1       4.521   1.772  -1.121  1.00  0.00     0.034 A 
ATOM     48  C   UNL     1      -0.670   4.649  -3.839  1.00  0.00     0.049 A 
ATOM     49  C   UNL     1       4.312   2.532  -2.406  1.00  0.00     0.074 A 
ATOM     50  C   UNL     1      -0.721   5.395  -5.003  1.00  0.00     0.029 A 
ATOM     51  N   UNL     1       0.645   4.242  -3.680  1.00  0.00    -0.354 N 
ATOM     52  N   UNL     1       3.232   3.133  -2.843  1.00  0.00    -0.248 NA
ATOM     53  C   UNL     1       5.470   2.656  -3.305  1.00  0.00     0.031 C 
ATOM     54  C   UNL     1       0.562   5.421  -5.559  1.00  0.00     0.029 A 
ATOM     55  C   UNL     1       1.415   4.712  -4.728  1.00  0.00     0.049 A 
ATOM     56  H   UNL     1       0.982   3.698  -2.931  1.00  0.00     0.167 HD
ATOM     57  C   UNL     1       3.589   3.739  -4.043  1.00  0.00     0.074 A 
ATOM     58  C   UNL     1       4.990   3.442  -4.260  1.00  0.00     0.031 C 
ATOM     59  C   UNL     1       2.825   4.466  -4.894  1.00  0.00     0.034 A 
BRANCH  46  60
ATOM     60  C   UNL     1      -3.125   4.811  -3.276  1.00  0.00     0.023 A 
ATOM     61  C   UNL     1      -3.675   5.893  -2.558  1.00  0.00     0.012 A 
ATOM     62  C   UNL     1      -3.856   4.242  -4.337  1.00  0.00     0.148 A 
ATOM     63  C   UNL     1      -4.942   6.382  -2.874  1.00  0.00     0.002 A 
ATOM     64  C   UNL     1      -5.100   4.762  -4.672  1.00  0.00     0.091 A 
ATOM     65  F   UNL     1      -3.326   3.198  -4.991  1.00  0.00    -0.205 F 
ATOM     66  C   UNL     1      -5.649   5.825  -3.936  1.00  0.00     0.022 A 
BRANCH  64  67
ATOM     67  S   UNL     1      -6.055   4.160  -6.070  1.00  0.00     0.127 S 
ATOM     68  O   UNL     1      -7.135   3.437  -5.399  1.00  0.00    -0.237 OA
ATOM     69  O   UNL     1      -6.467   5.403  -6.721  1.00  0.00    -0.237 OA
ATOM     70  O   UNL     1      -5.143   3.338  -6.853  1.00  0.00    -0.744 OA
ENDBRANCH  64  67
ENDBRANCH  46  60
BRANCH  47  71
ATOM     71  C   UNL     1       5.854   1.195  -0.785  1.00  0.00     0.023 A 
ATOM     72  C   UNL     1       6.929   2.057  -0.496  1.00  0.00     0.012 A 
ATOM     73  C   UNL     1       6.058  -0.198  -0.735  1.00  0.00     0.148 A 
ATOM     74  C   UNL     1       8.190   1.543  -0.190  1.00  0.00     0.002 A 
ATOM     75  C   UNL     1       7.302  -0.704  -0.376  1.00  0.00     0.091 A 
ATOM     76  F   UNL     1       5.028  -1.003  -1.033  1.00  0.00    -0.205 F 
ATOM     77  C   UNL     1       8.374   0.165  -0.119  1.00  0.00     0.022 A 
BRANCH  75  78
ATOM     78  S   UNL     1       7.596  -2.460  -0.137  1.00  0.00     0.127 S 
ATOM     79  O   UNL     1       8.424  -2.785  -1.295  1.00  0.00    -0.237 OA
ATOM     80  O   UNL     1       8.297  -2.477   1.147  1.00  0.00    -0.237 OA
ATOM     81  O   UNL     1       6.277  -3.077  -0.108  1.00  0.00    -0.744 OA
ENDBRANCH  75  78
ENDBRANCH  47  71
BRANCH  59  82
ATOM     82  C   UNL     1       3.482   5.046  -6.120  1.00  0.00     0.023 A 
ATOM     83  C   UNL     1       3.794   4.210  -7.209  1.00  0.00     0.012 A 
ATOM     84  C   UNL     1       3.682   6.436  -6.232  1.00  0.00     0.148 A 
ATOM     85  C   UNL     1       4.314   4.748  -8.386  1.00  0.00     0.002 A 
ATOM     86  C   UNL     1       4.156   6.970  -7.424  1.00  0.00     0.091 A 
ATOM     87  F   UNL     1       3.391   7.210  -5.176  1.00  0.00    -0.205 F 
ATOM     88  C   UNL     1       4.481   6.127  -8.498  1.00  0.00     0.022 A 
BRANCH  86  89
ATOM     89  S   UNL     1       4.311   8.739  -7.695  1.00  0.00     0.127 S 
ATOM     90  O   UNL     1       5.763   8.909  -7.729  1.00  0.00    -0.237 OA
ATOM     91  O   UNL     1       3.646   8.914  -8.987  1.00  0.00    -0.237 OA
ATOM     92  O   UNL     1       3.636   9.380  -6.575  1.00  0.00    -0.744 OA
ENDBRANCH  86  89
ENDBRANCH  59  82
ENDBRANCH  33  34
ENDBRANCH  26  28
ENDBRANCH  25  26
ENDBRANCH  24  25
ENDBRANCH  23  24
ENDBRANCH  22  23
ENDBRANCH   1  22
TORSDOF 22
