REMARK SMILES O=C(OCCOCCOC(=O)c1cccc(N2CCCCC2)n1)c1ccc(-c2c3nc(c(-c4cccc(S(=O)(=O)[O-])c4F)c4ccc([nH]4)c(-c4cccc(S(=O)(=O)[O-])c4F)c4nc(c(-c5cccc(S(=O)(=O)[O-])c5F)c5ccc2[nH]5)C=C4)C=C3)cc1
REMARK SMILES IDX 5 1 4 2 3 3 2 4 1 5 24 6 25 7 86 8 26 9 85 10 27 11 28 12
REMARK SMILES IDX 29 13 79 14 30 15 84 16 78 17 80 18 31 19 83 20 77 21 76 22
REMARK SMILES IDX 32 24 64 25 44 26 63 27 45 28 48 29 62 30 81 31 46 32 47 33
REMARK SMILES IDX 61 35 82 36 49 37 33 38 34 39 42 40 35 41 37 42 43 43 36 44
REMARK SMILES IDX 38 45 39 46 40 47 41 48 65 49 66 50 74 51 67 52 69 53 75 54
REMARK SMILES IDX 68 55 70 56 71 57 72 58 73 59 50 60 51 61 59 62 52 63 54 64
REMARK SMILES IDX 60 65 53 66 55 67 56 68 57 69 58 70 6 71 7 72 8 73 9 74
REMARK SMILES IDX 10 75 11 76 12 77 13 78 23 79 14 80 16 81 15 82 17 83 18 84
REMARK SMILES IDX 22 85 19 86 21 87 20 88
REMARK H PARENT 80 23 48 34
REMARK Flexibility Score: inf
ROOT
ATOM      1  C   UNL     1       4.406  -0.836  -1.559  1.00  0.00     0.202 C 
ENDROOT
BRANCH   1   2
ATOM      2  C   UNL     1       4.087  -1.382  -0.163  1.00  0.00     0.261 C 
BRANCH   2   3
ATOM      3  O   UNL     1       2.707  -1.148   0.166  1.00  0.00    -0.460 OA
BRANCH   3   4
ATOM      4  C   UNL     1       2.171  -0.134   0.887  1.00  0.00     0.338 C 
ATOM      5  O   UNL     1       0.947  -0.100   1.012  1.00  0.00    -0.246 OA
BRANCH   4   6
ATOM      6  C   UNL     1       2.977   0.921   1.579  1.00  0.00     0.060 A 
ATOM      7  C   UNL     1       4.246   1.353   1.190  1.00  0.00     0.016 A 
ATOM      8  C   UNL     1       2.375   1.567   2.674  1.00  0.00     0.016 A 
ATOM      9  C   UNL     1       4.937   2.319   1.905  1.00  0.00     0.010 A 
ATOM     10  C   UNL     1       3.046   2.574   3.377  1.00  0.00     0.010 A 
ATOM     11  C   UNL     1       4.349   2.924   3.010  1.00  0.00    -0.014 A 
BRANCH  11  12
ATOM     12  C   UNL     1       5.192   3.823   3.817  1.00  0.00     0.031 A 
ATOM     13  C   UNL     1       5.780   3.293   5.089  1.00  0.00     0.074 A 
ATOM     14  C   UNL     1       5.536   5.026   3.324  1.00  0.00     0.049 A 
ATOM     15  N   UNL     1       6.627   3.859   5.904  1.00  0.00    -0.248 NA
ATOM     16  C   UNL     1       5.377   1.932   5.488  1.00  0.00     0.031 C 
ATOM     17  C   UNL     1       5.067   5.578   2.050  1.00  0.00     0.029 A 
ATOM     18  N   UNL     1       6.382   5.985   3.813  1.00  0.00    -0.354 N 
ATOM     19  C   UNL     1       6.825   2.946   6.930  1.00  0.00     0.074 A 
ATOM     20  C   UNL     1       6.021   1.782   6.634  1.00  0.00     0.031 C 
ATOM     21  C   UNL     1       5.651   6.770   1.848  1.00  0.00     0.029 A 
ATOM     22  C   UNL     1       6.500   7.082   2.993  1.00  0.00     0.049 A 
ATOM     23  H   UNL     1       6.859   5.897   4.669  1.00  0.00     0.167 HD
ATOM     24  C   UNL     1       7.613   3.070   8.022  1.00  0.00     0.034 A 
ATOM     25  C   UNL     1       7.216   8.210   3.159  1.00  0.00     0.034 A 
ATOM     26  C   UNL     1       8.418   4.229   8.285  1.00  0.00     0.049 A 
ATOM     27  C   UNL     1       8.069   8.328   4.394  1.00  0.00     0.074 A 
ATOM     28  C   UNL     1       9.226   4.491   9.374  1.00  0.00     0.029 A 
ATOM     29  N   UNL     1       8.509   5.327   7.439  1.00  0.00    -0.354 N 
ATOM     30  N   UNL     1       8.276   7.443   5.341  1.00  0.00    -0.248 NA
ATOM     31  C   UNL     1       8.803   9.587   4.577  1.00  0.00     0.031 C 
ATOM     32  C   UNL     1       9.795   5.757   9.194  1.00  0.00     0.029 A 
ATOM     33  C   UNL     1       9.359   6.272   7.981  1.00  0.00     0.049 A 
ATOM     34  H   UNL     1       8.038   5.418   6.579  1.00  0.00     0.167 HD
ATOM     35  C   UNL     1       9.185   8.023   6.216  1.00  0.00     0.074 A 
ATOM     36  C   UNL     1       9.506   9.329   5.672  1.00  0.00     0.031 C 
ATOM     37  C   UNL     1       9.695   7.536   7.375  1.00  0.00     0.034 A 
BRANCH  24  38
ATOM     38  C   UNL     1       7.607   1.933   9.004  1.00  0.00     0.023 A 
ATOM     39  C   UNL     1       8.288   0.736   8.703  1.00  0.00     0.012 A 
ATOM     40  C   UNL     1       6.902   2.042  10.218  1.00  0.00     0.148 A 
ATOM     41  C   UNL     1       8.238  -0.347   9.581  1.00  0.00     0.002 A 
ATOM     42  C   UNL     1       6.886   0.971  11.103  1.00  0.00     0.091 A 
ATOM     43  F   UNL     1       6.232   3.176  10.469  1.00  0.00    -0.205 F 
ATOM     44  C   UNL     1       7.543  -0.228  10.782  1.00  0.00     0.022 A 
BRANCH  42  45
ATOM     45  S   UNL     1       6.057   1.048  12.695  1.00  0.00     0.127 S 
ATOM     46  O   UNL     1       4.895   0.191  12.465  1.00  0.00    -0.237 OA
ATOM     47  O   UNL     1       7.064   0.482  13.594  1.00  0.00    -0.237 OA
ATOM     48  O   UNL     1       5.763   2.455  12.926  1.00  0.00    -0.744 OA
ENDBRANCH  42  45
ENDBRANCH  24  38
BRANCH  25  49
ATOM     49  C   UNL     1       7.186   9.283   2.123  1.00  0.00     0.023 A 
ATOM     50  C   UNL     1       8.350   9.575   1.385  1.00  0.00     0.012 A 
ATOM     51  C   UNL     1       6.005  10.001   1.846  1.00  0.00     0.148 A 
ATOM     52  C   UNL     1       8.344  10.575   0.410  1.00  0.00     0.002 A 
ATOM     53  C   UNL     1       5.991  10.957   0.837  1.00  0.00     0.091 A 
ATOM     54  F   UNL     1       4.912   9.732   2.573  1.00  0.00    -0.205 F 
ATOM     55  C   UNL     1       7.164  11.258   0.128  1.00  0.00     0.022 A 
BRANCH  53  56
ATOM     56  S   UNL     1       4.481  11.788   0.329  1.00  0.00     0.127 S 
ATOM     57  O   UNL     1       4.646  13.107   0.933  1.00  0.00    -0.237 OA
ATOM     58  O   UNL     1       4.590  11.762  -1.131  1.00  0.00    -0.237 OA
ATOM     59  O   UNL     1       3.394  10.975   0.859  1.00  0.00    -0.744 OA
ENDBRANCH  53  56
ENDBRANCH  25  49
BRANCH  37  60
ATOM     60  C   UNL     1      10.675   8.404   8.114  1.00  0.00     0.023 A 
ATOM     61  C   UNL     1      10.213   9.525   8.829  1.00  0.00     0.012 A 
ATOM     62  C   UNL     1      12.037   8.054   8.171  1.00  0.00     0.148 A 
ATOM     63  C   UNL     1      11.100  10.302   9.572  1.00  0.00     0.002 A 
ATOM     64  C   UNL     1      12.906   8.804   8.952  1.00  0.00     0.091 A 
ATOM     65  F   UNL     1      12.459   6.996   7.462  1.00  0.00    -0.205 F 
ATOM     66  C   UNL     1      12.442   9.934   9.644  1.00  0.00     0.022 A 
BRANCH  64  67
ATOM     67  S   UNL     1      14.624   8.331   9.179  1.00  0.00     0.127 S 
ATOM     68  O   UNL     1      15.307   9.230   8.252  1.00  0.00    -0.237 OA
ATOM     69  O   UNL     1      14.848   8.628  10.594  1.00  0.00    -0.237 OA
ATOM     70  O   UNL     1      14.688   6.913   8.848  1.00  0.00    -0.744 OA
ENDBRANCH  64  67
ENDBRANCH  37  60
ENDBRANCH  11  12
ENDBRANCH   4   6
ENDBRANCH   3   4
ENDBRANCH   2   3
ENDBRANCH   1   2
BRANCH   1  71
ATOM     71  O   UNL     1       4.152   0.562  -1.702  1.00  0.00    -0.374 OA
BRANCH  71  72
ATOM     72  C   UNL     1       2.856   0.911  -2.193  1.00  0.00     0.202 C 
BRANCH  72  73
ATOM     73  C   UNL     1       2.973   1.509  -3.596  1.00  0.00     0.261 C 
BRANCH  73  74
ATOM     74  O   UNL     1       3.450   0.489  -4.491  1.00  0.00    -0.459 OA
BRANCH  74  75
ATOM     75  C   UNL     1       4.800   0.468  -4.666  1.00  0.00     0.357 C 
ATOM     76  O   UNL     1       5.583   1.383  -4.471  1.00  0.00    -0.244 OA
BRANCH  75  77
ATOM     77  C   UNL     1       5.176  -0.933  -4.987  1.00  0.00     0.150 A 
ATOM     78  C   UNL     1       4.504  -1.638  -5.973  1.00  0.00     0.036 A 
ATOM     79  N   UNL     1       6.124  -1.480  -4.185  1.00  0.00    -0.224 NA
ATOM     80  C   UNL     1       4.831  -2.976  -6.140  1.00  0.00     0.006 A 
ATOM     81  C   UNL     1       6.422  -2.779  -4.339  1.00  0.00     0.129 A 
ATOM     82  C   UNL     1       5.797  -3.552  -5.312  1.00  0.00     0.047 A 
BRANCH  81  83
ATOM     83  N   UNL     1       7.350  -3.304  -3.473  1.00  0.00    -0.357 N 
ATOM     84  C   UNL     1       6.872  -3.921  -2.246  1.00  0.00     0.118 C 
ATOM     85  C   UNL     1       8.632  -3.730  -4.003  1.00  0.00     0.118 C 
ATOM     86  C   UNL     1       7.926  -3.764  -1.150  1.00  0.00     0.022 C 
ATOM     87  C   UNL     1       9.701  -3.548  -2.926  1.00  0.00     0.022 C 
ATOM     88  C   UNL     1       9.303  -4.234  -1.619  1.00  0.00     0.004 C 
ENDBRANCH  81  83
ENDBRANCH  75  77
ENDBRANCH  74  75
ENDBRANCH  73  74
ENDBRANCH  72  73
ENDBRANCH  71  72
ENDBRANCH   1  71
TORSDOF 18
