REMARK SMILES C[C@@H](C(=O)OCCOCCOC(=O)c1ccc(-c2c3nc(c(-c4cccc(S(=O)(=O)[O-])c4F)c4ccc([nH]4)c(-c4cccc(S(=O)(=O)[O-])c4F)c4nc(c(-c5cccc(S(=O)(=O)[O-])c5F)c5ccc2[nH]5)C=C4)C=C3)cc1)c1ccc(-c2ccn(C(F)F)c(=O)c2)cc1
REMARK SMILES IDX 8 1 7 2 6 3 5 4 3 5 4 6 2 7 1 8 77 9 78 10 92 11 79 12 91 13
REMARK SMILES IDX 80 14 81 15 82 16 90 17 83 18 88 19 84 20 89 21 85 22 86 23
REMARK SMILES IDX 87 24 9 25 10 26 11 27 12 28 13 29 14 30 15 31 76 32 16 33
REMARK SMILES IDX 75 34 17 35 18 36 19 37 69 38 20 39 74 40 68 41 70 42 21 43
REMARK SMILES IDX 73 44 67 45 66 46 22 48 54 49 34 50 53 51 35 52 38 53 52 54
REMARK SMILES IDX 71 55 36 56 37 57 51 59 72 60 39 61 23 62 24 63 32 64 25 65
REMARK SMILES IDX 27 66 33 67 26 68 28 69 29 70 30 71 31 72 55 73 56 74 64 75
REMARK SMILES IDX 57 76 59 77 65 78 58 79 60 80 61 81 62 82 63 83 40 84 41 85
REMARK SMILES IDX 49 86 42 87 44 88 50 89 43 90 45 91 46 92 47 93 48 94
REMARK H PARENT 70 47 38 58
REMARK Flexibility Score: inf
ROOT
ATOM      1  O   UNL     1       0.913  -4.655  -0.505  1.00  0.00    -0.374 OA
ENDROOT
BRANCH   1   2
ATOM      2  C   UNL     1       2.179  -4.506  -1.157  1.00  0.00     0.202 C 
BRANCH   2   3
ATOM      3  C   UNL     1       2.204  -3.550  -2.353  1.00  0.00     0.261 C 
BRANCH   3   4
ATOM      4  O   UNL     1       1.906  -2.212  -1.922  1.00  0.00    -0.463 OA
BRANCH   4   5
ATOM      5  C   UNL     1       1.013  -1.524  -2.682  1.00  0.00     0.313 C 
ATOM      6  O   UNL     1       0.623  -1.887  -3.787  1.00  0.00    -0.252 OA
BRANCH   5   7
ATOM      7  C   UNL     1       0.450  -0.296  -1.957  1.00  0.00     0.126 C 
ATOM      8  C   UNL     1       1.206   0.100  -0.682  1.00  0.00     0.025 C 
BRANCH   7   9
ATOM      9  C   UNL     1      -1.054  -0.395  -1.688  1.00  0.00    -0.034 A 
ATOM     10  C   UNL     1      -1.796   0.777  -1.467  1.00  0.00     0.005 A 
ATOM     11  C   UNL     1      -1.738  -1.621  -1.667  1.00  0.00     0.005 A 
ATOM     12  C   UNL     1      -3.183   0.728  -1.283  1.00  0.00     0.009 A 
ATOM     13  C   UNL     1      -3.122  -1.672  -1.482  1.00  0.00     0.009 A 
ATOM     14  C   UNL     1      -3.859  -0.496  -1.313  1.00  0.00    -0.018 A 
BRANCH  14  15
ATOM     15  C   UNL     1      -5.330  -0.571  -1.255  1.00  0.00    -0.011 A 
ATOM     16  C   UNL     1      -6.055  -1.219  -0.179  1.00  0.00     0.027 A 
ATOM     17  C   UNL     1      -6.013  -0.094  -2.310  1.00  0.00     0.080 A 
ATOM     18  C   UNL     1      -7.382  -1.375  -0.255  1.00  0.00     0.095 A 
ATOM     19  C   UNL     1      -7.492  -0.238  -2.397  1.00  0.00     0.255 A 
ATOM     20  N   UNL     1      -8.095  -0.907  -1.344  1.00  0.00    -0.258 N 
ATOM     21  O   UNL     1      -8.071   0.217  -3.378  1.00  0.00    -0.269 OA
BRANCH  20  22
ATOM     22  C   UNL     1      -9.514  -1.124  -1.441  1.00  0.00     0.451 C 
ATOM     23  F   UNL     1     -10.189   0.047  -1.546  1.00  0.00    -0.185 F 
ATOM     24  F   UNL     1      -9.818  -1.881  -2.525  1.00  0.00    -0.185 F 
ENDBRANCH  20  22
ENDBRANCH  14  15
ENDBRANCH   7   9
ENDBRANCH   5   7
ENDBRANCH   4   5
ENDBRANCH   3   4
ENDBRANCH   2   3
ENDBRANCH   1   2
BRANCH   1  25
ATOM     25  C   UNL     1       0.499  -3.596   0.359  1.00  0.00     0.202 C 
BRANCH  25  26
ATOM     26  C   UNL     1       1.139  -3.539   1.750  1.00  0.00     0.261 C 
BRANCH  26  27
ATOM     27  O   UNL     1       2.549  -3.274   1.691  1.00  0.00    -0.460 OA
BRANCH  27  28
ATOM     28  C   UNL     1       3.334  -4.317   2.050  1.00  0.00     0.338 C 
ATOM     29  O   UNL     1       2.964  -5.398   2.492  1.00  0.00    -0.246 OA
BRANCH  28  30
ATOM     30  C   UNL     1       4.733  -4.060   1.665  1.00  0.00     0.060 A 
ATOM     31  C   UNL     1       5.385  -5.055   0.925  1.00  0.00     0.016 A 
ATOM     32  C   UNL     1       5.416  -2.912   2.069  1.00  0.00     0.016 A 
ATOM     33  C   UNL     1       6.742  -4.934   0.638  1.00  0.00     0.010 A 
ATOM     34  C   UNL     1       6.781  -2.795   1.786  1.00  0.00     0.010 A 
ATOM     35  C   UNL     1       7.457  -3.825   1.106  1.00  0.00    -0.014 A 
BRANCH  35  36
ATOM     36  C   UNL     1       8.937  -3.825   1.013  1.00  0.00     0.031 A 
ATOM     37  C   UNL     1       9.742  -4.203   2.226  1.00  0.00     0.074 A 
ATOM     38  C   UNL     1       9.553  -3.510  -0.140  1.00  0.00     0.049 A 
ATOM     39  N   UNL     1      11.039  -4.278   2.368  1.00  0.00    -0.248 NA
ATOM     40  C   UNL     1       8.984  -4.543   3.442  1.00  0.00     0.031 C 
ATOM     41  C   UNL     1       8.880  -3.133  -1.381  1.00  0.00     0.029 A 
ATOM     42  N   UNL     1      10.889  -3.442  -0.446  1.00  0.00    -0.354 N 
ATOM     43  C   UNL     1      11.255  -4.643   3.691  1.00  0.00     0.074 A 
ATOM     44  C   UNL     1       9.956  -4.764   4.315  1.00  0.00     0.031 C 
ATOM     45  C   UNL     1       9.808  -2.849  -2.311  1.00  0.00     0.029 A 
ATOM     46  C   UNL     1      11.138  -3.006  -1.725  1.00  0.00     0.049 A 
ATOM     47  H   UNL     1      11.601  -3.683   0.191  1.00  0.00     0.167 HD
ATOM     48  C   UNL     1      12.429  -4.872   4.326  1.00  0.00     0.034 A 
ATOM     49  C   UNL     1      12.307  -2.748  -2.345  1.00  0.00     0.034 A 
ATOM     50  C   UNL     1      13.717  -4.776   3.696  1.00  0.00     0.049 A 
ATOM     51  C   UNL     1      13.599  -2.995  -1.610  1.00  0.00     0.074 A 
ATOM     52  C   UNL     1      14.962  -5.046   4.238  1.00  0.00     0.029 A 
ATOM     53  N   UNL     1      13.930  -4.368   2.389  1.00  0.00    -0.354 N 
ATOM     54  N   UNL     1      13.785  -3.465  -0.400  1.00  0.00    -0.248 NA
ATOM     55  C   UNL     1      14.844  -2.707  -2.338  1.00  0.00     0.031 C 
ATOM     56  C   UNL     1      15.929  -4.775   3.265  1.00  0.00     0.029 A 
ATOM     57  C   UNL     1      15.286  -4.361   2.110  1.00  0.00     0.049 A 
ATOM     58  H   UNL     1      13.221  -4.119   1.753  1.00  0.00     0.167 HD
ATOM     59  C   UNL     1      15.162  -3.564  -0.234  1.00  0.00     0.074 A 
ATOM     60  C   UNL     1      15.764  -3.121  -1.476  1.00  0.00     0.031 C 
ATOM     61  C   UNL     1      15.867  -3.971   0.851  1.00  0.00     0.034 A 
BRANCH  48  62
ATOM     62  C   UNL     1      12.371  -5.277   5.774  1.00  0.00     0.023 A 
ATOM     63  C   UNL     1      11.947  -6.576   6.120  1.00  0.00     0.012 A 
ATOM     64  C   UNL     1      12.787  -4.392   6.788  1.00  0.00     0.148 A 
ATOM     65  C   UNL     1      11.909  -6.979   7.454  1.00  0.00     0.002 A 
ATOM     66  C   UNL     1      12.785  -4.815   8.113  1.00  0.00     0.091 A 
ATOM     67  F   UNL     1      13.162  -3.153   6.442  1.00  0.00    -0.205 F 
ATOM     68  C   UNL     1      12.337  -6.103   8.448  1.00  0.00     0.022 A 
BRANCH  66  69
ATOM     69  S   UNL     1      13.386  -3.784   9.456  1.00  0.00     0.127 S 
ATOM     70  O   UNL     1      12.139  -3.415  10.125  1.00  0.00    -0.237 OA
ATOM     71  O   UNL     1      14.228  -4.715  10.207  1.00  0.00    -0.237 OA
ATOM     72  O   UNL     1      14.107  -2.687   8.826  1.00  0.00    -0.744 OA
ENDBRANCH  66  69
ENDBRANCH  48  62
BRANCH  49  73
ATOM     73  C   UNL     1      12.310  -2.267  -3.755  1.00  0.00     0.023 A 
ATOM     74  C   UNL     1      12.781  -3.114  -4.777  1.00  0.00     0.012 A 
ATOM     75  C   UNL     1      11.830  -0.986  -4.091  1.00  0.00     0.148 A 
ATOM     76  C   UNL     1      12.799  -2.684  -6.105  1.00  0.00     0.002 A 
ATOM     77  C   UNL     1      11.800  -0.585  -5.421  1.00  0.00     0.091 A 
ATOM     78  F   UNL     1      11.405  -0.188  -3.101  1.00  0.00    -0.205 F 
ATOM     79  C   UNL     1      12.298  -1.425  -6.428  1.00  0.00     0.022 A 
BRANCH  77  80
ATOM     80  S   UNL     1      11.055   0.966  -5.940  1.00  0.00     0.127 S 
ATOM     81  O   UNL     1      12.228   1.750  -6.317  1.00  0.00    -0.237 OA
ATOM     82  O   UNL     1      10.213   0.537  -7.058  1.00  0.00    -0.237 OA
ATOM     83  O   UNL     1      10.313   1.450  -4.784  1.00  0.00    -0.744 OA
ENDBRANCH  77  80
ENDBRANCH  49  73
BRANCH  61  84
ATOM     84  C   UNL     1      17.370  -3.992   0.744  1.00  0.00     0.023 A 
ATOM     85  C   UNL     1      18.089  -2.781   0.752  1.00  0.00     0.012 A 
ATOM     86  C   UNL     1      18.072  -5.213   0.718  1.00  0.00     0.148 A 
ATOM     87  C   UNL     1      19.483  -2.784   0.707  1.00  0.00     0.002 A 
ATOM     88  C   UNL     1      19.462  -5.210   0.721  1.00  0.00     0.091 A 
ATOM     89  F   UNL     1      17.369  -6.355   0.692  1.00  0.00    -0.205 F 
ATOM     90  C   UNL     1      20.169  -3.997   0.704  1.00  0.00     0.022 A 
BRANCH  88  91
ATOM     91  S   UNL     1      20.426  -6.723   0.816  1.00  0.00     0.127 S 
ATOM     92  O   UNL     1      20.934  -6.839  -0.550  1.00  0.00    -0.237 OA
ATOM     93  O   UNL     1      21.440  -6.385   1.816  1.00  0.00    -0.237 OA
ATOM     94  O   UNL     1      19.496  -7.765   1.229  1.00  0.00    -0.744 OA
ENDBRANCH  88  91
ENDBRANCH  61  84
ENDBRANCH  35  36
ENDBRANCH  28  30
ENDBRANCH  27  28
ENDBRANCH  26  27
ENDBRANCH  25  26
ENDBRANCH   1  25
TORSDOF 20
