REMARK SMILES C[C@@H]1[C@H](C(=O)OCCOCCOC(=O)c2ccc(-c3c4nc(c(-c5cccc(S(=O)(=O)[O-])c5F)c5ccc([nH]5)c(-c5cccc(S(=O)(=O)[O-])c5F)c5nc(c(-c6cccc(S(=O)(=O)[O-])c6F)c6ccc3[nH]6)C=C5)C=C4)cc2)CCN1C(=O)N1CCc2ccccc21
REMARK SMILES IDX 10 1 9 2 8 3 7 4 6 5 4 6 5 7 3 8 1 9 2 10 80 11 78 12 79 13
REMARK SMILES IDX 81 14 82 15 83 16 84 17 91 18 85 19 86 20 90 21 87 22 89 23
REMARK SMILES IDX 88 24 11 25 12 26 13 27 14 28 15 29 16 30 77 31 17 32 76 33
REMARK SMILES IDX 18 34 19 35 20 36 70 37 21 38 75 39 69 40 71 41 22 42 74 43
REMARK SMILES IDX 68 44 67 45 23 47 55 48 35 49 54 50 36 51 39 52 53 53 72 54
REMARK SMILES IDX 37 55 38 56 52 58 73 59 40 60 24 61 25 62 33 63 26 64 28 65
REMARK SMILES IDX 34 66 27 67 29 68 30 69 31 70 32 71 56 72 57 73 65 74 58 75
REMARK SMILES IDX 60 76 66 77 59 78 61 79 62 80 63 81 64 82 41 83 42 84 50 85
REMARK SMILES IDX 43 86 45 87 51 88 44 89 46 90 47 91 48 92 49 93
REMARK H PARENT 71 46 39 57
REMARK Flexibility Score: inf
ROOT
ATOM      1  C   UNL     1       2.611   2.890  -1.802  1.00  0.00     0.202 C 
ENDROOT
BRANCH   1   2
ATOM      2  O   UNL     1       2.482   4.177  -1.206  1.00  0.00    -0.374 OA
BRANCH   2   3
ATOM      3  C   UNL     1       2.467   4.275   0.214  1.00  0.00     0.202 C 
BRANCH   3   4
ATOM      4  C   UNL     1       1.254   3.729   0.975  1.00  0.00     0.261 C 
BRANCH   4   5
ATOM      5  O   UNL     1       0.927   2.368   0.650  1.00  0.00    -0.463 OA
BRANCH   5   6
ATOM      6  C   UNL     1      -0.190   2.220  -0.100  1.00  0.00     0.311 C 
ATOM      7  O   UNL     1      -0.889   3.149  -0.496  1.00  0.00    -0.252 OA
BRANCH   6   8
ATOM      8  C   UNL     1      -0.575   0.797  -0.397  1.00  0.00     0.123 C 
ATOM      9  C   UNL     1       1.389  -0.501   0.725  1.00  0.00     0.032 C 
ATOM     10  C   UNL     1       0.390  -0.393  -0.430  1.00  0.00     0.098 C 
ATOM     11  N   UNL     1      -0.542  -1.538  -0.374  1.00  0.00    -0.321 N 
ATOM     12  C   UNL     1      -1.646   0.334   0.577  1.00  0.00     0.039 C 
ATOM     13  C   UNL     1      -1.831  -1.111   0.162  1.00  0.00     0.122 C 
BRANCH  11  14
ATOM     14  C   UNL     1      -0.547  -2.512  -1.385  1.00  0.00     0.324 C 
ATOM     15  O   UNL     1      -0.976  -2.302  -2.515  1.00  0.00    -0.248 OA
BRANCH  14  16
ATOM     16  N   UNL     1      -0.007  -3.735  -0.968  1.00  0.00    -0.294 N 
ATOM     17  C   UNL     1       1.459  -3.870  -0.922  1.00  0.00     0.132 C 
ATOM     18  C   UNL     1      -0.513  -4.274   0.232  1.00  0.00     0.049 A 
ATOM     19  C   UNL     1       1.836  -4.361   0.490  1.00  0.00     0.060 C 
ATOM     20  C   UNL     1       0.506  -4.397   1.165  1.00  0.00    -0.022 A 
ATOM     21  C   UNL     1      -1.854  -4.367   0.568  1.00  0.00     0.027 A 
ATOM     22  C   UNL     1       0.196  -4.394   2.512  1.00  0.00     0.006 A 
ATOM     23  C   UNL     1      -2.175  -4.418   1.921  1.00  0.00     0.002 A 
ATOM     24  C   UNL     1      -1.155  -4.368   2.885  1.00  0.00     0.000 A 
ENDBRANCH  14  16
ENDBRANCH  11  14
ENDBRANCH   6   8
ENDBRANCH   5   6
ENDBRANCH   4   5
ENDBRANCH   3   4
ENDBRANCH   2   3
ENDBRANCH   1   2
BRANCH   1  25
ATOM     25  C   UNL     1       3.931   2.125  -1.631  1.00  0.00     0.261 C 
BRANCH  25  26
ATOM     26  O   UNL     1       4.285   1.875  -0.260  1.00  0.00    -0.460 OA
BRANCH  26  27
ATOM     27  C   UNL     1       5.381   2.557   0.166  1.00  0.00     0.338 C 
ATOM     28  O   UNL     1       6.082   3.304  -0.494  1.00  0.00    -0.246 OA
BRANCH  27  29
ATOM     29  C   UNL     1       5.537   2.423   1.627  1.00  0.00     0.060 A 
ATOM     30  C   UNL     1       5.620   3.602   2.379  1.00  0.00     0.016 A 
ATOM     31  C   UNL     1       5.706   1.179   2.236  1.00  0.00     0.016 A 
ATOM     32  C   UNL     1       5.928   3.545   3.736  1.00  0.00     0.010 A 
ATOM     33  C   UNL     1       6.021   1.125   3.599  1.00  0.00     0.010 A 
ATOM     34  C   UNL     1       6.174   2.308   4.346  1.00  0.00    -0.014 A 
BRANCH  34  35
ATOM     35  C   UNL     1       6.723   2.269   5.725  1.00  0.00     0.031 A 
ATOM     36  C   UNL     1       8.187   1.985   5.927  1.00  0.00     0.074 A 
ATOM     37  C   UNL     1       5.930   2.500   6.787  1.00  0.00     0.049 A 
ATOM     38  N   UNL     1       8.866   1.891   7.041  1.00  0.00    -0.248 NA
ATOM     39  C   UNL     1       8.994   1.776   4.713  1.00  0.00     0.031 C 
ATOM     40  C   UNL     1       4.499   2.794   6.723  1.00  0.00     0.029 A 
ATOM     41  N   UNL     1       6.215   2.503   8.130  1.00  0.00    -0.354 N 
ATOM     42  C   UNL     1      10.169   1.584   6.668  1.00  0.00     0.074 A 
ATOM     43  C   UNL     1      10.184   1.493   5.224  1.00  0.00     0.031 C 
ATOM     44  C   UNL     1       4.025   2.924   7.974  1.00  0.00     0.029 A 
ATOM     45  C   UNL     1       5.111   2.696   8.925  1.00  0.00     0.049 A 
ATOM     46  H   UNL     1       7.124   2.378   8.488  1.00  0.00     0.167 HD
ATOM     47  C   UNL     1      11.259   1.409   7.453  1.00  0.00     0.034 A 
ATOM     48  C   UNL     1       4.987   2.670  10.268  1.00  0.00     0.034 A 
ATOM     49  C   UNL     1      11.249   1.521   8.887  1.00  0.00     0.049 A 
ATOM     50  C   UNL     1       6.210   2.446  11.119  1.00  0.00     0.074 A 
ATOM     51  C   UNL     1      12.313   1.410   9.765  1.00  0.00     0.029 A 
ATOM     52  N   UNL     1      10.120   1.752   9.656  1.00  0.00    -0.354 N 
ATOM     53  N   UNL     1       7.455   2.272  10.747  1.00  0.00    -0.248 NA
ATOM     54  C   UNL     1       6.015   2.448  12.577  1.00  0.00     0.031 C 
ATOM     55  C   UNL     1      11.820   1.540  11.068  1.00  0.00     0.029 A 
ATOM     56  C   UNL     1      10.456   1.771  10.999  1.00  0.00     0.049 A 
ATOM     57  H   UNL     1       9.211   1.883   9.300  1.00  0.00     0.167 HD
ATOM     58  C   UNL     1       8.196   2.185  11.922  1.00  0.00     0.074 A 
ATOM     59  C   UNL     1       7.262   2.344  13.017  1.00  0.00     0.031 C 
ATOM     60  C   UNL     1       9.527   1.981  12.080  1.00  0.00     0.034 A 
BRANCH  47  61
ATOM     61  C   UNL     1      12.568   1.095   6.776  1.00  0.00     0.023 A 
ATOM     62  C   UNL     1      13.241   2.098   6.048  1.00  0.00     0.012 A 
ATOM     63  C   UNL     1      13.161  -0.176   6.911  1.00  0.00     0.148 A 
ATOM     64  C   UNL     1      14.467   1.832   5.440  1.00  0.00     0.002 A 
ATOM     65  C   UNL     1      14.405  -0.419   6.341  1.00  0.00     0.091 A 
ATOM     66  F   UNL     1      12.496  -1.123   7.588  1.00  0.00    -0.205 F 
ATOM     67  C   UNL     1      15.053   0.579   5.595  1.00  0.00     0.022 A 
BRANCH  65  68
ATOM     68  S   UNL     1      15.279  -1.974   6.550  1.00  0.00     0.127 S 
ATOM     69  O   UNL     1      15.207  -2.537   5.202  1.00  0.00    -0.237 OA
ATOM     70  O   UNL     1      16.612  -1.526   6.953  1.00  0.00    -0.237 OA
ATOM     71  O   UNL     1      14.550  -2.711   7.573  1.00  0.00    -0.744 OA
ENDBRANCH  65  68
ENDBRANCH  47  61
BRANCH  48  72
ATOM     72  C   UNL     1       3.652   2.886  10.896  1.00  0.00     0.023 A 
ATOM     73  C   UNL     1       3.413   4.056  11.642  1.00  0.00     0.012 A 
ATOM     74  C   UNL     1       2.619   1.941  10.749  1.00  0.00     0.148 A 
ATOM     75  C   UNL     1       2.179   4.265  12.259  1.00  0.00     0.002 A 
ATOM     76  C   UNL     1       1.374   2.183  11.316  1.00  0.00     0.091 A 
ATOM     77  F   UNL     1       2.872   0.827  10.048  1.00  0.00    -0.205 F 
ATOM     78  C   UNL     1       1.157   3.334  12.088  1.00  0.00     0.022 A 
BRANCH  76  79
ATOM     79  S   UNL     1      -0.036   1.105  11.038  1.00  0.00     0.127 S 
ATOM     80  O   UNL     1      -0.227   0.514  12.359  1.00  0.00    -0.237 OA
ATOM     81  O   UNL     1      -1.068   2.061  10.633  1.00  0.00    -0.237 OA
ATOM     82  O   UNL     1       0.373   0.185   9.986  1.00  0.00    -0.744 OA
ENDBRANCH  76  79
ENDBRANCH  48  72
BRANCH  60  83
ATOM     83  C   UNL     1      10.074   1.962  13.485  1.00  0.00     0.023 A 
ATOM     84  C   UNL     1       9.799   0.873  14.335  1.00  0.00     0.012 A 
ATOM     85  C   UNL     1      10.924   2.992  13.937  1.00  0.00     0.148 A 
ATOM     86  C   UNL     1      10.329   0.827  15.624  1.00  0.00     0.002 A 
ATOM     87  C   UNL     1      11.491   2.915  15.203  1.00  0.00     0.091 A 
ATOM     88  F   UNL     1      11.162   4.029  13.120  1.00  0.00    -0.205 F 
ATOM     89  C   UNL     1      11.184   1.841  16.053  1.00  0.00     0.022 A 
BRANCH  87  90
ATOM     90  S   UNL     1      12.678   4.121  15.804  1.00  0.00     0.127 S 
ATOM     91  O   UNL     1      11.897   4.830  16.816  1.00  0.00    -0.237 OA
ATOM     92  O   UNL     1      13.742   3.270  16.338  1.00  0.00    -0.237 OA
ATOM     93  O   UNL     1      13.065   4.916  14.646  1.00  0.00    -0.744 OA
ENDBRANCH  87  90
ENDBRANCH  60  83
ENDBRANCH  34  35
ENDBRANCH  27  29
ENDBRANCH  26  27
ENDBRANCH  25  26
ENDBRANCH   1  25
TORSDOF 19
