REMARK SMILES COC(=O)C[C@H](NC(=O)N[C@@H]1CCCCC1(C)C)C(=O)OCCOCCOC(=O)c1ccc(-c2c3nc(c(-c4cccc(S(=O)(=O)[O-])c4F)c4ccc([nH]4)c(-c4cccc(S(=O)(=O)[O-])c4F)c4nc(c(-c5cccc(S(=O)(=O)[O-])c5F)c5ccc2[nH]5)C=C4)C=C3)cc1
REMARK SMILES IDX 24 1 23 2 22 3 21 4 19 5 20 6 6 7 5 8 3 9 4 10 2 11 1 12
REMARK SMILES IDX 7 13 8 14 9 16 10 17 11 19 12 20 16 21 13 22 15 23 17 24
REMARK SMILES IDX 18 25 14 26 25 27 26 28 27 29 28 30 29 31 30 32 31 33 92 34
REMARK SMILES IDX 32 35 91 36 33 37 34 38 35 39 85 40 36 41 90 42 84 43 86 44
REMARK SMILES IDX 37 45 89 46 83 47 82 48 38 50 70 51 50 52 69 53 51 54 54 55
REMARK SMILES IDX 68 56 87 57 52 58 53 59 67 61 88 62 55 63 39 64 40 65 48 66
REMARK SMILES IDX 41 67 43 68 49 69 42 70 44 71 45 72 46 73 47 74 71 75 72 76
REMARK SMILES IDX 80 77 73 78 75 79 81 80 74 81 76 82 77 83 78 84 79 85 56 86
REMARK SMILES IDX 57 87 65 88 58 89 60 90 66 91 59 92 61 93 62 94 63 95 64 96
REMARK H PARENT 7 15 10 18 86 49 54 60
REMARK Flexibility Score: inf
ROOT
ATOM      1  O   UNL     1       0.185   6.475   5.768  1.00  0.00    -0.374 OA
ENDROOT
BRANCH   1   2
ATOM      2  C   UNL     1      -1.106   6.675   5.204  1.00  0.00     0.202 C 
BRANCH   2   3
ATOM      3  C   UNL     1      -1.265   6.486   3.690  1.00  0.00     0.261 C 
BRANCH   3   4
ATOM      4  O   UNL     1      -0.938   5.152   3.223  1.00  0.00    -0.462 OA
BRANCH   4   5
ATOM      5  C   UNL     1      -0.264   5.111   2.037  1.00  0.00     0.329 C 
ATOM      6  O   UNL     1      -0.004   6.109   1.369  1.00  0.00    -0.250 OA
BRANCH   5   7
ATOM      7  C   UNL     1       0.113   3.686   1.541  1.00  0.00     0.204 C 
BRANCH   7   8
ATOM      8  C   UNL     1      -0.605   3.471   0.198  1.00  0.00     0.159 C 
BRANCH   8   9
ATOM      9  C   UNL     1       0.388   3.088  -0.880  1.00  0.00     0.308 C 
ATOM     10  O   UNL     1       0.374   2.018  -1.474  1.00  0.00    -0.252 OA
BRANCH   9  11
ATOM     11  O   UNL     1       1.302   4.080  -1.091  1.00  0.00    -0.469 OA
ATOM     12  C   UNL     1       2.338   3.803  -2.046  1.00  0.00     0.282 C 
ENDBRANCH   9  11
ENDBRANCH   8   9
ENDBRANCH   7   8
BRANCH   7  13
ATOM     13  N   UNL     1      -0.064   2.568   2.514  1.00  0.00    -0.324 N 
ATOM     14  C   UNL     1       0.575   1.713   3.306  1.00  0.00     0.315 C 
ATOM     15  H   UNL     1      -1.030   2.397   2.603  1.00  0.00     0.166 HD
ATOM     16  O   UNL     1      -0.185   1.008   3.992  1.00  0.00    -0.249 OA
ATOM     17  N   UNL     1       1.858   1.436   3.518  1.00  0.00    -0.335 N 
ATOM     18  H   UNL     1       1.857   0.772   4.245  1.00  0.00     0.165 HD
BRANCH  17  19
ATOM     19  C   UNL     1       3.320   1.645   3.187  1.00  0.00     0.089 C 
ATOM     20  C   UNL     1       4.113   2.123   4.420  1.00  0.00     0.025 C 
ATOM     21  C   UNL     1       3.622   2.521   1.973  1.00  0.00    -0.015 C 
ATOM     22  C   UNL     1       3.781   3.561   4.785  1.00  0.00     0.002 C 
ATOM     23  C   UNL     1       3.177   3.947   2.370  1.00  0.00     0.008 C 
ATOM     24  C   UNL     1       5.110   2.623   1.553  1.00  0.00     0.013 C 
ATOM     25  C   UNL     1       2.955   1.808   0.786  1.00  0.00     0.013 C 
ATOM     26  C   UNL     1       3.877   4.524   3.601  1.00  0.00     0.001 C 
ENDBRANCH  17  19
ENDBRANCH   7  13
ENDBRANCH   5   7
ENDBRANCH   4   5
ENDBRANCH   3   4
ENDBRANCH   2   3
ENDBRANCH   1   2
BRANCH   1  27
ATOM     27  C   UNL     1       0.769   5.188   5.616  1.00  0.00     0.202 C 
BRANCH  27  28
ATOM     28  C   UNL     1       0.177   4.007   6.401  1.00  0.00     0.261 C 
BRANCH  28  29
ATOM     29  O   UNL     1      -1.235   3.851   6.240  1.00  0.00    -0.460 OA
BRANCH  29  30
ATOM     30  C   UNL     1      -1.965   4.190   7.334  1.00  0.00     0.338 C 
ATOM     31  O   UNL     1      -1.556   4.558   8.417  1.00  0.00    -0.246 OA
BRANCH  30  32
ATOM     32  C   UNL     1      -3.381   4.260   6.940  1.00  0.00     0.060 A 
ATOM     33  C   UNL     1      -4.026   5.497   7.072  1.00  0.00     0.016 A 
ATOM     34  C   UNL     1      -4.062   3.136   6.471  1.00  0.00     0.016 A 
ATOM     35  C   UNL     1      -5.371   5.612   6.753  1.00  0.00     0.010 A 
ATOM     36  C   UNL     1      -5.420   3.247   6.175  1.00  0.00     0.010 A 
ATOM     37  C   UNL     1      -6.081   4.477   6.345  1.00  0.00    -0.014 A 
BRANCH  37  38
ATOM     38  C   UNL     1      -7.554   4.553   6.276  1.00  0.00     0.031 A 
ATOM     39  C   UNL     1      -8.346   4.057   7.450  1.00  0.00     0.074 A 
ATOM     40  C   UNL     1      -8.159   5.090   5.204  1.00  0.00     0.049 A 
ATOM     41  N   UNL     1      -9.640   4.020   7.617  1.00  0.00    -0.248 NA
ATOM     42  C   UNL     1      -7.574   3.533   8.590  1.00  0.00     0.031 C 
ATOM     43  C   UNL     1      -7.473   5.618   4.025  1.00  0.00     0.029 A 
ATOM     44  N   UNL     1      -9.489   5.261   4.928  1.00  0.00    -0.354 N 
ATOM     45  C   UNL     1      -9.840   3.445   8.866  1.00  0.00     0.074 A 
ATOM     46  C   UNL     1      -8.536   3.137   9.409  1.00  0.00     0.031 C 
ATOM     47  C   UNL     1      -8.392   6.027   3.135  1.00  0.00     0.029 A 
ATOM     48  C   UNL     1      -9.726   5.763   3.671  1.00  0.00     0.049 A 
ATOM     49  H   UNL     1     -10.206   5.045   5.567  1.00  0.00     0.167 HD
ATOM     50  C   UNL     1     -11.008   3.208   9.506  1.00  0.00     0.034 A 
ATOM     51  C   UNL     1     -10.890   5.957   3.022  1.00  0.00     0.034 A 
ATOM     52  C   UNL     1     -12.296   3.522   8.951  1.00  0.00     0.049 A 
ATOM     53  C   UNL     1     -12.177   5.649   3.740  1.00  0.00     0.074 A 
ATOM     54  C   UNL     1     -13.544   3.353   9.520  1.00  0.00     0.029 A 
ATOM     55  N   UNL     1     -12.499   4.055   7.686  1.00  0.00    -0.354 N 
ATOM     56  N   UNL     1     -12.355   5.198   4.959  1.00  0.00    -0.248 NA
ATOM     57  C   UNL     1     -13.425   5.909   3.009  1.00  0.00     0.031 C 
ATOM     58  C   UNL     1     -14.505   3.747   8.584  1.00  0.00     0.029 A 
ATOM     59  C   UNL     1     -13.854   4.207   7.449  1.00  0.00     0.049 A 
ATOM     60  H   UNL     1     -11.785   4.290   7.051  1.00  0.00     0.167 HD
ATOM     61  C   UNL     1     -13.730   5.153   5.154  1.00  0.00     0.074 A 
ATOM     62  C   UNL     1     -14.338   5.642   3.933  1.00  0.00     0.031 C 
ATOM     63  C   UNL     1     -14.431   4.737   6.239  1.00  0.00     0.034 A 
BRANCH  50  64
ATOM     64  C   UNL     1     -10.940   2.580  10.873  1.00  0.00     0.023 A 
ATOM     65  C   UNL     1     -10.449   3.324  11.966  1.00  0.00     0.012 A 
ATOM     66  C   UNL     1     -11.390   1.262  11.081  1.00  0.00     0.148 A 
ATOM     67  C   UNL     1     -10.375   2.754  13.237  1.00  0.00     0.002 A 
ATOM     68  C   UNL     1     -11.359   0.718  12.360  1.00  0.00     0.091 A 
ATOM     69  F   UNL     1     -11.828   0.562  10.025  1.00  0.00    -0.205 F 
ATOM     70  C   UNL     1     -10.839   1.457  13.435  1.00  0.00     0.022 A 
BRANCH  68  71
ATOM     71  S   UNL     1     -12.005  -0.915  12.733  1.00  0.00     0.127 S 
ATOM     72  O   UNL     1     -10.783  -1.649  13.058  1.00  0.00    -0.237 OA
ATOM     73  O   UNL     1     -12.876  -0.644  13.877  1.00  0.00    -0.237 OA
ATOM     74  O   UNL     1     -12.698  -1.359  11.532  1.00  0.00    -0.744 OA
ENDBRANCH  68  71
ENDBRANCH  50  64
BRANCH  51  75
ATOM     75  C   UNL     1     -10.886   6.479   1.627  1.00  0.00     0.023 A 
ATOM     76  C   UNL     1     -11.382   7.768   1.357  1.00  0.00     0.012 A 
ATOM     77  C   UNL     1     -10.367   5.707   0.568  1.00  0.00     0.148 A 
ATOM     78  C   UNL     1     -11.389   8.268   0.054  1.00  0.00     0.002 A 
ATOM     79  C   UNL     1     -10.324   6.233  -0.717  1.00  0.00     0.091 A 
ATOM     80  F   UNL     1      -9.912   4.476   0.844  1.00  0.00    -0.205 F 
ATOM     81  C   UNL     1     -10.851   7.506  -0.980  1.00  0.00     0.022 A 
BRANCH  79  82
ATOM     82  S   UNL     1      -9.529   5.377  -2.081  1.00  0.00     0.127 S 
ATOM     83  O   UNL     1     -10.669   5.050  -2.934  1.00  0.00    -0.237 OA
ATOM     84  O   UNL     1      -8.641   6.414  -2.608  1.00  0.00    -0.237 OA
ATOM     85  O   UNL     1      -8.839   4.240  -1.487  1.00  0.00    -0.744 OA
ENDBRANCH  79  82
ENDBRANCH  51  75
BRANCH  63  86
ATOM     86  C   UNL     1     -15.933   4.835   6.177  1.00  0.00     0.023 A 
ATOM     87  C   UNL     1     -16.665   3.955   5.356  1.00  0.00     0.012 A 
ATOM     88  C   UNL     1     -16.620   5.753   6.995  1.00  0.00     0.148 A 
ATOM     89  C   UNL     1     -18.058   4.014   5.322  1.00  0.00     0.002 A 
ATOM     90  C   UNL     1     -18.009   5.768   6.997  1.00  0.00     0.091 A 
ATOM     91  F   UNL     1     -15.904   6.592   7.757  1.00  0.00    -0.205 F 
ATOM     92  C   UNL     1     -18.729   4.910   6.151  1.00  0.00     0.022 A 
BRANCH  90  93
ATOM     93  S   UNL     1     -18.959   6.816   8.104  1.00  0.00     0.127 S 
ATOM     94  O   UNL     1     -19.535   7.786   7.175  1.00  0.00    -0.237 OA
ATOM     95  O   UNL     1     -19.920   5.871   8.673  1.00  0.00    -0.237 OA
ATOM     96  O   UNL     1     -18.006   7.360   9.062  1.00  0.00    -0.744 OA
ENDBRANCH  90  93
ENDBRANCH  63  86
ENDBRANCH  37  38
ENDBRANCH  30  32
ENDBRANCH  29  30
ENDBRANCH  28  29
ENDBRANCH  27  28
ENDBRANCH   1  27
TORSDOF 22
