REMARK SMILES Cc1ccc(Nc2c(C)cccc2Cl)c(CC(=O)OCCOCCOC(=O)c2ccc(-c3c4nc(c(-c5cccc(S(=O)(=O)[O-])c5F)c5ccc([nH]5)c(-c5cccc(S(=O)(=O)[O-])c5F)c5nc(c(-c6cccc(S(=O)(=O)[O-])c6F)c6ccc3[nH]6)C=C5)C=C4)cc2)c1
REMARK SMILES IDX 22 1 21 2 20 3 19 4 17 5 18 6 16 7 15 8 1 9 2 10 3 11 91 12
REMARK SMILES IDX 4 13 5 14 6 15 7 17 8 18 13 19 9 20 10 21 12 22 14 23 11 24
REMARK SMILES IDX 23 25 24 26 25 27 26 28 27 29 28 30 29 31 90 32 30 33 89 34
REMARK SMILES IDX 31 35 32 36 33 37 83 38 34 39 88 40 82 41 84 42 35 43 87 44
REMARK SMILES IDX 81 45 80 46 36 48 68 49 48 50 67 51 49 52 52 53 66 54 85 55
REMARK SMILES IDX 50 56 51 57 65 59 86 60 53 61 37 62 38 63 46 64 39 65 41 66
REMARK SMILES IDX 47 67 40 68 42 69 43 70 44 71 45 72 69 73 70 74 78 75 71 76
REMARK SMILES IDX 73 77 79 78 72 79 74 80 75 81 76 82 77 83 54 84 55 85 63 86
REMARK SMILES IDX 56 87 58 88 64 89 57 90 59 91 60 92 61 93 62 94
REMARK H PARENT 6 16 84 47 52 58
REMARK Flexibility Score: inf
ROOT
ATOM      1  O   UNL     1      -2.996   0.827  -3.165  1.00  0.00    -0.374 OA
ENDROOT
BRANCH   1   2
ATOM      2  C   UNL     1      -1.642   1.139  -3.402  1.00  0.00     0.202 C 
BRANCH   2   3
ATOM      3  C   UNL     1      -1.214   2.280  -2.499  1.00  0.00     0.261 C 
BRANCH   3   4
ATOM      4  O   UNL     1      -1.149   1.941  -1.119  1.00  0.00    -0.463 OA
BRANCH   4   5
ATOM      5  C   UNL     1      -2.036   2.552  -0.269  1.00  0.00     0.310 C 
ATOM      6  O   UNL     1      -2.906   3.356  -0.563  1.00  0.00    -0.252 OA
BRANCH   5   7
ATOM      7  C   UNL     1      -1.792   2.120   1.164  1.00  0.00     0.160 C 
BRANCH   7   8
ATOM      8  C   UNL     1      -1.107   0.769   1.181  1.00  0.00    -0.013 A 
ATOM      9  C   UNL     1       2.427  -0.197   0.101  1.00  0.00     0.044 C 
ATOM     10  C   UNL     1       0.989  -0.309   0.509  1.00  0.00    -0.051 A 
ATOM     11  C   UNL     1       0.288  -1.500   0.356  1.00  0.00     0.005 A 
ATOM     12  C   UNL     1       0.298   0.804   0.981  1.00  0.00     0.009 A 
ATOM     13  C   UNL     1      -1.088  -1.558   0.625  1.00  0.00     0.026 A 
ATOM     14  C   UNL     1      -1.830  -0.428   1.018  1.00  0.00     0.042 A 
BRANCH  14  15
ATOM     15  N   UNL     1      -3.240  -0.492   1.216  1.00  0.00    -0.354 N 
ATOM     16  H   UNL     1      -3.696   0.372   1.337  1.00  0.00     0.167 HD
BRANCH  15  17
ATOM     17  C   UNL     1      -4.074  -1.645   1.263  1.00  0.00     0.060 A 
ATOM     18  C   UNL     1      -3.691  -2.793   1.975  1.00  0.00    -0.026 A 
ATOM     19  C   UNL     1      -5.222  -1.746   0.454  1.00  0.00     0.064 A 
ATOM     20  C   UNL     1      -2.778  -2.696   3.167  1.00  0.00     0.046 C 
ATOM     21  C   UNL     1      -4.244  -4.041   1.644  1.00  0.00     0.005 A 
ATOM     22  C   UNL     1      -5.753  -2.990   0.101  1.00  0.00     0.023 A 
ATOM     23  Cl  UNL     1      -6.091  -0.336  -0.026  1.00  0.00    -0.082 Cl
ATOM     24  C   UNL     1      -5.222  -4.147   0.658  1.00  0.00     0.002 A 
ENDBRANCH  15  17
ENDBRANCH  14  15
ENDBRANCH   7   8
ENDBRANCH   5   7
ENDBRANCH   4   5
ENDBRANCH   3   4
ENDBRANCH   2   3
ENDBRANCH   1   2
BRANCH   1  25
ATOM     25  C   UNL     1      -3.232  -0.132  -2.157  1.00  0.00     0.202 C 
BRANCH  25  26
ATOM     26  C   UNL     1      -3.808  -1.374  -2.829  1.00  0.00     0.261 C 
BRANCH  26  27
ATOM     27  O   UNL     1      -5.158  -1.141  -3.286  1.00  0.00    -0.460 OA
BRANCH  27  28
ATOM     28  C   UNL     1      -5.236  -0.653  -4.558  1.00  0.00     0.338 C 
ATOM     29  O   UNL     1      -5.007  -1.333  -5.553  1.00  0.00    -0.246 OA
BRANCH  28  30
ATOM     30  C   UNL     1      -5.484   0.816  -4.548  1.00  0.00     0.060 A 
ATOM     31  C   UNL     1      -5.045   1.588  -5.633  1.00  0.00     0.016 A 
ATOM     32  C   UNL     1      -5.821   1.435  -3.344  1.00  0.00     0.016 A 
ATOM     33  C   UNL     1      -4.736   2.939  -5.448  1.00  0.00     0.010 A 
ATOM     34  C   UNL     1      -5.404   2.734  -3.133  1.00  0.00     0.010 A 
ATOM     35  C   UNL     1      -4.821   3.479  -4.174  1.00  0.00    -0.014 A 
BRANCH  35  36
ATOM     36  C   UNL     1      -4.357   4.808  -3.789  1.00  0.00     0.031 A 
ATOM     37  C   UNL     1      -5.356   5.771  -3.303  1.00  0.00     0.074 A 
ATOM     38  C   UNL     1      -3.055   5.021  -3.499  1.00  0.00     0.049 A 
ATOM     39  N   UNL     1      -5.048   6.934  -2.857  1.00  0.00    -0.248 NA
ATOM     40  C   UNL     1      -6.796   5.525  -3.322  1.00  0.00     0.031 C 
ATOM     41  C   UNL     1      -2.511   5.842  -2.416  1.00  0.00     0.029 A 
ATOM     42  N   UNL     1      -1.925   4.549  -4.149  1.00  0.00    -0.354 N 
ATOM     43  C   UNL     1      -6.144   7.399  -2.183  1.00  0.00     0.074 A 
ATOM     44  C   UNL     1      -7.241   6.588  -2.643  1.00  0.00     0.031 C 
ATOM     45  C   UNL     1      -1.182   5.945  -2.554  1.00  0.00     0.029 A 
ATOM     46  C   UNL     1      -0.833   5.363  -3.834  1.00  0.00     0.049 A 
ATOM     47  H   UNL     1      -1.895   3.762  -4.740  1.00  0.00     0.167 HD
ATOM     48  C   UNL     1      -5.939   8.318  -1.204  1.00  0.00     0.034 A 
ATOM     49  C   UNL     1      -0.001   5.903  -4.764  1.00  0.00     0.034 A 
ATOM     50  C   UNL     1      -4.551   8.841  -1.240  1.00  0.00     0.049 A 
ATOM     51  C   UNL     1      -0.238   7.404  -4.812  1.00  0.00     0.074 A 
ATOM     52  C   UNL     1      -3.440   8.778  -0.418  1.00  0.00     0.029 A 
ATOM     53  N   UNL     1      -4.077   9.347  -2.447  1.00  0.00    -0.354 N 
ATOM     54  N   UNL     1      -0.819   8.088  -3.859  1.00  0.00    -0.248 NA
ATOM     55  C   UNL     1       0.073   8.242  -5.964  1.00  0.00     0.031 C 
ATOM     56  C   UNL     1      -2.297   9.215  -1.175  1.00  0.00     0.029 A 
ATOM     57  C   UNL     1      -2.715   9.600  -2.439  1.00  0.00     0.049 A 
ATOM     58  H   UNL     1      -4.653   9.510  -3.229  1.00  0.00     0.167 HD
ATOM     59  C   UNL     1      -1.210   9.310  -4.333  1.00  0.00     0.074 A 
ATOM     60  C   UNL     1      -0.556   9.385  -5.637  1.00  0.00     0.031 C 
ATOM     61  C   UNL     1      -2.091  10.128  -3.663  1.00  0.00     0.034 A 
BRANCH  48  62
ATOM     62  C   UNL     1      -6.960   8.680  -0.144  1.00  0.00     0.023 A 
ATOM     63  C   UNL     1      -6.681   9.817   0.642  1.00  0.00     0.012 A 
ATOM     64  C   UNL     1      -8.139   7.958   0.195  1.00  0.00     0.148 A 
ATOM     65  C   UNL     1      -7.512  10.222   1.693  1.00  0.00     0.002 A 
ATOM     66  C   UNL     1      -9.006   8.404   1.199  1.00  0.00     0.091 A 
ATOM     67  F   UNL     1      -8.394   6.779  -0.379  1.00  0.00    -0.205 F 
ATOM     68  C   UNL     1      -8.685   9.529   1.960  1.00  0.00     0.022 A 
BRANCH  66  69
ATOM     69  S   UNL     1     -10.575   7.594   1.575  1.00  0.00     0.127 S 
ATOM     70  O   UNL     1     -10.329   7.049   2.909  1.00  0.00    -0.237 OA
ATOM     71  O   UNL     1     -11.521   8.711   1.543  1.00  0.00    -0.237 OA
ATOM     72  O   UNL     1     -10.786   6.601   0.528  1.00  0.00    -0.744 OA
ENDBRANCH  66  69
ENDBRANCH  48  62
BRANCH  49  73
ATOM     73  C   UNL     1       0.251   4.928  -5.874  1.00  0.00     0.023 A 
ATOM     74  C   UNL     1       1.037   3.804  -5.500  1.00  0.00     0.012 A 
ATOM     75  C   UNL     1      -0.660   4.786  -6.935  1.00  0.00     0.148 A 
ATOM     76  C   UNL     1       0.770   2.535  -6.017  1.00  0.00     0.002 A 
ATOM     77  C   UNL     1      -0.933   3.509  -7.435  1.00  0.00     0.091 A 
ATOM     78  F   UNL     1      -1.369   5.858  -7.312  1.00  0.00    -0.205 F 
ATOM     79  C   UNL     1      -0.253   2.381  -6.945  1.00  0.00     0.022 A 
BRANCH  77  80
ATOM     80  S   UNL     1      -2.314   3.214  -8.552  1.00  0.00     0.127 S 
ATOM     81  O   UNL     1      -1.643   3.191  -9.847  1.00  0.00    -0.237 OA
ATOM     82  O   UNL     1      -2.817   1.920  -8.094  1.00  0.00    -0.237 OA
ATOM     83  O   UNL     1      -3.223   4.325  -8.313  1.00  0.00    -0.744 OA
ENDBRANCH  77  80
ENDBRANCH  49  73
BRANCH  61  84
ATOM     84  C   UNL     1      -2.473  11.515  -4.170  1.00  0.00     0.023 A 
ATOM     85  C   UNL     1      -1.547  12.286  -4.901  1.00  0.00     0.012 A 
ATOM     86  C   UNL     1      -3.703  12.151  -3.856  1.00  0.00     0.148 A 
ATOM     87  C   UNL     1      -1.873  13.541  -5.425  1.00  0.00     0.002 A 
ATOM     88  C   UNL     1      -3.994  13.435  -4.304  1.00  0.00     0.091 A 
ATOM     89  F   UNL     1      -4.621  11.523  -3.119  1.00  0.00    -0.205 F 
ATOM     90  C   UNL     1      -3.101  14.115  -5.131  1.00  0.00     0.022 A 
BRANCH  88  91
ATOM     91  S   UNL     1      -5.470  14.327  -3.787  1.00  0.00     0.127 S 
ATOM     92  O   UNL     1      -4.886  15.497  -3.129  1.00  0.00    -0.237 OA
ATOM     93  O   UNL     1      -6.115  14.606  -5.069  1.00  0.00    -0.237 OA
ATOM     94  O   UNL     1      -6.205  13.436  -2.902  1.00  0.00    -0.744 OA
ENDBRANCH  88  91
ENDBRANCH  61  84
ENDBRANCH  35  36
ENDBRANCH  28  30
ENDBRANCH  27  28
ENDBRANCH  26  27
ENDBRANCH  25  26
ENDBRANCH   1  25
TORSDOF 20
