REMARK SMILES O=C(OCCOCCOC(=O)c1ccnc(-n2cnnn2)c1)c1ccc(-c2c3nc(c(-c4cccc(S(=O)(=O)[O-])c4F)c4ccc([nH]4)c(-c4cccc(S(=O)(=O)[O-])c4F)c4nc(c(-c5cccc(S(=O)(=O)[O-])c5F)c5ccc2[nH]5)C=C4)C=C3)cc1
REMARK SMILES IDX 5 1 4 2 3 3 2 4 1 5 23 6 24 7 85 8 25 9 84 10 26 11 27 12
REMARK SMILES IDX 28 13 78 14 29 15 83 16 77 17 79 18 30 19 82 20 76 21 75 22
REMARK SMILES IDX 31 24 63 25 43 26 62 27 44 28 47 29 61 30 80 31 45 32 46 33
REMARK SMILES IDX 60 35 81 36 48 37 32 38 33 39 41 40 34 41 36 42 42 43 35 44
REMARK SMILES IDX 37 45 38 46 39 47 40 48 64 49 65 50 73 51 66 52 68 53 74 54
REMARK SMILES IDX 67 55 69 56 70 57 71 58 72 59 49 60 50 61 58 62 51 63 53 64
REMARK SMILES IDX 59 65 52 66 54 67 55 68 56 69 57 70 6 71 7 72 8 73 9 74
REMARK SMILES IDX 10 75 11 76 12 77 13 78 22 79 14 80 16 81 15 82 17 83 18 84
REMARK SMILES IDX 21 85 19 86 20 87
REMARK H PARENT 79 23 47 34
REMARK Flexibility Score: inf
ROOT
ATOM      1  C   UNL     1       4.762   0.466   0.759  1.00  0.00     0.202 C 
ENDROOT
BRANCH   1   2
ATOM      2  C   UNL     1       4.500   0.825  -0.700  1.00  0.00     0.261 C 
BRANCH   2   3
ATOM      3  O   UNL     1       3.137   1.175  -0.993  1.00  0.00    -0.460 OA
BRANCH   3   4
ATOM      4  C   UNL     1       2.062   0.382  -0.780  1.00  0.00     0.338 C 
ATOM      5  O   UNL     1       1.067   0.839  -0.222  1.00  0.00    -0.246 OA
BRANCH   4   6
ATOM      6  C   UNL     1       1.990  -0.939  -1.457  1.00  0.00     0.060 A 
ATOM      7  C   UNL     1       3.080  -1.602  -2.013  1.00  0.00     0.016 A 
ATOM      8  C   UNL     1       0.702  -1.468  -1.649  1.00  0.00     0.016 A 
ATOM      9  C   UNL     1       2.880  -2.588  -2.953  1.00  0.00     0.010 A 
ATOM     10  C   UNL     1       0.497  -2.511  -2.538  1.00  0.00     0.010 A 
ATOM     11  C   UNL     1       1.581  -2.990  -3.260  1.00  0.00    -0.014 A 
BRANCH  11  12
ATOM     12  C   UNL     1       1.443  -3.992  -4.300  1.00  0.00     0.031 A 
ATOM     13  C   UNL     1       2.185  -5.248  -4.011  1.00  0.00     0.074 A 
ATOM     14  C   UNL     1       0.705  -3.793  -5.408  1.00  0.00     0.049 A 
ATOM     15  N   UNL     1       3.233  -5.703  -4.616  1.00  0.00    -0.248 NA
ATOM     16  C   UNL     1       1.839  -5.973  -2.780  1.00  0.00     0.031 C 
ATOM     17  C   UNL     1      -0.249  -2.714  -5.682  1.00  0.00     0.029 A 
ATOM     18  N   UNL     1       0.562  -4.605  -6.488  1.00  0.00    -0.354 N 
ATOM     19  C   UNL     1       3.534  -6.907  -3.982  1.00  0.00     0.074 A 
ATOM     20  C   UNL     1       2.776  -6.921  -2.760  1.00  0.00     0.031 C 
ATOM     21  C   UNL     1      -1.057  -3.087  -6.700  1.00  0.00     0.029 A 
ATOM     22  C   UNL     1      -0.578  -4.347  -7.240  1.00  0.00     0.049 A 
ATOM     23  H   UNL     1       1.208  -5.312  -6.717  1.00  0.00     0.167 HD
ATOM     24  C   UNL     1       4.189  -7.904  -4.637  1.00  0.00     0.034 A 
ATOM     25  C   UNL     1      -1.126  -5.166  -8.172  1.00  0.00     0.034 A 
ATOM     26  C   UNL     1       4.867  -7.406  -5.805  1.00  0.00     0.049 A 
ATOM     27  C   UNL     1      -0.067  -6.107  -8.605  1.00  0.00     0.074 A 
ATOM     28  C   UNL     1       5.866  -6.482  -6.034  1.00  0.00     0.029 A 
ATOM     29  N   UNL     1       4.247  -7.607  -7.013  1.00  0.00    -0.354 N 
ATOM     30  N   UNL     1       0.997  -5.733  -9.258  1.00  0.00    -0.248 NA
ATOM     31  C   UNL     1       0.031  -7.384  -7.917  1.00  0.00     0.031 C 
ATOM     32  C   UNL     1       5.480  -5.823  -7.237  1.00  0.00     0.029 A 
ATOM     33  C   UNL     1       4.314  -6.431  -7.707  1.00  0.00     0.049 A 
ATOM     34  H   UNL     1       3.832  -8.444  -7.324  1.00  0.00     0.167 HD
ATOM     35  C   UNL     1       2.024  -6.476  -8.690  1.00  0.00     0.074 A 
ATOM     36  C   UNL     1       1.357  -7.542  -7.944  1.00  0.00     0.031 C 
ATOM     37  C   UNL     1       3.297  -5.989  -8.634  1.00  0.00     0.034 A 
BRANCH  24  38
ATOM     38  C   UNL     1       3.896  -9.378  -4.468  1.00  0.00     0.023 A 
ATOM     39  C   UNL     1       4.718 -10.285  -5.176  1.00  0.00     0.012 A 
ATOM     40  C   UNL     1       2.703  -9.897  -3.915  1.00  0.00     0.148 A 
ATOM     41  C   UNL     1       4.335 -11.614  -5.387  1.00  0.00     0.002 A 
ATOM     42  C   UNL     1       2.361 -11.235  -4.066  1.00  0.00     0.091 A 
ATOM     43  F   UNL     1       1.813  -9.080  -3.348  1.00  0.00    -0.205 F 
ATOM     44  C   UNL     1       3.155 -12.090  -4.830  1.00  0.00     0.022 A 
BRANCH  42  45
ATOM     45  S   UNL     1       0.864 -11.911  -3.336  1.00  0.00     0.127 S 
ATOM     46  O   UNL     1       0.032 -12.118  -4.517  1.00  0.00    -0.237 OA
ATOM     47  O   UNL     1       1.367 -13.133  -2.708  1.00  0.00    -0.237 OA
ATOM     48  O   UNL     1       0.396 -10.904  -2.391  1.00  0.00    -0.744 OA
ENDBRANCH  42  45
ENDBRANCH  24  38
BRANCH  25  49
ATOM     49  C   UNL     1      -2.557  -5.412  -8.471  1.00  0.00     0.023 A 
ATOM     50  C   UNL     1      -2.924  -6.003  -9.697  1.00  0.00     0.012 A 
ATOM     51  C   UNL     1      -3.529  -5.344  -7.447  1.00  0.00     0.148 A 
ATOM     52  C   UNL     1      -4.206  -6.534  -9.887  1.00  0.00     0.002 A 
ATOM     53  C   UNL     1      -4.803  -5.869  -7.642  1.00  0.00     0.091 A 
ATOM     54  F   UNL     1      -3.174  -4.850  -6.254  1.00  0.00    -0.205 F 
ATOM     55  C   UNL     1      -5.142  -6.476  -8.857  1.00  0.00     0.022 A 
BRANCH  53  56
ATOM     56  S   UNL     1      -6.051  -5.863  -6.347  1.00  0.00     0.127 S 
ATOM     57  O   UNL     1      -7.203  -5.288  -7.044  1.00  0.00    -0.237 OA
ATOM     58  O   UNL     1      -6.171  -7.285  -6.036  1.00  0.00    -0.237 OA
ATOM     59  O   UNL     1      -5.517  -5.026  -5.281  1.00  0.00    -0.744 OA
ENDBRANCH  53  56
ENDBRANCH  25  49
BRANCH  37  60
ATOM     60  C   UNL     1       3.623  -4.744  -9.416  1.00  0.00     0.023 A 
ATOM     61  C   UNL     1       3.079  -3.481  -9.100  1.00  0.00     0.012 A 
ATOM     62  C   UNL     1       4.673  -4.824 -10.345  1.00  0.00     0.148 A 
ATOM     63  C   UNL     1       3.575  -2.322  -9.706  1.00  0.00     0.002 A 
ATOM     64  C   UNL     1       5.198  -3.668 -10.902  1.00  0.00     0.091 A 
ATOM     65  F   UNL     1       5.173  -6.037 -10.628  1.00  0.00    -0.205 F 
ATOM     66  C   UNL     1       4.647  -2.414 -10.593  1.00  0.00     0.022 A 
BRANCH  64  67
ATOM     67  S   UNL     1       6.670  -3.711 -11.926  1.00  0.00     0.127 S 
ATOM     68  O   UNL     1       6.128  -3.416 -13.250  1.00  0.00    -0.237 OA
ATOM     69  O   UNL     1       7.485  -2.643 -11.344  1.00  0.00    -0.237 OA
ATOM     70  O   UNL     1       7.234  -5.045 -11.764  1.00  0.00    -0.744 OA
ENDBRANCH  64  67
ENDBRANCH  37  60
ENDBRANCH  11  12
ENDBRANCH   4   6
ENDBRANCH   3   4
ENDBRANCH   2   3
ENDBRANCH   1   2
BRANCH   1  71
ATOM     71  O   UNL     1       4.215  -0.744   1.256  1.00  0.00    -0.374 OA
BRANCH  71  72
ATOM     72  C   UNL     1       3.037  -0.641   2.066  1.00  0.00     0.202 C 
BRANCH  72  73
ATOM     73  C   UNL     1       3.134   0.026   3.450  1.00  0.00     0.261 C 
BRANCH  73  74
ATOM     74  O   UNL     1       3.432   1.437   3.390  1.00  0.00    -0.460 OA
BRANCH  74  75
ATOM     75  C   UNL     1       4.721   1.766   3.656  1.00  0.00     0.338 C 
ATOM     76  O   UNL     1       5.625   1.027   3.981  1.00  0.00    -0.246 OA
BRANCH  75  77
ATOM     77  C   UNL     1       4.954   3.178   3.290  1.00  0.00     0.065 A 
ATOM     78  C   UNL     1       4.299   4.201   3.960  1.00  0.00     0.036 A 
ATOM     79  C   UNL     1       5.921   3.462   2.320  1.00  0.00     0.065 A 
ATOM     80  C   UNL     1       4.708   5.492   3.688  1.00  0.00     0.114 A 
ATOM     81  C   UNL     1       6.250   4.792   2.102  1.00  0.00     0.157 A 
ATOM     82  N   UNL     1       5.686   5.805   2.808  1.00  0.00    -0.237 NA
BRANCH  81  83
ATOM     83  N   UNL     1       7.219   5.109   1.122  1.00  0.00    -0.182 N 
ATOM     84  C   UNL     1       7.408   4.534  -0.108  1.00  0.00     0.254 A 
ATOM     85  N   UNL     1       8.144   6.079   1.284  1.00  0.00    -0.039 NA
ATOM     86  N   UNL     1       8.476   5.055  -0.666  1.00  0.00    -0.117 NA
ATOM     87  N   UNL     1       8.936   5.996   0.221  1.00  0.00    -0.024 NA
ENDBRANCH  81  83
ENDBRANCH  75  77
ENDBRANCH  74  75
ENDBRANCH  73  74
ENDBRANCH  72  73
ENDBRANCH  71  72
ENDBRANCH   1  71
TORSDOF 18
