REMARK SMILES O=C(C[C@@H]1CN(C(=O)NCc2cccs2)CCO1)OCCOCCOC(=O)c1ccc(-c2c3nc(c(-c4cccc(S(=O)(=O)[O-])c4F)c4ccc([nH]4)c(-c4cccc(S(=O)(=O)[O-])c4F)c4nc(c(-c5cccc(S(=O)(=O)[O-])c5F)c5ccc2[nH]5)C=C4)C=C3)cc1
REMARK SMILES IDX 21 1 20 2 19 3 2 4 1 5 3 6 4 7 5 8 18 9 6 10 17 11 16 12
REMARK SMILES IDX 7 13 8 14 9 15 10 17 11 18 12 19 15 20 13 21 14 22 22 23
REMARK SMILES IDX 23 24 24 25 25 26 26 27 27 28 28 29 29 30 90 31 30 32 89 33
REMARK SMILES IDX 31 34 32 35 33 36 83 37 34 38 88 39 82 40 84 41 35 42 87 43
REMARK SMILES IDX 81 44 80 45 36 47 68 48 48 49 67 50 49 51 52 52 66 53 85 54
REMARK SMILES IDX 50 55 51 56 65 58 86 59 53 60 37 61 38 62 46 63 39 64 41 65
REMARK SMILES IDX 47 66 40 67 42 68 43 69 44 70 45 71 69 72 70 73 78 74 71 75
REMARK SMILES IDX 73 76 79 77 72 78 74 79 75 80 76 81 77 82 54 83 55 84 63 85
REMARK SMILES IDX 56 86 58 87 64 88 57 89 59 90 60 91 61 92 62 93
REMARK H PARENT 9 16 84 46 52 57
REMARK Flexibility Score: inf
ROOT
ATOM      1  C   UNL     1       4.819   1.019   0.637  1.00  0.00     0.202 C 
ENDROOT
BRANCH   1   2
ATOM      2  C   UNL     1       4.156   0.872  -0.737  1.00  0.00     0.261 C 
BRANCH   2   3
ATOM      3  O   UNL     1       2.750   0.641  -0.749  1.00  0.00    -0.463 OA
BRANCH   3   4
ATOM      4  C   UNL     1       2.151  -0.534  -0.492  1.00  0.00     0.308 C 
ATOM      5  O   UNL     1       0.929  -0.613  -0.632  1.00  0.00    -0.252 OA
BRANCH   4   6
ATOM      6  C   UNL     1       2.901  -1.688   0.130  1.00  0.00     0.156 C 
BRANCH   6   7
ATOM      7  C   UNL     1       3.933  -2.421  -0.697  1.00  0.00     0.149 C 
ATOM      8  C   UNL     1       4.236  -3.765  -0.025  1.00  0.00     0.154 C 
ATOM      9  O   UNL     1       5.225  -1.777  -0.765  1.00  0.00    -0.374 OA
ATOM     10  N   UNL     1       4.915  -4.564  -1.022  1.00  0.00    -0.320 N 
ATOM     11  C   UNL     1       6.109  -2.493  -1.665  1.00  0.00     0.182 C 
ATOM     12  C   UNL     1       6.245  -3.990  -1.295  1.00  0.00     0.150 C 
BRANCH  10  13
ATOM     13  C   UNL     1       4.346  -5.370  -1.961  1.00  0.00     0.317 C 
ATOM     14  O   UNL     1       5.019  -5.842  -2.884  1.00  0.00    -0.249 OA
ATOM     15  N   UNL     1       3.039  -5.681  -1.998  1.00  0.00    -0.333 N 
ATOM     16  H   UNL     1       2.824  -6.144  -2.840  1.00  0.00     0.165 HD
BRANCH  15  17
ATOM     17  C   UNL     1       1.845  -5.545  -1.182  1.00  0.00     0.164 C 
BRANCH  17  18
ATOM     18  C   UNL     1       0.722  -4.940  -1.969  1.00  0.00     0.024 A 
ATOM     19  C   UNL     1      -0.482  -5.515  -2.326  1.00  0.00     0.017 A 
ATOM     20  S   UNL     1       0.786  -3.304  -2.463  1.00  0.00    -0.147 S 
ATOM     21  C   UNL     1      -1.382  -4.576  -2.913  1.00  0.00     0.012 A 
ATOM     22  C   UNL     1      -0.830  -3.319  -3.002  1.00  0.00     0.065 A 
ENDBRANCH  17  18
ENDBRANCH  15  17
ENDBRANCH  10  13
ENDBRANCH   6   7
ENDBRANCH   4   6
ENDBRANCH   3   4
ENDBRANCH   2   3
ENDBRANCH   1   2
BRANCH   1  23
ATOM     23  O   UNL     1       4.302   0.342   1.778  1.00  0.00    -0.374 OA
BRANCH  23  24
ATOM     24  C   UNL     1       3.057   0.796   2.322  1.00  0.00     0.202 C 
BRANCH  24  25
ATOM     25  C   UNL     1       3.132   1.950   3.316  1.00  0.00     0.261 C 
BRANCH  25  26
ATOM     26  O   UNL     1       3.455   3.170   2.645  1.00  0.00    -0.460 OA
BRANCH  26  27
ATOM     27  C   UNL     1       4.756   3.533   2.706  1.00  0.00     0.338 C 
ATOM     28  O   UNL     1       5.643   3.013   3.363  1.00  0.00    -0.246 OA
BRANCH  27  29
ATOM     29  C   UNL     1       4.993   4.522   1.639  1.00  0.00     0.060 A 
ATOM     30  C   UNL     1       6.139   4.373   0.840  1.00  0.00     0.016 A 
ATOM     31  C   UNL     1       4.086   5.557   1.411  1.00  0.00     0.016 A 
ATOM     32  C   UNL     1       6.416   5.303  -0.154  1.00  0.00     0.010 A 
ATOM     33  C   UNL     1       4.371   6.495   0.428  1.00  0.00     0.010 A 
ATOM     34  C   UNL     1       5.561   6.396  -0.315  1.00  0.00    -0.014 A 
BRANCH  34  35
ATOM     35  C   UNL     1       6.008   7.586  -1.060  1.00  0.00     0.031 A 
ATOM     36  C   UNL     1       6.521   8.744  -0.256  1.00  0.00     0.074 A 
ATOM     37  C   UNL     1       5.870   7.660  -2.392  1.00  0.00     0.049 A 
ATOM     38  N   UNL     1       6.779   9.965  -0.632  1.00  0.00    -0.248 NA
ATOM     39  C   UNL     1       6.743   8.492   1.180  1.00  0.00     0.031 C 
ATOM     40  C   UNL     1       5.388   6.583  -3.253  1.00  0.00     0.029 A 
ATOM     41  N   UNL     1       6.069   8.717  -3.240  1.00  0.00    -0.354 N 
ATOM     42  C   UNL     1       7.134  10.643   0.527  1.00  0.00     0.074 A 
ATOM     43  C   UNL     1       7.056   9.700   1.619  1.00  0.00     0.031 C 
ATOM     44  C   UNL     1       5.275   7.052  -4.507  1.00  0.00     0.029 A 
ATOM     45  C   UNL     1       5.636   8.468  -4.519  1.00  0.00     0.049 A 
ATOM     46  H   UNL     1       6.480   9.567  -2.961  1.00  0.00     0.167 HD
ATOM     47  C   UNL     1       7.491  11.940   0.665  1.00  0.00     0.034 A 
ATOM     48  C   UNL     1       5.500   9.308  -5.563  1.00  0.00     0.034 A 
ATOM     49  C   UNL     1       7.565  12.856  -0.437  1.00  0.00     0.049 A 
ATOM     50  C   UNL     1       5.893  10.751  -5.390  1.00  0.00     0.074 A 
ATOM     51  C   UNL     1       7.974  14.176  -0.434  1.00  0.00     0.029 A 
ATOM     52  N   UNL     1       7.200  12.549  -1.740  1.00  0.00    -0.354 N 
ATOM     53  N   UNL     1       6.327  11.365  -4.315  1.00  0.00    -0.248 NA
ATOM     54  C   UNL     1       5.809  11.611  -6.578  1.00  0.00     0.031 C 
ATOM     55  C   UNL     1       7.814  14.680  -1.728  1.00  0.00     0.029 A 
ATOM     56  C   UNL     1       7.359  13.658  -2.549  1.00  0.00     0.049 A 
ATOM     57  H   UNL     1       6.875  11.670  -2.043  1.00  0.00     0.167 HD
ATOM     58  C   UNL     1       6.612  12.669  -4.705  1.00  0.00     0.074 A 
ATOM     59  C   UNL     1       6.300  12.755  -6.118  1.00  0.00     0.031 C 
ATOM     60  C   UNL     1       7.089  13.700  -3.965  1.00  0.00     0.034 A 
BRANCH  47  61
ATOM     61  C   UNL     1       7.810  12.430   2.053  1.00  0.00     0.023 A 
ATOM     62  C   UNL     1       8.960  11.963   2.723  1.00  0.00     0.012 A 
ATOM     63  C   UNL     1       6.971  13.362   2.693  1.00  0.00     0.148 A 
ATOM     64  C   UNL     1       9.242  12.376   4.024  1.00  0.00     0.002 A 
ATOM     65  C   UNL     1       7.288  13.812   3.969  1.00  0.00     0.091 A 
ATOM     66  F   UNL     1       5.867  13.774   2.054  1.00  0.00    -0.205 F 
ATOM     67  C   UNL     1       8.412  13.307   4.643  1.00  0.00     0.022 A 
BRANCH  65  68
ATOM     68  S   UNL     1       6.328  15.072   4.813  1.00  0.00     0.127 S 
ATOM     69  O   UNL     1       5.660  14.289   5.852  1.00  0.00    -0.237 OA
ATOM     70  O   UNL     1       7.370  15.974   5.304  1.00  0.00    -0.237 OA
ATOM     71  O   UNL     1       5.451  15.652   3.805  1.00  0.00    -0.744 OA
ENDBRANCH  65  68
ENDBRANCH  47  61
BRANCH  48  72
ATOM     72  C   UNL     1       4.991   8.787  -6.860  1.00  0.00     0.023 A 
ATOM     73  C   UNL     1       5.876   8.647  -7.945  1.00  0.00     0.012 A 
ATOM     74  C   UNL     1       3.653   8.368  -7.001  1.00  0.00     0.148 A 
ATOM     75  C   UNL     1       5.433   8.115  -9.157  1.00  0.00     0.002 A 
ATOM     76  C   UNL     1       3.233   7.790  -8.193  1.00  0.00     0.091 A 
ATOM     77  F   UNL     1       2.829   8.515  -5.954  1.00  0.00    -0.205 F 
ATOM     78  C   UNL     1       4.117   7.677  -9.277  1.00  0.00     0.022 A 
BRANCH  76  79
ATOM     79  S   UNL     1       1.596   7.080  -8.401  1.00  0.00     0.127 S 
ATOM     80  O   UNL     1       1.030   7.934  -9.443  1.00  0.00    -0.237 OA
ATOM     81  O   UNL     1       1.917   5.717  -8.826  1.00  0.00    -0.237 OA
ATOM     82  O   UNL     1       0.953   7.173  -7.098  1.00  0.00    -0.744 OA
ENDBRANCH  76  79
ENDBRANCH  48  72
BRANCH  60  83
ATOM     83  C   UNL     1       7.379  14.999  -4.670  1.00  0.00     0.023 A 
ATOM     84  C   UNL     1       6.326  15.836  -5.084  1.00  0.00     0.012 A 
ATOM     85  C   UNL     1       8.711  15.434  -4.816  1.00  0.00     0.148 A 
ATOM     86  C   UNL     1       6.597  17.080  -5.655  1.00  0.00     0.002 A 
ATOM     87  C   UNL     1       8.972  16.696  -5.333  1.00  0.00     0.091 A 
ATOM     88  F   UNL     1       9.697  14.612  -4.428  1.00  0.00    -0.205 F 
ATOM     89  C   UNL     1       7.916  17.515  -5.764  1.00  0.00     0.022 A 
BRANCH  87  90
ATOM     90  S   UNL     1      10.630  17.382  -5.410  1.00  0.00     0.127 S 
ATOM     91  O   UNL     1      10.867  17.424  -6.852  1.00  0.00    -0.237 OA
ATOM     92  O   UNL     1      10.451  18.691  -4.782  1.00  0.00    -0.237 OA
ATOM     93  O   UNL     1      11.483  16.464  -4.667  1.00  0.00    -0.744 OA
ENDBRANCH  87  90
ENDBRANCH  60  83
ENDBRANCH  34  35
ENDBRANCH  27  29
ENDBRANCH  26  27
ENDBRANCH  25  26
ENDBRANCH  24  25
ENDBRANCH  23  24
ENDBRANCH   1  23
TORSDOF 21
