REMARK SMILES COc1ccc(CSc2ncccc2C(=O)OCCOCCOC(=O)c2ccc(-c3c4nc(c(-c5cccc(S(=O)(=O)[O-])c5F)c5ccc([nH]5)c(-c5cccc(S(=O)(=O)[O-])c5F)c5nc(c(-c6cccc(S(=O)(=O)[O-])c6F)c6ccc3[nH]6)C=C5)C=C4)cc2)cc1
REMARK SMILES IDX 19 1 18 2 17 3 15 4 16 5 14 6 9 7 10 8 11 9 13 10 12 11 8 12
REMARK SMILES IDX 7 13 6 14 3 15 4 16 90 17 5 18 89 19 2 20 1 21 20 22 21 23
REMARK SMILES IDX 22 24 23 25 24 26 25 27 26 28 27 29 88 30 28 31 87 32 29 33
REMARK SMILES IDX 30 34 31 35 81 36 32 37 86 38 80 39 82 40 33 41 85 42 79 43
REMARK SMILES IDX 78 44 34 46 66 47 46 48 65 49 47 50 50 51 64 52 83 53 48 54
REMARK SMILES IDX 49 55 63 57 84 58 51 59 35 60 36 61 44 62 37 63 39 64 45 65
REMARK SMILES IDX 38 66 40 67 41 68 42 69 43 70 67 71 68 72 76 73 69 74 71 75
REMARK SMILES IDX 77 76 70 77 72 78 73 79 74 80 75 81 52 82 53 83 61 84 54 85
REMARK SMILES IDX 56 86 62 87 55 88 57 89 58 90 59 91 60 92
REMARK H PARENT 82 45 50 56
REMARK Flexibility Score: inf
ROOT
ATOM      1  C   UNL     1       5.237   0.633   5.042  1.00  0.00     0.202 C 
ENDROOT
BRANCH   1   2
ATOM      2  C   UNL     1       5.221   1.496   3.769  1.00  0.00     0.261 C 
BRANCH   2   3
ATOM      3  O   UNL     1       4.861   2.851   4.048  1.00  0.00    -0.460 OA
BRANCH   3   4
ATOM      4  C   UNL     1       3.718   3.317   3.504  1.00  0.00     0.340 C 
ATOM      5  O   UNL     1       3.033   2.793   2.647  1.00  0.00    -0.246 OA
BRANCH   4   6
ATOM      6  C   UNL     1       3.527   4.675   3.999  1.00  0.00     0.092 A 
ATOM      7  C   UNL     1       2.570   5.105   4.917  1.00  0.00     0.111 A 
ATOM      8  N   UNL     1       2.504   6.436   5.233  1.00  0.00    -0.249 NA
ATOM      9  C   UNL     1       3.351   7.316   4.657  1.00  0.00     0.112 A 
ATOM     10  C   UNL     1       4.415   5.612   3.428  1.00  0.00     0.020 A 
ATOM     11  C   UNL     1       4.327   6.953   3.760  1.00  0.00     0.021 A 
BRANCH   7  12
ATOM     12  S   UNL     1       1.326   4.275   5.882  1.00  0.00    -0.101 SA
BRANCH  12  13
ATOM     13  C   UNL     1       1.467   2.480   5.676  1.00  0.00     0.112 C 
BRANCH  13  14
ATOM     14  C   UNL     1       0.840   1.887   4.441  1.00  0.00    -0.037 A 
ATOM     15  C   UNL     1      -0.004   0.863   1.967  1.00  0.00     0.118 A 
ATOM     16  C   UNL     1      -0.642   1.971   2.520  1.00  0.00     0.047 A 
ATOM     17  C   UNL     1       0.960   0.182   2.707  1.00  0.00     0.047 A 
ATOM     18  C   UNL     1      -0.229   2.478   3.754  1.00  0.00     0.008 A 
ATOM     19  C   UNL     1       1.367   0.683   3.944  1.00  0.00     0.008 A 
BRANCH  15  20
ATOM     20  O   UNL     1      -0.395   0.510   0.703  1.00  0.00    -0.497 OA
ATOM     21  C   UNL     1       0.668   0.011  -0.109  1.00  0.00     0.278 C 
ENDBRANCH  15  20
ENDBRANCH  13  14
ENDBRANCH  12  13
ENDBRANCH   7  12
ENDBRANCH   4   6
ENDBRANCH   3   4
ENDBRANCH   2   3
ENDBRANCH   1   2
BRANCH   1  22
ATOM     22  O   UNL     1       4.660   1.161   6.234  1.00  0.00    -0.374 OA
BRANCH  22  23
ATOM     23  C   UNL     1       5.215   2.345   6.815  1.00  0.00     0.202 C 
BRANCH  23  24
ATOM     24  C   UNL     1       6.681   2.308   7.247  1.00  0.00     0.261 C 
BRANCH  24  25
ATOM     25  O   UNL     1       7.565   2.181   6.121  1.00  0.00    -0.460 OA
BRANCH  25  26
ATOM     26  C   UNL     1       8.417   1.130   6.191  1.00  0.00     0.338 C 
ATOM     27  O   UNL     1       8.540   0.340   7.112  1.00  0.00    -0.246 OA
BRANCH  26  28
ATOM     28  C   UNL     1       9.067   0.934   4.885  1.00  0.00     0.060 A 
ATOM     29  C   UNL     1       9.000  -0.344   4.315  1.00  0.00     0.016 A 
ATOM     30  C   UNL     1       9.786   1.957   4.264  1.00  0.00     0.016 A 
ATOM     31  C   UNL     1       9.695  -0.619   3.142  1.00  0.00     0.010 A 
ATOM     32  C   UNL     1      10.495   1.675   3.094  1.00  0.00     0.010 A 
ATOM     33  C   UNL     1      10.481   0.378   2.551  1.00  0.00    -0.014 A 
BRANCH  33  34
ATOM     34  C   UNL     1      11.419   0.017   1.466  1.00  0.00     0.031 A 
ATOM     35  C   UNL     1      12.846  -0.296   1.823  1.00  0.00     0.074 A 
ATOM     36  C   UNL     1      11.007  -0.025   0.188  1.00  0.00     0.049 A 
ATOM     37  N   UNL     1      13.842  -0.618   1.042  1.00  0.00    -0.248 NA
ATOM     38  C   UNL     1      13.196  -0.235   3.253  1.00  0.00     0.031 C 
ATOM     39  C   UNL     1       9.649   0.258  -0.271  1.00  0.00     0.029 A 
ATOM     40  N   UNL     1      11.703  -0.299  -0.962  1.00  0.00    -0.354 N 
ATOM     41  C   UNL     1      14.940  -0.778   1.877  1.00  0.00     0.074 A 
ATOM     42  C   UNL     1      14.492  -0.507   3.226  1.00  0.00     0.031 C 
ATOM     43  C   UNL     1       9.617   0.177  -1.612  1.00  0.00     0.029 A 
ATOM     44  C   UNL     1      10.954  -0.148  -2.104  1.00  0.00     0.049 A 
ATOM     45  H   UNL     1      12.648  -0.577  -0.968  1.00  0.00     0.167 HD
ATOM     46  C   UNL     1      16.204  -1.136   1.553  1.00  0.00     0.034 A 
ATOM     47  C   UNL     1      11.317  -0.245  -3.399  1.00  0.00     0.034 A 
ATOM     48  C   UNL     1      16.640  -1.418   0.214  1.00  0.00     0.049 A 
ATOM     49  C   UNL     1      12.737  -0.622  -3.735  1.00  0.00     0.074 A 
ATOM     50  C   UNL     1      17.887  -1.833  -0.216  1.00  0.00     0.029 A 
ATOM     51  N   UNL     1      15.844  -1.301  -0.915  1.00  0.00    -0.354 N 
ATOM     52  N   UNL     1      13.731  -0.899  -2.926  1.00  0.00    -0.248 NA
ATOM     53  C   UNL     1      13.077  -0.730  -5.162  1.00  0.00     0.031 C 
ATOM     54  C   UNL     1      17.849  -1.950  -1.610  1.00  0.00     0.029 A 
ATOM     55  C   UNL     1      16.574  -1.623  -2.044  1.00  0.00     0.049 A 
ATOM     56  H   UNL     1      14.898  -1.028  -0.913  1.00  0.00     0.167 HD
ATOM     57  C   UNL     1      14.803  -1.245  -3.741  1.00  0.00     0.074 A 
ATOM     58  C   UNL     1      14.331  -1.161  -5.108  1.00  0.00     0.031 C 
ATOM     59  C   UNL     1      16.069  -1.586  -3.393  1.00  0.00     0.034 A 
BRANCH  46  60
ATOM     60  C   UNL     1      17.195  -1.274   2.676  1.00  0.00     0.023 A 
ATOM     61  C   UNL     1      17.126  -2.395   3.527  1.00  0.00     0.012 A 
ATOM     62  C   UNL     1      18.214  -0.321   2.867  1.00  0.00     0.148 A 
ATOM     63  C   UNL     1      18.039  -2.553   4.568  1.00  0.00     0.002 A 
ATOM     64  C   UNL     1      19.143  -0.505   3.885  1.00  0.00     0.091 A 
ATOM     65  F   UNL     1      18.245   0.753   2.066  1.00  0.00    -0.205 F 
ATOM     66  C   UNL     1      19.052  -1.614   4.741  1.00  0.00     0.022 A 
BRANCH  64  67
ATOM     67  S   UNL     1      20.521   0.618   4.145  1.00  0.00     0.127 S 
ATOM     68  O   UNL     1      20.090   1.341   5.340  1.00  0.00    -0.237 OA
ATOM     69  O   UNL     1      21.637  -0.304   4.359  1.00  0.00    -0.237 OA
ATOM     70  O   UNL     1      20.620   1.415   2.930  1.00  0.00    -0.744 OA
ENDBRANCH  64  67
ENDBRANCH  46  60
BRANCH  47  71
ATOM     71  C   UNL     1      10.307  -0.022  -4.471  1.00  0.00     0.023 A 
ATOM     72  C   UNL     1       9.865  -1.111  -5.246  1.00  0.00     0.012 A 
ATOM     73  C   UNL     1       9.761   1.255  -4.706  1.00  0.00     0.148 A 
ATOM     74  C   UNL     1       8.915  -0.929  -6.252  1.00  0.00     0.002 A 
ATOM     75  C   UNL     1       8.777   1.420  -5.674  1.00  0.00     0.091 A 
ATOM     76  F   UNL     1      10.210   2.283  -3.973  1.00  0.00    -0.205 F 
ATOM     77  C   UNL     1       8.363   0.333  -6.458  1.00  0.00     0.022 A 
BRANCH  75  78
ATOM     78  S   UNL     1       7.922   2.982  -5.913  1.00  0.00     0.127 S 
ATOM     79  O   UNL     1       8.510   3.458  -7.162  1.00  0.00    -0.237 OA
ATOM     80  O   UNL     1       6.526   2.553  -6.012  1.00  0.00    -0.237 OA
ATOM     81  O   UNL     1       8.220   3.773  -4.726  1.00  0.00    -0.744 OA
ENDBRANCH  75  78
ENDBRANCH  47  71
BRANCH  59  82
ATOM     82  C   UNL     1      17.034  -1.919  -4.500  1.00  0.00     0.023 A 
ATOM     83  C   UNL     1      17.575  -0.883  -5.285  1.00  0.00     0.012 A 
ATOM     84  C   UNL     1      17.473  -3.243  -4.700  1.00  0.00     0.148 A 
ATOM     85  C   UNL     1      18.522  -1.162  -6.270  1.00  0.00     0.002 A 
ATOM     86  C   UNL     1      18.449  -3.507  -5.653  1.00  0.00     0.091 A 
ATOM     87  F   UNL     1      16.930  -4.217  -3.955  1.00  0.00    -0.205 F 
ATOM     88  C   UNL     1      18.968  -2.470  -6.445  1.00  0.00     0.022 A 
BRANCH  86  89
ATOM     89  S   UNL     1      19.148  -5.147  -5.879  1.00  0.00     0.127 S 
ATOM     90  O   UNL     1      18.499  -5.580  -7.114  1.00  0.00    -0.237 OA
ATOM     91  O   UNL     1      20.578  -4.863  -6.008  1.00  0.00    -0.237 OA
ATOM     92  O   UNL     1      18.791  -5.899  -4.684  1.00  0.00    -0.744 OA
ENDBRANCH  86  89
ENDBRANCH  59  82
ENDBRANCH  33  34
ENDBRANCH  26  28
ENDBRANCH  25  26
ENDBRANCH  24  25
ENDBRANCH  23  24
ENDBRANCH  22  23
ENDBRANCH   1  22
TORSDOF 21
