REMARK SMILES CC(C)Cc1ccc([C@H](CF)C(=O)OCCOCCOC(=O)c2ccc(-c3c4nc(c(-c5cccc(S(=O)(=O)[O-])c5F)c5ccc([nH]5)c(-c5cccc(S(=O)(=O)[O-])c5F)c5nc(c(-c6cccc(S(=O)(=O)[O-])c6F)c6ccc3[nH]6)C=C5)C=C4)cc2)cc1
REMARK SMILES IDX 17 1 16 2 15 3 14 4 12 5 13 6 9 7 8 8 5 9 6 10 87 11 7 12
REMARK SMILES IDX 86 13 4 14 2 15 1 16 3 17 10 18 11 19 18 20 19 21 20 22
REMARK SMILES IDX 21 23 22 24 23 25 24 26 85 27 25 28 84 29 26 30 27 31 28 32
REMARK SMILES IDX 78 33 29 34 83 35 77 36 79 37 30 38 82 39 76 40 75 41 31 43
REMARK SMILES IDX 63 44 43 45 62 46 44 47 47 48 61 49 80 50 45 51 46 52 60 54
REMARK SMILES IDX 81 55 48 56 32 57 33 58 41 59 34 60 36 61 42 62 35 63 37 64
REMARK SMILES IDX 38 65 39 66 40 67 64 68 65 69 73 70 66 71 68 72 74 73 67 74
REMARK SMILES IDX 69 75 70 76 71 77 72 78 49 79 50 80 58 81 51 82 53 83 59 84
REMARK SMILES IDX 52 85 54 86 55 87 56 88 57 89
REMARK H PARENT 79 42 47 53
REMARK Flexibility Score: inf
ROOT
ATOM      1  O   UNL     1      -6.688  -1.433   4.562  1.00  0.00    -0.374 OA
ENDROOT
BRANCH   1   2
ATOM      2  C   UNL     1      -6.526  -0.349   5.476  1.00  0.00     0.202 C 
BRANCH   2   3
ATOM      3  C   UNL     1      -5.368  -0.461   6.471  1.00  0.00     0.261 C 
BRANCH   3   4
ATOM      4  O   UNL     1      -4.094  -0.351   5.811  1.00  0.00    -0.463 OA
BRANCH   4   5
ATOM      5  C   UNL     1      -3.287  -1.447   5.868  1.00  0.00     0.316 C 
ATOM      6  O   UNL     1      -3.569  -2.492   6.444  1.00  0.00    -0.251 OA
BRANCH   5   7
ATOM      7  C   UNL     1      -1.971  -1.234   5.138  1.00  0.00     0.160 C 
BRANCH   7   8
ATOM      8  C   UNL     1      -0.874  -0.808   6.089  1.00  0.00    -0.031 A 
ATOM      9  C   UNL     1       1.080  -0.289   8.032  1.00  0.00    -0.048 A 
ATOM     10  C   UNL     1      -0.097   0.466   7.999  1.00  0.00     0.004 A 
ATOM     11  C   UNL     1       1.322  -1.227   7.024  1.00  0.00     0.004 A 
ATOM     12  C   UNL     1      -1.063   0.218   7.025  1.00  0.00     0.005 A 
ATOM     13  C   UNL     1       0.349  -1.491   6.065  1.00  0.00     0.005 A 
BRANCH   9  14
ATOM     14  C   UNL     1       2.021  -0.180   9.206  1.00  0.00     0.038 C 
BRANCH  14  15
ATOM     15  C   UNL     1       1.605  -1.120  10.361  1.00  0.00    -0.013 C 
ATOM     16  C   UNL     1       1.698  -2.604   9.982  1.00  0.00     0.008 C 
ATOM     17  C   UNL     1       2.473  -0.853  11.589  1.00  0.00     0.008 C 
ENDBRANCH  14  15
ENDBRANCH   9  14
ENDBRANCH   7   8
BRANCH   7  18
ATOM     18  C   UNL     1      -2.091  -0.330   3.921  1.00  0.00     0.234 C 
ATOM     19  F   UNL     1      -0.908  -0.322   3.242  1.00  0.00    -0.250 F 
ENDBRANCH   7  18
ENDBRANCH   5   7
ENDBRANCH   4   5
ENDBRANCH   3   4
ENDBRANCH   2   3
ENDBRANCH   1   2
BRANCH   1  20
ATOM     20  C   UNL     1      -5.737  -1.569   3.510  1.00  0.00     0.202 C 
BRANCH  20  21
ATOM     21  C   UNL     1      -5.826  -0.566   2.353  1.00  0.00     0.261 C 
BRANCH  21  22
ATOM     22  O   UNL     1      -5.568   0.789   2.761  1.00  0.00    -0.460 OA
BRANCH  22  23
ATOM     23  C   UNL     1      -6.637   1.617   2.650  1.00  0.00     0.338 C 
ATOM     24  O   UNL     1      -7.745   1.328   2.215  1.00  0.00    -0.246 OA
BRANCH  23  25
ATOM     25  C   UNL     1      -6.369   2.922   3.281  1.00  0.00     0.060 A 
ATOM     26  C   UNL     1      -7.275   3.360   4.255  1.00  0.00     0.016 A 
ATOM     27  C   UNL     1      -5.339   3.757   2.843  1.00  0.00     0.016 A 
ATOM     28  C   UNL     1      -7.192   4.659   4.752  1.00  0.00     0.010 A 
ATOM     29  C   UNL     1      -5.262   5.065   3.341  1.00  0.00     0.010 A 
ATOM     30  C   UNL     1      -6.214   5.535   4.264  1.00  0.00    -0.014 A 
BRANCH  30  31
ATOM     31  C   UNL     1      -6.291   6.974   4.617  1.00  0.00     0.031 A 
ATOM     32  C   UNL     1      -6.904   7.941   3.639  1.00  0.00     0.074 A 
ATOM     33  C   UNL     1      -5.848   7.413   5.810  1.00  0.00     0.049 A 
ATOM     34  N   UNL     1      -7.099   9.229   3.761  1.00  0.00    -0.248 NA
ATOM     35  C   UNL     1      -7.361   7.384   2.355  1.00  0.00     0.031 C 
ATOM     36  C   UNL     1      -5.235   6.578   6.841  1.00  0.00     0.029 A 
ATOM     37  N   UNL     1      -5.834   8.677   6.346  1.00  0.00    -0.354 N 
ATOM     38  C   UNL     1      -7.679   9.640   2.567  1.00  0.00     0.074 A 
ATOM     39  C   UNL     1      -7.792   8.468   1.726  1.00  0.00     0.031 C 
ATOM     40  C   UNL     1      -4.883   7.357   7.879  1.00  0.00     0.029 A 
ATOM     41  C   UNL     1      -5.233   8.745   7.580  1.00  0.00     0.049 A 
ATOM     42  H   UNL     1      -6.218   9.460   5.889  1.00  0.00     0.167 HD
ATOM     43  C   UNL     1      -8.101  10.876   2.209  1.00  0.00     0.034 A 
ATOM     44  C   UNL     1      -4.985   9.806   8.373  1.00  0.00     0.034 A 
ATOM     45  C   UNL     1      -8.014  12.038   3.052  1.00  0.00     0.049 A 
ATOM     46  C   UNL     1      -5.454  11.173   7.945  1.00  0.00     0.074 A 
ATOM     47  C   UNL     1      -8.456  13.323   2.794  1.00  0.00     0.029 A 
ATOM     48  N   UNL     1      -7.441  12.058   4.314  1.00  0.00    -0.354 N 
ATOM     49  N   UNL     1      -6.119  11.519   6.869  1.00  0.00    -0.248 NA
ATOM     50  C   UNL     1      -5.174  12.290   8.860  1.00  0.00     0.031 C 
ATOM     51  C   UNL     1      -8.134  14.126   3.894  1.00  0.00     0.029 A 
ATOM     52  C   UNL     1      -7.510  13.334   4.845  1.00  0.00     0.049 A 
ATOM     53  H   UNL     1      -7.044  11.279   4.766  1.00  0.00     0.167 HD
ATOM     54  C   UNL     1      -6.368  12.882   6.995  1.00  0.00     0.074 A 
ATOM     55  C   UNL     1      -5.800  13.295   8.262  1.00  0.00     0.031 C 
ATOM     56  C   UNL     1      -6.997  13.720   6.134  1.00  0.00     0.034 A 
BRANCH  43  57
ATOM     57  C   UNL     1      -8.738  11.032   0.853  1.00  0.00     0.023 A 
ATOM     58  C   UNL     1     -10.049  10.557   0.645  1.00  0.00     0.012 A 
ATOM     59  C   UNL     1      -8.071  11.702  -0.190  1.00  0.00     0.148 A 
ATOM     60  C   UNL     1     -10.677  10.724  -0.588  1.00  0.00     0.002 A 
ATOM     61  C   UNL     1      -8.718  11.899  -1.405  1.00  0.00     0.091 A 
ATOM     62  F   UNL     1      -6.816  12.125   0.020  1.00  0.00    -0.205 F 
ATOM     63  C   UNL     1     -10.016  11.403  -1.609  1.00  0.00     0.022 A 
BRANCH  61  64
ATOM     64  S   UNL     1      -7.977  12.823  -2.756  1.00  0.00     0.127 S 
ATOM     65  O   UNL     1      -7.657  11.756  -3.703  1.00  0.00    -0.237 OA
ATOM     66  O   UNL     1      -9.075  13.697  -3.171  1.00  0.00    -0.237 OA
ATOM     67  O   UNL     1      -6.833  13.519  -2.185  1.00  0.00    -0.744 OA
ENDBRANCH  61  64
ENDBRANCH  43  57
BRANCH  44  68
ATOM     68  C   UNL     1      -4.296   9.613   9.680  1.00  0.00     0.023 A 
ATOM     69  C   UNL     1      -5.013   9.796  10.878  1.00  0.00     0.012 A 
ATOM     70  C   UNL     1      -2.941   9.233   9.742  1.00  0.00     0.148 A 
ATOM     71  C   UNL     1      -4.387   9.634  12.114  1.00  0.00     0.002 A 
ATOM     72  C   UNL     1      -2.338   9.019  10.976  1.00  0.00     0.091 A 
ATOM     73  F   UNL     1      -2.269   9.085   8.592  1.00  0.00    -0.205 F 
ATOM     74  C   UNL     1      -3.054   9.235  12.164  1.00  0.00     0.022 A 
BRANCH  72  75
ATOM     75  S   UNL     1      -0.667   8.377  11.125  1.00  0.00     0.127 S 
ATOM     76  O   UNL     1       0.076   9.567  11.531  1.00  0.00    -0.237 OA
ATOM     77  O   UNL     1      -0.823   7.361  12.167  1.00  0.00    -0.237 OA
ATOM     78  O   UNL     1      -0.340   7.838   9.812  1.00  0.00    -0.744 OA
ENDBRANCH  72  75
ENDBRANCH  44  68
BRANCH  56  79
ATOM     79  C   UNL     1      -7.141  15.164   6.538  1.00  0.00     0.023 A 
ATOM     80  C   UNL     1      -6.018  16.013   6.509  1.00  0.00     0.012 A 
ATOM     81  C   UNL     1      -8.403  15.697   6.870  1.00  0.00     0.148 A 
ATOM     82  C   UNL     1      -6.142  17.364   6.833  1.00  0.00     0.002 A 
ATOM     83  C   UNL     1      -8.527  17.054   7.148  1.00  0.00     0.091 A 
ATOM     84  F   UNL     1      -9.457  14.870   6.912  1.00  0.00    -0.205 F 
ATOM     85  C   UNL     1      -7.396  17.886   7.141  1.00  0.00     0.022 A 
BRANCH  83  86
ATOM     86  S   UNL     1     -10.119  17.825   7.463  1.00  0.00     0.127 S 
ATOM     87  O   UNL     1     -10.088  17.993   8.914  1.00  0.00    -0.237 OA
ATOM     88  O   UNL     1     -10.019  19.072   6.702  1.00  0.00    -0.237 OA
ATOM     89  O   UNL     1     -11.118  16.893   6.958  1.00  0.00    -0.744 OA
ENDBRANCH  83  86
ENDBRANCH  56  79
ENDBRANCH  30  31
ENDBRANCH  23  25
ENDBRANCH  22  23
ENDBRANCH  21  22
ENDBRANCH  20  21
ENDBRANCH   1  20
TORSDOF 21
