REMARK SMILES COc1ccc(C(=O)OCCOCCOC(=O)c2ccc(-c3c4nc(c(-c5cccc(S(=O)(=O)[O-])c5F)c5ccc([nH]5)c(-c5cccc(S(=O)(=O)[O-])c5F)c5nc(c(-c6cccc(S(=O)(=O)[O-])c6F)c6ccc3[nH]6)C=C5)C=C4)cc2)cc1NC(=O)c1ccccc1[N+](=O)[O-]
REMARK SMILES IDX 12 1 11 2 10 3 9 4 7 5 8 6 6 7 3 8 4 9 82 10 5 11 81 12 2 13
REMARK SMILES IDX 1 14 83 15 84 16 85 18 86 19 87 20 91 21 88 22 90 23 89 24
REMARK SMILES IDX 92 25 93 26 94 27 13 28 14 29 15 30 16 31 17 32 18 33 19 34
REMARK SMILES IDX 80 35 20 36 79 37 21 38 22 39 23 40 73 41 24 42 78 43 72 44
REMARK SMILES IDX 74 45 25 46 77 47 71 48 70 49 26 51 58 52 38 53 57 54 39 55
REMARK SMILES IDX 42 56 56 57 75 58 40 59 41 60 55 62 76 63 43 64 27 65 28 66
REMARK SMILES IDX 36 67 29 68 31 69 37 70 30 71 32 72 33 73 34 74 35 75 59 76
REMARK SMILES IDX 60 77 68 78 61 79 63 80 69 81 62 82 64 83 65 84 66 85 67 86
REMARK SMILES IDX 44 87 45 88 53 89 46 90 48 91 54 92 47 93 49 94 50 95 51 96
REMARK SMILES IDX 52 97
REMARK H PARENT 83 17 74 50 42 61
REMARK Flexibility Score: inf
ROOT
ATOM      1  O   UNL     1       2.023  -1.112  -9.036  1.00  0.00    -0.374 OA
ENDROOT
BRANCH   1   2
ATOM      2  C   UNL     1       2.958  -0.040  -8.899  1.00  0.00     0.202 C 
BRANCH   2   3
ATOM      3  C   UNL     1       2.516   1.141  -8.031  1.00  0.00     0.261 C 
BRANCH   3   4
ATOM      4  O   UNL     1       2.393   0.756  -6.652  1.00  0.00    -0.460 OA
BRANCH   4   5
ATOM      5  C   UNL     1       1.131   0.694  -6.168  1.00  0.00     0.338 C 
ATOM      6  O   UNL     1       0.106   1.003  -6.765  1.00  0.00    -0.246 OA
BRANCH   5   7
ATOM      7  C   UNL     1       1.117   0.115  -4.798  1.00  0.00     0.062 A 
ATOM      8  C   UNL     1       0.976  -0.710  -2.155  1.00  0.00     0.142 A 
ATOM      9  C   UNL     1      -0.197  -0.601  -2.901  1.00  0.00     0.049 A 
ATOM     10  C   UNL     1       2.237  -0.464  -2.725  1.00  0.00     0.084 A 
ATOM     11  C   UNL     1      -0.127  -0.143  -4.212  1.00  0.00     0.019 A 
ATOM     12  C   UNL     1       2.297  -0.145  -4.080  1.00  0.00     0.045 A 
BRANCH   8  13
ATOM     13  O   UNL     1       0.862  -1.060  -0.831  1.00  0.00    -0.495 OA
ATOM     14  C   UNL     1       0.757   0.114  -0.017  1.00  0.00     0.278 C 
ENDBRANCH   8  13
BRANCH  10  15
ATOM     15  N   UNL     1       3.340  -0.492  -1.851  1.00  0.00    -0.319 N 
ATOM     16  C   UNL     1       4.628  -0.021  -1.896  1.00  0.00     0.262 C 
ATOM     17  H   UNL     1       3.140  -0.961  -1.009  1.00  0.00     0.170 HD
ATOM     18  O   UNL     1       5.363  -0.204  -0.925  1.00  0.00    -0.269 OA
BRANCH  16  19
ATOM     19  C   UNL     1       5.201   0.635  -3.081  1.00  0.00     0.117 A 
ATOM     20  C   UNL     1       6.286  -0.038  -3.663  1.00  0.00     0.021 A 
ATOM     21  C   UNL     1       4.737   1.817  -3.669  1.00  0.00     0.282 A 
ATOM     22  C   UNL     1       6.831   0.413  -4.863  1.00  0.00     0.001 A 
ATOM     23  C   UNL     1       5.260   2.248  -4.899  1.00  0.00     0.086 A 
ATOM     24  C   UNL     1       6.295   1.530  -5.498  1.00  0.00     0.007 A 
BRANCH  21  25
ATOM     25  N   UNL     1       3.651   2.589  -3.078  1.00  0.00     0.063 N 
ATOM     26  O   UNL     1       2.843   3.115  -3.860  1.00  0.00    -0.258 OA
ATOM     27  O   UNL     1       3.574   2.650  -1.845  1.00  0.00    -0.258 OA
ENDBRANCH  21  25
ENDBRANCH  16  19
ENDBRANCH  10  15
ENDBRANCH   5   7
ENDBRANCH   4   5
ENDBRANCH   3   4
ENDBRANCH   2   3
ENDBRANCH   1   2
BRANCH   1  28
ATOM     28  C   UNL     1       1.906  -2.023  -7.945  1.00  0.00     0.202 C 
BRANCH  28  29
ATOM     29  C   UNL     1       2.975  -3.115  -7.826  1.00  0.00     0.261 C 
BRANCH  29  30
ATOM     30  O   UNL     1       4.304  -2.591  -7.680  1.00  0.00    -0.460 OA
BRANCH  30  31
ATOM     31  C   UNL     1       5.057  -2.665  -8.803  1.00  0.00     0.338 C 
ATOM     32  O   UNL     1       4.730  -3.149  -9.880  1.00  0.00    -0.246 OA
BRANCH  31  33
ATOM     33  C   UNL     1       6.324  -1.937  -8.622  1.00  0.00     0.060 A 
ATOM     34  C   UNL     1       6.668  -0.981  -9.586  1.00  0.00     0.016 A 
ATOM     35  C   UNL     1       7.208  -2.252  -7.588  1.00  0.00     0.016 A 
ATOM     36  C   UNL     1       7.920  -0.371  -9.550  1.00  0.00     0.010 A 
ATOM     37  C   UNL     1       8.467  -1.643  -7.559  1.00  0.00     0.010 A 
ATOM     38  C   UNL     1       8.842  -0.724  -8.556  1.00  0.00    -0.014 A 
BRANCH  38  39
ATOM     39  C   UNL     1      10.244  -0.242  -8.641  1.00  0.00     0.031 A 
ATOM     40  C   UNL     1      11.315  -1.189  -9.112  1.00  0.00     0.074 A 
ATOM     41  C   UNL     1      10.562   1.022  -8.305  1.00  0.00     0.049 A 
ATOM     42  N   UNL     1      12.602  -0.991  -9.221  1.00  0.00    -0.248 NA
ATOM     43  C   UNL     1      10.876  -2.535  -9.515  1.00  0.00     0.031 C 
ATOM     44  C   UNL     1       9.616   2.038  -7.852  1.00  0.00     0.029 A 
ATOM     45  N   UNL     1      11.777   1.659  -8.271  1.00  0.00    -0.354 N 
ATOM     46  C   UNL     1      13.130  -2.188  -9.689  1.00  0.00     0.074 A 
ATOM     47  C   UNL     1      12.028  -3.116  -9.817  1.00  0.00     0.031 C 
ATOM     48  C   UNL     1      10.287   3.160  -7.545  1.00  0.00     0.029 A 
ATOM     49  C   UNL     1      11.714   2.939  -7.771  1.00  0.00     0.049 A 
ATOM     50  H   UNL     1      12.614   1.241  -8.575  1.00  0.00     0.167 HD
ATOM     51  C   UNL     1      14.412  -2.482 -10.012  1.00  0.00     0.034 A 
ATOM     52  C   UNL     1      12.696   3.826  -7.512  1.00  0.00     0.034 A 
ATOM     53  C   UNL     1      15.505  -1.554  -9.903  1.00  0.00     0.049 A 
ATOM     54  C   UNL     1      14.120   3.458  -7.841  1.00  0.00     0.074 A 
ATOM     55  C   UNL     1      16.837  -1.752 -10.224  1.00  0.00     0.029 A 
ATOM     56  N   UNL     1      15.395  -0.254  -9.437  1.00  0.00    -0.354 N 
ATOM     57  N   UNL     1      14.585   2.359  -8.384  1.00  0.00    -0.248 NA
ATOM     58  C   UNL     1      15.150   4.469  -7.559  1.00  0.00     0.031 C 
ATOM     59  C   UNL     1      17.535  -0.575  -9.937  1.00  0.00     0.029 A 
ATOM     60  C   UNL     1      16.634   0.363  -9.459  1.00  0.00     0.049 A 
ATOM     61  H   UNL     1      14.559   0.169  -9.134  1.00  0.00     0.167 HD
ATOM     62  C   UNL     1      15.951   2.562  -8.547  1.00  0.00     0.074 A 
ATOM     63  C   UNL     1      16.235   3.898  -8.064  1.00  0.00     0.031 C 
ATOM     64  C   UNL     1      16.889   1.716  -9.037  1.00  0.00     0.034 A 
BRANCH  51  65
ATOM     65  C   UNL     1      14.695  -3.854 -10.562  1.00  0.00     0.023 A 
ATOM     66  C   UNL     1      14.295  -4.166 -11.878  1.00  0.00     0.012 A 
ATOM     67  C   UNL     1      15.402  -4.810  -9.808  1.00  0.00     0.148 A 
ATOM     68  C   UNL     1      14.571  -5.418 -12.426  1.00  0.00     0.002 A 
ATOM     69  C   UNL     1      15.710  -6.041 -10.376  1.00  0.00     0.091 A 
ATOM     70  F   UNL     1      15.753  -4.501  -8.552  1.00  0.00    -0.205 F 
ATOM     71  C   UNL     1      15.287  -6.350 -11.680  1.00  0.00     0.022 A 
BRANCH  69  72
ATOM     72  S   UNL     1      16.689  -7.284  -9.526  1.00  0.00     0.127 S 
ATOM     73  O   UNL     1      15.688  -8.317  -9.261  1.00  0.00    -0.237 OA
ATOM     74  O   UNL     1      17.680  -7.641 -10.541  1.00  0.00    -0.237 OA
ATOM     75  O   UNL     1      17.235  -6.628  -8.346  1.00  0.00    -0.744 OA
ENDBRANCH  69  72
ENDBRANCH  51  65
BRANCH  52  76
ATOM     76  C   UNL     1      12.371   5.165  -6.944  1.00  0.00     0.023 A 
ATOM     77  C   UNL     1      12.562   6.320  -7.726  1.00  0.00     0.012 A 
ATOM     78  C   UNL     1      11.882   5.301  -5.630  1.00  0.00     0.148 A 
ATOM     79  C   UNL     1      12.311   7.587  -7.199  1.00  0.00     0.002 A 
ATOM     80  C   UNL     1      11.579   6.562  -5.130  1.00  0.00     0.091 A 
ATOM     81  F   UNL     1      11.724   4.193  -4.892  1.00  0.00    -0.205 F 
ATOM     82  C   UNL     1      11.811   7.708  -5.905  1.00  0.00     0.022 A 
BRANCH  80  83
ATOM     83  S   UNL     1      10.803   6.789  -3.527  1.00  0.00     0.127 S 
ATOM     84  O   UNL     1      11.926   7.244  -2.712  1.00  0.00    -0.237 OA
ATOM     85  O   UNL     1       9.796   7.810  -3.817  1.00  0.00    -0.237 OA
ATOM     86  O   UNL     1      10.247   5.487  -3.183  1.00  0.00    -0.744 OA
ENDBRANCH  80  83
ENDBRANCH  52  76
BRANCH  64  87
ATOM     87  C   UNL     1      18.307   2.216  -9.123  1.00  0.00     0.023 A 
ATOM     88  C   UNL     1      19.072   2.364  -7.949  1.00  0.00     0.012 A 
ATOM     89  C   UNL     1      18.904   2.470 -10.375  1.00  0.00     0.148 A 
ATOM     90  C   UNL     1      20.398   2.787  -8.017  1.00  0.00     0.002 A 
ATOM     91  C   UNL     1      20.241   2.845 -10.437  1.00  0.00     0.091 A 
ATOM     92  F   UNL     1      18.154   2.342 -11.479  1.00  0.00    -0.205 F 
ATOM     93  C   UNL     1      20.986   3.016  -9.259  1.00  0.00     0.022 A 
BRANCH  91  94
ATOM     94  S   UNL     1      21.105   3.069 -11.996  1.00  0.00     0.127 S 
ATOM     95  O   UNL     1      21.239   4.524 -12.056  1.00  0.00    -0.237 OA
ATOM     96  O   UNL     1      22.359   2.351 -11.762  1.00  0.00    -0.237 OA
ATOM     97  O   UNL     1      20.252   2.476 -13.016  1.00  0.00    -0.744 OA
ENDBRANCH  91  94
ENDBRANCH  64  87
ENDBRANCH  38  39
ENDBRANCH  31  33
ENDBRANCH  30  31
ENDBRANCH  29  30
ENDBRANCH  28  29
ENDBRANCH   1  28
TORSDOF 21
