REMARK SMILES C[NH2+][C@]1(C(=O)OCCOCCOC(=O)c2ccc(-c3c4nc(c(-c5cccc(S(=O)(=O)[O-])c5F)c5ccc([nH]5)c(-c5cccc(S(=O)(=O)[O-])c5F)c5nc(c(-c6cccc(S(=O)(=O)[O-])c6F)c6ccc3[nH]6)C=C5)C=C4)cc2)CCC[C@H](Oc2ccc(C)cc2)C1
REMARK SMILES IDX 10 1 9 2 8 3 7 4 6 5 4 6 5 7 3 8 78 9 90 10 79 11 81 12
REMARK SMILES IDX 80 13 2 14 1 15 82 18 83 19 84 20 89 21 85 22 88 23 86 24
REMARK SMILES IDX 87 25 11 26 12 27 13 28 14 29 15 30 16 31 77 32 17 33 76 34
REMARK SMILES IDX 18 35 19 36 20 37 70 38 21 39 75 40 69 41 71 42 22 43 74 44
REMARK SMILES IDX 68 45 67 46 23 48 55 49 35 50 54 51 36 52 39 53 53 54 72 55
REMARK SMILES IDX 37 56 38 57 52 59 73 60 40 61 24 62 25 63 33 64 26 65 28 66
REMARK SMILES IDX 34 67 27 68 29 69 30 70 31 71 32 72 56 73 57 74 65 75 58 76
REMARK SMILES IDX 60 77 66 78 59 79 61 80 62 81 63 82 64 83 41 84 42 85 50 86
REMARK SMILES IDX 43 87 45 88 51 89 44 90 46 91 47 92 48 93 49 94
REMARK H PARENT 2 16 2 17 71 47 39 58
REMARK Flexibility Score: inf
ROOT
ATOM      1  C   UNL     1       1.998  -2.404   1.050  1.00  0.00     0.202 C 
ENDROOT
BRANCH   1   2
ATOM      2  O   UNL     1       3.218  -1.691   0.863  1.00  0.00    -0.374 OA
BRANCH   2   3
ATOM      3  C   UNL     1       3.555  -0.698   1.831  1.00  0.00     0.202 C 
BRANCH   3   4
ATOM      4  C   UNL     1       2.707   0.580   1.875  1.00  0.00     0.261 C 
BRANCH   4   5
ATOM      5  O   UNL     1       1.305   0.306   2.032  1.00  0.00    -0.459 OA
BRANCH   5   6
ATOM      6  C   UNL     1       0.487   0.919   1.131  1.00  0.00     0.368 C 
ATOM      7  O   UNL     1       0.861   1.774   0.332  1.00  0.00    -0.245 OA
BRANCH   6   8
ATOM      8  C   UNL     1      -0.993   0.444   1.236  1.00  0.00     0.197 C 
ATOM      9  C   UNL     1      -1.223  -0.898   1.971  1.00  0.00     0.081 C 
ATOM     10  C   UNL     1      -1.698   1.573   2.049  1.00  0.00     0.126 C 
ATOM     11  C   UNL     1      -2.698  -1.180   2.270  1.00  0.00     0.011 C 
ATOM     12  C   UNL     1      -3.188   1.317   2.328  1.00  0.00     0.180 C 
ATOM     13  C   UNL     1      -3.345  -0.035   3.038  1.00  0.00     0.046 C 
BRANCH   8  14
ATOM     14  N   UNL     1      -1.596   0.321  -0.127  1.00  0.00    -0.334 N 
ATOM     15  C   UNL     1      -0.773  -0.302  -1.151  1.00  0.00     0.331 C 
ATOM     16  H   UNL     1      -2.450  -0.230  -0.039  1.00  0.00     0.347 HD
ATOM     17  H   UNL     1      -1.739   1.279  -0.445  1.00  0.00     0.347 HD
ENDBRANCH   8  14
BRANCH  12  18
ATOM     18  O   UNL     1      -3.831   1.383   1.053  1.00  0.00    -0.490 OA
BRANCH  18  19
ATOM     19  C   UNL     1      -5.179   1.302   0.926  1.00  0.00     0.119 A 
ATOM     20  C   UNL     1      -6.114   1.418   1.947  1.00  0.00     0.047 A 
ATOM     21  C   UNL     1      -5.610   1.082  -0.384  1.00  0.00     0.047 A 
ATOM     22  C   UNL     1      -7.475   1.270   1.661  1.00  0.00     0.007 A 
ATOM     23  C   UNL     1      -6.965   0.944  -0.675  1.00  0.00     0.007 A 
ATOM     24  C   UNL     1      -7.910   1.033   0.350  1.00  0.00    -0.051 A 
ATOM     25  C   UNL     1      -9.368   0.839   0.063  1.00  0.00     0.044 C 
ENDBRANCH  18  19
ENDBRANCH  12  18
ENDBRANCH   6   8
ENDBRANCH   5   6
ENDBRANCH   4   5
ENDBRANCH   3   4
ENDBRANCH   2   3
ENDBRANCH   1   2
BRANCH   1  26
ATOM     26  C   UNL     1       1.899  -3.385   2.228  1.00  0.00     0.261 C 
BRANCH  26  27
ATOM     27  O   UNL     1       2.079  -2.761   3.511  1.00  0.00    -0.460 OA
BRANCH  27  28
ATOM     28  C   UNL     1       3.178  -3.174   4.188  1.00  0.00     0.338 C 
ATOM     29  O   UNL     1       3.967  -4.050   3.851  1.00  0.00    -0.246 OA
BRANCH  28  30
ATOM     30  C   UNL     1       3.440  -2.291   5.337  1.00  0.00     0.060 A 
ATOM     31  C   UNL     1       4.670  -1.620   5.368  1.00  0.00     0.016 A 
ATOM     32  C   UNL     1       2.551  -2.198   6.409  1.00  0.00     0.016 A 
ATOM     33  C   UNL     1       5.038  -0.890   6.495  1.00  0.00     0.010 A 
ATOM     34  C   UNL     1       2.929  -1.474   7.546  1.00  0.00     0.010 A 
ATOM     35  C   UNL     1       4.189  -0.851   7.608  1.00  0.00    -0.014 A 
BRANCH  35  36
ATOM     36  C   UNL     1       4.695  -0.289   8.883  1.00  0.00     0.031 A 
ATOM     37  C   UNL     1       5.215  -1.228   9.938  1.00  0.00     0.074 A 
ATOM     38  C   UNL     1       4.711   1.039   9.090  1.00  0.00     0.049 A 
ATOM     39  N   UNL     1       5.703  -0.956  11.119  1.00  0.00    -0.248 NA
ATOM     40  C   UNL     1       5.179  -2.665   9.617  1.00  0.00     0.031 C 
ATOM     41  C   UNL     1       4.239   2.046   8.142  1.00  0.00     0.029 A 
ATOM     42  N   UNL     1       5.123   1.766  10.178  1.00  0.00    -0.354 N 
ATOM     43  C   UNL     1       6.013  -2.184  11.692  1.00  0.00     0.074 A 
ATOM     44  C   UNL     1       5.644  -3.204  10.735  1.00  0.00     0.031 C 
ATOM     45  C   UNL     1       4.361   3.262   8.702  1.00  0.00     0.029 A 
ATOM     46  C   UNL     1       4.901   3.117  10.053  1.00  0.00     0.049 A 
ATOM     47  H   UNL     1       5.539   1.360  10.973  1.00  0.00     0.167 HD
ATOM     48  C   UNL     1       6.572  -2.440  12.899  1.00  0.00     0.034 A 
ATOM     49  C   UNL     1       5.094   4.117  10.935  1.00  0.00     0.034 A 
ATOM     50  C   UNL     1       6.955  -1.424  13.841  1.00  0.00     0.049 A 
ATOM     51  C   UNL     1       5.699   3.806  12.280  1.00  0.00     0.074 A 
ATOM     52  C   UNL     1       7.566  -1.579  15.073  1.00  0.00     0.029 A 
ATOM     53  N   UNL     1       6.756  -0.064  13.661  1.00  0.00    -0.354 N 
ATOM     54  N   UNL     1       6.098   2.651  12.758  1.00  0.00    -0.248 NA
ATOM     55  C   UNL     1       5.914   4.938  13.192  1.00  0.00     0.031 C 
ATOM     56  C   UNL     1       7.717  -0.312  15.647  1.00  0.00     0.029 A 
ATOM     57  C   UNL     1       7.221   0.633  14.763  1.00  0.00     0.049 A 
ATOM     58  H   UNL     1       6.343   0.346  12.867  1.00  0.00     0.167 HD
ATOM     59  C   UNL     1       6.640   2.922  14.010  1.00  0.00     0.074 A 
ATOM     60  C   UNL     1       6.537   4.354  14.207  1.00  0.00     0.031 C 
ATOM     61  C   UNL     1       7.161   2.064  14.921  1.00  0.00     0.034 A 
BRANCH  48  62
ATOM     62  C   UNL     1       6.832  -3.879  13.256  1.00  0.00     0.023 A 
ATOM     63  C   UNL     1       7.891  -4.569  12.631  1.00  0.00     0.012 A 
ATOM     64  C   UNL     1       6.066  -4.532  14.240  1.00  0.00     0.148 A 
ATOM     65  C   UNL     1       8.165  -5.896  12.959  1.00  0.00     0.002 A 
ATOM     66  C   UNL     1       6.371  -5.842  14.592  1.00  0.00     0.091 A 
ATOM     67  F   UNL     1       5.048  -3.868  14.805  1.00  0.00    -0.205 F 
ATOM     68  C   UNL     1       7.413  -6.529  13.946  1.00  0.00     0.022 A 
BRANCH  66  69
ATOM     69  S   UNL     1       5.507  -6.719  15.900  1.00  0.00     0.127 S 
ATOM     70  O   UNL     1       4.710  -7.677  15.136  1.00  0.00    -0.237 OA
ATOM     71  O   UNL     1       6.610  -7.311  16.657  1.00  0.00    -0.237 OA
ATOM     72  O   UNL     1       4.747  -5.709  16.624  1.00  0.00    -0.744 OA
ENDBRANCH  66  69
ENDBRANCH  48  62
BRANCH  49  73
ATOM     73  C   UNL     1       4.741   5.516  10.559  1.00  0.00     0.023 A 
ATOM     74  C   UNL     1       5.763   6.463  10.358  1.00  0.00     0.012 A 
ATOM     75  C   UNL     1       3.399   5.903  10.377  1.00  0.00     0.148 A 
ATOM     76  C   UNL     1       5.453   7.778  10.008  1.00  0.00     0.002 A 
ATOM     77  C   UNL     1       3.101   7.199   9.974  1.00  0.00     0.091 A 
ATOM     78  F   UNL     1       2.440   4.992  10.594  1.00  0.00    -0.205 F 
ATOM     79  C   UNL     1       4.125   8.143   9.805  1.00  0.00     0.022 A 
BRANCH  77  80
ATOM     80  S   UNL     1       1.430   7.714   9.562  1.00  0.00     0.127 S 
ATOM     81  O   UNL     1       1.089   8.565  10.699  1.00  0.00    -0.237 OA
ATOM     82  O   UNL     1       1.634   8.424   8.299  1.00  0.00    -0.237 OA
ATOM     83  O   UNL     1       0.661   6.483   9.437  1.00  0.00    -0.744 OA
ENDBRANCH  77  80
ENDBRANCH  49  73
BRANCH  61  84
ATOM     84  C   UNL     1       7.693   2.643  16.206  1.00  0.00     0.023 A 
ATOM     85  C   UNL     1       6.795   3.107  17.187  1.00  0.00     0.012 A 
ATOM     86  C   UNL     1       9.076   2.651  16.475  1.00  0.00     0.148 A 
ATOM     87  C   UNL     1       7.266   3.598  18.404  1.00  0.00     0.002 A 
ATOM     88  C   UNL     1       9.536   3.099  17.708  1.00  0.00     0.091 A 
ATOM     89  F   UNL     1       9.916   2.223  15.522  1.00  0.00    -0.205 F 
ATOM     90  C   UNL     1       8.633   3.582  18.669  1.00  0.00     0.022 A 
BRANCH  88  91
ATOM     91  S   UNL     1      11.270   3.026  18.171  1.00  0.00     0.127 S 
ATOM     92  O   UNL     1      11.661   4.432  18.082  1.00  0.00    -0.237 OA
ATOM     93  O   UNL     1      11.208   2.496  19.534  1.00  0.00    -0.237 OA
ATOM     94  O   UNL     1      11.904   2.136  17.207  1.00  0.00    -0.744 OA
ENDBRANCH  88  91
ENDBRANCH  61  84
ENDBRANCH  35  36
ENDBRANCH  28  30
ENDBRANCH  27  28
ENDBRANCH  26  27
ENDBRANCH   1  26
TORSDOF 20
