REMARK SMILES Cc1cc(C(=O)N[C@@H]2C(=O)N3C(C(=O)OCCOCCOC(=O)c4ccc(-c5c6nc(c(-c7cccc(S(=O)(=O)[O-])c7F)c7ccc([nH]7)c(-c7cccc(S(=O)(=O)[O-])c7F)c7nc(c(-c8cccc(S(=O)(=O)[O-])c8F)c8ccc5[nH]8)C=C7)C=C6)cc4)=C(CSc4nnc(C)s4)CS[C@H]23)n(C)n1
REMARK SMILES IDX 18 1 17 2 16 3 15 4 13 5 14 6 12 7 8 8 9 9 98 10 10 11 11 12
REMARK SMILES IDX 97 13 96 14 87 15 7 16 5 17 6 18 4 20 1 21 2 22 3 23 101 24
REMARK SMILES IDX 99 25 100 26 88 27 89 28 90 29 91 30 95 31 92 32 93 33 94 34
REMARK SMILES IDX 19 35 20 36 21 37 22 38 23 39 24 40 25 41 86 42 26 43 85 44
REMARK SMILES IDX 27 45 28 46 29 47 79 48 30 49 84 50 78 51 80 52 31 53 83 54
REMARK SMILES IDX 77 55 76 56 32 58 64 59 44 60 63 61 45 62 48 63 62 64 81 65
REMARK SMILES IDX 46 66 47 67 61 69 82 70 49 71 33 72 34 73 42 74 35 75 37 76
REMARK SMILES IDX 43 77 36 78 38 79 39 80 40 81 41 82 65 83 66 84 74 85 67 86
REMARK SMILES IDX 69 87 75 88 68 89 70 90 71 91 72 92 73 93 50 94 51 95 59 96
REMARK SMILES IDX 52 97 54 98 60 99 53 100 55 101 56 102 57 103 58 104
REMARK H PARENT 7 19 80 57 48 68
REMARK Flexibility Score: inf
ROOT
ATOM      1  O   UNL     1      -3.291   1.611  -1.236  1.00  0.00    -0.374 OA
ENDROOT
BRANCH   1   2
ATOM      2  C   UNL     1      -3.765   1.656  -2.581  1.00  0.00     0.202 C 
BRANCH   2   3
ATOM      3  C   UNL     1      -3.033   0.814  -3.624  1.00  0.00     0.261 C 
BRANCH   3   4
ATOM      4  O   UNL     1      -3.281  -0.584  -3.400  1.00  0.00    -0.459 OA
BRANCH   4   5
ATOM      5  C   UNL     1      -2.198  -1.306  -3.054  1.00  0.00     0.355 C 
ATOM      6  O   UNL     1      -1.039  -0.904  -3.055  1.00  0.00    -0.244 OA
BRANCH   5   7
ATOM      7  C   UNL     1      -2.526  -2.698  -2.605  1.00  0.00     0.132 C 
ATOM      8  C   UNL     1      -0.303  -4.114  -0.446  1.00  0.00     0.206 C 
ATOM      9  C   UNL     1      -1.093  -2.771  -0.510  1.00  0.00     0.253 C 
ATOM     10  C   UNL     1      -1.231  -4.536  -1.626  1.00  0.00     0.181 C 
ATOM     11  O   UNL     1      -1.190  -1.778   0.166  1.00  0.00    -0.272 OA
ATOM     12  N   UNL     1      -1.667  -3.176  -1.666  1.00  0.00    -0.289 N 
ATOM     13  S   UNL     1      -2.703  -5.521  -1.279  1.00  0.00    -0.129 SA
ATOM     14  C   UNL     1      -3.475  -5.040  -2.849  1.00  0.00     0.106 C 
ATOM     15  C   UNL     1      -3.450  -3.536  -3.147  1.00  0.00    -0.019 C 
BRANCH   8  16
ATOM     16  N   UNL     1      -0.296  -4.950   0.777  1.00  0.00    -0.336 N 
ATOM     17  C   UNL     1       0.031  -6.294   0.873  1.00  0.00     0.270 C 
ATOM     18  O   UNL     1      -0.004  -6.813   1.987  1.00  0.00    -0.268 OA
ATOM     19  H   UNL     1      -0.552  -4.501   1.615  1.00  0.00     0.164 HD
BRANCH  17  20
ATOM     20  C   UNL     1       0.326  -7.028  -0.344  1.00  0.00     0.126 A 
ATOM     21  C   UNL     1       0.403  -7.388  -3.968  1.00  0.00     0.069 C 
ATOM     22  C   UNL     1       0.460  -7.558  -2.495  1.00  0.00     0.060 A 
ATOM     23  C   UNL     1       0.924  -6.636  -1.534  1.00  0.00     0.059 A 
ATOM     24  N   UNL     1      -0.043  -8.642  -1.906  1.00  0.00    -0.178 NA
ATOM     25  N   UNL     1      -0.010  -8.342  -0.587  1.00  0.00    -0.263 N 
ATOM     26  C   UNL     1      -0.345  -9.394   0.343  1.00  0.00     0.174 C 
ENDBRANCH  17  20
ENDBRANCH   8  16
BRANCH  15  27
ATOM     27  C   UNL     1      -4.499  -3.162  -4.167  1.00  0.00     0.111 C 
BRANCH  27  28
ATOM     28  S   UNL     1      -6.003  -2.385  -3.525  1.00  0.00    -0.089 SA
BRANCH  28  29
ATOM     29  C   UNL     1      -6.492  -3.224  -2.074  1.00  0.00     0.174 A 
ATOM     30  N   UNL     1      -5.723  -4.025  -1.374  1.00  0.00    -0.132 NA
ATOM     31  S   UNL     1      -8.019  -2.957  -1.332  1.00  0.00    -0.091 S 
ATOM     32  N   UNL     1      -6.258  -4.353  -0.144  1.00  0.00    -0.143 NA
ATOM     33  C   UNL     1      -7.416  -3.764   0.053  1.00  0.00     0.115 A 
ATOM     34  C   UNL     1      -8.150  -3.726   1.342  1.00  0.00     0.081 C 
ENDBRANCH  28  29
ENDBRANCH  27  28
ENDBRANCH  15  27
ENDBRANCH   5   7
ENDBRANCH   4   5
ENDBRANCH   3   4
ENDBRANCH   2   3
ENDBRANCH   1   2
BRANCH   1  35
ATOM     35  C   UNL     1      -3.483   0.408  -0.495  1.00  0.00     0.202 C 
BRANCH  35  36
ATOM     36  C   UNL     1      -4.887   0.090   0.037  1.00  0.00     0.261 C 
BRANCH  36  37
ATOM     37  O   UNL     1      -5.922   0.168  -0.953  1.00  0.00    -0.460 OA
BRANCH  37  38
ATOM     38  C   UNL     1      -6.628   1.327  -0.948  1.00  0.00     0.338 C 
ATOM     39  O   UNL     1      -6.514   2.265  -0.179  1.00  0.00    -0.246 OA
BRANCH  38  40
ATOM     40  C   UNL     1      -7.491   1.362  -2.142  1.00  0.00     0.060 A 
ATOM     41  C   UNL     1      -7.304   2.372  -3.090  1.00  0.00     0.016 A 
ATOM     42  C   UNL     1      -8.508   0.425  -2.302  1.00  0.00     0.016 A 
ATOM     43  C   UNL     1      -8.156   2.457  -4.191  1.00  0.00     0.010 A 
ATOM     44  C   UNL     1      -9.327   0.476  -3.428  1.00  0.00     0.010 A 
ATOM     45  C   UNL     1      -9.193   1.525  -4.351  1.00  0.00    -0.014 A 
BRANCH  45  46
ATOM     46  C   UNL     1     -10.243   1.736  -5.379  1.00  0.00     0.031 A 
ATOM     47  C   UNL     1     -11.638   2.088  -4.931  1.00  0.00     0.074 A 
ATOM     48  C   UNL     1      -9.966   1.600  -6.689  1.00  0.00     0.049 A 
ATOM     49  N   UNL     1     -12.718   2.268  -5.646  1.00  0.00    -0.248 NA
ATOM     50  C   UNL     1     -11.851   2.237  -3.480  1.00  0.00     0.031 C 
ATOM     51  C   UNL     1      -8.663   1.239  -7.246  1.00  0.00     0.029 A 
ATOM     52  N   UNL     1     -10.778   1.728  -7.788  1.00  0.00    -0.354 N 
ATOM     53  C   UNL     1     -13.740   2.506  -4.734  1.00  0.00     0.074 A 
ATOM     54  C   UNL     1     -13.161   2.415  -3.413  1.00  0.00     0.031 C 
ATOM     55  C   UNL     1      -8.766   1.165  -8.584  1.00  0.00     0.029 A 
ATOM     56  C   UNL     1     -10.146   1.440  -8.975  1.00  0.00     0.049 A 
ATOM     57  H   UNL     1     -11.722   2.001  -7.732  1.00  0.00     0.167 HD
ATOM     58  C   UNL     1     -15.040   2.800  -4.972  1.00  0.00     0.034 A 
ATOM     59  C   UNL     1     -10.633   1.384 -10.230  1.00  0.00     0.034 A 
ATOM     60  C   UNL     1     -15.604   2.926  -6.287  1.00  0.00     0.049 A 
ATOM     61  C   UNL     1     -12.084   1.712 -10.471  1.00  0.00     0.074 A 
ATOM     62  C   UNL     1     -16.891   3.291  -6.639  1.00  0.00     0.029 A 
ATOM     63  N   UNL     1     -14.921   2.677  -7.467  1.00  0.00    -0.354 N 
ATOM     64  N   UNL     1     -13.007   2.058  -9.607  1.00  0.00    -0.248 NA
ATOM     65  C   UNL     1     -12.551   1.676 -11.865  1.00  0.00     0.031 C 
ATOM     66  C   UNL     1     -16.997   3.220  -8.032  1.00  0.00     0.029 A 
ATOM     67  C   UNL     1     -15.763   2.861  -8.549  1.00  0.00     0.049 A 
ATOM     68  H   UNL     1     -13.975   2.408  -7.526  1.00  0.00     0.167 HD
ATOM     69  C   UNL     1     -14.152   2.318 -10.354  1.00  0.00     0.074 A 
ATOM     70  C   UNL     1     -13.799   2.107 -11.742  1.00  0.00     0.031 C 
ATOM     71  C   UNL     1     -15.385   2.691  -9.929  1.00  0.00     0.034 A 
BRANCH  58  72
ATOM     72  C   UNL     1     -15.936   3.028  -3.781  1.00  0.00     0.023 A 
ATOM     73  C   UNL     1     -15.763   4.174  -2.976  1.00  0.00     0.012 A 
ATOM     74  C   UNL     1     -16.978   2.128  -3.483  1.00  0.00     0.148 A 
ATOM     75  C   UNL     1     -16.583   4.397  -1.871  1.00  0.00     0.002 A 
ATOM     76  C   UNL     1     -17.824   2.385  -2.411  1.00  0.00     0.091 A 
ATOM     77  F   UNL     1     -17.115   1.033  -4.244  1.00  0.00    -0.205 F 
ATOM     78  C   UNL     1     -17.619   3.510  -1.595  1.00  0.00     0.022 A 
BRANCH  76  79
ATOM     79  S   UNL     1     -19.238   1.348  -2.023  1.00  0.00     0.127 S 
ATOM     80  O   UNL     1     -18.818   0.735  -0.763  1.00  0.00    -0.237 OA
ATOM     81  O   UNL     1     -20.313   2.333  -1.894  1.00  0.00    -0.237 OA
ATOM     82  O   UNL     1     -19.385   0.430  -3.144  1.00  0.00    -0.744 OA
ENDBRANCH  76  79
ENDBRANCH  58  72
BRANCH  59  83
ATOM     83  C   UNL     1      -9.729   1.038 -11.364  1.00  0.00     0.023 A 
ATOM     84  C   UNL     1      -9.398   2.020 -12.317  1.00  0.00     0.012 A 
ATOM     85  C   UNL     1      -9.180  -0.253 -11.489  1.00  0.00     0.148 A 
ATOM     86  C   UNL     1      -8.563   1.715 -13.393  1.00  0.00     0.002 A 
ATOM     87  C   UNL     1      -8.302  -0.534 -12.529  1.00  0.00     0.091 A 
ATOM     88  F   UNL     1      -9.516  -1.177 -10.578  1.00  0.00    -0.205 F 
ATOM     89  C   UNL     1      -8.007   0.442 -13.493  1.00  0.00     0.022 A 
BRANCH  87  90
ATOM     90  S   UNL     1      -7.434  -2.101 -12.662  1.00  0.00     0.127 S 
ATOM     91  O   UNL     1      -8.017  -2.664 -13.877  1.00  0.00    -0.237 OA
ATOM     92  O   UNL     1      -6.044  -1.663 -12.790  1.00  0.00    -0.237 OA
ATOM     93  O   UNL     1      -7.725  -2.822 -11.430  1.00  0.00    -0.744 OA
ENDBRANCH  87  90
ENDBRANCH  59  83
BRANCH  71  94
ATOM     94  C   UNL     1     -16.441   2.945 -10.974  1.00  0.00     0.023 A 
ATOM     95  C   UNL     1     -17.000   1.870 -11.693  1.00  0.00     0.012 A 
ATOM     96  C   UNL     1     -16.932   4.249 -11.186  1.00  0.00     0.148 A 
ATOM     97  C   UNL     1     -18.006   2.094 -12.633  1.00  0.00     0.002 A 
ATOM     98  C   UNL     1     -17.972   4.457 -12.084  1.00  0.00     0.091 A 
ATOM     99  F   UNL     1     -16.378   5.260 -10.502  1.00  0.00    -0.205 F 
ATOM    100  C   UNL     1     -18.499   3.384 -12.819  1.00  0.00     0.022 A 
BRANCH  98 101
ATOM    101  S   UNL     1     -18.740   6.064 -12.315  1.00  0.00     0.127 S 
ATOM    102  O   UNL     1     -18.305   6.409 -13.668  1.00  0.00    -0.237 OA
ATOM    103  O   UNL     1     -20.163   5.746 -12.193  1.00  0.00    -0.237 OA
ATOM    104  O   UNL     1     -18.217   6.918 -11.257  1.00  0.00    -0.744 OA
ENDBRANCH  98 101
ENDBRANCH  71  94
ENDBRANCH  45  46
ENDBRANCH  38  40
ENDBRANCH  37  38
ENDBRANCH  36  37
ENDBRANCH  35  36
ENDBRANCH   1  35
TORSDOF 22
