REMARK SMILES NS(=O)(=O)c1ccc(N2N=C(C(=O)OCCOCCOC(=O)c3ccc(-c4c5nc(c(-c6cccc(S(=O)(=O)[O-])c6F)c6ccc([nH]6)c(-c6cccc(S(=O)(=O)[O-])c6F)c6nc(c(-c7cccc(S(=O)(=O)[O-])c7F)c7ccc4[nH]7)C=C6)C=C5)cc3)C[C@H]2c2cccs2)cc1
REMARK SMILES IDX 17 1 16 2 15 3 14 4 12 5 13 6 11 7 9 8 10 9 87 10 86 11 8 12
REMARK SMILES IDX 5 13 6 14 94 15 7 16 93 17 2 18 3 19 4 20 1 21 88 24 89 25
REMARK SMILES IDX 92 26 90 27 91 28 18 29 19 30 20 31 21 32 22 33 23 34 24 35
REMARK SMILES IDX 85 36 25 37 84 38 26 39 27 40 28 41 78 42 29 43 83 44 77 45
REMARK SMILES IDX 79 46 30 47 82 48 76 49 75 50 31 52 63 53 43 54 62 55 44 56
REMARK SMILES IDX 47 57 61 58 80 59 45 60 46 61 60 63 81 64 48 65 32 66 33 67
REMARK SMILES IDX 41 68 34 69 36 70 42 71 35 72 37 73 38 74 39 75 40 76 64 77
REMARK SMILES IDX 65 78 73 79 66 80 68 81 74 82 67 83 69 84 70 85 71 86 72 87
REMARK SMILES IDX 49 88 50 89 58 90 51 91 53 92 59 93 52 94 54 95 55 96 56 97
REMARK SMILES IDX 57 98
REMARK H PARENT 1 22 1 23 79 51 47 62
REMARK Flexibility Score: inf
ROOT
ATOM      1  O   UNL     1       6.226  -1.868   9.479  1.00  0.00    -0.374 OA
ENDROOT
BRANCH   1   2
ATOM      2  C   UNL     1       6.392  -1.082  10.662  1.00  0.00     0.202 C 
BRANCH   2   3
ATOM      3  C   UNL     1       6.409   0.433  10.445  1.00  0.00     0.261 C 
BRANCH   3   4
ATOM      4  O   UNL     1       5.142   0.863   9.927  1.00  0.00    -0.459 OA
BRANCH   4   5
ATOM      5  C   UNL     1       5.205   1.546   8.768  1.00  0.00     0.354 C 
ATOM      6  O   UNL     1       6.184   2.027   8.230  1.00  0.00    -0.245 OA
BRANCH   5   7
ATOM      7  C   UNL     1       3.850   1.519   8.109  1.00  0.00     0.148 C 
ATOM      8  N   UNL     1       2.359   1.460   6.612  1.00  0.00    -0.256 N 
ATOM      9  N   UNL     1       3.702   1.348   6.829  1.00  0.00    -0.169 NA
ATOM     10  C   UNL     1       1.665   2.069   7.763  1.00  0.00     0.154 C 
ATOM     11  C   UNL     1       2.584   1.603   8.905  1.00  0.00     0.099 C 
BRANCH   8  12
ATOM     12  C   UNL     1       1.907   1.474   5.303  1.00  0.00     0.060 A 
ATOM     13  C   UNL     1       1.067   1.428   2.622  1.00  0.00     0.082 A 
ATOM     14  C   UNL     1       1.059   0.248   3.369  1.00  0.00     0.024 A 
ATOM     15  C   UNL     1       1.502   2.624   3.192  1.00  0.00     0.024 A 
ATOM     16  C   UNL     1       1.481   0.279   4.703  1.00  0.00     0.029 A 
ATOM     17  C   UNL     1       1.928   2.636   4.523  1.00  0.00     0.029 A 
BRANCH  13  18
ATOM     18  S   UNL     1       0.559   1.401   0.931  1.00  0.00     0.238 S 
ATOM     19  O   UNL     1       1.126   2.542   0.241  1.00  0.00    -0.207 OA
ATOM     20  O   UNL     1      -0.843   1.079   0.872  1.00  0.00    -0.207 OA
BRANCH  18  21
ATOM     21  N   UNL     1       1.373   0.072   0.301  1.00  0.00    -0.225 NA
ATOM     22  H   UNL     1       1.143  -0.030  -0.687  1.00  0.00     0.137 HD
ATOM     23  H   UNL     1       1.093  -0.769   0.805  1.00  0.00     0.137 HD
ENDBRANCH  18  21
ENDBRANCH  13  18
ENDBRANCH   8  12
BRANCH  10  24
ATOM     24  C   UNL     1       1.468   3.582   7.715  1.00  0.00     0.030 A 
ATOM     25  C   UNL     1       0.434   4.267   7.097  1.00  0.00     0.017 A 
ATOM     26  S   UNL     1       2.578   4.688   8.427  1.00  0.00    -0.147 S 
ATOM     27  C   UNL     1       0.556   5.682   7.217  1.00  0.00     0.012 A 
ATOM     28  C   UNL     1       1.663   6.042   7.949  1.00  0.00     0.065 A 
ENDBRANCH  10  24
ENDBRANCH   5   7
ENDBRANCH   4   5
ENDBRANCH   3   4
ENDBRANCH   2   3
ENDBRANCH   1   2
BRANCH   1  29
ATOM     29  C   UNL     1       4.903  -1.998   8.956  1.00  0.00     0.202 C 
BRANCH  29  30
ATOM     30  C   UNL     1       3.984  -3.001   9.664  1.00  0.00     0.261 C 
BRANCH  30  31
ATOM     31  O   UNL     1       3.692  -2.614  11.019  1.00  0.00    -0.460 OA
BRANCH  31  32
ATOM     32  C   UNL     1       4.276  -3.394  11.963  1.00  0.00     0.338 C 
ATOM     33  O   UNL     1       4.938  -4.402  11.775  1.00  0.00    -0.246 OA
BRANCH  32  34
ATOM     34  C   UNL     1       4.157  -2.767  13.295  1.00  0.00     0.060 A 
ATOM     35  C   UNL     1       5.327  -2.655  14.057  1.00  0.00     0.016 A 
ATOM     36  C   UNL     1       2.927  -2.369  13.823  1.00  0.00     0.016 A 
ATOM     37  C   UNL     1       5.263  -2.201  15.372  1.00  0.00     0.010 A 
ATOM     38  C   UNL     1       2.865  -1.917  15.147  1.00  0.00     0.010 A 
ATOM     39  C   UNL     1       4.026  -1.870  15.940  1.00  0.00    -0.014 A 
BRANCH  39  40
ATOM     40  C   UNL     1       3.941  -1.608  17.398  1.00  0.00     0.031 A 
ATOM     41  C   UNL     1       3.457  -2.700  18.314  1.00  0.00     0.074 A 
ATOM     42  C   UNL     1       4.310  -0.418  17.905  1.00  0.00     0.049 A 
ATOM     43  N   UNL     1       3.327  -2.691  19.615  1.00  0.00    -0.248 NA
ATOM     44  C   UNL     1       3.064  -3.969  17.680  1.00  0.00     0.031 C 
ATOM     45  C   UNL     1       4.790   0.720  17.123  1.00  0.00     0.029 A 
ATOM     46  N   UNL     1       4.320   0.034  19.201  1.00  0.00    -0.354 N 
ATOM     47  C   UNL     1       2.818  -3.939  19.955  1.00  0.00     0.074 A 
ATOM     48  C   UNL     1       2.646  -4.675  18.721  1.00  0.00     0.031 C 
ATOM     49  C   UNL     1       5.025   1.750  17.954  1.00  0.00     0.029 A 
ATOM     50  C   UNL     1       4.701   1.349  19.322  1.00  0.00     0.049 A 
ATOM     51  H   UNL     1       4.078  -0.530  19.971  1.00  0.00     0.167 HD
ATOM     52  C   UNL     1       2.539  -4.437  21.183  1.00  0.00     0.034 A 
ATOM     53  C   UNL     1       4.769   2.142  20.411  1.00  0.00     0.034 A 
ATOM     54  C   UNL     1       2.734  -3.716  22.412  1.00  0.00     0.049 A 
ATOM     55  C   UNL     1       4.447   1.565  21.765  1.00  0.00     0.074 A 
ATOM     56  C   UNL     1       2.530  -4.156  23.708  1.00  0.00     0.029 A 
ATOM     57  N   UNL     1       3.168  -2.403  22.499  1.00  0.00    -0.354 N 
ATOM     58  N   UNL     1       4.096   0.342  22.080  1.00  0.00    -0.248 NA
ATOM     59  C   UNL     1       4.567   2.469  22.919  1.00  0.00     0.031 C 
ATOM     60  C   UNL     1       2.822  -3.100  24.579  1.00  0.00     0.029 A 
ATOM     61  C   UNL     1       3.229  -2.011  23.825  1.00  0.00     0.049 A 
ATOM     62  H   UNL     1       3.399  -1.833  21.730  1.00  0.00     0.167 HD
ATOM     63  C   UNL     1       3.990   0.319  23.467  1.00  0.00     0.074 A 
ATOM     64  C   UNL     1       4.333   1.647  23.933  1.00  0.00     0.031 C 
ATOM     65  C   UNL     1       3.627  -0.704  24.280  1.00  0.00     0.034 A 
BRANCH  52  66
ATOM     66  C   UNL     1       2.025  -5.850  21.262  1.00  0.00     0.023 A 
ATOM     67  C   UNL     1       2.910  -6.925  21.043  1.00  0.00     0.012 A 
ATOM     68  C   UNL     1       0.685  -6.116  21.606  1.00  0.00     0.148 A 
ATOM     69  C   UNL     1       2.465  -8.242  21.138  1.00  0.00     0.002 A 
ATOM     70  C   UNL     1       0.258  -7.433  21.738  1.00  0.00     0.091 A 
ATOM     71  F   UNL     1      -0.147  -5.081  21.785  1.00  0.00    -0.205 F 
ATOM     72  C   UNL     1       1.143  -8.496  21.495  1.00  0.00     0.022 A 
BRANCH  70  73
ATOM     73  S   UNL     1      -1.405  -7.859  22.265  1.00  0.00     0.127 S 
ATOM     74  O   UNL     1      -1.995  -8.342  21.017  1.00  0.00    -0.237 OA
ATOM     75  O   UNL     1      -1.157  -8.899  23.264  1.00  0.00    -0.237 OA
ATOM     76  O   UNL     1      -1.983  -6.633  22.798  1.00  0.00    -0.744 OA
ENDBRANCH  70  73
ENDBRANCH  52  66
BRANCH  53  77
ATOM     77  C   UNL     1       5.206   3.559  20.270  1.00  0.00     0.023 A 
ATOM     78  C   UNL     1       6.455   3.956  20.784  1.00  0.00     0.012 A 
ATOM     79  C   UNL     1       4.401   4.508  19.612  1.00  0.00     0.148 A 
ATOM     80  C   UNL     1       6.883   5.280  20.671  1.00  0.00     0.002 A 
ATOM     81  C   UNL     1       4.856   5.812  19.453  1.00  0.00     0.091 A 
ATOM     82  F   UNL     1       3.206   4.116  19.147  1.00  0.00    -0.205 F 
ATOM     83  C   UNL     1       6.089   6.204  19.996  1.00  0.00     0.022 A 
BRANCH  81  84
ATOM     84  S   UNL     1       3.959   7.029  18.484  1.00  0.00     0.127 S 
ATOM     85  O   UNL     1       3.434   7.912  19.523  1.00  0.00    -0.237 OA
ATOM     86  O   UNL     1       5.023   7.608  17.663  1.00  0.00    -0.237 OA
ATOM     87  O   UNL     1       2.967   6.274  17.730  1.00  0.00    -0.744 OA
ENDBRANCH  81  84
ENDBRANCH  53  77
BRANCH  65  88
ATOM     88  C   UNL     1       3.611  -0.447  25.765  1.00  0.00     0.023 A 
ATOM     89  C   UNL     1       2.591   0.346  26.327  1.00  0.00     0.012 A 
ATOM     90  C   UNL     1       4.562  -1.052  26.612  1.00  0.00     0.148 A 
ATOM     91  C   UNL     1       2.537   0.560  27.704  1.00  0.00     0.002 A 
ATOM     92  C   UNL     1       4.474  -0.872  27.988  1.00  0.00     0.091 A 
ATOM     93  F   UNL     1       5.537  -1.787  26.058  1.00  0.00    -0.205 F 
ATOM     94  C   UNL     1       3.469  -0.058  28.535  1.00  0.00     0.022 A 
BRANCH  92  95
ATOM     95  S   UNL     1       5.576  -1.706  29.136  1.00  0.00     0.127 S 
ATOM     96  O   UNL     1       6.483  -0.625  29.517  1.00  0.00    -0.237 OA
ATOM     97  O   UNL     1       4.661  -2.136  30.194  1.00  0.00    -0.237 OA
ATOM     98  O   UNL     1       6.180  -2.798  28.384  1.00  0.00    -0.744 OA
ENDBRANCH  92  95
ENDBRANCH  65  88
ENDBRANCH  39  40
ENDBRANCH  32  34
ENDBRANCH  31  32
ENDBRANCH  30  31
ENDBRANCH  29  30
ENDBRANCH   1  29
TORSDOF 21
