REMARK SMILES O=C(OCCOCCOC(=O)[C@@H]1[C@H](C(=O)Nc2ccc(Cn3cncn3)cc2)[C@@H]2C=C[C@H]1CC2)c1ccc(-c2c3nc(c(-c4cccc(S(=O)(=O)[O-])c4F)c4ccc([nH]4)c(-c4cccc(S(=O)(=O)[O-])c4F)c4nc(c(-c5cccc(S(=O)(=O)[O-])c5F)c5ccc2[nH]5)C=C4)C=C3)cc1
REMARK SMILES IDX 7 1 6 2 5 3 4 4 3 5 2 6 1 7 35 8 36 9 97 10 37 11 96 12
REMARK SMILES IDX 38 13 39 14 40 15 90 16 41 17 95 18 89 19 91 20 42 21 94 22
REMARK SMILES IDX 88 23 87 24 43 26 75 27 55 28 74 29 56 30 59 31 73 32 92 33
REMARK SMILES IDX 57 34 58 35 72 37 93 38 60 39 44 40 45 41 53 42 46 43 48 44
REMARK SMILES IDX 54 45 47 46 49 47 50 48 51 49 52 50 76 51 77 52 85 53 78 54
REMARK SMILES IDX 80 55 86 56 79 57 81 58 82 59 83 60 84 61 61 62 62 63 70 64
REMARK SMILES IDX 63 65 65 66 71 67 64 68 66 69 67 70 68 71 69 72 8 73 9 74
REMARK SMILES IDX 10 75 11 76 12 77 13 78 32 79 29 80 31 81 33 82 30 83 34 84
REMARK SMILES IDX 14 85 15 86 16 87 17 89 18 90 28 91 19 92 27 93 20 94 21 95
REMARK SMILES IDX 22 96 23 97 26 98 24 99 25 100
REMARK H PARENT 91 25 59 36 16 88
REMARK Flexibility Score: inf
ROOT
ATOM      1  C   UNL     1       3.848  -2.116   1.090  1.00  0.00     0.202 C 
ENDROOT
BRANCH   1   2
ATOM      2  O   UNL     1       4.771  -1.413   0.244  1.00  0.00    -0.374 OA
BRANCH   2   3
ATOM      3  C   UNL     1       5.120  -0.095   0.658  1.00  0.00     0.202 C 
BRANCH   3   4
ATOM      4  C   UNL     1       4.659   1.008  -0.288  1.00  0.00     0.261 C 
BRANCH   4   5
ATOM      5  O   UNL     1       3.228   1.175  -0.256  1.00  0.00    -0.460 OA
BRANCH   5   6
ATOM      6  C   UNL     1       2.382   0.145  -0.545  1.00  0.00     0.338 C 
ATOM      7  O   UNL     1       1.502  -0.238   0.189  1.00  0.00    -0.246 OA
BRANCH   6   8
ATOM      8  C   UNL     1       2.333  -0.205  -1.959  1.00  0.00     0.060 A 
ATOM      9  C   UNL     1       3.470  -0.486  -2.701  1.00  0.00     0.016 A 
ATOM     10  C   UNL     1       1.057  -0.198  -2.533  1.00  0.00     0.016 A 
ATOM     11  C   UNL     1       3.361  -0.519  -4.065  1.00  0.00     0.010 A 
ATOM     12  C   UNL     1       0.933  -0.322  -3.897  1.00  0.00     0.010 A 
ATOM     13  C   UNL     1       2.097  -0.400  -4.653  1.00  0.00    -0.014 A 
BRANCH  13  14
ATOM     14  C   UNL     1       2.074  -0.481  -6.095  1.00  0.00     0.031 A 
ATOM     15  C   UNL     1       2.670  -1.722  -6.649  1.00  0.00     0.074 A 
ATOM     16  C   UNL     1       1.512   0.455  -6.871  1.00  0.00     0.049 A 
ATOM     17  N   UNL     1       3.690  -1.834  -7.436  1.00  0.00    -0.248 NA
ATOM     18  C   UNL     1       2.140  -2.997  -6.144  1.00  0.00     0.031 C 
ATOM     19  C   UNL     1       0.625   1.551  -6.479  1.00  0.00     0.029 A 
ATOM     20  N   UNL     1       1.507   0.504  -8.227  1.00  0.00    -0.354 N 
ATOM     21  C   UNL     1       3.822  -3.199  -7.671  1.00  0.00     0.074 A 
ATOM     22  C   UNL     1       2.938  -3.871  -6.752  1.00  0.00     0.031 C 
ATOM     23  C   UNL     1      -0.049   1.966  -7.574  1.00  0.00     0.029 A 
ATOM     24  C   UNL     1       0.474   1.268  -8.735  1.00  0.00     0.049 A 
ATOM     25  H   UNL     1       2.171   0.043  -8.790  1.00  0.00     0.167 HD
ATOM     26  C   UNL     1       4.516  -3.697  -8.727  1.00  0.00     0.034 A 
ATOM     27  C   UNL     1       0.017   1.220 -10.004  1.00  0.00     0.034 A 
ATOM     28  C   UNL     1       5.406  -2.738  -9.313  1.00  0.00     0.049 A 
ATOM     29  C   UNL     1       1.076   0.618 -10.850  1.00  0.00     0.074 A 
ATOM     30  C   UNL     1       6.512  -2.038  -8.875  1.00  0.00     0.029 A 
ATOM     31  N   UNL     1       5.000  -2.116 -10.467  1.00  0.00    -0.354 N 
ATOM     32  N   UNL     1       2.228   1.183 -11.093  1.00  0.00    -0.248 NA
ATOM     33  C   UNL     1       1.012  -0.806 -11.137  1.00  0.00     0.031 C 
ATOM     34  C   UNL     1       6.443  -0.778  -9.536  1.00  0.00     0.029 A 
ATOM     35  C   UNL     1       5.297  -0.784 -10.335  1.00  0.00     0.049 A 
ATOM     36  H   UNL     1       4.575  -2.547 -11.245  1.00  0.00     0.167 HD
ATOM     37  C   UNL     1       3.135   0.132 -11.166  1.00  0.00     0.074 A 
ATOM     38  C   UNL     1       2.310  -1.062 -11.323  1.00  0.00     0.031 C 
ATOM     39  C   UNL     1       4.447   0.292 -10.809  1.00  0.00     0.034 A 
BRANCH  26  40
ATOM     40  C   UNL     1       4.182  -5.004  -9.383  1.00  0.00     0.023 A 
ATOM     41  C   UNL     1       5.145  -5.612 -10.211  1.00  0.00     0.012 A 
ATOM     42  C   UNL     1       2.883  -5.560  -9.385  1.00  0.00     0.148 A 
ATOM     43  C   UNL     1       4.829  -6.728 -10.995  1.00  0.00     0.002 A 
ATOM     44  C   UNL     1       2.601  -6.723 -10.088  1.00  0.00     0.091 A 
ATOM     45  F   UNL     1       1.872  -4.901  -8.803  1.00  0.00    -0.205 F 
ATOM     46  C   UNL     1       3.563  -7.300 -10.915  1.00  0.00     0.022 A 
BRANCH  44  47
ATOM     47  S   UNL     1       1.007  -7.525  -9.897  1.00  0.00     0.127 S 
ATOM     48  O   UNL     1       0.227  -6.902 -10.961  1.00  0.00    -0.237 OA
ATOM     49  O   UNL     1       1.335  -8.934 -10.116  1.00  0.00    -0.237 OA
ATOM     50  O   UNL     1       0.612  -7.217  -8.527  1.00  0.00    -0.744 OA
ENDBRANCH  44  47
ENDBRANCH  26  40
BRANCH  27  51
ATOM     51  C   UNL     1      -1.373   1.417 -10.456  1.00  0.00     0.023 A 
ATOM     52  C   UNL     1      -1.623   1.826 -11.776  1.00  0.00     0.012 A 
ATOM     53  C   UNL     1      -2.468   1.003  -9.661  1.00  0.00     0.148 A 
ATOM     54  C   UNL     1      -2.923   1.822 -12.291  1.00  0.00     0.002 A 
ATOM     55  C   UNL     1      -3.761   1.023 -10.170  1.00  0.00     0.091 A 
ATOM     56  F   UNL     1      -2.234   0.505  -8.439  1.00  0.00    -0.205 F 
ATOM     57  C   UNL     1      -3.991   1.424 -11.490  1.00  0.00     0.022 A 
BRANCH  55  58
ATOM     58  S   UNL     1      -5.180   0.539  -9.177  1.00  0.00     0.127 S 
ATOM     59  O   UNL     1      -6.173   1.549  -9.547  1.00  0.00    -0.237 OA
ATOM     60  O   UNL     1      -5.457  -0.803  -9.679  1.00  0.00    -0.237 OA
ATOM     61  O   UNL     1      -4.733   0.627  -7.792  1.00  0.00    -0.744 OA
ENDBRANCH  55  58
ENDBRANCH  27  51
BRANCH  39  62
ATOM     62  C   UNL     1       4.949   1.697 -10.551  1.00  0.00     0.023 A 
ATOM     63  C   UNL     1       4.395   2.492  -9.524  1.00  0.00     0.012 A 
ATOM     64  C   UNL     1       6.109   2.157 -11.202  1.00  0.00     0.148 A 
ATOM     65  C   UNL     1       4.954   3.724  -9.179  1.00  0.00     0.002 A 
ATOM     66  C   UNL     1       6.691   3.365 -10.823  1.00  0.00     0.091 A 
ATOM     67  F   UNL     1       6.646   1.393 -12.166  1.00  0.00    -0.205 F 
ATOM     68  C   UNL     1       6.110   4.156  -9.820  1.00  0.00     0.022 A 
BRANCH  66  69
ATOM     69  S   UNL     1       8.261   3.907 -11.509  1.00  0.00     0.127 S 
ATOM     70  O   UNL     1       7.838   4.843 -12.548  1.00  0.00    -0.237 OA
ATOM     71  O   UNL     1       8.918   4.530 -10.358  1.00  0.00    -0.237 OA
ATOM     72  O   UNL     1       8.922   2.695 -11.979  1.00  0.00    -0.744 OA
ENDBRANCH  66  69
ENDBRANCH  39  62
ENDBRANCH  13  14
ENDBRANCH   6   8
ENDBRANCH   5   6
ENDBRANCH   4   5
ENDBRANCH   3   4
ENDBRANCH   2   3
ENDBRANCH   1   2
BRANCH   1  73
ATOM     73  C   UNL     1       4.361  -2.512   2.475  1.00  0.00     0.261 C 
BRANCH  73  74
ATOM     74  O   UNL     1       4.169  -1.432   3.421  1.00  0.00    -0.463 OA
BRANCH  74  75
ATOM     75  C   UNL     1       5.255  -0.704   3.745  1.00  0.00     0.310 C 
ATOM     76  O   UNL     1       6.379  -0.898   3.291  1.00  0.00    -0.252 OA
BRANCH  75  77
ATOM     77  C   UNL     1       4.989   0.439   4.698  1.00  0.00     0.119 C 
ATOM     78  C   UNL     1       3.843   0.407   5.730  1.00  0.00     0.100 C 
ATOM     79  C   UNL     1       5.154   1.885   4.111  1.00  0.00     0.026 C 
ATOM     80  C   UNL     1       3.506   1.871   6.143  1.00  0.00     0.025 C 
ATOM     81  C   UNL     1       3.841   2.615   3.894  1.00  0.00    -0.027 C 
ATOM     82  C   UNL     1       5.772   2.728   5.254  1.00  0.00     0.009 C 
ATOM     83  C   UNL     1       3.005   2.628   4.948  1.00  0.00    -0.027 C 
ATOM     84  C   UNL     1       4.850   2.600   6.511  1.00  0.00     0.009 C 
BRANCH  78  85
ATOM     85  C   UNL     1       2.708  -0.639   5.659  1.00  0.00     0.228 C 
ATOM     86  O   UNL     1       2.859  -1.671   6.341  1.00  0.00    -0.274 OA
ATOM     87  N   UNL     1       1.502  -0.547   5.038  1.00  0.00    -0.326 N 
ATOM     88  H   UNL     1       0.854  -1.202   5.386  1.00  0.00     0.169 HD
BRANCH  87  89
ATOM     89  C   UNL     1       0.956   0.251   4.026  1.00  0.00     0.041 A 
ATOM     90  C   UNL     1      -0.430   0.447   3.987  1.00  0.00     0.026 A 
ATOM     91  C   UNL     1       1.706   0.809   3.016  1.00  0.00     0.026 A 
ATOM     92  C   UNL     1      -1.014   1.317   3.047  1.00  0.00     0.008 A 
ATOM     93  C   UNL     1       1.144   1.728   2.123  1.00  0.00     0.008 A 
ATOM     94  C   UNL     1      -0.219   2.002   2.124  1.00  0.00    -0.026 A 
BRANCH  94  95
ATOM     95  C   UNL     1      -0.761   3.001   1.134  1.00  0.00     0.181 C 
BRANCH  95  96
ATOM     96  N   UNL     1      -1.243   2.406  -0.099  1.00  0.00    -0.249 N 
ATOM     97  C   UNL     1      -2.376   1.673  -0.268  1.00  0.00     0.220 A 
ATOM     98  N   UNL     1      -0.725   2.767  -1.294  1.00  0.00    -0.160 NA
ATOM     99  N   UNL     1      -2.606   1.501  -1.547  1.00  0.00    -0.224 NA
ATOM    100  C   UNL     1      -1.578   2.177  -2.140  1.00  0.00     0.246 A 
ENDBRANCH  95  96
ENDBRANCH  94  95
ENDBRANCH  87  89
ENDBRANCH  78  85
ENDBRANCH  75  77
ENDBRANCH  74  75
ENDBRANCH  73  74
ENDBRANCH   1  73
TORSDOF 21
