REMARK SMILES O=C(OCCOCCOC(=O)[C@H]1N=C(C2=C([O-])c3ccccc3C2=O)[C@H]2C(=O)N(c3ccccc3)C(=O)[C@@H]21)c1ccc(-c2c3nc(c(-c4cccc(S(=O)(=O)[O-])c4F)c4ccc([nH]4)c(-c4cccc(S(=O)(=O)[O-])c4F)c4nc(c(-c5cccc(S(=O)(=O)[O-])c5F)c5ccc2[nH]5)C=C4)C=C3)cc1
REMARK SMILES IDX 5 1 4 2 3 3 2 4 1 5 39 6 40 7 101 8 41 9 100 10 42 11 43 12
REMARK SMILES IDX 44 13 94 14 45 15 99 16 93 17 95 18 46 19 98 20 92 21 91 22
REMARK SMILES IDX 47 24 79 25 59 26 78 27 60 28 63 29 77 30 96 31 61 32 62 33
REMARK SMILES IDX 76 35 97 36 64 37 48 38 49 39 57 40 50 41 52 42 58 43 51 44
REMARK SMILES IDX 53 45 54 46 55 47 56 48 80 49 81 50 89 51 82 52 84 53 90 54
REMARK SMILES IDX 83 55 85 56 86 57 87 58 88 59 65 60 66 61 74 62 67 63 69 64
REMARK SMILES IDX 75 65 68 66 70 67 71 68 72 69 73 70 6 71 7 72 8 73 9 74
REMARK SMILES IDX 10 75 11 76 12 77 13 78 38 79 14 80 26 81 36 82 27 83 29 84
REMARK SMILES IDX 37 85 28 86 15 87 16 88 24 89 17 90 18 91 23 92 25 93 19 94
REMARK SMILES IDX 22 95 20 96 21 97 30 98 31 99 35 100 32 101 34 102 33 103
REMARK H PARENT 95 23 63 34
REMARK Flexibility Score: inf
ROOT
ATOM      1  C   UNL     1       6.496   2.353   0.583  1.00  0.00     0.202 C 
ENDROOT
BRANCH   1   2
ATOM      2  C   UNL     1       7.990   2.373   0.270  1.00  0.00     0.261 C 
BRANCH   2   3
ATOM      3  O   UNL     1       8.311   3.376  -0.709  1.00  0.00    -0.460 OA
BRANCH   3   4
ATOM      4  C   UNL     1       8.376   3.289  -2.058  1.00  0.00     0.338 C 
ATOM      5  O   UNL     1       8.780   4.284  -2.662  1.00  0.00    -0.246 OA
BRANCH   4   6
ATOM      6  C   UNL     1       7.886   2.131  -2.885  1.00  0.00     0.060 A 
ATOM      7  C   UNL     1       7.874   2.329  -4.280  1.00  0.00     0.016 A 
ATOM      8  C   UNL     1       7.358   0.928  -2.408  1.00  0.00     0.016 A 
ATOM      9  C   UNL     1       7.298   1.393  -5.145  1.00  0.00     0.010 A 
ATOM     10  C   UNL     1       6.727   0.018  -3.252  1.00  0.00     0.010 A 
ATOM     11  C   UNL     1       6.704   0.241  -4.624  1.00  0.00    -0.014 A 
BRANCH  11  12
ATOM     12  C   UNL     1       6.300  -0.877  -5.488  1.00  0.00     0.031 A 
ATOM     13  C   UNL     1       4.867  -1.154  -5.810  1.00  0.00     0.074 A 
ATOM     14  C   UNL     1       7.288  -1.720  -5.839  1.00  0.00     0.049 A 
ATOM     15  N   UNL     1       4.378  -2.078  -6.590  1.00  0.00    -0.248 NA
ATOM     16  C   UNL     1       3.848  -0.307  -5.167  1.00  0.00     0.031 C 
ATOM     17  C   UNL     1       8.689  -1.579  -5.421  1.00  0.00     0.029 A 
ATOM     18  N   UNL     1       7.275  -2.867  -6.577  1.00  0.00    -0.354 N 
ATOM     19  C   UNL     1       2.998  -1.928  -6.543  1.00  0.00     0.074 A 
ATOM     20  C   UNL     1       2.721  -0.836  -5.636  1.00  0.00     0.031 C 
ATOM     21  C   UNL     1       9.398  -2.605  -5.905  1.00  0.00     0.029 A 
ATOM     22  C   UNL     1       8.508  -3.464  -6.673  1.00  0.00     0.049 A 
ATOM     23  H   UNL     1       6.463  -3.231  -6.998  1.00  0.00     0.167 HD
ATOM     24  C   UNL     1       2.068  -2.639  -7.222  1.00  0.00     0.034 A 
ATOM     25  C   UNL     1       8.883  -4.574  -7.329  1.00  0.00     0.034 A 
ATOM     26  C   UNL     1       2.402  -3.725  -8.107  1.00  0.00     0.049 A 
ATOM     27  C   UNL     1       7.847  -5.289  -8.136  1.00  0.00     0.074 A 
ATOM     28  C   UNL     1       1.563  -4.452  -8.931  1.00  0.00     0.029 A 
ATOM     29  N   UNL     1       3.677  -4.249  -8.266  1.00  0.00    -0.354 N 
ATOM     30  N   UNL     1       6.568  -5.017  -8.241  1.00  0.00    -0.248 NA
ATOM     31  C   UNL     1       8.297  -6.423  -8.948  1.00  0.00     0.031 C 
ATOM     32  C   UNL     1       2.328  -5.429  -9.573  1.00  0.00     0.029 A 
ATOM     33  C   UNL     1       3.648  -5.295  -9.168  1.00  0.00     0.049 A 
ATOM     34  H   UNL     1       4.483  -3.924  -7.804  1.00  0.00     0.167 HD
ATOM     35  C   UNL     1       6.059  -5.932  -9.147  1.00  0.00     0.074 A 
ATOM     36  C   UNL     1       7.173  -6.760  -9.570  1.00  0.00     0.031 C 
ATOM     37  C   UNL     1       4.785  -6.078  -9.584  1.00  0.00     0.034 A 
BRANCH  24  38
ATOM     38  C   UNL     1       0.620  -2.235  -7.126  1.00  0.00     0.023 A 
ATOM     39  C   UNL     1       0.185  -1.100  -7.839  1.00  0.00     0.012 A 
ATOM     40  C   UNL     1      -0.332  -3.053  -6.483  1.00  0.00     0.148 A 
ATOM     41  C   UNL     1      -1.172  -0.786  -7.919  1.00  0.00     0.002 A 
ATOM     42  C   UNL     1      -1.686  -2.747  -6.588  1.00  0.00     0.091 A 
ATOM     43  F   UNL     1       0.102  -4.128  -5.810  1.00  0.00    -0.205 F 
ATOM     44  C   UNL     1      -2.106  -1.615  -7.305  1.00  0.00     0.022 A 
BRANCH  42  45
ATOM     45  S   UNL     1      -2.982  -3.772  -5.880  1.00  0.00     0.127 S 
ATOM     46  O   UNL     1      -3.611  -2.844  -4.940  1.00  0.00    -0.237 OA
ATOM     47  O   UNL     1      -3.794  -4.092  -7.053  1.00  0.00    -0.237 OA
ATOM     48  O   UNL     1      -2.311  -4.908  -5.265  1.00  0.00    -0.744 OA
ENDBRANCH  42  45
ENDBRANCH  24  38
BRANCH  25  49
ATOM     49  C   UNL     1      10.319  -4.950  -7.327  1.00  0.00     0.023 A 
ATOM     50  C   UNL     1      11.115  -4.608  -8.435  1.00  0.00     0.012 A 
ATOM     51  C   UNL     1      10.926  -5.489  -6.175  1.00  0.00     0.148 A 
ATOM     52  C   UNL     1      12.496  -4.797  -8.399  1.00  0.00     0.002 A 
ATOM     53  C   UNL     1      12.307  -5.642  -6.133  1.00  0.00     0.091 A 
ATOM     54  F   UNL     1      10.144  -5.787  -5.128  1.00  0.00    -0.205 F 
ATOM     55  C   UNL     1      13.093  -5.302  -7.246  1.00  0.00     0.022 A 
BRANCH  53  56
ATOM     56  S   UNL     1      13.176  -6.176  -4.654  1.00  0.00     0.127 S 
ATOM     57  O   UNL     1      13.682  -7.484  -5.065  1.00  0.00    -0.237 OA
ATOM     58  O   UNL     1      14.197  -5.138  -4.512  1.00  0.00    -0.237 OA
ATOM     59  O   UNL     1      12.180  -6.192  -3.592  1.00  0.00    -0.744 OA
ENDBRANCH  53  56
ENDBRANCH  25  49
BRANCH  37  60
ATOM     60  C   UNL     1       4.519  -7.171 -10.574  1.00  0.00     0.023 A 
ATOM     61  C   UNL     1       4.399  -8.498 -10.121  1.00  0.00     0.012 A 
ATOM     62  C   UNL     1       4.258  -6.860 -11.922  1.00  0.00     0.148 A 
ATOM     63  C   UNL     1       4.025  -9.508 -11.003  1.00  0.00     0.002 A 
ATOM     64  C   UNL     1       3.852  -7.866 -12.786  1.00  0.00     0.091 A 
ATOM     65  F   UNL     1       4.388  -5.586 -12.319  1.00  0.00    -0.205 F 
ATOM     66  C   UNL     1       3.739  -9.191 -12.330  1.00  0.00     0.022 A 
BRANCH  64  67
ATOM     67  S   UNL     1       3.393  -7.546 -14.491  1.00  0.00     0.127 S 
ATOM     68  O   UNL     1       4.418  -8.294 -15.219  1.00  0.00    -0.237 OA
ATOM     69  O   UNL     1       2.050  -8.121 -14.561  1.00  0.00    -0.237 OA
ATOM     70  O   UNL     1       3.449  -6.101 -14.664  1.00  0.00    -0.744 OA
ENDBRANCH  64  67
ENDBRANCH  37  60
ENDBRANCH  11  12
ENDBRANCH   4   6
ENDBRANCH   3   4
ENDBRANCH   2   3
ENDBRANCH   1   2
BRANCH   1  71
ATOM     71  O   UNL     1       5.694   2.035  -0.550  1.00  0.00    -0.374 OA
BRANCH  71  72
ATOM     72  C   UNL     1       5.104   3.131  -1.242  1.00  0.00     0.202 C 
BRANCH  72  73
ATOM     73  C   UNL     1       3.593   3.068  -1.065  1.00  0.00     0.261 C 
BRANCH  73  74
ATOM     74  O   UNL     1       3.245   3.520   0.248  1.00  0.00    -0.462 OA
BRANCH  74  75
ATOM     75  C   UNL     1       3.449   2.748   1.362  1.00  0.00     0.331 C 
ATOM     76  O   UNL     1       3.624   1.543   1.379  1.00  0.00    -0.250 OA
BRANCH  75  77
ATOM     77  C   UNL     1       3.371   3.677   2.577  1.00  0.00     0.229 C 
ATOM     78  N   UNL     1       4.439   3.500   3.650  1.00  0.00    -0.272 NA
ATOM     79  C   UNL     1       3.697   5.053   2.124  1.00  0.00     0.134 C 
ATOM     80  C   UNL     1       4.687   4.721   4.079  1.00  0.00     0.060 C 
ATOM     81  C   UNL     1       3.921   5.795   3.395  1.00  0.00     0.144 C 
ATOM     82  C   UNL     1       2.732   5.992   1.537  1.00  0.00     0.240 C 
ATOM     83  C   UNL     1       4.302   7.086   2.750  1.00  0.00     0.243 C 
ATOM     84  N   UNL     1       3.414   7.191   1.661  1.00  0.00    -0.250 N 
ATOM     85  O   UNL     1       1.613   5.712   1.141  1.00  0.00    -0.274 OA
ATOM     86  O   UNL     1       5.131   7.866   3.181  1.00  0.00    -0.273 OA
BRANCH  80  87
ATOM     87  C   UNL     1       5.325   5.045   5.357  1.00  0.00     0.037 C 
ATOM     88  C   UNL     1       4.570   5.434   6.399  1.00  0.00    -0.087 C 
ATOM     89  C   UNL     1       6.740   5.113   5.789  1.00  0.00     0.194 C 
ATOM     90  O   UNL     1       3.214   5.499   6.518  1.00  0.00    -0.871 OA
ATOM     91  C   UNL     1       5.396   5.829   7.514  1.00  0.00    -0.022 A 
ATOM     92  C   UNL     1       6.725   5.611   7.177  1.00  0.00     0.029 A 
ATOM     93  O   UNL     1       7.725   4.844   5.134  1.00  0.00    -0.289 OA
ATOM     94  C   UNL     1       5.042   6.344   8.749  1.00  0.00     0.008 A 
ATOM     95  C   UNL     1       7.753   5.870   8.065  1.00  0.00     0.013 A 
ATOM     96  C   UNL     1       6.061   6.621   9.661  1.00  0.00     0.001 A 
ATOM     97  C   UNL     1       7.406   6.378   9.325  1.00  0.00     0.001 A 
ENDBRANCH  80  87
BRANCH  84  98
ATOM     98  C   UNL     1       3.243   8.270   0.763  1.00  0.00     0.052 A 
ATOM     99  C   UNL     1       4.199   9.283   0.653  1.00  0.00     0.027 A 
ATOM    100  C   UNL     1       2.141   8.307  -0.111  1.00  0.00     0.027 A 
ATOM    101  C   UNL     1       4.049  10.303  -0.295  1.00  0.00     0.002 A 
ATOM    102  C   UNL     1       1.980   9.334  -1.041  1.00  0.00     0.002 A 
ATOM    103  C   UNL     1       2.936  10.334  -1.131  1.00  0.00     0.000 A 
ENDBRANCH  84  98
ENDBRANCH  75  77
ENDBRANCH  74  75
ENDBRANCH  73  74
ENDBRANCH  72  73
ENDBRANCH  71  72
ENDBRANCH   1  71
TORSDOF 19
