REMARK SMILES COc1ccc(-c2nc(NCC(=O)OCCOCCOC(=O)c3ccc(-c4c5nc(c(-c6cccc(S(=O)(=O)[O-])c6F)c6ccc([nH]6)c(-c6cccc(S(=O)(=O)[O-])c6F)c6nc(c(-c7cccc(S(=O)(=O)[O-])c7F)c7ccc4[nH]7)C=C6)C=C5)cc3)sc2-c2ccc(OC)cc2)cc1
REMARK SMILES IDX 16 1 15 2 14 3 12 4 13 5 11 6 10 7 9 9 7 10 8 11 87 12 86 13
REMARK SMILES IDX 6 14 3 15 4 16 97 17 5 18 96 19 2 20 1 21 88 22 89 23 95 24
REMARK SMILES IDX 90 25 94 26 91 27 92 28 93 29 17 30 18 31 19 32 20 33 21 34
REMARK SMILES IDX 22 35 23 36 24 37 85 38 25 39 84 40 26 41 27 42 28 43 78 44
REMARK SMILES IDX 29 45 83 46 77 47 79 48 30 49 82 50 76 51 75 52 31 54 63 55
REMARK SMILES IDX 43 56 62 57 44 58 47 59 61 60 80 61 45 62 46 63 60 65 81 66
REMARK SMILES IDX 48 67 32 68 33 69 41 70 34 71 36 72 42 73 35 74 37 75 38 76
REMARK SMILES IDX 39 77 40 78 64 79 65 80 73 81 66 82 68 83 74 84 67 85 69 86
REMARK SMILES IDX 70 87 71 88 72 89 49 90 50 91 58 92 51 93 53 94 59 95 52 96
REMARK SMILES IDX 54 97 55 98 56 99 57 100
REMARK H PARENT 10 8 79 53 47 64
REMARK Flexibility Score: inf
ROOT
ATOM      1  C   UNL     1       8.398   7.436   7.878  1.00  0.00     0.202 C 
ENDROOT
BRANCH   1   2
ATOM      2  C   UNL     1       7.115   7.466   8.714  1.00  0.00     0.261 C 
BRANCH   2   3
ATOM      3  O   UNL     1       5.961   7.370   7.864  1.00  0.00    -0.462 OA
BRANCH   3   4
ATOM      4  C   UNL     1       5.042   8.364   7.987  1.00  0.00     0.325 C 
ATOM      5  O   UNL     1       5.049   9.220   8.868  1.00  0.00    -0.250 OA
BRANCH   4   6
ATOM      6  C   UNL     1       4.043   8.405   6.836  1.00  0.00     0.238 C 
BRANCH   6   7
ATOM      7  N   UNL     1       4.171   7.340   5.848  1.00  0.00    -0.351 N 
ATOM      8  H   UNL     1       4.977   7.331   5.283  1.00  0.00     0.163 HD
BRANCH   7   9
ATOM      9  C   UNL     1       3.258   6.366   5.660  1.00  0.00     0.184 A 
ATOM     10  C   UNL     1       2.129   4.806   4.559  1.00  0.00     0.091 A 
ATOM     11  N   UNL     1       3.204   5.685   4.537  1.00  0.00    -0.220 NA
ATOM     12  C   UNL     1       1.417   4.780   5.747  1.00  0.00     0.064 A 
ATOM     13  S   UNL     1       2.087   5.915   6.834  1.00  0.00    -0.096 S 
BRANCH  10  14
ATOM     14  C   UNL     1       1.790   3.982   3.405  1.00  0.00     0.002 A 
ATOM     15  C   UNL     1       1.074   2.264   1.296  1.00  0.00     0.118 A 
ATOM     16  C   UNL     1       0.160   3.197   1.785  1.00  0.00     0.047 A 
ATOM     17  C   UNL     1       2.364   2.222   1.829  1.00  0.00     0.047 A 
ATOM     18  C   UNL     1       0.512   4.048   2.836  1.00  0.00     0.014 A 
ATOM     19  C   UNL     1       2.723   3.084   2.877  1.00  0.00     0.014 A 
BRANCH  15  20
ATOM     20  O   UNL     1       0.608   1.474   0.281  1.00  0.00    -0.497 OA
ATOM     21  C   UNL     1       1.230   0.199   0.158  1.00  0.00     0.278 C 
ENDBRANCH  15  20
ENDBRANCH  10  14
BRANCH  12  22
ATOM     22  C   UNL     1       0.294   3.959   6.183  1.00  0.00    -0.006 A 
ATOM     23  C   UNL     1      -0.940   4.539   6.497  1.00  0.00     0.013 A 
ATOM     24  C   UNL     1       0.446   2.573   6.297  1.00  0.00     0.013 A 
ATOM     25  C   UNL     1      -2.002   3.740   6.922  1.00  0.00     0.047 A 
ATOM     26  C   UNL     1      -0.619   1.776   6.727  1.00  0.00     0.047 A 
ATOM     27  C   UNL     1      -1.847   2.357   7.042  1.00  0.00     0.118 A 
BRANCH  27  28
ATOM     28  O   UNL     1      -2.963   1.692   7.470  1.00  0.00    -0.497 OA
ATOM     29  C   UNL     1      -2.824   0.288   7.662  1.00  0.00     0.278 C 
ENDBRANCH  27  28
ENDBRANCH  12  22
ENDBRANCH   7   9
ENDBRANCH   6   7
ENDBRANCH   4   6
ENDBRANCH   3   4
ENDBRANCH   2   3
ENDBRANCH   1   2
BRANCH   1  30
ATOM     30  O   UNL     1       8.589   8.534   6.981  1.00  0.00    -0.374 OA
BRANCH  30  31
ATOM     31  C   UNL     1       7.811   8.552   5.785  1.00  0.00     0.202 C 
BRANCH  31  32
ATOM     32  C   UNL     1       8.230   7.594   4.663  1.00  0.00     0.261 C 
BRANCH  32  33
ATOM     33  O   UNL     1       8.126   6.211   5.041  1.00  0.00    -0.460 OA
BRANCH  33  34
ATOM     34  C   UNL     1       9.313   5.569   5.153  1.00  0.00     0.338 C 
ATOM     35  O   UNL     1      10.422   6.029   4.901  1.00  0.00    -0.246 OA
BRANCH  34  36
ATOM     36  C   UNL     1       9.143   4.254   5.798  1.00  0.00     0.060 A 
ATOM     37  C   UNL     1       9.978   3.962   6.884  1.00  0.00     0.016 A 
ATOM     38  C   UNL     1       8.258   3.291   5.308  1.00  0.00     0.016 A 
ATOM     39  C   UNL     1       9.976   2.688   7.445  1.00  0.00     0.010 A 
ATOM     40  C   UNL     1       8.261   2.008   5.871  1.00  0.00     0.010 A 
ATOM     41  C   UNL     1       9.148   1.689   6.915  1.00  0.00    -0.014 A 
BRANCH  41  42
ATOM     42  C   UNL     1       9.313   0.290   7.384  1.00  0.00     0.031 A 
ATOM     43  C   UNL     1      10.105  -0.680   6.548  1.00  0.00     0.074 A 
ATOM     44  C   UNL     1       8.794  -0.104   8.560  1.00  0.00     0.049 A 
ATOM     45  N   UNL     1      10.409  -1.928   6.796  1.00  0.00    -0.248 NA
ATOM     46  C   UNL     1      10.624  -0.179   5.265  1.00  0.00     0.031 C 
ATOM     47  C   UNL     1       8.002   0.737   9.457  1.00  0.00     0.029 A 
ATOM     48  N   UNL     1       8.845  -1.319   9.196  1.00  0.00    -0.354 N 
ATOM     49  C   UNL     1      11.136  -2.369   5.696  1.00  0.00     0.074 A 
ATOM     50  C   UNL     1      11.213  -1.259   4.770  1.00  0.00     0.031 C 
ATOM     51  C   UNL     1       7.624   0.006  10.519  1.00  0.00     0.029 A 
ATOM     52  C   UNL     1       8.136  -1.355  10.373  1.00  0.00     0.049 A 
ATOM     53  H   UNL     1       9.342  -2.092   8.842  1.00  0.00     0.167 HD
ATOM     54  C   UNL     1      11.707  -3.578   5.484  1.00  0.00     0.034 A 
ATOM     55  C   UNL     1       7.919  -2.373  11.230  1.00  0.00     0.034 A 
ATOM     56  C   UNL     1      11.653  -4.674   6.414  1.00  0.00     0.049 A 
ATOM     57  C   UNL     1       8.564  -3.709  10.969  1.00  0.00     0.074 A 
ATOM     58  C   UNL     1      12.239  -5.924   6.307  1.00  0.00     0.029 A 
ATOM     59  N   UNL     1      10.967  -4.658   7.618  1.00  0.00    -0.354 N 
ATOM     60  N   UNL     1       9.357  -4.067   9.988  1.00  0.00    -0.248 NA
ATOM     61  C   UNL     1       8.317  -4.771  11.957  1.00  0.00     0.031 C 
ATOM     62  C   UNL     1      11.892  -6.669   7.439  1.00  0.00     0.029 A 
ATOM     63  C   UNL     1      11.108  -5.876   8.261  1.00  0.00     0.049 A 
ATOM     64  H   UNL     1      10.454  -3.893   7.966  1.00  0.00     0.167 HD
ATOM     65  C   UNL     1       9.732  -5.379  10.259  1.00  0.00     0.074 A 
ATOM     66  C   UNL     1       9.097  -5.745  11.508  1.00  0.00     0.031 C 
ATOM     67  C   UNL     1      10.518  -6.211   9.532  1.00  0.00     0.034 A 
BRANCH  54  68
ATOM     68  C   UNL     1      12.480  -3.772   4.207  1.00  0.00     0.023 A 
ATOM     69  C   UNL     1      13.747  -3.169   4.064  1.00  0.00     0.012 A 
ATOM     70  C   UNL     1      11.987  -4.597   3.177  1.00  0.00     0.148 A 
ATOM     71  C   UNL     1      14.500  -3.364   2.907  1.00  0.00     0.002 A 
ATOM     72  C   UNL     1      12.761  -4.819   2.044  1.00  0.00     0.091 A 
ATOM     73  F   UNL     1      10.771  -5.141   3.322  1.00  0.00    -0.205 F 
ATOM     74  C   UNL     1      14.012  -4.196   1.903  1.00  0.00     0.022 A 
BRANCH  72  75
ATOM     75  S   UNL     1      12.252  -5.931   0.728  1.00  0.00     0.127 S 
ATOM     76  O   UNL     1      11.925  -4.992  -0.343  1.00  0.00    -0.237 OA
ATOM     77  O   UNL     1      13.465  -6.717   0.501  1.00  0.00    -0.237 OA
ATOM     78  O   UNL     1      11.128  -6.691   1.258  1.00  0.00    -0.744 OA
ENDBRANCH  72  75
ENDBRANCH  54  68
BRANCH  55  79
ATOM     79  C   UNL     1       7.089  -2.154  12.448  1.00  0.00     0.023 A 
ATOM     80  C   UNL     1       7.698  -2.163  13.718  1.00  0.00     0.012 A 
ATOM     81  C   UNL     1       5.703  -1.925  12.353  1.00  0.00     0.148 A 
ATOM     82  C   UNL     1       6.937  -1.978  14.873  1.00  0.00     0.002 A 
ATOM     83  C   UNL     1       4.959  -1.688  13.503  1.00  0.00     0.091 A 
ATOM     84  F   UNL     1       5.138  -1.942  11.137  1.00  0.00    -0.205 F 
ATOM     85  C   UNL     1       5.571  -1.730  14.765  1.00  0.00     0.022 A 
BRANCH  83  86
ATOM     86  S   UNL     1       3.222  -1.235  13.444  1.00  0.00     0.127 S 
ATOM     87  O   UNL     1       2.578  -2.460  13.910  1.00  0.00    -0.237 OA
ATOM     88  O   UNL     1       3.168  -0.114  14.382  1.00  0.00    -0.237 OA
ATOM     89  O   UNL     1       2.962  -0.869  12.058  1.00  0.00    -0.744 OA
ENDBRANCH  83  86
ENDBRANCH  55  79
BRANCH  67  90
ATOM     90  C   UNL     1      10.769  -7.592  10.079  1.00  0.00     0.023 A 
ATOM     91  C   UNL     1       9.737  -8.552  10.059  1.00  0.00     0.012 A 
ATOM     92  C   UNL     1      12.044  -7.960  10.555  1.00  0.00     0.148 A 
ATOM     93  C   UNL     1       9.959  -9.843  10.537  1.00  0.00     0.002 A 
ATOM     94  C   UNL     1      12.270  -9.262  10.986  1.00  0.00     0.091 A 
ATOM     95  F   UNL     1      13.009  -7.030  10.587  1.00  0.00    -0.205 F 
ATOM     96  C   UNL     1      11.227 -10.201  10.989  1.00  0.00     0.022 A 
BRANCH  94  97
ATOM     97  S   UNL     1      13.896  -9.831  11.497  1.00  0.00     0.127 S 
ATOM     98  O   UNL     1      13.769  -9.832  12.953  1.00  0.00    -0.237 OA
ATOM     99  O   UNL     1      13.969 -11.161  10.890  1.00  0.00    -0.237 OA
ATOM    100  O   UNL     1      14.843  -8.869  10.947  1.00  0.00    -0.744 OA
ENDBRANCH  94  97
ENDBRANCH  67  90
ENDBRANCH  41  42
ENDBRANCH  34  36
ENDBRANCH  33  34
ENDBRANCH  32  33
ENDBRANCH  31  32
ENDBRANCH  30  31
ENDBRANCH   1  30
TORSDOF 23
