REMARK SMILES COc1nc2c(cc1C(=O)NCc1ccc(C(=O)OCCOCCOC(=O)c3ccc(-c4c5nc(c(-c6cccc(S(=O)(=O)[O-])c6F)c6ccc([nH]6)c(-c6cccc(S(=O)(=O)[O-])c6F)c6nc(c(-c7cccc(S(=O)(=O)[O-])c7F)c7ccc4[nH]7)C=C6)C=C5)cc3)s1)CCC2
REMARK SMILES IDX 21 1 20 2 19 3 17 4 18 5 16 6 13 7 14 8 91 9 15 10 12 11
REMARK SMILES IDX 11 12 9 13 10 14 8 16 3 17 4 18 5 19 7 20 6 21 94 22 92 23
REMARK SMILES IDX 93 24 2 25 1 26 22 27 23 28 24 29 25 30 26 31 27 32 28 33
REMARK SMILES IDX 29 34 90 35 30 36 89 37 31 38 32 39 33 40 83 41 34 42 88 43
REMARK SMILES IDX 82 44 84 45 35 46 87 47 81 48 80 49 36 51 68 52 48 53 67 54
REMARK SMILES IDX 49 55 52 56 66 57 85 58 50 59 51 60 65 62 86 63 53 64 37 65
REMARK SMILES IDX 38 66 46 67 39 68 41 69 47 70 40 71 42 72 43 73 44 74 45 75
REMARK SMILES IDX 69 76 70 77 78 78 71 79 73 80 79 81 72 82 74 83 75 84 76 85
REMARK SMILES IDX 77 86 54 87 55 88 63 89 56 90 58 91 64 92 57 93 59 94 60 95
REMARK SMILES IDX 61 96 62 97
REMARK H PARENT 11 15 84 50 52 61
REMARK Flexibility Score: inf
ROOT
ATOM      1  C   UNL     1       2.196   7.292   5.380  1.00  0.00     0.202 C 
ENDROOT
BRANCH   1   2
ATOM      2  C   UNL     1       0.733   6.857   5.265  1.00  0.00     0.261 C 
BRANCH   2   3
ATOM      3  O   UNL     1       0.677   5.438   5.063  1.00  0.00    -0.459 OA
BRANCH   3   4
ATOM      4  C   UNL     1       0.194   5.043   3.854  1.00  0.00     0.348 C 
ATOM      5  O   UNL     1      -0.473   5.750   3.105  1.00  0.00    -0.245 OA
BRANCH   4   6
ATOM      6  C   UNL     1       0.721   3.732   3.539  1.00  0.00     0.112 A 
ATOM      7  C   UNL     1       1.536   1.784   2.262  1.00  0.00     0.025 A 
ATOM      8  C   UNL     1       1.680   1.603   3.621  1.00  0.00     0.018 A 
ATOM      9  S   UNL     1       0.910   3.330   1.890  1.00  0.00    -0.131 S 
ATOM     10  C   UNL     1       1.200   2.728   4.361  1.00  0.00     0.028 A 
BRANCH   7  11
ATOM     11  C   UNL     1       1.625   0.794   1.161  1.00  0.00     0.163 C 
BRANCH  11  12
ATOM     12  N   UNL     1       2.826   0.003   1.167  1.00  0.00    -0.347 N 
ATOM     13  C   UNL     1       3.008  -1.318   0.834  1.00  0.00     0.257 C 
ATOM     14  O   UNL     1       4.142  -1.653   0.478  1.00  0.00    -0.269 OA
ATOM     15  H   UNL     1       3.640   0.478   1.454  1.00  0.00     0.164 HD
BRANCH  13  16
ATOM     16  C   UNL     1       1.988  -2.391   1.001  1.00  0.00     0.102 A 
ATOM     17  C   UNL     1       0.615  -2.357   0.717  1.00  0.00     0.226 A 
ATOM     18  N   UNL     1      -0.258  -3.354   1.025  1.00  0.00    -0.218 NA
ATOM     19  C   UNL     1       0.278  -4.453   1.571  1.00  0.00     0.048 A 
ATOM     20  C   UNL     1       2.504  -3.613   1.481  1.00  0.00     0.025 A 
ATOM     21  C   UNL     1       1.633  -4.648   1.759  1.00  0.00    -0.025 A 
ATOM     22  C   UNL     1      -0.509  -5.654   2.014  1.00  0.00     0.057 C 
ATOM     23  C   UNL     1       1.920  -6.037   2.215  1.00  0.00     0.038 C 
ATOM     24  C   UNL     1       0.557  -6.444   2.791  1.00  0.00     0.011 C 
BRANCH  17  25
ATOM     25  O   UNL     1      -0.006  -1.306   0.110  1.00  0.00    -0.480 OA
ATOM     26  C   UNL     1       0.209  -1.302  -1.292  1.00  0.00     0.280 C 
ENDBRANCH  17  25
ENDBRANCH  13  16
ENDBRANCH  11  12
ENDBRANCH   7  11
ENDBRANCH   4   6
ENDBRANCH   3   4
ENDBRANCH   2   3
ENDBRANCH   1   2
BRANCH   1  27
ATOM     27  O   UNL     1       2.944   7.200   4.165  1.00  0.00    -0.374 OA
BRANCH  27  28
ATOM     28  C   UNL     1       3.562   5.940   3.885  1.00  0.00     0.202 C 
BRANCH  28  29
ATOM     29  C   UNL     1       4.866   5.658   4.638  1.00  0.00     0.261 C 
BRANCH  29  30
ATOM     30  O   UNL     1       4.593   5.255   5.994  1.00  0.00    -0.460 OA
BRANCH  30  31
ATOM     31  C   UNL     1       5.011   6.120   6.948  1.00  0.00     0.338 C 
ATOM     32  O   UNL     1       5.666   7.135   6.788  1.00  0.00    -0.246 OA
BRANCH  31  33
ATOM     33  C   UNL     1       4.372   5.774   8.230  1.00  0.00     0.060 A 
ATOM     34  C   UNL     1       3.595   6.762   8.848  1.00  0.00     0.016 A 
ATOM     35  C   UNL     1       4.582   4.540   8.849  1.00  0.00     0.016 A 
ATOM     36  C   UNL     1       3.059   6.536  10.112  1.00  0.00     0.010 A 
ATOM     37  C   UNL     1       4.063   4.324  10.130  1.00  0.00     0.010 A 
ATOM     38  C   UNL     1       3.332   5.334  10.778  1.00  0.00    -0.014 A 
BRANCH  38  39
ATOM     39  C   UNL     1       3.001   5.220  12.216  1.00  0.00     0.031 A 
ATOM     40  C   UNL     1       4.030   5.644  13.226  1.00  0.00     0.074 A 
ATOM     41  C   UNL     1       1.796   4.778  12.615  1.00  0.00     0.049 A 
ATOM     42  N   UNL     1       3.945   5.663  14.530  1.00  0.00    -0.248 NA
ATOM     43  C   UNL     1       5.321   6.119  12.698  1.00  0.00     0.031 C 
ATOM     44  C   UNL     1       0.713   4.357  11.728  1.00  0.00     0.029 A 
ATOM     45  N   UNL     1       1.288   4.603  13.877  1.00  0.00    -0.354 N 
ATOM     46  C   UNL     1       5.169   6.142  14.979  1.00  0.00     0.074 A 
ATOM     47  C   UNL     1       5.985   6.396  13.812  1.00  0.00     0.031 C 
ATOM     48  C   UNL     1      -0.329   3.953  12.476  1.00  0.00     0.029 A 
ATOM     49  C   UNL     1       0.018   4.078  13.891  1.00  0.00     0.049 A 
ATOM     50  H   UNL     1       1.786   4.831  14.695  1.00  0.00     0.167 HD
ATOM     51  C   UNL     1       5.570   6.371  16.249  1.00  0.00     0.034 A 
ATOM     52  C   UNL     1      -0.770   3.735  14.928  1.00  0.00     0.034 A 
ATOM     53  C   UNL     1       4.758   6.134  17.409  1.00  0.00     0.049 A 
ATOM     54  C   UNL     1      -0.283   3.956  16.335  1.00  0.00     0.074 A 
ATOM     55  C   UNL     1       5.072   6.365  18.736  1.00  0.00     0.029 A 
ATOM     56  N   UNL     1       3.479   5.605  17.381  1.00  0.00    -0.354 N 
ATOM     57  N   UNL     1       0.838   4.502  16.740  1.00  0.00    -0.248 NA
ATOM     58  C   UNL     1      -1.176   3.537  17.427  1.00  0.00     0.031 C 
ATOM     59  C   UNL     1       3.980   5.967  19.514  1.00  0.00     0.029 A 
ATOM     60  C   UNL     1       2.989   5.494  18.669  1.00  0.00     0.049 A 
ATOM     61  H   UNL     1       2.991   5.347  16.565  1.00  0.00     0.167 HD
ATOM     62  C   UNL     1       0.777   4.513  18.129  1.00  0.00     0.074 A 
ATOM     63  C   UNL     1      -0.496   3.929  18.498  1.00  0.00     0.031 C 
ATOM     64  C   UNL     1       1.700   4.955  19.017  1.00  0.00     0.034 A 
BRANCH  51  65
ATOM     65  C   UNL     1       6.938   6.955  16.456  1.00  0.00     0.023 A 
ATOM     66  C   UNL     1       7.116   8.344  16.304  1.00  0.00     0.012 A 
ATOM     67  C   UNL     1       8.016   6.153  16.873  1.00  0.00     0.148 A 
ATOM     68  C   UNL     1       8.354   8.929  16.559  1.00  0.00     0.002 A 
ATOM     69  C   UNL     1       9.242   6.747  17.149  1.00  0.00     0.091 A 
ATOM     70  F   UNL     1       7.821   4.832  16.990  1.00  0.00    -0.205 F 
ATOM     71  C   UNL     1       9.413   8.133  16.990  1.00  0.00     0.022 A 
BRANCH  69  72
ATOM     72  S   UNL     1      10.658   5.821  17.750  1.00  0.00     0.127 S 
ATOM     73  O   UNL     1      11.594   5.958  16.635  1.00  0.00    -0.237 OA
ATOM     74  O   UNL     1      11.025   6.569  18.951  1.00  0.00    -0.237 OA
ATOM     75  O   UNL     1      10.181   4.466  17.993  1.00  0.00    -0.744 OA
ENDBRANCH  69  72
ENDBRANCH  51  65
BRANCH  52  76
ATOM     76  C   UNL     1      -2.129   3.190  14.665  1.00  0.00     0.023 A 
ATOM     77  C   UNL     1      -3.252   4.014  14.870  1.00  0.00     0.012 A 
ATOM     78  C   UNL     1      -2.309   1.887  14.163  1.00  0.00     0.148 A 
ATOM     79  C   UNL     1      -4.535   3.546  14.586  1.00  0.00     0.002 A 
ATOM     80  C   UNL     1      -3.586   1.440  13.847  1.00  0.00     0.091 A 
ATOM     81  F   UNL     1      -1.223   1.122  13.986  1.00  0.00    -0.205 F 
ATOM     82  C   UNL     1      -4.701   2.264  14.066  1.00  0.00     0.022 A 
BRANCH  80  83
ATOM     83  S   UNL     1      -3.895  -0.158  13.085  1.00  0.00     0.127 S 
ATOM     84  O   UNL     1      -4.679  -0.834  14.116  1.00  0.00    -0.237 OA
ATOM     85  O   UNL     1      -4.646   0.223  11.889  1.00  0.00    -0.237 OA
ATOM     86  O   UNL     1      -2.583  -0.732  12.820  1.00  0.00    -0.744 OA
ENDBRANCH  80  83
ENDBRANCH  52  76
BRANCH  64  87
ATOM     87  C   UNL     1       1.390   4.841  20.483  1.00  0.00     0.023 A 
ATOM     88  C   UNL     1       1.585   3.606  21.130  1.00  0.00     0.012 A 
ATOM     89  C   UNL     1       1.054   5.981  21.240  1.00  0.00     0.148 A 
ATOM     90  C   UNL     1       1.447   3.506  22.514  1.00  0.00     0.002 A 
ATOM     91  C   UNL     1       0.950   5.880  22.622  1.00  0.00     0.091 A 
ATOM     92  F   UNL     1       0.869   7.142  20.596  1.00  0.00    -0.205 F 
ATOM     93  C   UNL     1       1.143   4.643  23.260  1.00  0.00     0.022 A 
BRANCH  91  94
ATOM     94  S   UNL     1       0.640   7.301  23.677  1.00  0.00     0.127 S 
ATOM     95  O   UNL     1      -0.696   7.005  24.190  1.00  0.00    -0.237 OA
ATOM     96  O   UNL     1       1.713   7.191  24.666  1.00  0.00    -0.237 OA
ATOM     97  O   UNL     1       0.728   8.471  22.814  1.00  0.00    -0.744 OA
ENDBRANCH  91  94
ENDBRANCH  64  87
ENDBRANCH  38  39
ENDBRANCH  31  33
ENDBRANCH  30  31
ENDBRANCH  29  30
ENDBRANCH  28  29
ENDBRANCH  27  28
ENDBRANCH   1  27
TORSDOF 21
