REMARK SMILES O=C(OCCOCCOC(=O)c1ccc(-c2c3nc(c(-c4cccc(S(=O)(=O)[O-])c4F)c4ccc([nH]4)c(-c4cccc(S(=O)(=O)[O-])c4F)c4nc(c(-c5cccc(S(=O)(=O)[O-])c5F)c5ccc2[nH]5)C=C4)C=C3)cc1)C1=Cc2cc(Cl)cc(-c3ccc(Cl)cc3)c2O[C@@H]1C(F)(F)F
REMARK SMILES IDX 7 1 6 2 5 3 4 4 3 5 2 6 1 7 75 8 76 9 92 10 77 11 91 12
REMARK SMILES IDX 78 13 90 14 79 15 82 16 80 17 81 18 93 19 94 20 95 21 96 22
REMARK SMILES IDX 83 23 84 24 89 25 85 26 88 27 86 28 87 29 8 30 9 31 10 32
REMARK SMILES IDX 11 33 12 34 13 35 74 36 14 37 73 38 15 39 16 40 17 41 67 42
REMARK SMILES IDX 18 43 72 44 66 45 68 46 19 47 71 48 65 49 64 50 20 52 52 53
REMARK SMILES IDX 32 54 51 55 33 56 36 57 50 58 69 59 34 60 35 61 49 63 70 64
REMARK SMILES IDX 37 65 21 66 22 67 30 68 23 69 25 70 31 71 24 72 26 73 27 74
REMARK SMILES IDX 28 75 29 76 53 77 54 78 62 79 55 80 57 81 63 82 56 83 58 84
REMARK SMILES IDX 59 85 60 86 61 87 38 88 39 89 47 90 40 91 42 92 48 93 41 94
REMARK SMILES IDX 43 95 44 96 45 97 46 98
REMARK H PARENT 68 51 36 62
REMARK Flexibility Score: inf
ROOT
ATOM      1  C   UNL     1       2.652   0.334   3.048  1.00  0.00     0.202 C 
ENDROOT
BRANCH   1   2
ATOM      2  O   UNL     1       3.910   0.027   2.400  1.00  0.00    -0.374 OA
BRANCH   2   3
ATOM      3  C   UNL     1       4.320  -0.425   0.889  1.00  0.00     0.202 C 
BRANCH   3   4
ATOM      4  C   UNL     1       3.410   0.071  -1.024  1.00  0.00     0.261 C 
BRANCH   4   5
ATOM      5  O   UNL     1       2.466  -0.886  -1.853  1.00  0.00    -0.460 OA
BRANCH   5   6
ATOM      6  C   UNL     1       2.651  -2.184  -1.591  1.00  0.00     0.338 C 
ATOM      7  O   UNL     1       2.080  -3.169  -1.981  1.00  0.00    -0.246 OA
BRANCH   6   8
ATOM      8  C   UNL     1       3.530  -1.948  -0.480  1.00  0.00     0.087 C 
ATOM      9  C   UNL     1       4.887  -1.637  -0.954  1.00  0.00     0.027 C 
ATOM     10  C   UNL     1       2.395  -0.726   0.508  1.00  0.00     0.316 C 
ATOM     11  C   UNL     1       5.617   0.014  -0.860  1.00  0.00     0.019 A 
ATOM     12  O   UNL     1       3.179   1.056   0.618  1.00  0.00    -0.475 OA
ATOM     13  C   UNL     1       6.763   0.182  -1.592  1.00  0.00     0.032 A 
ATOM     14  C   UNL     1       4.803   1.398  -0.164  1.00  0.00     0.135 A 
ATOM     15  C   UNL     1       7.140   1.508  -1.797  1.00  0.00     0.042 A 
ATOM     16  C   UNL     1       5.348   2.707  -0.350  1.00  0.00     0.026 A 
ATOM     17  Cl  UNL     1       8.552   1.778  -2.768  1.00  0.00    -0.084 Cl
ATOM     18  C   UNL     1       6.457   2.668  -1.265  1.00  0.00     0.033 A 
BRANCH  10  19
ATOM     19  C   UNL     1       1.914  -1.802   1.596  1.00  0.00     0.430 C 
ATOM     20  F   UNL     1       0.911  -1.395   2.400  1.00  0.00    -0.167 F 
ATOM     21  F   UNL     1       1.391  -2.875   0.928  1.00  0.00    -0.167 F 
ATOM     22  F   UNL     1       2.900  -2.333   2.355  1.00  0.00    -0.167 F 
ENDBRANCH  10  19
BRANCH  16  23
ATOM     23  C   UNL     1       4.963   4.145   0.275  1.00  0.00    -0.015 A 
ATOM     24  C   UNL     1       3.318   4.498  -0.404  1.00  0.00     0.010 A 
ATOM     25  C   UNL     1       5.531   5.287   1.859  1.00  0.00     0.010 A 
ATOM     26  C   UNL     1       2.323   5.740   0.354  1.00  0.00     0.021 A 
ATOM     27  C   UNL     1       4.397   6.512   2.527  1.00  0.00     0.021 A 
ATOM     28  C   UNL     1       2.845   6.688   1.757  1.00  0.00     0.041 A 
ATOM     29  Cl  UNL     1       1.764   7.867   2.394  1.00  0.00    -0.084 Cl
ENDBRANCH  16  23
ENDBRANCH   6   8
ENDBRANCH   5   6
ENDBRANCH   4   5
ENDBRANCH   3   4
ENDBRANCH   2   3
ENDBRANCH   1   2
BRANCH   1  30
ATOM     30  C   UNL     1       2.664   1.482   4.055  1.00  0.00     0.261 C 
BRANCH  30  31
ATOM     31  O   UNL     1       3.263   2.604   3.462  1.00  0.00    -0.460 OA
BRANCH  31  32
ATOM     32  C   UNL     1       4.598   2.479   3.371  1.00  0.00     0.338 C 
ATOM     33  O   UNL     1       5.362   1.760   3.985  1.00  0.00    -0.246 OA
BRANCH  32  34
ATOM     34  C   UNL     1       4.959   3.362   2.295  1.00  0.00     0.060 A 
ATOM     35  C   UNL     1       6.644   3.415   1.728  1.00  0.00     0.016 A 
ATOM     36  C   UNL     1       3.795   4.619   1.691  1.00  0.00     0.016 A 
ATOM     37  C   UNL     1       7.253   4.687   0.631  1.00  0.00     0.010 A 
ATOM     38  C   UNL     1       4.544   6.016   0.439  1.00  0.00     0.010 A 
ATOM     39  C   UNL     1       6.267   5.987  -0.009  1.00  0.00    -0.014 A 
BRANCH  39  40
ATOM     40  C   UNL     1       6.746   7.309  -0.542  1.00  0.00     0.031 A 
ATOM     41  C   UNL     1       7.061   8.457   0.408  1.00  0.00     0.074 A 
ATOM     42  C   UNL     1       6.454   7.617  -1.820  1.00  0.00     0.049 A 
ATOM     43  N   UNL     1       7.142   9.748   0.175  1.00  0.00    -0.248 NA
ATOM     44  C   UNL     1       7.223   8.118   1.825  1.00  0.00     0.031 C 
ATOM     45  C   UNL     1       5.931   6.676  -2.807  1.00  0.00     0.029 A 
ATOM     46  N   UNL     1       6.458   8.827  -2.475  1.00  0.00    -0.354 N 
ATOM     47  C   UNL     1       7.291  10.363   1.421  1.00  0.00     0.074 A 
ATOM     48  C   UNL     1       7.220   9.309   2.405  1.00  0.00     0.031 C 
ATOM     49  C   UNL     1       5.613   7.349  -3.925  1.00  0.00     0.029 A 
ATOM     50  C   UNL     1       5.914   8.768  -3.738  1.00  0.00     0.049 A 
ATOM     51  H   UNL     1       6.816   9.654  -2.079  1.00  0.00     0.167 HD
ATOM     52  C   UNL     1       7.513  11.667   1.733  1.00  0.00     0.034 A 
ATOM     53  C   UNL     1       5.678   9.739  -4.645  1.00  0.00     0.034 A 
ATOM     54  C   UNL     1       7.625  12.713   0.753  1.00  0.00     0.049 A 
ATOM     55  C   UNL     1       6.056  11.166  -4.338  1.00  0.00     0.074 A 
ATOM     56  C   UNL     1       8.040  14.023   0.925  1.00  0.00     0.029 A 
ATOM     57  N   UNL     1       7.291  12.573  -0.583  1.00  0.00    -0.354 N 
ATOM     58  N   UNL     1       6.471  11.686  -3.210  1.00  0.00    -0.248 NA
ATOM     59  C   UNL     1       5.991  12.129  -5.449  1.00  0.00     0.031 C 
ATOM     60  C   UNL     1       7.915  14.686  -0.301  1.00  0.00     0.029 A 
ATOM     61  C   UNL     1       7.481  13.771  -1.247  1.00  0.00     0.049 A 
ATOM     62  H   UNL     1       6.965  11.742  -0.999  1.00  0.00     0.167 HD
ATOM     63  C   UNL     1       6.776  13.016  -3.490  1.00  0.00     0.074 A 
ATOM     64  C   UNL     1       6.492  13.225  -4.893  1.00  0.00     0.031 C 
ATOM     65  C   UNL     1       7.257  13.970  -2.655  1.00  0.00     0.034 A 
BRANCH  52  66
ATOM     66  C   UNL     1       7.744  12.031   3.190  1.00  0.00     0.023 A 
ATOM     67  C   UNL     1       8.860  11.494   3.868  1.00  0.00     0.012 A 
ATOM     68  C   UNL     1       6.915  12.949   3.871  1.00  0.00     0.148 A 
ATOM     69  C   UNL     1       9.104  11.796   5.207  1.00  0.00     0.002 A 
ATOM     70  C   UNL     1       7.200  13.293   5.190  1.00  0.00     0.091 A 
ATOM     71  F   UNL     1       5.861  13.467   3.224  1.00  0.00    -0.205 F 
ATOM     72  C   UNL     1       8.279  12.701   5.865  1.00  0.00     0.022 A 
BRANCH  70  73
ATOM     73  S   UNL     1       6.268  14.529   6.106  1.00  0.00     0.127 S 
ATOM     74  O   UNL     1       5.583  13.704   7.101  1.00  0.00    -0.237 OA
ATOM     75  O   UNL     1       7.332  15.375   6.649  1.00  0.00    -0.237 OA
ATOM     76  O   UNL     1       5.404  15.184   5.136  1.00  0.00    -0.744 OA
ENDBRANCH  70  73
ENDBRANCH  52  66
BRANCH  53  77
ATOM     77  C   UNL     1       5.181   9.367  -5.999  1.00  0.00     0.023 A 
ATOM     78  C   UNL     1       6.094   9.362  -7.073  1.00  0.00     0.012 A 
ATOM     79  C   UNL     1       3.847   8.981  -6.226  1.00  0.00     0.148 A 
ATOM     80  C   UNL     1       5.681   9.018  -8.358  1.00  0.00     0.002 A 
ATOM     81  C   UNL     1       3.453   8.591  -7.502  1.00  0.00     0.091 A 
ATOM     82  F   UNL     1       3.001   8.978  -5.187  1.00  0.00    -0.205 F 
ATOM     83  C   UNL     1       4.363   8.626  -8.571  1.00  0.00     0.022 A 
BRANCH  81  84
ATOM     84  S   UNL     1       1.811   7.959  -7.865  1.00  0.00     0.127 S 
ATOM     85  O   UNL     1       1.314   8.948  -8.819  1.00  0.00    -0.237 OA
ATOM     86  O   UNL     1       2.119   6.649  -8.439  1.00  0.00    -0.237 OA
ATOM     87  O   UNL     1       1.111   7.914  -6.589  1.00  0.00    -0.744 OA
ENDBRANCH  81  84
ENDBRANCH  53  77
BRANCH  65  88
ATOM     88  C   UNL     1       7.608  15.319  -3.228  1.00  0.00     0.023 A 
ATOM     89  C   UNL     1       6.601  16.218  -3.627  1.00  0.00     0.012 A 
ATOM     90  C   UNL     1       8.957  15.732  -3.264  1.00  0.00     0.148 A 
ATOM     91  C   UNL     1       6.933  17.498  -4.076  1.00  0.00     0.002 A 
ATOM     92  C   UNL     1       9.275  17.025  -3.658  1.00  0.00     0.091 A 
ATOM     93  F   UNL     1       9.902  14.854  -2.898  1.00  0.00    -0.205 F 
ATOM     94  C   UNL     1       8.266  17.906  -4.077  1.00  0.00     0.022 A 
BRANCH  92  95
ATOM     95  S   UNL     1      10.951  17.669  -3.591  1.00  0.00     0.127 S 
ATOM     96  O   UNL     1      11.259  17.846  -5.009  1.00  0.00    -0.237 OA
ATOM     97  O   UNL     1      10.772  18.915  -2.845  1.00  0.00    -0.237 OA
ATOM     98  O   UNL     1      11.747  16.659  -2.905  1.00  0.00    -0.744 OA
ENDBRANCH  92  95
ENDBRANCH  65  88
ENDBRANCH  39  40
ENDBRANCH  32  34
ENDBRANCH  31  32
ENDBRANCH  30  31
ENDBRANCH   1  30
TORSDOF 19
