REMARK SMILES O=C(CN1C(=O)S/C(=C\c2cccn2-c2cccc(C(=O)OCCOCCOC(=O)c3ccc(-c4c5nc(c(-c6cccc(S(=O)(=O)[O-])c6F)c6ccc([nH]6)c(-c6cccc(S(=O)(=O)[O-])c6F)c6nc(c(-c7cccc(S(=O)(=O)[O-])c7F)c7ccc4[nH]7)C=C6)C=C5)cc3)c2)C1=O)Nc1ccc(Cl)cc1
REMARK SMILES IDX 24 1 23 2 22 3 20 4 21 5 19 6 15 7 16 8 94 9 17 10 18 11
REMARK SMILES IDX 14 12 10 13 11 14 12 15 13 16 9 17 4 18 5 19 95 20 6 21 7 22
REMARK SMILES IDX 8 23 96 24 3 25 2 26 1 27 97 28 98 30 99 31 104 32 100 33
REMARK SMILES IDX 103 34 101 35 102 36 25 37 26 38 27 39 28 40 29 41 30 42
REMARK SMILES IDX 31 43 32 44 93 45 33 46 92 47 34 48 35 49 36 50 86 51 37 52
REMARK SMILES IDX 91 53 85 54 87 55 38 56 90 57 84 58 83 59 39 61 71 62 51 63
REMARK SMILES IDX 70 64 52 65 55 66 69 67 88 68 53 69 54 70 68 72 89 73 56 74
REMARK SMILES IDX 40 75 41 76 49 77 42 78 44 79 50 80 43 81 45 82 46 83 47 84
REMARK SMILES IDX 48 85 72 86 73 87 81 88 74 89 76 90 82 91 75 92 77 93 78 94
REMARK SMILES IDX 79 95 80 96 57 97 58 98 66 99 59 100 61 101 67 102 60 103
REMARK SMILES IDX 62 104 63 105 64 106 65 107
REMARK H PARENT 97 29 87 60 55 71
REMARK Flexibility Score: inf
ROOT
ATOM      1  C   UNL     1      -0.189  -2.679  -7.204  1.00  0.00     0.202 C 
ENDROOT
BRANCH   1   2
ATOM      2  C   UNL     1      -0.034  -2.986  -5.712  1.00  0.00     0.261 C 
BRANCH   2   3
ATOM      3  O   UNL     1       1.122  -3.798  -5.447  1.00  0.00    -0.460 OA
BRANCH   3   4
ATOM      4  C   UNL     1       0.860  -5.082  -5.095  1.00  0.00     0.338 C 
ATOM      5  O   UNL     1      -0.232  -5.575  -4.867  1.00  0.00    -0.246 OA
BRANCH   4   6
ATOM      6  C   UNL     1       2.095  -5.893  -5.221  1.00  0.00     0.062 A 
ATOM      7  C   UNL     1       4.486  -6.203  -5.026  1.00  0.00     0.046 A 
ATOM      8  C   UNL     1       4.364  -7.483  -5.587  1.00  0.00     0.026 A 
ATOM      9  C   UNL     1       3.353  -5.391  -4.877  1.00  0.00     0.042 A 
ATOM     10  C   UNL     1       3.107  -7.973  -5.942  1.00  0.00     0.003 A 
ATOM     11  C   UNL     1       1.974  -7.186  -5.745  1.00  0.00     0.016 A 
BRANCH   7  12
ATOM     12  N   UNL     1       5.769  -5.746  -4.604  1.00  0.00    -0.317 N 
ATOM     13  C   UNL     1       6.086  -4.960  -3.493  1.00  0.00     0.047 A 
ATOM     14  C   UNL     1       7.453  -4.729  -3.522  1.00  0.00     0.028 A 
ATOM     15  C   UNL     1       7.991  -5.389  -4.643  1.00  0.00     0.020 A 
ATOM     16  C   UNL     1       6.951  -6.040  -5.262  1.00  0.00     0.092 A 
BRANCH  13  17
ATOM     17  C   UNL     1       5.102  -4.607  -2.524  1.00  0.00     0.048 C 
ATOM     18  N   UNL     1       4.005  -1.692  -0.698  1.00  0.00    -0.259 N 
ATOM     19  C   UNL     1       5.003  -0.979  -1.311  1.00  0.00     0.294 C 
ATOM     20  C   UNL     1       3.904  -3.018  -1.045  1.00  0.00     0.268 C 
ATOM     21  O   UNL     1       5.291   0.176  -1.072  1.00  0.00    -0.261 OA
ATOM     22  S   UNL     1       5.786  -1.939  -2.529  1.00  0.00    -0.022 SA
ATOM     23  C   UNL     1       4.927  -3.357  -2.076  1.00  0.00     0.085 C 
ATOM     24  O   UNL     1       3.140  -3.837  -0.551  1.00  0.00    -0.268 OA
BRANCH  18  25
ATOM     25  C   UNL     1       3.238  -1.115   0.397  1.00  0.00     0.230 C 
BRANCH  25  26
ATOM     26  C   UNL     1       2.237  -0.012   0.009  1.00  0.00     0.244 C 
ATOM     27  O   UNL     1       1.075  -0.062   0.407  1.00  0.00    -0.273 OA
ATOM     28  N   UNL     1       2.799   1.052  -0.676  1.00  0.00    -0.325 N 
ATOM     29  H   UNL     1       3.745   0.951  -0.930  1.00  0.00     0.169 HD
BRANCH  28  30
ATOM     30  C   UNL     1       2.183   2.257  -1.053  1.00  0.00     0.041 A 
ATOM     31  C   UNL     1       2.804   2.997  -2.068  1.00  0.00     0.027 A 
ATOM     32  C   UNL     1       1.024   2.753  -0.455  1.00  0.00     0.027 A 
ATOM     33  C   UNL     1       2.243   4.195  -2.518  1.00  0.00     0.022 A 
ATOM     34  C   UNL     1       0.482   3.971  -0.880  1.00  0.00     0.022 A 
ATOM     35  C   UNL     1       1.084   4.679  -1.919  1.00  0.00     0.041 A 
ATOM     36  Cl  UNL     1       0.390   6.157  -2.459  1.00  0.00    -0.084 Cl
ENDBRANCH  28  30
ENDBRANCH  25  26
ENDBRANCH  18  25
ENDBRANCH  13  17
ENDBRANCH   7  12
ENDBRANCH   4   6
ENDBRANCH   3   4
ENDBRANCH   2   3
ENDBRANCH   1   2
BRANCH   1  37
ATOM     37  O   UNL     1      -0.443  -3.789  -8.068  1.00  0.00    -0.374 OA
BRANCH  37  38
ATOM     38  C   UNL     1       0.639  -4.651  -8.396  1.00  0.00     0.202 C 
BRANCH  38  39
ATOM     39  C   UNL     1       1.724  -4.169  -9.352  1.00  0.00     0.261 C 
BRANCH  39  40
ATOM     40  O   UNL     1       2.363  -2.955  -8.978  1.00  0.00    -0.460 OA
BRANCH  40  41
ATOM     41  C   UNL     1       1.817  -1.895  -9.617  1.00  0.00     0.338 C 
ATOM     42  O   UNL     1       0.650  -1.773  -9.960  1.00  0.00    -0.246 OA
BRANCH  41  43
ATOM     43  C   UNL     1       2.854  -0.966 -10.060  1.00  0.00     0.060 A 
ATOM     44  C   UNL     1       2.411   0.271 -10.536  1.00  0.00     0.016 A 
ATOM     45  C   UNL     1       4.160  -1.419 -10.273  1.00  0.00     0.016 A 
ATOM     46  C   UNL     1       3.251   1.012 -11.337  1.00  0.00     0.010 A 
ATOM     47  C   UNL     1       4.985  -0.696 -11.113  1.00  0.00     0.010 A 
ATOM     48  C   UNL     1       4.521   0.507 -11.653  1.00  0.00    -0.014 A 
BRANCH  48  49
ATOM     49  C   UNL     1       5.448   1.436 -12.319  1.00  0.00     0.031 A 
ATOM     50  C   UNL     1       6.022   2.371 -11.203  1.00  0.00     0.074 A 
ATOM     51  C   UNL     1       5.508   1.362 -13.694  1.00  0.00     0.049 A 
ATOM     52  N   UNL     1       6.140   3.665 -11.169  1.00  0.00    -0.248 NA
ATOM     53  C   UNL     1       6.328   1.805  -9.848  1.00  0.00     0.031 C 
ATOM     54  C   UNL     1       4.922   0.280 -14.532  1.00  0.00     0.029 A 
ATOM     55  N   UNL     1       6.072   2.145 -14.686  1.00  0.00    -0.354 N 
ATOM     56  C   UNL     1       6.829   3.986  -9.967  1.00  0.00     0.074 A 
ATOM     57  C   UNL     1       6.685   2.860  -9.111  1.00  0.00     0.031 C 
ATOM     58  C   UNL     1       5.066   0.537 -15.858  1.00  0.00     0.029 A 
ATOM     59  C   UNL     1       5.773   1.792 -16.042  1.00  0.00     0.049 A 
ATOM     60  H   UNL     1       6.653   2.909 -14.469  1.00  0.00     0.167 HD
ATOM     61  C   UNL     1       7.707   5.034  -9.880  1.00  0.00     0.034 A 
ATOM     62  C   UNL     1       6.049   2.499 -17.198  1.00  0.00     0.034 A 
ATOM     63  C   UNL     1       7.749   5.674 -11.154  1.00  0.00     0.049 A 
ATOM     64  C   UNL     1       6.923   3.583 -16.736  1.00  0.00     0.074 A 
ATOM     65  C   UNL     1       6.827   6.398 -11.862  1.00  0.00     0.029 A 
ATOM     66  N   UNL     1       8.701   5.157 -12.005  1.00  0.00    -0.354 N 
ATOM     67  N   UNL     1       8.156   3.421 -16.356  1.00  0.00    -0.248 NA
ATOM     68  C   UNL     1       6.333   4.909 -16.523  1.00  0.00     0.031 C 
ATOM     69  C   UNL     1       6.954   5.846 -13.151  1.00  0.00     0.029 A 
ATOM     70  C   UNL     1       8.149   5.119 -13.250  1.00  0.00     0.049 A 
ATOM     71  H   UNL     1       9.610   4.869 -11.759  1.00  0.00     0.167 HD
ATOM     72  C   UNL     1       8.322   4.489 -15.515  1.00  0.00     0.074 A 
ATOM     73  C   UNL     1       7.367   5.498 -15.933  1.00  0.00     0.031 C 
ATOM     74  C   UNL     1       8.762   4.281 -14.245  1.00  0.00     0.034 A 
BRANCH  61  75
ATOM     75  C   UNL     1       8.859   5.383  -8.955  1.00  0.00     0.023 A 
ATOM     76  C   UNL     1       9.476   6.641  -9.231  1.00  0.00     0.012 A 
ATOM     77  C   UNL     1       9.574   4.488  -8.143  1.00  0.00     0.148 A 
ATOM     78  C   UNL     1      10.801   6.914  -8.903  1.00  0.00     0.002 A 
ATOM     79  C   UNL     1      10.881   4.800  -7.752  1.00  0.00     0.091 A 
ATOM     80  F   UNL     1       9.029   3.317  -7.806  1.00  0.00    -0.205 F 
ATOM     81  C   UNL     1      11.512   5.978  -8.179  1.00  0.00     0.022 A 
BRANCH  79  82
ATOM     82  S   UNL     1      11.870   3.736  -6.695  1.00  0.00     0.127 S 
ATOM     83  O   UNL     1      12.940   3.319  -7.598  1.00  0.00    -0.237 OA
ATOM     84  O   UNL     1      12.291   4.672  -5.649  1.00  0.00    -0.237 OA
ATOM     85  O   UNL     1      10.973   2.688  -6.230  1.00  0.00    -0.744 OA
ENDBRANCH  79  82
ENDBRANCH  61  75
BRANCH  62  86
ATOM     86  C   UNL     1       5.673   2.561 -18.683  1.00  0.00     0.023 A 
ATOM     87  C   UNL     1       5.108   1.514 -19.422  1.00  0.00     0.012 A 
ATOM     88  C   UNL     1       5.824   3.795 -19.412  1.00  0.00     0.148 A 
ATOM     89  C   UNL     1       4.632   1.719 -20.745  1.00  0.00     0.002 A 
ATOM     90  C   UNL     1       5.227   4.035 -20.648  1.00  0.00     0.091 A 
ATOM     91  F   UNL     1       6.619   4.758 -18.936  1.00  0.00    -0.205 F 
ATOM     92  C   UNL     1       4.637   2.986 -21.335  1.00  0.00     0.022 A 
BRANCH  90  93
ATOM     93  S   UNL     1       5.063   5.707 -21.327  1.00  0.00     0.127 S 
ATOM     94  O   UNL     1       5.582   5.553 -22.684  1.00  0.00    -0.237 OA
ATOM     95  O   UNL     1       3.617   5.914 -21.244  1.00  0.00    -0.237 OA
ATOM     96  O   UNL     1       5.848   6.581 -20.464  1.00  0.00    -0.744 OA
ENDBRANCH  90  93
ENDBRANCH  62  86
BRANCH  74  97
ATOM     97  C   UNL     1       9.618   3.030 -14.016  1.00  0.00     0.023 A 
ATOM     98  C   UNL     1      10.801   2.928 -14.774  1.00  0.00     0.012 A 
ATOM     99  C   UNL     1       9.302   1.926 -13.183  1.00  0.00     0.148 A 
ATOM    100  C   UNL     1      11.623   1.796 -14.721  1.00  0.00     0.002 A 
ATOM    101  C   UNL     1      10.103   0.772 -13.158  1.00  0.00     0.091 A 
ATOM    102  F   UNL     1       8.230   2.004 -12.400  1.00  0.00    -0.205 F 
ATOM    103  C   UNL     1      11.273   0.717 -13.920  1.00  0.00     0.022 A 
BRANCH 101 104
ATOM    104  S   UNL     1       9.682  -0.739 -12.255  1.00  0.00     0.127 S 
ATOM    105  O   UNL     1       9.833  -1.776 -13.280  1.00  0.00    -0.237 OA
ATOM    106  O   UNL     1      10.702  -0.781 -11.212  1.00  0.00    -0.237 OA
ATOM    107  O   UNL     1       8.313  -0.569 -11.785  1.00  0.00    -0.744 OA
ENDBRANCH 101 104
ENDBRANCH  74  97
ENDBRANCH  48  49
ENDBRANCH  41  43
ENDBRANCH  40  41
ENDBRANCH  39  40
ENDBRANCH  38  39
ENDBRANCH  37  38
ENDBRANCH   1  37
TORSDOF 22
