REMARK SMILES CC1(C)[C@@]2(C(=O)OCCOCCOC(=O)c3ccc(-c4c5nc(c(-c6cccc(S(=O)(=O)[O-])c6F)c6ccc([nH]6)c(-c6cccc(S(=O)(=O)[O-])c6F)c6nc(c(-c7cccc(S(=O)(=O)[O-])c7F)c7ccc4[nH]7)C=C6)C=C5)cc3)CC[C@]1(C)/C(=N/NC(=O)c1ccc(Cl)cc1)C2
REMARK SMILES IDX 11 1 10 2 9 3 8 4 7 5 5 6 6 7 4 8 1 9 2 10 3 11 81 12 79 13
REMARK SMILES IDX 95 14 80 15 82 16 83 17 84 18 85 19 86 20 87 22 88 23 89 24
REMARK SMILES IDX 94 25 90 26 93 27 91 28 92 29 12 30 13 31 14 32 15 33 16 34
REMARK SMILES IDX 17 35 78 36 18 37 77 38 19 39 20 40 21 41 71 42 22 43 76 44
REMARK SMILES IDX 70 45 72 46 23 47 75 48 69 49 68 50 24 52 56 53 36 54 55 55
REMARK SMILES IDX 37 56 40 57 54 58 73 59 38 60 39 61 53 63 74 64 41 65 25 66
REMARK SMILES IDX 26 67 34 68 27 69 29 70 35 71 28 72 30 73 31 74 32 75 33 76
REMARK SMILES IDX 57 77 58 78 66 79 59 80 61 81 67 82 60 83 62 84 63 85 64 86
REMARK SMILES IDX 65 87 42 88 43 89 51 90 44 91 46 92 52 93 45 94 47 95 48 96
REMARK SMILES IDX 49 97 50 98
REMARK H PARENT 85 21 72 51 40 62
REMARK Flexibility Score: inf
ROOT
ATOM      1  C   UNL     1       3.398   0.551   4.199  1.00  0.00     0.202 C 
ENDROOT
BRANCH   1   2
ATOM      2  O   UNL     1       3.965   1.848   4.026  1.00  0.00    -0.374 OA
BRANCH   2   3
ATOM      3  C   UNL     1       3.067   2.946   4.218  1.00  0.00     0.202 C 
BRANCH   3   4
ATOM      4  C   UNL     1       2.183   3.300   3.017  1.00  0.00     0.261 C 
BRANCH   4   5
ATOM      5  O   UNL     1       1.230   2.258   2.733  1.00  0.00    -0.463 OA
BRANCH   5   6
ATOM      6  C   UNL     1       1.507   1.469   1.659  1.00  0.00     0.313 C 
ATOM      7  O   UNL     1       2.449   1.629   0.898  1.00  0.00    -0.252 OA
BRANCH   6   8
ATOM      8  C   UNL     1       0.476   0.364   1.521  1.00  0.00     0.079 C 
ATOM      9  C   UNL     1       1.170  -0.384  -0.870  1.00  0.00     0.013 C 
ATOM     10  C   UNL     1       0.838  -0.814   0.575  1.00  0.00    -0.008 C 
ATOM     11  C   UNL     1       2.010  -1.697   1.060  1.00  0.00     0.013 C 
ATOM     12  C   UNL     1      -0.574  -1.468   0.753  1.00  0.00     0.014 C 
ATOM     13  C   UNL     1      -0.854   0.914   0.918  1.00  0.00     0.021 C 
ATOM     14  C   UNL     1       0.124  -0.366   2.842  1.00  0.00     0.073 C 
ATOM     15  C   UNL     1      -1.544  -0.343   0.350  1.00  0.00     0.014 C 
ATOM     16  C   UNL     1      -0.789  -2.798   0.067  1.00  0.00     0.018 C 
ATOM     17  C   UNL     1      -0.692  -1.499   2.293  1.00  0.00     0.046 C 
ATOM     18  N   UNL     1      -1.375  -2.429   2.882  1.00  0.00    -0.181 NA
BRANCH  18  19
ATOM     19  N   UNL     1      -1.471  -2.635   4.223  1.00  0.00    -0.243 N 
ATOM     20  C   UNL     1      -1.613  -1.838   5.340  1.00  0.00     0.271 C 
ATOM     21  H   UNL     1      -1.429  -3.591   4.455  1.00  0.00     0.194 HD
ATOM     22  O   UNL     1      -1.560  -2.347   6.460  1.00  0.00    -0.267 OA
BRANCH  20  23
ATOM     23  C   UNL     1      -1.834  -0.390   5.255  1.00  0.00     0.041 A 
ATOM     24  C   UNL     1      -0.932   0.441   5.936  1.00  0.00     0.015 A 
ATOM     25  C   UNL     1      -2.849   0.155   4.462  1.00  0.00     0.015 A 
ATOM     26  C   UNL     1      -0.964   1.818   5.712  1.00  0.00     0.021 A 
ATOM     27  C   UNL     1      -2.894   1.540   4.271  1.00  0.00     0.021 A 
ATOM     28  C   UNL     1      -1.929   2.359   4.863  1.00  0.00     0.041 A 
ATOM     29  Cl  UNL     1      -1.864   4.032   4.478  1.00  0.00    -0.084 Cl
ENDBRANCH  20  23
ENDBRANCH  18  19
ENDBRANCH   6   8
ENDBRANCH   5   6
ENDBRANCH   4   5
ENDBRANCH   3   4
ENDBRANCH   2   3
ENDBRANCH   1   2
BRANCH   1  30
ATOM     30  C   UNL     1       3.410  -0.013   5.622  1.00  0.00     0.261 C 
BRANCH  30  31
ATOM     31  O   UNL     1       2.583   0.768   6.500  1.00  0.00    -0.460 OA
BRANCH  31  32
ATOM     32  C   UNL     1       3.277   1.630   7.285  1.00  0.00     0.338 C 
ATOM     33  O   UNL     1       4.486   1.719   7.379  1.00  0.00    -0.246 OA
BRANCH  32  34
ATOM     34  C   UNL     1       2.356   2.606   7.902  1.00  0.00     0.060 A 
ATOM     35  C   UNL     1       2.745   3.948   7.856  1.00  0.00     0.016 A 
ATOM     36  C   UNL     1       1.177   2.233   8.552  1.00  0.00     0.016 A 
ATOM     37  C   UNL     1       2.006   4.908   8.539  1.00  0.00     0.010 A 
ATOM     38  C   UNL     1       0.413   3.208   9.206  1.00  0.00     0.010 A 
ATOM     39  C   UNL     1       0.862   4.539   9.262  1.00  0.00    -0.014 A 
BRANCH  39  40
ATOM     40  C   UNL     1       0.275   5.531  10.200  1.00  0.00     0.031 A 
ATOM     41  C   UNL     1       0.494   5.369  11.682  1.00  0.00     0.074 A 
ATOM     42  C   UNL     1      -0.350   6.629   9.734  1.00  0.00     0.049 A 
ATOM     43  N   UNL     1       0.246   6.211  12.653  1.00  0.00    -0.248 NA
ATOM     44  C   UNL     1       1.069   4.092  12.132  1.00  0.00     0.031 C 
ATOM     45  C   UNL     1      -0.636   6.904   8.327  1.00  0.00     0.029 A 
ATOM     46  N   UNL     1      -0.836   7.726  10.399  1.00  0.00    -0.354 N 
ATOM     47  C   UNL     1       0.620   5.563  13.825  1.00  0.00     0.074 A 
ATOM     48  C   UNL     1       1.073   4.242  13.447  1.00  0.00     0.031 C 
ATOM     49  C   UNL     1      -1.223   8.109   8.231  1.00  0.00     0.029 A 
ATOM     50  C   UNL     1      -1.369   8.681   9.568  1.00  0.00     0.049 A 
ATOM     51  H   UNL     1      -0.805   7.821  11.379  1.00  0.00     0.167 HD
ATOM     52  C   UNL     1       0.617   6.026  15.098  1.00  0.00     0.034 A 
ATOM     53  C   UNL     1      -1.901   9.887   9.850  1.00  0.00     0.034 A 
ATOM     54  C   UNL     1       0.169   7.339  15.478  1.00  0.00     0.049 A 
ATOM     55  C   UNL     1      -1.914  10.376  11.274  1.00  0.00     0.074 A 
ATOM     56  C   UNL     1       0.165   7.919  16.734  1.00  0.00     0.029 A 
ATOM     57  N   UNL     1      -0.376   8.271  14.608  1.00  0.00    -0.354 N 
ATOM     58  N   UNL     1      -1.438   9.803  12.352  1.00  0.00    -0.248 NA
ATOM     59  C   UNL     1      -2.503  11.703  11.510  1.00  0.00     0.031 C 
ATOM     60  C   UNL     1      -0.424   9.185  16.630  1.00  0.00     0.029 A 
ATOM     61  C   UNL     1      -0.740   9.415  15.301  1.00  0.00     0.049 A 
ATOM     62  H   UNL     1      -0.489   8.140  13.639  1.00  0.00     0.167 HD
ATOM     63  C   UNL     1      -1.631  10.712  13.387  1.00  0.00     0.074 A 
ATOM     64  C   UNL     1      -2.250  11.883  12.799  1.00  0.00     0.031 C 
ATOM     65  C   UNL     1      -1.329  10.588  14.705  1.00  0.00     0.034 A 
BRANCH  52  66
ATOM     66  C   UNL     1       1.124   5.093  16.171  1.00  0.00     0.023 A 
ATOM     67  C   UNL     1       2.492   4.745  16.214  1.00  0.00     0.012 A 
ATOM     68  C   UNL     1       0.251   4.564  17.141  1.00  0.00     0.148 A 
ATOM     69  C   UNL     1       2.969   3.843  17.165  1.00  0.00     0.002 A 
ATOM     70  C   UNL     1       0.744   3.708  18.119  1.00  0.00     0.091 A 
ATOM     71  F   UNL     1      -1.049   4.885  17.076  1.00  0.00    -0.205 F 
ATOM     72  C   UNL     1       2.097   3.332  18.122  1.00  0.00     0.022 A 
BRANCH  70  73
ATOM     73  S   UNL     1      -0.284   3.066  19.445  1.00  0.00     0.127 S 
ATOM     74  O   UNL     1      -0.457   1.673  19.037  1.00  0.00    -0.237 OA
ATOM     75  O   UNL     1       0.571   3.255  20.618  1.00  0.00    -0.237 OA
ATOM     76  O   UNL     1      -1.493   3.878  19.442  1.00  0.00    -0.744 OA
ENDBRANCH  70  73
ENDBRANCH  52  66
BRANCH  53  77
ATOM     77  C   UNL     1      -2.397  10.752   8.742  1.00  0.00     0.023 A 
ATOM     78  C   UNL     1      -1.696  11.928   8.408  1.00  0.00     0.012 A 
ATOM     79  C   UNL     1      -3.539  10.398   7.998  1.00  0.00     0.148 A 
ATOM     80  C   UNL     1      -2.137  12.747   7.369  1.00  0.00     0.002 A 
ATOM     81  C   UNL     1      -3.940  11.188   6.929  1.00  0.00     0.091 A 
ATOM     82  F   UNL     1      -4.196   9.281   8.341  1.00  0.00    -0.205 F 
ATOM     83  C   UNL     1      -3.251  12.373   6.623  1.00  0.00     0.022 A 
BRANCH  81  84
ATOM     84  S   UNL     1      -5.286  10.724   5.835  1.00  0.00     0.127 S 
ATOM     85  O   UNL     1      -6.245  11.802   6.065  1.00  0.00    -0.237 OA
ATOM     86  O   UNL     1      -4.629  10.752   4.528  1.00  0.00    -0.237 OA
ATOM     87  O   UNL     1      -5.714   9.402   6.269  1.00  0.00    -0.744 OA
ENDBRANCH  81  84
ENDBRANCH  53  77
BRANCH  65  88
ATOM     88  C   UNL     1      -1.627  11.766  15.602  1.00  0.00     0.023 A 
ATOM     89  C   UNL     1      -2.961  12.131  15.876  1.00  0.00     0.012 A 
ATOM     90  C   UNL     1      -0.579  12.495  16.200  1.00  0.00     0.148 A 
ATOM     91  C   UNL     1      -3.246  13.235  16.681  1.00  0.00     0.002 A 
ATOM     92  C   UNL     1      -0.872  13.558  17.047  1.00  0.00     0.091 A 
ATOM     93  F   UNL     1       0.685  12.149  15.920  1.00  0.00    -0.205 F 
ATOM     94  C   UNL     1      -2.203  13.941  17.274  1.00  0.00     0.022 A 
BRANCH  92  95
ATOM     95  S   UNL     1       0.406  14.460  17.932  1.00  0.00     0.127 S 
ATOM     96  O   UNL     1       0.460  15.714  17.183  1.00  0.00    -0.237 OA
ATOM     97  O   UNL     1      -0.168  14.576  19.274  1.00  0.00    -0.237 OA
ATOM     98  O   UNL     1       1.602  13.633  17.859  1.00  0.00    -0.744 OA
ENDBRANCH  92  95
ENDBRANCH  65  88
ENDBRANCH  39  40
ENDBRANCH  32  34
ENDBRANCH  31  32
ENDBRANCH  30  31
ENDBRANCH   1  30
TORSDOF 19
