REMARK SMILES O=C(OCCOCCOC(=O)[C@@H]1CCC[N@@H+](Cc2ccc(F)cc2Cl)C1)c1ccc(-c2c3nc(c(-c4cccc(S(=O)(=O)[O-])c4F)c4ccc([nH]4)c(-c4cccc(S(=O)(=O)[O-])c4F)c4nc(c(-c5cccc(S(=O)(=O)[O-])c5F)c5ccc2[nH]5)C=C4)C=C3)cc1
REMARK SMILES IDX 5 1 4 2 3 3 2 4 1 5 27 6 28 7 89 8 29 9 88 10 30 11 31 12
REMARK SMILES IDX 32 13 82 14 33 15 87 16 81 17 83 18 34 19 86 20 80 21 79 22
REMARK SMILES IDX 35 24 67 25 47 26 66 27 48 28 51 29 65 30 84 31 49 32 50 33
REMARK SMILES IDX 64 35 85 36 52 37 36 38 37 39 45 40 38 41 40 42 46 43 39 44
REMARK SMILES IDX 41 45 42 46 43 47 44 48 68 49 69 50 77 51 70 52 72 53 78 54
REMARK SMILES IDX 71 55 73 56 74 57 75 58 76 59 53 60 54 61 62 62 55 63 57 64
REMARK SMILES IDX 63 65 56 66 58 67 59 68 60 69 61 70 6 71 7 72 8 73 9 74
REMARK SMILES IDX 10 75 11 76 12 77 13 78 26 79 14 80 16 81 15 82 17 84 18 85
REMARK SMILES IDX 19 86 24 87 20 88 23 89 25 90 21 91 22 92
REMARK H PARENT 83 23 51 34 16 83
REMARK Flexibility Score: inf
ROOT
ATOM      1  C   UNL     1       4.319  -0.398   1.156  1.00  0.00     0.202 C 
ENDROOT
BRANCH   1   2
ATOM      2  C   UNL     1       3.854   0.711   0.206  1.00  0.00     0.261 C 
BRANCH   2   3
ATOM      3  O   UNL     1       2.417   0.695   0.033  1.00  0.00    -0.460 OA
BRANCH   3   4
ATOM      4  C   UNL     1       1.767   0.366  -1.115  1.00  0.00     0.338 C 
ATOM      5  O   UNL     1       0.557   0.566  -1.234  1.00  0.00    -0.246 OA
BRANCH   4   6
ATOM      6  C   UNL     1       2.535  -0.218  -2.234  1.00  0.00     0.060 A 
ATOM      7  C   UNL     1       3.505  -1.175  -1.976  1.00  0.00     0.016 A 
ATOM      8  C   UNL     1       2.298   0.145  -3.555  1.00  0.00     0.016 A 
ATOM      9  C   UNL     1       4.399  -1.593  -2.917  1.00  0.00     0.010 A 
ATOM     10  C   UNL     1       3.065  -0.443  -4.568  1.00  0.00     0.010 A 
ATOM     11  C   UNL     1       4.124  -1.308  -4.238  1.00  0.00    -0.014 A 
BRANCH  11  12
ATOM     12  C   UNL     1       4.962  -1.992  -5.227  1.00  0.00     0.031 A 
ATOM     13  C   UNL     1       5.841  -1.169  -6.097  1.00  0.00     0.074 A 
ATOM     14  C   UNL     1       4.969  -3.341  -5.240  1.00  0.00     0.049 A 
ATOM     15  N   UNL     1       6.527  -1.537  -7.138  1.00  0.00    -0.248 NA
ATOM     16  C   UNL     1       5.962   0.261  -5.759  1.00  0.00     0.031 C 
ATOM     17  C   UNL     1       4.219  -4.206  -4.315  1.00  0.00     0.029 A 
ATOM     18  N   UNL     1       5.631  -4.227  -6.043  1.00  0.00    -0.354 N 
ATOM     19  C   UNL     1       7.073  -0.370  -7.647  1.00  0.00     0.074 A 
ATOM     20  C   UNL     1       6.692   0.712  -6.768  1.00  0.00     0.031 C 
ATOM     21  C   UNL     1       4.474  -5.490  -4.596  1.00  0.00     0.029 A 
ATOM     22  C   UNL     1       5.291  -5.538  -5.794  1.00  0.00     0.049 A 
ATOM     23  H   UNL     1       6.283  -3.957  -6.729  1.00  0.00     0.167 HD
ATOM     24  C   UNL     1       7.795  -0.237  -8.779  1.00  0.00     0.034 A 
ATOM     25  C   UNL     1       5.539  -6.644  -6.517  1.00  0.00     0.034 A 
ATOM     26  C   UNL     1       8.161  -1.359  -9.595  1.00  0.00     0.049 A 
ATOM     27  C   UNL     1       6.315  -6.456  -7.787  1.00  0.00     0.074 A 
ATOM     28  C   UNL     1       8.887  -1.373 -10.768  1.00  0.00     0.029 A 
ATOM     29  N   UNL     1       7.811  -2.676  -9.316  1.00  0.00    -0.354 N 
ATOM     30  N   UNL     1       6.840  -5.354  -8.271  1.00  0.00    -0.248 NA
ATOM     31  C   UNL     1       6.530  -7.645  -8.615  1.00  0.00     0.031 C 
ATOM     32  C   UNL     1       8.944  -2.696 -11.218  1.00  0.00     0.029 A 
ATOM     33  C   UNL     1       8.287  -3.511 -10.306  1.00  0.00     0.049 A 
ATOM     34  H   UNL     1       7.298  -2.969  -8.528  1.00  0.00     0.167 HD
ATOM     35  C   UNL     1       7.460  -5.715  -9.456  1.00  0.00     0.074 A 
ATOM     36  C   UNL     1       7.272  -7.148  -9.596  1.00  0.00     0.031 C 
ATOM     37  C   UNL     1       8.105  -4.941 -10.362  1.00  0.00     0.034 A 
BRANCH  24  38
ATOM     38  C   UNL     1       8.146   1.155  -9.216  1.00  0.00     0.023 A 
ATOM     39  C   UNL     1       9.131   1.897  -8.537  1.00  0.00     0.012 A 
ATOM     40  C   UNL     1       7.472   1.733 -10.310  1.00  0.00     0.148 A 
ATOM     41  C   UNL     1       9.420   3.206  -8.922  1.00  0.00     0.002 A 
ATOM     42  C   UNL     1       7.796   3.021 -10.715  1.00  0.00     0.091 A 
ATOM     43  F   UNL     1       6.513   1.021 -10.918  1.00  0.00    -0.205 F 
ATOM     44  C   UNL     1       8.759   3.764 -10.015  1.00  0.00     0.022 A 
BRANCH  42  45
ATOM     45  S   UNL     1       7.043   3.805 -12.144  1.00  0.00     0.127 S 
ATOM     46  O   UNL     1       6.319   4.915 -11.525  1.00  0.00    -0.237 OA
ATOM     47  O   UNL     1       8.216   4.200 -12.924  1.00  0.00    -0.237 OA
ATOM     48  O   UNL     1       6.205   2.792 -12.769  1.00  0.00    -0.744 OA
ENDBRANCH  42  45
ENDBRANCH  24  38
BRANCH  25  49
ATOM     49  C   UNL     1       4.998  -7.970  -6.097  1.00  0.00     0.023 A 
ATOM     50  C   UNL     1       5.884  -9.005  -5.747  1.00  0.00     0.012 A 
ATOM     51  C   UNL     1       3.609  -8.206  -6.018  1.00  0.00     0.148 A 
ATOM     52  C   UNL     1       5.399 -10.257  -5.359  1.00  0.00     0.002 A 
ATOM     53  C   UNL     1       3.133  -9.434  -5.572  1.00  0.00     0.091 A 
ATOM     54  F   UNL     1       2.772  -7.219  -6.372  1.00  0.00    -0.205 F 
ATOM     55  C   UNL     1       4.026 -10.468  -5.261  1.00  0.00     0.022 A 
BRANCH  53  56
ATOM     56  S   UNL     1       1.384  -9.739  -5.288  1.00  0.00     0.127 S 
ATOM     57  O   UNL     1       1.037 -10.576  -6.434  1.00  0.00    -0.237 OA
ATOM     58  O   UNL     1       1.399 -10.434  -4.000  1.00  0.00    -0.237 OA
ATOM     59  O   UNL     1       0.760  -8.423  -5.247  1.00  0.00    -0.744 OA
ENDBRANCH  53  56
ENDBRANCH  25  49
BRANCH  37  60
ATOM     60  C   UNL     1       8.678  -5.640 -11.559  1.00  0.00     0.023 A 
ATOM     61  C   UNL     1       7.824  -6.066 -12.593  1.00  0.00     0.012 A 
ATOM     62  C   UNL     1      10.071  -5.769 -11.697  1.00  0.00     0.148 A 
ATOM     63  C   UNL     1       8.354  -6.633 -13.748  1.00  0.00     0.002 A 
ATOM     64  C   UNL     1      10.594  -6.280 -12.874  1.00  0.00     0.091 A 
ATOM     65  F   UNL     1      10.854  -5.371 -10.683  1.00  0.00    -0.205 F 
ATOM     66  C   UNL     1       9.738  -6.723 -13.896  1.00  0.00     0.022 A 
BRANCH  64  67
ATOM     67  S   UNL     1      12.358  -6.325 -13.197  1.00  0.00     0.127 S 
ATOM     68  O   UNL     1      12.627  -7.761 -13.174  1.00  0.00    -0.237 OA
ATOM     69  O   UNL     1      12.444  -5.706 -14.519  1.00  0.00    -0.237 OA
ATOM     70  O   UNL     1      12.984  -5.558 -12.128  1.00  0.00    -0.744 OA
ENDBRANCH  64  67
ENDBRANCH  37  60
ENDBRANCH  11  12
ENDBRANCH   4   6
ENDBRANCH   3   4
ENDBRANCH   2   3
ENDBRANCH   1   2
BRANCH   1  71
ATOM     71  O   UNL     1       3.924  -1.738   0.899  1.00  0.00    -0.374 OA
BRANCH  71  72
ATOM     72  C   UNL     1       2.592  -2.084   1.296  1.00  0.00     0.202 C 
BRANCH  72  73
ATOM     73  C   UNL     1       2.671  -3.164   2.367  1.00  0.00     0.261 C 
BRANCH  73  74
ATOM     74  O   UNL     1       3.112  -2.531   3.582  1.00  0.00    -0.463 OA
BRANCH  74  75
ATOM     75  C   UNL     1       4.457  -2.419   3.741  1.00  0.00     0.314 C 
ATOM     76  O   UNL     1       5.295  -3.092   3.152  1.00  0.00    -0.252 OA
BRANCH  75  77
ATOM     77  C   UNL     1       4.817  -1.378   4.791  1.00  0.00     0.154 C 
ATOM     78  C   UNL     1       3.655  -0.564   5.378  1.00  0.00     0.027 C 
ATOM     79  C   UNL     1       5.971  -0.473   4.313  1.00  0.00     0.277 C 
ATOM     80  C   UNL     1       3.302   0.680   4.570  1.00  0.00     0.062 C 
ATOM     81  N   UNL     1       5.570   0.740   3.591  1.00  0.00    -0.330 N 
ATOM     82  C   UNL     1       4.537   1.526   4.257  1.00  0.00     0.262 C 
ATOM     83  H   UNL     1       5.106   0.374   2.759  1.00  0.00     0.348 HD
BRANCH  81  84
ATOM     84  C   UNL     1       6.680   1.535   3.034  1.00  0.00     0.300 C 
BRANCH  84  85
ATOM     85  C   UNL     1       7.496   2.304   4.050  1.00  0.00     0.025 A 
ATOM     86  C   UNL     1       8.438   1.597   4.823  1.00  0.00     0.014 A 
ATOM     87  C   UNL     1       7.313   3.674   4.307  1.00  0.00     0.052 A 
ATOM     88  C   UNL     1       9.093   2.209   5.888  1.00  0.00     0.040 A 
ATOM     89  C   UNL     1       7.988   4.292   5.362  1.00  0.00     0.060 A 
ATOM     90  Cl  UNL     1       6.258   4.664   3.362  1.00  0.00    -0.084 Cl
ATOM     91  C   UNL     1       8.849   3.547   6.156  1.00  0.00     0.124 A 
ATOM     92  F   UNL     1       9.454   4.130   7.199  1.00  0.00    -0.207 F 
ENDBRANCH  84  85
ENDBRANCH  81  84
ENDBRANCH  75  77
ENDBRANCH  74  75
ENDBRANCH  73  74
ENDBRANCH  72  73
ENDBRANCH  71  72
ENDBRANCH   1  71
TORSDOF 19
