REMARK SMILES O=C(C[N@@H+]1CCC[C@@H]1C(=O)OCCOCCOC(=O)c1ccc(-c2c3nc(c(-c4cccc(S(=O)(=O)[O-])c4F)c4ccc([nH]4)c(-c4cccc(S(=O)(=O)[O-])c4F)c4nc(c(-c5cccc(S(=O)(=O)[O-])c5F)c5ccc2[nH]5)C=C4)C=C3)cc1)NCc1ccc(Cl)cc1
REMARK SMILES IDX 13 1 12 2 11 3 9 4 10 5 8 6 4 7 5 8 6 10 7 11 3 12 2 13 1 14
REMARK SMILES IDX 83 15 84 17 85 18 86 19 91 20 87 21 90 22 88 23 89 24 14 25
REMARK SMILES IDX 15 26 16 27 17 28 18 29 19 30 20 31 21 32 82 33 22 34 81 35
REMARK SMILES IDX 23 36 24 37 25 38 75 39 26 40 80 41 74 42 76 43 27 44 79 45
REMARK SMILES IDX 73 46 72 47 28 49 60 50 40 51 59 52 41 53 44 54 58 55 77 56
REMARK SMILES IDX 42 57 43 58 57 60 78 61 45 62 29 63 30 64 38 65 31 66 33 67
REMARK SMILES IDX 39 68 32 69 34 70 35 71 36 72 37 73 61 74 62 75 70 76 63 77
REMARK SMILES IDX 65 78 71 79 64 80 66 81 67 82 68 83 69 84 46 85 47 86 55 87
REMARK SMILES IDX 48 88 50 89 56 90 49 91 51 92 52 93 53 94 54 95
REMARK H PARENT 4 9 83 16 76 48 44 59
REMARK Flexibility Score: inf
ROOT
ATOM      1  C   UNL     1       5.628   1.444   4.149  1.00  0.00     0.202 C 
ENDROOT
BRANCH   1   2
ATOM      2  C   UNL     1       4.567   1.349   3.052  1.00  0.00     0.261 C 
BRANCH   2   3
ATOM      3  O   UNL     1       4.487   0.024   2.504  1.00  0.00    -0.459 OA
BRANCH   3   4
ATOM      4  C   UNL     1       4.772  -0.099   1.181  1.00  0.00     0.365 C 
ATOM      5  O   UNL     1       5.036   0.833   0.427  1.00  0.00    -0.245 OA
BRANCH   4   6
ATOM      6  C   UNL     1       4.642  -1.534   0.678  1.00  0.00     0.295 C 
ATOM      7  N   UNL     1       3.405  -1.789  -0.117  1.00  0.00    -0.315 N 
ATOM      8  C   UNL     1       3.242  -3.253  -0.042  1.00  0.00     0.263 C 
ATOM      9  H   UNL     1       3.509  -1.417  -1.061  1.00  0.00     0.349 HD
ATOM     10  C   UNL     1       3.629  -3.611   1.382  1.00  0.00     0.068 C 
ATOM     11  C   UNL     1       4.779  -2.669   1.695  1.00  0.00     0.083 C 
BRANCH   7  12
ATOM     12  C   UNL     1       2.183  -1.107   0.387  1.00  0.00     0.364 C 
BRANCH  12  13
ATOM     13  C   UNL     1       1.654  -0.133  -0.679  1.00  0.00     0.275 C 
ATOM     14  O   UNL     1       0.501  -0.198  -1.102  1.00  0.00    -0.268 OA
ATOM     15  N   UNL     1       2.548   0.832  -1.089  1.00  0.00    -0.347 N 
ATOM     16  H   UNL     1       3.443   0.855  -0.681  1.00  0.00     0.164 HD
BRANCH  15  17
ATOM     17  C   UNL     1       2.217   1.811  -2.096  1.00  0.00     0.151 C 
BRANCH  17  18
ATOM     18  C   UNL     1       2.530   3.245  -1.724  1.00  0.00    -0.029 A 
ATOM     19  C   UNL     1       3.285   3.611  -0.600  1.00  0.00     0.007 A 
ATOM     20  C   UNL     1       2.063   4.266  -2.570  1.00  0.00     0.007 A 
ATOM     21  C   UNL     1       3.564   4.954  -0.326  1.00  0.00     0.021 A 
ATOM     22  C   UNL     1       2.336   5.609  -2.297  1.00  0.00     0.021 A 
ATOM     23  C   UNL     1       3.088   5.947  -1.176  1.00  0.00     0.041 A 
ATOM     24  Cl  UNL     1       3.434   7.599  -0.843  1.00  0.00    -0.084 Cl
ENDBRANCH  17  18
ENDBRANCH  15  17
ENDBRANCH  12  13
ENDBRANCH   7  12
ENDBRANCH   4   6
ENDBRANCH   3   4
ENDBRANCH   2   3
ENDBRANCH   1   2
BRANCH   1  25
ATOM     25  O   UNL     1       6.968   1.152   3.756  1.00  0.00    -0.374 OA
BRANCH  25  26
ATOM     26  C   UNL     1       7.316  -0.213   3.525  1.00  0.00     0.202 C 
BRANCH  26  27
ATOM     27  C   UNL     1       7.376  -1.140   4.746  1.00  0.00     0.261 C 
BRANCH  27  28
ATOM     28  O   UNL     1       6.085  -1.373   5.340  1.00  0.00    -0.460 OA
BRANCH  28  29
ATOM     29  C   UNL     1       5.967  -0.939   6.619  1.00  0.00     0.338 C 
ATOM     30  O   UNL     1       6.839  -0.406   7.297  1.00  0.00    -0.246 OA
BRANCH  29  31
ATOM     31  C   UNL     1       4.573  -1.034   7.083  1.00  0.00     0.060 A 
ATOM     32  C   UNL     1       3.964   0.138   7.549  1.00  0.00     0.016 A 
ATOM     33  C   UNL     1       3.921  -2.264   7.189  1.00  0.00     0.016 A 
ATOM     34  C   UNL     1       2.723   0.076   8.180  1.00  0.00     0.010 A 
ATOM     35  C   UNL     1       2.678  -2.324   7.829  1.00  0.00     0.010 A 
ATOM     36  C   UNL     1       2.093  -1.162   8.365  1.00  0.00    -0.014 A 
BRANCH  36  37
ATOM     37  C   UNL     1       0.901  -1.250   9.244  1.00  0.00     0.031 A 
ATOM     38  C   UNL     1       1.067  -1.717  10.665  1.00  0.00     0.074 A 
ATOM     39  C   UNL     1      -0.316  -0.903   8.788  1.00  0.00     0.049 A 
ATOM     40  N   UNL     1       0.164  -1.860  11.600  1.00  0.00    -0.248 NA
ATOM     41  C   UNL     1       2.432  -2.070  11.089  1.00  0.00     0.031 C 
ATOM     42  C   UNL     1      -0.606  -0.432   7.435  1.00  0.00     0.029 A 
ATOM     43  N   UNL     1      -1.537  -0.910   9.413  1.00  0.00    -0.354 N 
ATOM     44  C   UNL     1       0.843  -2.340  12.714  1.00  0.00     0.074 A 
ATOM     45  C   UNL     1       2.232  -2.478  12.334  1.00  0.00     0.031 C 
ATOM     46  C   UNL     1      -1.928  -0.217   7.324  1.00  0.00     0.029 A 
ATOM     47  C   UNL     1      -2.577  -0.551   8.590  1.00  0.00     0.049 A 
ATOM     48  H   UNL     1      -1.656  -1.150  10.360  1.00  0.00     0.167 HD
ATOM     49  C   UNL     1       0.360  -2.619  13.948  1.00  0.00     0.034 A 
ATOM     50  C   UNL     1      -3.903  -0.508   8.829  1.00  0.00     0.034 A 
ATOM     51  C   UNL     1      -1.016  -2.461  14.335  1.00  0.00     0.049 A 
ATOM     52  C   UNL     1      -4.420  -0.848  10.202  1.00  0.00     0.074 A 
ATOM     53  C   UNL     1      -1.591  -2.672  15.575  1.00  0.00     0.029 A 
ATOM     54  N   UNL     1      -2.035  -2.062  13.484  1.00  0.00    -0.354 N 
ATOM     55  N   UNL     1      -3.748  -1.179  11.278  1.00  0.00    -0.248 NA
ATOM     56  C   UNL     1      -5.875  -0.775  10.403  1.00  0.00     0.031 C 
ATOM     57  C   UNL     1      -2.964  -2.419  15.469  1.00  0.00     0.029 A 
ATOM     58  C   UNL     1      -3.239  -2.032  14.167  1.00  0.00     0.049 A 
ATOM     59  H   UNL     1      -1.920  -1.833  12.534  1.00  0.00     0.167 HD
ATOM     60  C   UNL     1      -4.692  -1.321  12.290  1.00  0.00     0.074 A 
ATOM     61  C   UNL     1      -5.981  -1.022  11.702  1.00  0.00     0.031 C 
ATOM     62  C   UNL     1      -4.509  -1.681  13.585  1.00  0.00     0.034 A 
BRANCH  49  63
ATOM     63  C   UNL     1       1.342  -3.096  14.986  1.00  0.00     0.023 A 
ATOM     64  C   UNL     1       2.242  -2.177  15.563  1.00  0.00     0.012 A 
ATOM     65  C   UNL     1       1.345  -4.434  15.424  1.00  0.00     0.148 A 
ATOM     66  C   UNL     1       3.151  -2.589  16.536  1.00  0.00     0.002 A 
ATOM     67  C   UNL     1       2.229  -4.829  16.422  1.00  0.00     0.091 A 
ATOM     68  F   UNL     1       0.501  -5.300  14.845  1.00  0.00    -0.205 F 
ATOM     69  C   UNL     1       3.139  -3.911  16.972  1.00  0.00     0.022 A 
BRANCH  67  70
ATOM     70  S   UNL     1       2.238  -6.495  17.095  1.00  0.00     0.127 S 
ATOM     71  O   UNL     1       3.426  -7.063  16.460  1.00  0.00    -0.237 OA
ATOM     72  O   UNL     1       2.372  -6.250  18.531  1.00  0.00    -0.237 OA
ATOM     73  O   UNL     1       0.968  -7.089  16.700  1.00  0.00    -0.744 OA
ENDBRANCH  67  70
ENDBRANCH  49  63
BRANCH  50  74
ATOM     74  C   UNL     1      -4.835  -0.082   7.747  1.00  0.00     0.023 A 
ATOM     75  C   UNL     1      -5.483   1.164   7.841  1.00  0.00     0.012 A 
ATOM     76  C   UNL     1      -5.058  -0.890   6.616  1.00  0.00     0.148 A 
ATOM     77  C   UNL     1      -6.354   1.589   6.837  1.00  0.00     0.002 A 
ATOM     78  C   UNL     1      -5.886  -0.439   5.596  1.00  0.00     0.091 A 
ATOM     79  F   UNL     1      -4.446  -2.082   6.558  1.00  0.00    -0.205 F 
ATOM     80  C   UNL     1      -6.545   0.794   5.710  1.00  0.00     0.022 A 
BRANCH  78  81
ATOM     81  S   UNL     1      -6.092  -1.342   4.057  1.00  0.00     0.127 S 
ATOM     82  O   UNL     1      -7.456  -1.846   4.187  1.00  0.00    -0.237 OA
ATOM     83  O   UNL     1      -5.916  -0.284   3.061  1.00  0.00    -0.237 OA
ATOM     84  O   UNL     1      -5.041  -2.351   4.052  1.00  0.00    -0.744 OA
ENDBRANCH  78  81
ENDBRANCH  50  74
BRANCH  62  85
ATOM     85  C   UNL     1      -5.725  -1.749  14.472  1.00  0.00     0.023 A 
ATOM     86  C   UNL     1      -6.634  -2.816  14.329  1.00  0.00     0.012 A 
ATOM     87  C   UNL     1      -5.925  -0.803  15.497  1.00  0.00     0.148 A 
ATOM     88  C   UNL     1      -7.738  -2.925  15.174  1.00  0.00     0.002 A 
ATOM     89  C   UNL     1      -7.003  -0.943  16.364  1.00  0.00     0.091 A 
ATOM     90  F   UNL     1      -5.061   0.217  15.605  1.00  0.00    -0.205 F 
ATOM     91  C   UNL     1      -7.916  -1.997  16.198  1.00  0.00     0.022 A 
BRANCH  89  92
ATOM     92  S   UNL     1      -7.256   0.152  17.766  1.00  0.00     0.127 S 
ATOM     93  O   UNL     1      -8.359   0.989  17.297  1.00  0.00    -0.237 OA
ATOM     94  O   UNL     1      -7.611  -0.783  18.834  1.00  0.00    -0.237 OA
ATOM     95  O   UNL     1      -5.987   0.840  17.968  1.00  0.00    -0.744 OA
ENDBRANCH  89  92
ENDBRANCH  62  85
ENDBRANCH  36  37
ENDBRANCH  29  31
ENDBRANCH  28  29
ENDBRANCH  27  28
ENDBRANCH  26  27
ENDBRANCH  25  26
ENDBRANCH   1  25
TORSDOF 21
