REMARK SMILES O=C(OCCOCCOC(=O)[C@@]1(CCc2ccccc2)CCC[N@@H+](Cc2cccnc2)C1)c1ccc(-c2c3nc(c(-c4cccc(S(=O)(=O)[O-])c4F)c4ccc([nH]4)c(-c4cccc(S(=O)(=O)[O-])c4F)c4nc(c(-c5cccc(S(=O)(=O)[O-])c5F)c5ccc2[nH]5)C=C4)C=C3)cc1
REMARK SMILES IDX 6 1 5 2 4 3 3 4 2 5 1 6 33 7 34 8 95 9 35 10 94 11 36 12
REMARK SMILES IDX 37 13 38 14 88 15 39 16 93 17 87 18 89 19 40 20 92 21 86 22
REMARK SMILES IDX 85 23 41 25 73 26 53 27 72 28 54 29 57 30 71 31 90 32 55 33
REMARK SMILES IDX 56 34 70 36 91 37 58 38 42 39 43 40 51 41 44 42 46 43 52 44
REMARK SMILES IDX 45 45 47 46 48 47 49 48 50 49 74 50 75 51 83 52 76 53 78 54
REMARK SMILES IDX 84 55 77 56 79 57 80 58 81 59 82 60 59 61 60 62 68 63 61 64
REMARK SMILES IDX 63 65 69 66 62 67 64 68 65 69 66 70 67 71 7 72 8 73 9 74
REMARK SMILES IDX 10 75 11 76 12 77 21 78 32 79 22 80 24 81 23 82 13 84 14 85
REMARK SMILES IDX 15 86 16 87 20 88 17 89 19 90 18 91 25 92 26 93 27 94 31 95
REMARK SMILES IDX 28 96 30 97 29 98
REMARK H PARENT 89 24 57 35 24 83
REMARK Flexibility Score: inf
ROOT
ATOM      1  O   UNL     1       6.112  -2.580   2.428  1.00  0.00    -0.374 OA
ENDROOT
BRANCH   1   2
ATOM      2  C   UNL     1       4.748  -2.836   2.681  1.00  0.00     0.202 C 
BRANCH   2   3
ATOM      3  C   UNL     1       4.286  -2.534   4.100  1.00  0.00     0.261 C 
BRANCH   3   4
ATOM      4  O   UNL     1       4.287  -1.114   4.298  1.00  0.00    -0.460 OA
BRANCH   4   5
ATOM      5  C   UNL     1       5.342  -0.387   4.736  1.00  0.00     0.338 C 
ATOM      6  O   UNL     1       5.349   0.831   4.587  1.00  0.00    -0.246 OA
BRANCH   5   7
ATOM      7  C   UNL     1       6.451  -1.030   5.480  1.00  0.00     0.060 A 
ATOM      8  C   UNL     1       7.119  -2.166   5.028  1.00  0.00     0.016 A 
ATOM      9  C   UNL     1       6.889  -0.425   6.658  1.00  0.00     0.016 A 
ATOM     10  C   UNL     1       8.158  -2.734   5.701  1.00  0.00     0.010 A 
ATOM     11  C   UNL     1       7.965  -0.976   7.353  1.00  0.00     0.010 A 
ATOM     12  C   UNL     1       8.590  -2.128   6.857  1.00  0.00    -0.014 A 
BRANCH  12  13
ATOM     13  C   UNL     1       9.589  -2.884   7.591  1.00  0.00     0.031 A 
ATOM     14  C   UNL     1       9.108  -3.639   8.772  1.00  0.00     0.074 A 
ATOM     15  C   UNL     1      10.819  -3.007   7.070  1.00  0.00     0.049 A 
ATOM     16  N   UNL     1       9.796  -4.200   9.716  1.00  0.00    -0.248 NA
ATOM     17  C   UNL     1       7.644  -3.779   8.913  1.00  0.00     0.031 C 
ATOM     18  C   UNL     1      11.249  -2.475   5.769  1.00  0.00     0.029 A 
ATOM     19  N   UNL     1      11.931  -3.617   7.565  1.00  0.00    -0.354 N 
ATOM     20  C   UNL     1       8.855  -4.646  10.630  1.00  0.00     0.074 A 
ATOM     21  C   UNL     1       7.546  -4.363  10.095  1.00  0.00     0.031 C 
ATOM     22  C   UNL     1      12.548  -2.750   5.590  1.00  0.00     0.029 A 
ATOM     23  C   UNL     1      13.050  -3.362   6.810  1.00  0.00     0.049 A 
ATOM     24  H   UNL     1      11.933  -4.179   8.374  1.00  0.00     0.167 HD
ATOM     25  C   UNL     1       9.107  -5.189  11.838  1.00  0.00     0.034 A 
ATOM     26  C   UNL     1      14.342  -3.513   7.143  1.00  0.00     0.034 A 
ATOM     27  C   UNL     1      10.451  -5.419  12.284  1.00  0.00     0.049 A 
ATOM     28  C   UNL     1      14.611  -4.055   8.517  1.00  0.00     0.074 A 
ATOM     29  C   UNL     1      10.899  -5.900  13.494  1.00  0.00     0.029 A 
ATOM     30  N   UNL     1      11.577  -5.158  11.505  1.00  0.00    -0.354 N 
ATOM     31  N   UNL     1      13.744  -4.408   9.441  1.00  0.00    -0.248 NA
ATOM     32  C   UNL     1      16.012  -4.225   8.903  1.00  0.00     0.031 C 
ATOM     33  C   UNL     1      12.299  -5.893  13.458  1.00  0.00     0.029 A 
ATOM     34  C   UNL     1      12.723  -5.462  12.205  1.00  0.00     0.049 A 
ATOM     35  H   UNL     1      11.556  -4.807  10.585  1.00  0.00     0.167 HD
ATOM     36  C   UNL     1      14.489  -4.880  10.508  1.00  0.00     0.074 A 
ATOM     37  C   UNL     1      15.883  -4.765  10.110  1.00  0.00     0.031 C 
ATOM     38  C   UNL     1      14.076  -5.362  11.707  1.00  0.00     0.034 A 
BRANCH  25  39
ATOM     39  C   UNL     1       7.927  -5.416  12.738  1.00  0.00     0.023 A 
ATOM     40  C   UNL     1       6.962  -6.399  12.432  1.00  0.00     0.012 A 
ATOM     41  C   UNL     1       7.721  -4.570  13.845  1.00  0.00     0.148 A 
ATOM     42  C   UNL     1       5.787  -6.495  13.178  1.00  0.00     0.002 A 
ATOM     43  C   UNL     1       6.574  -4.707  14.615  1.00  0.00     0.091 A 
ATOM     44  F   UNL     1       8.624  -3.611  14.093  1.00  0.00    -0.205 F 
ATOM     45  C   UNL     1       5.596  -5.654  14.272  1.00  0.00     0.022 A 
BRANCH  43  46
ATOM     46  S   UNL     1       6.269  -3.712  16.078  1.00  0.00     0.127 S 
ATOM     47  O   UNL     1       5.145  -2.884  15.643  1.00  0.00    -0.237 OA
ATOM     48  O   UNL     1       5.928  -4.731  17.071  1.00  0.00    -0.237 OA
ATOM     49  O   UNL     1       7.507  -2.994  16.343  1.00  0.00    -0.744 OA
ENDBRANCH  43  46
ENDBRANCH  25  39
BRANCH  26  50
ATOM     50  C   UNL     1      15.412  -3.094   6.197  1.00  0.00     0.023 A 
ATOM     51  C   UNL     1      16.231  -4.068   5.600  1.00  0.00     0.012 A 
ATOM     52  C   UNL     1      15.570  -1.742   5.822  1.00  0.00     0.148 A 
ATOM     53  C   UNL     1      17.200  -3.704   4.662  1.00  0.00     0.002 A 
ATOM     54  C   UNL     1      16.500  -1.392   4.849  1.00  0.00     0.091 A 
ATOM     55  F   UNL     1      14.781  -0.826   6.400  1.00  0.00    -0.205 F 
ATOM     56  C   UNL     1      17.328  -2.371   4.280  1.00  0.00     0.022 A 
BRANCH  54  57
ATOM     57  S   UNL     1      16.651   0.278   4.202  1.00  0.00     0.127 S 
ATOM     58  O   UNL     1      17.983   0.658   4.665  1.00  0.00    -0.237 OA
ATOM     59  O   UNL     1      16.541   0.052   2.761  1.00  0.00    -0.237 OA
ATOM     60  O   UNL     1      15.546   1.030   4.781  1.00  0.00    -0.744 OA
ENDBRANCH  54  57
ENDBRANCH  26  50
BRANCH  38  61
ATOM     61  C   UNL     1      15.139  -5.878  12.628  1.00  0.00     0.023 A 
ATOM     62  C   UNL     1      15.940  -4.984  13.359  1.00  0.00     0.012 A 
ATOM     63  C   UNL     1      15.225  -7.263  12.863  1.00  0.00     0.148 A 
ATOM     64  C   UNL     1      16.828  -5.468  14.314  1.00  0.00     0.002 A 
ATOM     65  C   UNL     1      16.065  -7.731  13.858  1.00  0.00     0.091 A 
ATOM     66  F   UNL     1      14.459  -8.085  12.130  1.00  0.00    -0.205 F 
ATOM     67  C   UNL     1      16.876  -6.838  14.577  1.00  0.00     0.022 A 
BRANCH  65  68
ATOM     68  S   UNL     1      16.089  -9.456  14.349  1.00  0.00     0.127 S 
ATOM     69  O   UNL     1      17.413  -9.875  13.891  1.00  0.00    -0.237 OA
ATOM     70  O   UNL     1      15.944  -9.363  15.802  1.00  0.00    -0.237 OA
ATOM     71  O   UNL     1      14.967 -10.088  13.667  1.00  0.00    -0.744 OA
ENDBRANCH  65  68
ENDBRANCH  38  61
ENDBRANCH  12  13
ENDBRANCH   5   7
ENDBRANCH   4   5
ENDBRANCH   3   4
ENDBRANCH   2   3
ENDBRANCH   1   2
BRANCH   1  72
ATOM     72  C   UNL     1       6.476  -1.331   1.851  1.00  0.00     0.202 C 
BRANCH  72  73
ATOM     73  C   UNL     1       7.130  -1.694   0.540  1.00  0.00     0.261 C 
BRANCH  73  74
ATOM     74  O   UNL     1       6.084  -2.323  -0.210  1.00  0.00    -0.463 OA
BRANCH  74  75
ATOM     75  C   UNL     1       6.009  -3.678  -0.244  1.00  0.00     0.317 C 
ATOM     76  O   UNL     1       6.777  -4.449   0.299  1.00  0.00    -0.251 OA
BRANCH  75  77
ATOM     77  C   UNL     1       4.783  -4.107  -1.065  1.00  0.00     0.117 C 
ATOM     78  C   UNL     1       5.104  -5.340  -1.937  1.00  0.00     0.030 C 
ATOM     79  C   UNL     1       3.765  -4.547   0.049  1.00  0.00     0.281 C 
ATOM     80  C   UNL     1       3.850  -6.130  -2.312  1.00  0.00     0.063 C 
ATOM     81  N   UNL     1       2.651  -5.448  -0.283  1.00  0.00    -0.330 N 
ATOM     82  C   UNL     1       3.102  -6.596  -1.070  1.00  0.00     0.262 C 
ATOM     83  H   UNL     1       2.006  -4.915  -0.867  1.00  0.00     0.348 HD
BRANCH  77  84
ATOM     84  C   UNL     1       4.275  -2.951  -1.989  1.00  0.00     0.029 C 
BRANCH  84  85
ATOM     85  C   UNL     1       5.244  -1.901  -2.650  1.00  0.00     0.037 C 
BRANCH  85  86
ATOM     86  C   UNL     1       6.658  -2.107  -3.190  1.00  0.00    -0.048 A 
ATOM     87  C   UNL     1       7.166  -1.100  -4.035  1.00  0.00     0.004 A 
ATOM     88  C   UNL     1       7.569  -3.098  -2.805  1.00  0.00     0.004 A 
ATOM     89  C   UNL     1       8.498  -1.097  -4.471  1.00  0.00     0.000 A 
ATOM     90  C   UNL     1       8.911  -3.084  -3.207  1.00  0.00     0.000 A 
ATOM     91  C   UNL     1       9.376  -2.087  -4.048  1.00  0.00     0.000 A 
ENDBRANCH  85  86
ENDBRANCH  84  85
ENDBRANCH  77  84
BRANCH  81  92
ATOM     92  C   UNL     1       1.874  -5.865   0.922  1.00  0.00     0.300 C 
BRANCH  92  93
ATOM     93  C   UNL     1       2.480  -6.896   1.858  1.00  0.00     0.025 A 
ATOM     94  C   UNL     1       3.405  -6.568   2.852  1.00  0.00     0.013 A 
ATOM     95  C   UNL     1       2.125  -8.241   1.782  1.00  0.00     0.120 A 
ATOM     96  C   UNL     1       3.987  -7.553   3.647  1.00  0.00     0.021 A 
ATOM     97  N   UNL     1       2.646  -9.225   2.557  1.00  0.00    -0.264 NA
ATOM     98  C   UNL     1       3.582  -8.860   3.460  1.00  0.00     0.111 A 
ENDBRANCH  92  93
ENDBRANCH  81  92
ENDBRANCH  75  77
ENDBRANCH  74  75
ENDBRANCH  73  74
ENDBRANCH  72  73
ENDBRANCH   1  72
TORSDOF 22
