REMARK SMILES [NH3+]Cc1c(-c2ccccc2)c(C(=O)OCCOCCOC(=O)c2ccc(-c3c4nc(c(-c5cccc(S(=O)(=O)[O-])c5F)c5ccc([nH]5)c(-c5cccc(S(=O)(=O)[O-])c5F)c5nc(c(-c6cccc(S(=O)(=O)[O-])c6F)c6ccc3[nH]6)C=C5)C=C4)cc2)c2ccccn12
REMARK SMILES IDX 18 1 17 2 16 3 15 4 14 5 12 6 13 7 11 8 3 9 4 10 91 11 86 12
REMARK SMILES IDX 90 13 87 14 89 15 88 16 2 17 1 18 5 22 6 23 10 24 7 25 9 26
REMARK SMILES IDX 8 27 19 28 20 29 21 30 22 31 23 32 24 33 85 34 25 35 84 36
REMARK SMILES IDX 26 37 27 38 28 39 78 40 29 41 83 42 77 43 79 44 30 45 82 46
REMARK SMILES IDX 76 47 75 48 31 50 63 51 43 52 62 53 44 54 47 55 61 56 80 57
REMARK SMILES IDX 45 58 46 59 60 61 81 62 48 63 32 64 33 65 41 66 34 67 36 68
REMARK SMILES IDX 42 69 35 70 37 71 38 72 39 73 40 74 64 75 65 76 73 77 66 78
REMARK SMILES IDX 68 79 74 80 67 81 69 82 70 83 71 84 72 85 49 86 50 87 58 88
REMARK SMILES IDX 51 89 53 90 59 91 52 92 54 93 55 94 56 95 57 96
REMARK H PARENT 1 19 1 20 1 21 79 49 47 60
REMARK Flexibility Score: inf
ROOT
ATOM      1  C   UNL     1       4.790   4.197  -3.045  1.00  0.00     0.202 C 
ENDROOT
BRANCH   1   2
ATOM      2  O   UNL     1       4.800   4.656  -4.396  1.00  0.00    -0.374 OA
BRANCH   2   3
ATOM      3  C   UNL     1       3.948   5.771  -4.687  1.00  0.00     0.202 C 
BRANCH   3   4
ATOM      4  C   UNL     1       2.482   5.394  -4.914  1.00  0.00     0.261 C 
BRANCH   4   5
ATOM      5  O   UNL     1       1.854   5.138  -3.646  1.00  0.00    -0.460 OA
BRANCH   5   6
ATOM      6  C   UNL     1       1.331   3.892  -3.477  1.00  0.00     0.341 C 
ATOM      7  O   UNL     1       1.186   3.078  -4.381  1.00  0.00    -0.246 OA
BRANCH   6   8
ATOM      8  C   UNL     1       1.048   3.579  -2.077  1.00  0.00     0.093 A 
ATOM      9  C   UNL     1       0.764   2.365  -0.144  1.00  0.00     0.086 A 
ATOM     10  C   UNL     1       1.234   2.301  -1.453  1.00  0.00     0.024 A 
ATOM     11  N   UNL     1       0.397   3.692   0.081  1.00  0.00    -0.314 N 
ATOM     12  C   UNL     1       0.621   4.438  -1.078  1.00  0.00     0.061 A 
ATOM     13  C   UNL     1      -0.104   4.269   1.256  1.00  0.00     0.092 A 
ATOM     14  C   UNL     1       0.361   5.843  -1.011  1.00  0.00     0.027 A 
ATOM     15  C   UNL     1      -0.359   5.586   1.304  1.00  0.00     0.018 A 
ATOM     16  C   UNL     1      -0.098   6.392   0.129  1.00  0.00     0.004 A 
BRANCH   9  17
ATOM     17  C   UNL     1       0.615   1.363   0.962  1.00  0.00     0.315 C 
BRANCH  17  18
ATOM     18  N   UNL     1       1.003   0.004   0.621  1.00  0.00    -0.353 N 
ATOM     19  H   UNL     1       0.867  -0.602   1.430  1.00  0.00     0.344 HD
ATOM     20  H   UNL     1       1.985  -0.010   0.345  1.00  0.00     0.344 HD
ATOM     21  H   UNL     1       0.428  -0.329  -0.153  1.00  0.00     0.344 HD
ENDBRANCH  17  18
ENDBRANCH   9  17
BRANCH  10  22
ATOM     22  C   UNL     1       1.913   1.160  -2.041  1.00  0.00    -0.015 A 
ATOM     23  C   UNL     1       3.291   1.007  -1.835  1.00  0.00     0.009 A 
ATOM     24  C   UNL     1       1.231   0.264  -2.865  1.00  0.00     0.009 A 
ATOM     25  C   UNL     1       3.982  -0.036  -2.451  1.00  0.00     0.001 A 
ATOM     26  C   UNL     1       1.923  -0.784  -3.475  1.00  0.00     0.001 A 
ATOM     27  C   UNL     1       3.296  -0.931  -3.271  1.00  0.00     0.000 A 
ENDBRANCH  10  22
ENDBRANCH   6   8
ENDBRANCH   5   6
ENDBRANCH   4   5
ENDBRANCH   3   4
ENDBRANCH   2   3
ENDBRANCH   1   2
BRANCH   1  28
ATOM     28  C   UNL     1       5.807   4.876  -2.123  1.00  0.00     0.261 C 
BRANCH  28  29
ATOM     29  O   UNL     1       5.567   6.288  -2.029  1.00  0.00    -0.460 OA
BRANCH  29  30
ATOM     30  C   UNL     1       6.404   7.050  -2.773  1.00  0.00     0.338 C 
ATOM     31  O   UNL     1       7.392   6.677  -3.384  1.00  0.00    -0.246 OA
BRANCH  30  32
ATOM     32  C   UNL     1       5.861   8.418  -2.888  1.00  0.00     0.060 A 
ATOM     33  C   UNL     1       5.899   9.019  -4.153  1.00  0.00     0.016 A 
ATOM     34  C   UNL     1       5.356   9.115  -1.787  1.00  0.00     0.016 A 
ATOM     35  C   UNL     1       5.479  10.337  -4.311  1.00  0.00     0.010 A 
ATOM     36  C   UNL     1       4.942  10.440  -1.946  1.00  0.00     0.010 A 
ATOM     37  C   UNL     1       5.035  11.066  -3.201  1.00  0.00    -0.014 A 
BRANCH  37  38
ATOM     38  C   UNL     1       4.801  12.523  -3.331  1.00  0.00     0.031 A 
ATOM     39  C   UNL     1       5.895  13.473  -2.932  1.00  0.00     0.074 A 
ATOM     40  C   UNL     1       3.631  12.990  -3.800  1.00  0.00     0.049 A 
ATOM     41  N   UNL     1       5.911  14.779  -2.977  1.00  0.00    -0.248 NA
ATOM     42  C   UNL     1       7.134  12.872  -2.410  1.00  0.00     0.031 C 
ATOM     43  C   UNL     1       2.495  12.165  -4.207  1.00  0.00     0.029 A 
ATOM     44  N   UNL     1       3.199  14.278  -3.992  1.00  0.00    -0.354 N 
ATOM     45  C   UNL     1       7.151  15.158  -2.477  1.00  0.00     0.074 A 
ATOM     46  C   UNL     1       7.854  13.946  -2.118  1.00  0.00     0.031 C 
ATOM     47  C   UNL     1       1.483  12.970  -4.576  1.00  0.00     0.029 A 
ATOM     48  C   UNL     1       1.897  14.364  -4.421  1.00  0.00     0.049 A 
ATOM     49  H   UNL     1       3.769  15.066  -3.837  1.00  0.00     0.167 HD
ATOM     50  C   UNL     1       7.667  16.403  -2.348  1.00  0.00     0.034 A 
ATOM     51  C   UNL     1       1.126  15.445  -4.654  1.00  0.00     0.034 A 
ATOM     52  C   UNL     1       6.976  17.605  -2.725  1.00  0.00     0.049 A 
ATOM     53  C   UNL     1       1.722  16.820  -4.497  1.00  0.00     0.074 A 
ATOM     54  C   UNL     1       7.431  18.910  -2.678  1.00  0.00     0.029 A 
ATOM     55  N   UNL     1       5.678  17.650  -3.210  1.00  0.00    -0.354 N 
ATOM     56  N   UNL     1       2.943  17.156  -4.157  1.00  0.00    -0.248 NA
ATOM     57  C   UNL     1       0.845  17.964  -4.790  1.00  0.00     0.031 C 
ATOM     58  C   UNL     1       6.403  19.747  -3.125  1.00  0.00     0.029 A 
ATOM     59  C   UNL     1       5.312  18.961  -3.459  1.00  0.00     0.049 A 
ATOM     60  H   UNL     1       5.102  16.865  -3.355  1.00  0.00     0.167 HD
ATOM     61  C   UNL     1       2.993  18.544  -4.230  1.00  0.00     0.074 A 
ATOM     62  C   UNL     1       1.682  18.986  -4.662  1.00  0.00     0.031 C 
ATOM     63  C   UNL     1       4.024  19.378  -3.950  1.00  0.00     0.034 A 
BRANCH  50  64
ATOM     64  C   UNL     1       9.069  16.522  -1.818  1.00  0.00     0.023 A 
ATOM     65  C   UNL     1      10.153  16.207  -2.661  1.00  0.00     0.012 A 
ATOM     66  C   UNL     1       9.317  16.987  -0.513  1.00  0.00     0.148 A 
ATOM     67  C   UNL     1      11.465  16.332  -2.206  1.00  0.00     0.002 A 
ATOM     68  C   UNL     1      10.629  17.142  -0.078  1.00  0.00     0.091 A 
ATOM     69  F   UNL     1       8.271  17.252   0.283  1.00  0.00    -0.205 F 
ATOM     70  C   UNL     1      11.703  16.808  -0.920  1.00  0.00     0.022 A 
BRANCH  68  71
ATOM     71  S   UNL     1      11.031  17.808   1.541  1.00  0.00     0.127 S 
ATOM     72  O   UNL     1      11.413  16.601   2.271  1.00  0.00    -0.237 OA
ATOM     73  O   UNL     1      12.140  18.714   1.239  1.00  0.00    -0.237 OA
ATOM     74  O   UNL     1       9.822  18.472   2.008  1.00  0.00    -0.744 OA
ENDBRANCH  68  71
ENDBRANCH  50  64
BRANCH  51  75
ATOM     75  C   UNL     1      -0.278  15.266  -5.118  1.00  0.00     0.023 A 
ATOM     76  C   UNL     1      -0.618  15.596  -6.444  1.00  0.00     0.012 A 
ATOM     77  C   UNL     1      -1.269  14.742  -4.265  1.00  0.00     0.148 A 
ATOM     78  C   UNL     1      -1.924  15.428  -6.906  1.00  0.00     0.002 A 
ATOM     79  C   UNL     1      -2.556  14.529  -4.747  1.00  0.00     0.091 A 
ATOM     80  F   UNL     1      -0.933  14.456  -2.999  1.00  0.00    -0.205 F 
ATOM     81  C   UNL     1      -2.889  14.885  -6.063  1.00  0.00     0.022 A 
BRANCH  79  82
ATOM     82  S   UNL     1      -3.818  13.713  -3.763  1.00  0.00     0.127 S 
ATOM     83  O   UNL     1      -4.650  14.838  -3.349  1.00  0.00    -0.237 OA
ATOM     84  O   UNL     1      -4.436  12.815  -4.740  1.00  0.00    -0.237 OA
ATOM     85  O   UNL     1      -3.095  13.027  -2.700  1.00  0.00    -0.744 OA
ENDBRANCH  79  82
ENDBRANCH  51  75
BRANCH  63  86
ATOM     86  C   UNL     1       3.798  20.857  -4.124  1.00  0.00     0.023 A 
ATOM     87  C   UNL     1       3.043  21.561  -3.167  1.00  0.00     0.012 A 
ATOM     88  C   UNL     1       4.412  21.561  -5.179  1.00  0.00     0.148 A 
ATOM     89  C   UNL     1       2.883  22.943  -3.268  1.00  0.00     0.002 A 
ATOM     90  C   UNL     1       4.282  22.944  -5.250  1.00  0.00     0.091 A 
ATOM     91  F   UNL     1       5.109  20.869  -6.092  1.00  0.00    -0.205 F 
ATOM     92  C   UNL     1       3.512  23.635  -4.301  1.00  0.00     0.022 A 
BRANCH  90  93
ATOM     93  S   UNL     1       5.135  23.919  -6.495  1.00  0.00     0.127 S 
ATOM     94  O   UNL     1       4.058  24.201  -7.443  1.00  0.00    -0.237 OA
ATOM     95  O   UNL     1       5.591  25.080  -5.729  1.00  0.00    -0.237 OA
ATOM     96  O   UNL     1       6.209  23.071  -6.995  1.00  0.00    -0.744 OA
ENDBRANCH  90  93
ENDBRANCH  63  86
ENDBRANCH  37  38
ENDBRANCH  30  32
ENDBRANCH  29  30
ENDBRANCH  28  29
ENDBRANCH   1  28
TORSDOF 20
