REMARK SMILES O=C(OCCOCCOC(=O)c1cc(Br)ccc1OC(=O)c1ccc(F)cc1)c1ccc(-c2c3nc(c(-c4cccc(S(=O)(=O)[O-])c4F)c4ccc([nH]4)c(-c4cccc(S(=O)(=O)[O-])c4F)c4nc(c(-c5cccc(S(=O)(=O)[O-])c5F)c5ccc2[nH]5)C=C4)C=C3)cc1
REMARK SMILES IDX 6 1 5 2 4 3 3 4 2 5 1 6 29 7 30 8 91 9 31 10 90 11 32 12
REMARK SMILES IDX 33 13 34 14 84 15 35 16 89 17 83 18 85 19 36 20 88 21 82 22
REMARK SMILES IDX 81 23 37 25 69 26 49 27 68 28 50 29 53 30 67 31 86 32 51 33
REMARK SMILES IDX 52 34 66 36 87 37 54 38 38 39 39 40 47 41 40 42 42 43 48 44
REMARK SMILES IDX 41 45 43 46 44 47 45 48 46 49 70 50 71 51 79 52 72 53 74 54
REMARK SMILES IDX 80 55 73 56 75 57 76 58 77 59 78 60 55 61 56 62 64 63 57 64
REMARK SMILES IDX 59 65 65 66 58 67 60 68 61 69 62 70 63 71 7 72 8 73 9 74
REMARK SMILES IDX 10 75 11 76 12 77 13 78 18 79 14 80 17 81 15 82 16 83 19 84
REMARK SMILES IDX 20 85 21 86 22 87 23 88 28 89 24 90 27 91 25 92 26 93
REMARK H PARENT 85 24 53 35
REMARK Flexibility Score: inf
ROOT
ATOM      1  O   UNL     1       2.645   1.022  -1.158  1.00  0.00    -0.374 OA
ENDROOT
BRANCH   1   2
ATOM      2  C   UNL     1       2.969  -0.302  -1.563  1.00  0.00     0.202 C 
BRANCH   2   3
ATOM      3  C   UNL     1       2.867  -1.258  -0.374  1.00  0.00     0.261 C 
BRANCH   3   4
ATOM      4  O   UNL     1       1.588  -1.114   0.262  1.00  0.00    -0.460 OA
BRANCH   4   5
ATOM      5  C   UNL     1       1.282  -0.137   1.158  1.00  0.00     0.338 C 
ATOM      6  O   UNL     1       0.107   0.172   1.342  1.00  0.00    -0.246 OA
BRANCH   5   7
ATOM      7  C   UNL     1       2.321   0.417   2.076  1.00  0.00     0.060 A 
ATOM      8  C   UNL     1       3.509   1.022   1.659  1.00  0.00     0.016 A 
ATOM      9  C   UNL     1       2.021   0.417   3.444  1.00  0.00     0.016 A 
ATOM     10  C   UNL     1       4.413   1.545   2.576  1.00  0.00     0.010 A 
ATOM     11  C   UNL     1       2.901   0.995   4.367  1.00  0.00     0.010 A 
ATOM     12  C   UNL     1       4.115   1.548   3.937  1.00  0.00    -0.014 A 
BRANCH  12  13
ATOM     13  C   UNL     1       5.108   2.099   4.887  1.00  0.00     0.031 A 
ATOM     14  C   UNL     1       5.775   1.178   5.865  1.00  0.00     0.074 A 
ATOM     15  C   UNL     1       5.451   3.401   4.819  1.00  0.00     0.049 A 
ATOM     16  N   UNL     1       6.609   1.465   6.826  1.00  0.00    -0.248 NA
ATOM     17  C   UNL     1       5.465  -0.258   5.745  1.00  0.00     0.031 C 
ATOM     18  C   UNL     1       4.906   4.365   3.859  1.00  0.00     0.029 A 
ATOM     19  N   UNL     1       6.346   4.138   5.553  1.00  0.00    -0.354 N 
ATOM     20  C   UNL     1       6.877   0.261   7.463  1.00  0.00     0.074 A 
ATOM     21  C   UNL     1       6.131  -0.766   6.773  1.00  0.00     0.031 C 
ATOM     22  C   UNL     1       5.501   5.554   4.041  1.00  0.00     0.029 A 
ATOM     23  C   UNL     1       6.406   5.462   5.181  1.00  0.00     0.049 A 
ATOM     24  H   UNL     1       6.892   3.756   6.277  1.00  0.00     0.167 HD
ATOM     25  C   UNL     1       7.675   0.038   8.530  1.00  0.00     0.034 A 
ATOM     26  C   UNL     1       7.088   6.492   5.721  1.00  0.00     0.034 A 
ATOM     27  C   UNL     1       8.442   1.066   9.176  1.00  0.00     0.049 A 
ATOM     28  C   UNL     1       7.949   6.219   6.925  1.00  0.00     0.074 A 
ATOM     29  C   UNL     1       9.270   0.956  10.276  1.00  0.00     0.029 A 
ATOM     30  N   UNL     1       8.477   2.393   8.773  1.00  0.00    -0.354 N 
ATOM     31  N   UNL     1       8.202   5.072   7.511  1.00  0.00    -0.248 NA
ATOM     32  C   UNL     1       8.615   7.371   7.548  1.00  0.00     0.031 C 
ATOM     33  C   UNL     1       9.789   2.223  10.554  1.00  0.00     0.029 A 
ATOM     34  C   UNL     1       9.305   3.117   9.610  1.00  0.00     0.049 A 
ATOM     35  H   UNL     1       7.985   2.764   8.005  1.00  0.00     0.167 HD
ATOM     36  C   UNL     1       9.060   5.361   8.564  1.00  0.00     0.074 A 
ATOM     37  C   UNL     1       9.311   6.788   8.517  1.00  0.00     0.031 C 
ATOM     38  C   UNL     1       9.572   4.529   9.503  1.00  0.00     0.034 A 
BRANCH  25  39
ATOM     39  C   UNL     1       7.753  -1.362   9.070  1.00  0.00     0.023 A 
ATOM     40  C   UNL     1       8.509  -2.337   8.392  1.00  0.00     0.012 A 
ATOM     41  C   UNL     1       7.117  -1.695  10.283  1.00  0.00     0.148 A 
ATOM     42  C   UNL     1       8.616  -3.631   8.903  1.00  0.00     0.002 A 
ATOM     43  C   UNL     1       7.259  -2.974  10.805  1.00  0.00     0.091 A 
ATOM     44  F   UNL     1       6.386  -0.755  10.898  1.00  0.00    -0.205 F 
ATOM     45  C   UNL     1       8.000  -3.946  10.112  1.00  0.00     0.022 A 
BRANCH  43  46
ATOM     46  S   UNL     1       6.555  -3.465  12.383  1.00  0.00     0.127 S 
ATOM     47  O   UNL     1       5.607  -4.502  11.973  1.00  0.00    -0.237 OA
ATOM     48  O   UNL     1       7.729  -3.961  13.099  1.00  0.00    -0.237 OA
ATOM     49  O   UNL     1       5.950  -2.267  12.948  1.00  0.00    -0.744 OA
ENDBRANCH  43  46
ENDBRANCH  25  39
BRANCH  26  50
ATOM     50  C   UNL     1       6.980   7.858   5.128  1.00  0.00     0.023 A 
ATOM     51  C   UNL     1       8.107   8.451   4.528  1.00  0.00     0.012 A 
ATOM     52  C   UNL     1       5.753   8.554   5.105  1.00  0.00     0.148 A 
ATOM     53  C   UNL     1       8.019   9.710   3.929  1.00  0.00     0.002 A 
ATOM     54  C   UNL     1       5.655   9.776   4.449  1.00  0.00     0.091 A 
ATOM     55  F   UNL     1       4.694   7.997   5.710  1.00  0.00    -0.205 F 
ATOM     56  C   UNL     1       6.791  10.365   3.874  1.00  0.00     0.022 A 
BRANCH  54  57
ATOM     57  S   UNL     1       4.079  10.604   4.199  1.00  0.00     0.127 S 
ATOM     58  O   UNL     1       4.159  11.699   5.162  1.00  0.00    -0.237 OA
ATOM     59  O   UNL     1       4.165  11.009   2.796  1.00  0.00    -0.237 OA
ATOM     60  O   UNL     1       3.064   9.593   4.466  1.00  0.00    -0.744 OA
ENDBRANCH  54  57
ENDBRANCH  26  50
BRANCH  38  61
ATOM     61  C   UNL     1      10.461   5.122  10.560  1.00  0.00     0.023 A 
ATOM     62  C   UNL     1       9.883   5.843  11.622  1.00  0.00     0.012 A 
ATOM     63  C   UNL     1      11.838   4.825  10.585  1.00  0.00     0.148 A 
ATOM     64  C   UNL     1      10.665   6.268  12.694  1.00  0.00     0.002 A 
ATOM     65  C   UNL     1      12.601   5.207  11.680  1.00  0.00     0.091 A 
ATOM     66  F   UNL     1      12.364   4.149   9.553  1.00  0.00    -0.205 F 
ATOM     67  C   UNL     1      12.018   5.935  12.731  1.00  0.00     0.022 A 
BRANCH  65  68
ATOM     68  S   UNL     1      14.320   4.725  11.871  1.00  0.00     0.127 S 
ATOM     69  O   UNL     1      15.007   6.006  11.719  1.00  0.00    -0.237 OA
ATOM     70  O   UNL     1      14.339   4.179  13.228  1.00  0.00    -0.237 OA
ATOM     71  O   UNL     1      14.585   3.750  10.822  1.00  0.00    -0.744 OA
ENDBRANCH  65  68
ENDBRANCH  38  61
ENDBRANCH  12  13
ENDBRANCH   5   7
ENDBRANCH   4   5
ENDBRANCH   3   4
ENDBRANCH   2   3
ENDBRANCH   1   2
BRANCH   1  72
ATOM     72  C   UNL     1       1.747   1.745  -1.988  1.00  0.00     0.202 C 
BRANCH  72  73
ATOM     73  C   UNL     1       2.501   2.752  -2.855  1.00  0.00     0.261 C 
BRANCH  73  74
ATOM     74  O   UNL     1       3.342   2.051  -3.786  1.00  0.00    -0.460 OA
BRANCH  74  75
ATOM     75  C   UNL     1       4.637   1.873  -3.416  1.00  0.00     0.342 C 
ATOM     76  O   UNL     1       5.202   2.349  -2.448  1.00  0.00    -0.246 OA
BRANCH  75  77
ATOM     77  C   UNL     1       5.208   0.832  -4.301  1.00  0.00     0.103 A 
ATOM     78  C   UNL     1       4.790   0.751  -5.638  1.00  0.00     0.035 A 
ATOM     79  C   UNL     1       6.068  -0.149  -3.788  1.00  0.00     0.145 A 
ATOM     80  C   UNL     1       5.188  -0.328  -6.424  1.00  0.00     0.019 A 
ATOM     81  C   UNL     1       6.461  -1.232  -4.580  1.00  0.00     0.049 A 
ATOM     82  Br  UNL     1       4.546  -0.475  -8.196  1.00  0.00    -0.051 Br
ATOM     83  C   UNL     1       6.016  -1.321  -5.901  1.00  0.00     0.019 A 
BRANCH  79  84
ATOM     84  O   UNL     1       6.378  -0.202  -2.418  1.00  0.00    -0.422 OA
BRANCH  84  85
ATOM     85  C   UNL     1       7.643   0.240  -2.067  1.00  0.00     0.343 C 
ATOM     86  O   UNL     1       8.494   0.676  -2.826  1.00  0.00    -0.246 OA
BRANCH  85  87
ATOM     87  C   UNL     1       7.875  -0.044  -0.618  1.00  0.00     0.060 A 
ATOM     88  C   UNL     1       9.197  -0.112  -0.153  1.00  0.00     0.019 A 
ATOM     89  C   UNL     1       6.824  -0.282   0.281  1.00  0.00     0.019 A 
ATOM     90  C   UNL     1       9.462  -0.437   1.182  1.00  0.00     0.040 A 
ATOM     91  C   UNL     1       7.092  -0.613   1.614  1.00  0.00     0.040 A 
ATOM     92  C   UNL     1       8.408  -0.691   2.051  1.00  0.00     0.123 A 
ATOM     93  F   UNL     1       8.661  -1.026   3.322  1.00  0.00    -0.207 F 
ENDBRANCH  85  87
ENDBRANCH  84  85
ENDBRANCH  79  84
ENDBRANCH  75  77
ENDBRANCH  74  75
ENDBRANCH  73  74
ENDBRANCH  72  73
ENDBRANCH   1  72
TORSDOF 20
