REMARK SMILES CC(C)c1ccc(NC(=O)C(=O)N/N=C/c2ccccc2C(=O)OCCOCCOC(=O)c2ccc(-c3c4nc(c(-c5cccc(S(=O)(=O)[O-])c5F)c5ccc([nH]5)c(-c5cccc(S(=O)(=O)[O-])c5F)c5nc(c(-c6cccc(S(=O)(=O)[O-])c6F)c6ccc3[nH]6)C=C5)C=C4)cc2)cc1
REMARK SMILES IDX 26 1 25 2 24 3 22 4 23 5 21 6 16 7 17 8 18 9 20 10 19 11
REMARK SMILES IDX 15 12 14 13 13 14 11 15 12 16 9 18 8 19 10 21 7 22 4 23 5 24
REMARK SMILES IDX 97 25 6 26 96 27 2 28 1 29 3 30 27 31 28 32 29 33 30 34
REMARK SMILES IDX 31 35 32 36 33 37 34 38 95 39 35 40 94 41 36 42 37 43 38 44
REMARK SMILES IDX 88 45 39 46 93 47 87 48 89 49 40 50 92 51 86 52 85 53 41 55
REMARK SMILES IDX 73 56 53 57 72 58 54 59 57 60 71 61 90 62 55 63 56 64 70 66
REMARK SMILES IDX 91 67 58 68 42 69 43 70 51 71 44 72 46 73 52 74 45 75 47 76
REMARK SMILES IDX 48 77 49 78 50 79 74 80 75 81 83 82 76 83 78 84 84 85 77 86
REMARK SMILES IDX 79 87 80 88 81 89 82 90 59 91 60 92 68 93 61 94 63 95 69 96
REMARK SMILES IDX 62 97 64 98 65 99 66 100 67 101
REMARK H PARENT 13 17 8 20 89 54 57 65
REMARK Flexibility Score: inf
ROOT
ATOM      1  C   UNL     1      -7.870   4.652  -3.591  1.00  0.00     0.202 C 
ENDROOT
BRANCH   1   2
ATOM      2  C   UNL     1      -8.192   5.105  -2.164  1.00  0.00     0.261 C 
BRANCH   2   3
ATOM      3  O   UNL     1      -8.735   4.014  -1.404  1.00  0.00    -0.460 OA
BRANCH   3   4
ATOM      4  C   UNL     1     -10.030   4.103  -1.035  1.00  0.00     0.338 C 
ATOM      5  O   UNL     1     -10.754   5.079  -1.181  1.00  0.00    -0.246 OA
BRANCH   4   6
ATOM      6  C   UNL     1     -10.549   2.789  -0.562  1.00  0.00     0.068 A 
ATOM      7  C   UNL     1      -9.771   1.758  -0.021  1.00  0.00     0.009 A 
ATOM      8  C   UNL     1     -10.354   0.560   0.410  1.00  0.00     0.010 A 
ATOM      9  C   UNL     1     -11.726   0.366   0.256  1.00  0.00     0.001 A 
ATOM     10  C   UNL     1     -11.928   2.571  -0.717  1.00  0.00     0.016 A 
ATOM     11  C   UNL     1     -12.509   1.362  -0.326  1.00  0.00     0.001 A 
BRANCH   7  12
ATOM     12  C   UNL     1      -8.313   1.786  -0.090  1.00  0.00     0.142 C 
ATOM     13  N   UNL     1      -7.551   1.925   0.947  1.00  0.00    -0.180 NA
BRANCH  13  14
ATOM     14  N   UNL     1      -6.210   1.939   0.643  1.00  0.00    -0.239 N 
ATOM     15  C   UNL     1      -5.593   1.112  -0.283  1.00  0.00     0.329 C 
ATOM     16  O   UNL     1      -4.808   1.561  -1.108  1.00  0.00    -0.262 OA
ATOM     17  H   UNL     1      -5.643   2.587   1.120  1.00  0.00     0.194 HD
BRANCH  15  18
ATOM     18  C   UNL     1      -5.965  -0.384  -0.258  1.00  0.00     0.315 C 
ATOM     19  N   UNL     1      -4.994  -1.362  -0.286  1.00  0.00    -0.318 N 
ATOM     20  H   UNL     1      -5.361  -2.275  -0.313  1.00  0.00     0.170 HD
ATOM     21  O   UNL     1      -7.146  -0.733  -0.307  1.00  0.00    -0.263 OA
BRANCH  19  22
ATOM     22  C   UNL     1      -3.590  -1.327  -0.286  1.00  0.00     0.041 A 
ATOM     23  C   UNL     1      -0.748  -1.459  -0.443  1.00  0.00    -0.045 A 
ATOM     24  C   UNL     1      -1.412  -0.288  -0.057  1.00  0.00     0.006 A 
ATOM     25  C   UNL     1      -1.543  -2.572  -0.744  1.00  0.00     0.006 A 
ATOM     26  C   UNL     1      -2.809  -0.227   0.039  1.00  0.00     0.026 A 
ATOM     27  C   UNL     1      -2.939  -2.513  -0.648  1.00  0.00     0.026 A 
BRANCH  23  28
ATOM     28  C   UNL     1       0.773  -1.529  -0.568  1.00  0.00     0.013 C 
ATOM     29  C   UNL     1       1.517  -0.324   0.022  1.00  0.00     0.012 C 
ATOM     30  C   UNL     1       1.354  -2.799   0.068  1.00  0.00     0.012 C 
ENDBRANCH  23  28
ENDBRANCH  19  22
ENDBRANCH  15  18
ENDBRANCH  13  14
ENDBRANCH   7  12
ENDBRANCH   4   6
ENDBRANCH   3   4
ENDBRANCH   2   3
ENDBRANCH   1   2
BRANCH   1  31
ATOM     31  O   UNL     1      -8.991   4.256  -4.386  1.00  0.00    -0.374 OA
BRANCH  31  32
ATOM     32  C   UNL     1      -9.479   2.928  -4.192  1.00  0.00     0.202 C 
BRANCH  32  33
ATOM     33  C   UNL     1      -8.720   1.799  -4.899  1.00  0.00     0.261 C 
BRANCH  33  34
ATOM     34  O   UNL     1      -7.366   1.665  -4.439  1.00  0.00    -0.460 OA
BRANCH  34  35
ATOM     35  C   UNL     1      -6.429   2.129  -5.301  1.00  0.00     0.338 C 
ATOM     36  O   UNL     1      -6.620   2.599  -6.415  1.00  0.00    -0.246 OA
BRANCH  35  37
ATOM     37  C   UNL     1      -5.108   2.147  -4.651  1.00  0.00     0.060 A 
ATOM     38  C   UNL     1      -4.438   3.373  -4.569  1.00  0.00     0.016 A 
ATOM     39  C   UNL     1      -4.507   0.975  -4.191  1.00  0.00     0.016 A 
ATOM     40  C   UNL     1      -3.148   3.429  -4.044  1.00  0.00     0.010 A 
ATOM     41  C   UNL     1      -3.213   1.035  -3.663  1.00  0.00     0.010 A 
ATOM     42  C   UNL     1      -2.516   2.257  -3.607  1.00  0.00    -0.014 A 
BRANCH  42  43
ATOM     43  C   UNL     1      -1.090   2.291  -3.195  1.00  0.00     0.031 A 
ATOM     44  C   UNL     1      -0.057   1.650  -4.082  1.00  0.00     0.074 A 
ATOM     45  C   UNL     1      -0.717   2.871  -2.038  1.00  0.00     0.049 A 
ATOM     46  N   UNL     1       1.226   1.493  -3.883  1.00  0.00    -0.248 NA
ATOM     47  C   UNL     1      -0.538   1.103  -5.362  1.00  0.00     0.031 C 
ATOM     48  C   UNL     1      -1.623   3.492  -1.073  1.00  0.00     0.029 A 
ATOM     49  N   UNL     1       0.523   2.989  -1.458  1.00  0.00    -0.354 N 
ATOM     50  C   UNL     1       1.699   0.805  -4.995  1.00  0.00     0.074 A 
ATOM     51  C   UNL     1       0.562   0.552  -5.852  1.00  0.00     0.031 C 
ATOM     52  C   UNL     1      -0.915   3.883   0.002  1.00  0.00     0.029 A 
ATOM     53  C   UNL     1       0.486   3.511  -0.187  1.00  0.00     0.049 A 
ATOM     54  H   UNL     1       1.357   2.725  -1.910  1.00  0.00     0.167 HD
ATOM     55  C   UNL     1       2.969   0.437  -5.290  1.00  0.00     0.034 A 
ATOM     56  C   UNL     1       1.460   3.627   0.738  1.00  0.00     0.034 A 
ATOM     57  C   UNL     1       4.103   0.710  -4.450  1.00  0.00     0.049 A 
ATOM     58  C   UNL     1       2.860   3.175   0.406  1.00  0.00     0.074 A 
ATOM     59  C   UNL     1       5.437   0.439  -4.694  1.00  0.00     0.029 A 
ATOM     60  N   UNL     1       4.036   1.300  -3.198  1.00  0.00    -0.354 N 
ATOM     61  N   UNL     1       3.316   2.646  -0.703  1.00  0.00    -0.248 NA
ATOM     62  C   UNL     1       3.884   3.359   1.445  1.00  0.00     0.031 C 
ATOM     63  C   UNL     1       6.174   0.832  -3.572  1.00  0.00     0.029 A 
ATOM     64  C   UNL     1       5.303   1.386  -2.648  1.00  0.00     0.049 A 
ATOM     65  H   UNL     1       3.209   1.611  -2.764  1.00  0.00     0.167 HD
ATOM     66  C   UNL     1       4.683   2.470  -0.510  1.00  0.00     0.074 A 
ATOM     67  C   UNL     1       4.984   2.967   0.816  1.00  0.00     0.031 C 
ATOM     68  C   UNL     1       5.603   1.936  -1.351  1.00  0.00     0.034 A 
BRANCH  55  69
ATOM     69  C   UNL     1       3.204  -0.279  -6.595  1.00  0.00     0.023 A 
ATOM     70  C   UNL     1       3.087   0.424  -7.812  1.00  0.00     0.012 A 
ATOM     71  C   UNL     1       3.594  -1.633  -6.614  1.00  0.00     0.148 A 
ATOM     72  C   UNL     1       3.317  -0.218  -9.028  1.00  0.00     0.002 A 
ATOM     73  C   UNL     1       3.869  -2.252  -7.827  1.00  0.00     0.091 A 
ATOM     74  F   UNL     1       3.680  -2.290  -5.449  1.00  0.00    -0.205 F 
ATOM     75  C   UNL     1       3.719  -1.551  -9.035  1.00  0.00     0.022 A 
BRANCH  73  76
ATOM     76  S   UNL     1       4.471  -3.941  -7.939  1.00  0.00     0.127 S 
ATOM     77  O   UNL     1       3.324  -4.624  -8.536  1.00  0.00    -0.237 OA
ATOM     78  O   UNL     1       5.625  -3.797  -8.826  1.00  0.00    -0.237 OA
ATOM     79  O   UNL     1       4.795  -4.343  -6.578  1.00  0.00    -0.744 OA
ENDBRANCH  73  76
ENDBRANCH  55  69
BRANCH  56  80
ATOM     80  C   UNL     1       1.152   4.201   2.078  1.00  0.00     0.023 A 
ATOM     81  C   UNL     1       1.677   5.458   2.433  1.00  0.00     0.012 A 
ATOM     82  C   UNL     1       0.342   3.508   2.999  1.00  0.00     0.148 A 
ATOM     83  C   UNL     1       1.430   6.001   3.694  1.00  0.00     0.002 A 
ATOM     84  C   UNL     1       0.053   4.080   4.232  1.00  0.00     0.091 A 
ATOM     85  F   UNL     1      -0.136   2.307   2.645  1.00  0.00    -0.205 F 
ATOM     86  C   UNL     1       0.611   5.318   4.589  1.00  0.00     0.022 A 
BRANCH  84  87
ATOM     87  S   UNL     1      -1.092   3.336   5.398  1.00  0.00     0.127 S 
ATOM     88  O   UNL     1      -0.205   2.979   6.502  1.00  0.00    -0.237 OA
ATOM     89  O   UNL     1      -2.002   4.449   5.671  1.00  0.00    -0.237 OA
ATOM     90  O   UNL     1      -1.702   2.219   4.690  1.00  0.00    -0.744 OA
ENDBRANCH  84  87
ENDBRANCH  56  80
BRANCH  68  91
ATOM     91  C   UNL     1       7.041   1.913  -0.898  1.00  0.00     0.023 A 
ATOM     92  C   UNL     1       7.452   1.023   0.113  1.00  0.00     0.012 A 
ATOM     93  C   UNL     1       8.001   2.728  -1.532  1.00  0.00     0.148 A 
ATOM     94  C   UNL     1       8.788   0.970   0.511  1.00  0.00     0.002 A 
ATOM     95  C   UNL     1       9.339   2.632  -1.167  1.00  0.00     0.091 A 
ATOM     96  F   UNL     1       7.589   3.580  -2.482  1.00  0.00    -0.205 F 
ATOM     97  C   UNL     1       9.732   1.764  -0.136  1.00  0.00     0.022 A 
BRANCH  95  98
ATOM     98  S   UNL     1      10.637   3.542  -2.011  1.00  0.00     0.127 S 
ATOM     99  O   UNL     1      11.033   4.511  -0.991  1.00  0.00    -0.237 OA
ATOM    100  O   UNL     1      11.626   2.496  -2.276  1.00  0.00    -0.237 OA
ATOM    101  O   UNL     1      10.023   4.109  -3.204  1.00  0.00    -0.744 OA
ENDBRANCH  95  98
ENDBRANCH  68  91
ENDBRANCH  42  43
ENDBRANCH  35  37
ENDBRANCH  34  35
ENDBRANCH  33  34
ENDBRANCH  32  33
ENDBRANCH  31  32
ENDBRANCH   1  31
TORSDOF 22
