REMARK SMILES O=C(CSc1nnc(-c2cccc(C(F)(F)F)c2F)o1)OCCOCCOC(=O)c1ccc(-c2c3nc(c(-c4cccc(S(=O)(=O)[O-])c4F)c4ccc([nH]4)c(-c4cccc(S(=O)(=O)[O-])c4F)c4nc(c(-c5cccc(S(=O)(=O)[O-])c5F)c5ccc2[nH]5)C=C4)C=C3)cc1
REMARK SMILES IDX 23 1 22 2 21 3 2 4 1 5 3 6 4 7 5 8 6 9 20 10 7 11 8 12 9 13
REMARK SMILES IDX 10 14 18 15 11 16 13 17 19 18 12 19 14 20 15 21 16 22 17 23
REMARK SMILES IDX 24 24 25 25 26 26 27 27 28 28 29 29 30 30 31 31 92 32 32 33
REMARK SMILES IDX 91 34 33 35 34 36 35 37 85 38 36 39 90 40 84 41 86 42 37 43
REMARK SMILES IDX 89 44 83 45 82 46 38 48 70 49 50 50 69 51 51 52 54 53 68 54
REMARK SMILES IDX 87 55 52 56 53 57 67 59 88 60 55 61 39 62 40 63 48 64 41 65
REMARK SMILES IDX 43 66 49 67 42 68 44 69 45 70 46 71 47 72 71 73 72 74 80 75
REMARK SMILES IDX 73 76 75 77 81 78 74 79 76 80 77 81 78 82 79 83 56 84 57 85
REMARK SMILES IDX 65 86 58 87 60 88 66 89 59 90 61 91 62 92 63 93 64 94
REMARK H PARENT 86 47 54 58
REMARK Flexibility Score: inf
ROOT
ATOM      1  C   UNL     1       4.601  -1.044  -0.098  1.00  0.00     0.202 C 
ENDROOT
BRANCH   1   2
ATOM      2  C   UNL     1       4.213   0.105   0.826  1.00  0.00     0.261 C 
BRANCH   2   3
ATOM      3  O   UNL     1       2.795   0.334   0.886  1.00  0.00    -0.463 OA
BRANCH   3   4
ATOM      4  C   UNL     1       2.045   1.022   0.000  1.00  0.00     0.316 C 
ATOM      5  O   UNL     1       0.815   0.947   0.073  1.00  0.00    -0.251 OA
BRANCH   4   6
ATOM      6  C   UNL     1       2.663   1.771  -1.156  1.00  0.00     0.202 C 
BRANCH   6   7
ATOM      7  S   UNL     1       3.959   2.955  -0.785  1.00  0.00    -0.054 SA
BRANCH   7   8
ATOM      8  C   UNL     1       3.143   3.905   0.395  1.00  0.00     0.277 A 
ATOM      9  N   UNL     1       2.481   3.453   1.438  1.00  0.00    -0.101 NA
ATOM     10  O   UNL     1       3.100   5.255   0.292  1.00  0.00    -0.411 OA
ATOM     11  N   UNL     1       1.943   4.556   2.071  1.00  0.00    -0.107 NA
ATOM     12  C   UNL     1       2.305   5.590   1.346  1.00  0.00     0.251 A 
BRANCH  12  13
ATOM     13  C   UNL     1       2.088   7.003   1.498  1.00  0.00     0.075 A 
ATOM     14  C   UNL     1       2.207   7.610   2.749  1.00  0.00     0.017 A 
ATOM     15  C   UNL     1       1.845   7.788   0.364  1.00  0.00     0.148 A 
ATOM     16  C   UNL     1       2.136   8.998   2.850  1.00  0.00     0.002 A 
ATOM     17  C   UNL     1       1.771   9.172   0.446  1.00  0.00     0.092 A 
ATOM     18  F   UNL     1       1.693   7.191  -0.828  1.00  0.00    -0.205 F 
ATOM     19  C   UNL     1       1.930   9.774   1.705  1.00  0.00     0.016 A 
BRANCH  17  20
ATOM     20  C   UNL     1       1.554   9.999  -0.785  1.00  0.00     0.419 C 
ATOM     21  F   UNL     1       0.436  10.773  -0.690  1.00  0.00    -0.166 F 
ATOM     22  F   UNL     1       2.583  10.867  -1.003  1.00  0.00    -0.166 F 
ATOM     23  F   UNL     1       1.417   9.299  -1.943  1.00  0.00    -0.166 F 
ENDBRANCH  17  20
ENDBRANCH  12  13
ENDBRANCH   7   8
ENDBRANCH   6   7
ENDBRANCH   4   6
ENDBRANCH   3   4
ENDBRANCH   2   3
ENDBRANCH   1   2
BRANCH   1  24
ATOM     24  O   UNL     1       4.086  -0.981  -1.427  1.00  0.00    -0.374 OA
BRANCH  24  25
ATOM     25  C   UNL     1       2.812  -1.612  -1.626  1.00  0.00     0.202 C 
BRANCH  25  26
ATOM     26  C   UNL     1       2.838  -3.120  -1.881  1.00  0.00     0.261 C 
BRANCH  26  27
ATOM     27  O   UNL     1       3.262  -3.837  -0.715  1.00  0.00    -0.460 OA
BRANCH  27  28
ATOM     28  C   UNL     1       4.568  -4.187  -0.719  1.00  0.00     0.338 C 
ATOM     29  O   UNL     1       5.357  -4.071  -1.647  1.00  0.00    -0.246 OA
BRANCH  28  30
ATOM     30  C   UNL     1       4.986  -4.545   0.649  1.00  0.00     0.060 A 
ATOM     31  C   UNL     1       6.237  -4.078   1.074  1.00  0.00     0.016 A 
ATOM     32  C   UNL     1       4.192  -5.327   1.492  1.00  0.00     0.016 A 
ATOM     33  C   UNL     1       6.740  -4.474   2.305  1.00  0.00     0.010 A 
ATOM     34  C   UNL     1       4.699  -5.722   2.731  1.00  0.00     0.010 A 
ATOM     35  C   UNL     1       5.998  -5.346   3.111  1.00  0.00    -0.014 A 
BRANCH  35  36
ATOM     36  C   UNL     1       6.670  -5.989   4.261  1.00  0.00     0.031 A 
ATOM     37  C   UNL     1       7.145  -7.408   4.119  1.00  0.00     0.074 A 
ATOM     38  C   UNL     1       6.907  -5.293   5.386  1.00  0.00     0.049 A 
ATOM     39  N   UNL     1       7.827  -8.136   4.961  1.00  0.00    -0.248 NA
ATOM     40  C   UNL     1       6.811  -8.100   2.861  1.00  0.00     0.031 C 
ATOM     41  C   UNL     1       6.488  -3.913   5.621  1.00  0.00     0.029 A 
ATOM     42  N   UNL     1       7.555  -5.654   6.538  1.00  0.00    -0.354 N 
ATOM     43  C   UNL     1       7.979  -9.375   4.352  1.00  0.00     0.074 A 
ATOM     44  C   UNL     1       7.303  -9.311   3.077  1.00  0.00     0.031 C 
ATOM     45  C   UNL     1       6.890  -3.542   6.847  1.00  0.00     0.029 A 
ATOM     46  C   UNL     1       7.572  -4.664   7.490  1.00  0.00     0.049 A 
ATOM     47  H   UNL     1       7.969  -6.537   6.670  1.00  0.00     0.167 HD
ATOM     48  C   UNL     1       8.642 -10.462   4.808  1.00  0.00     0.034 A 
ATOM     49  C   UNL     1       8.074  -4.667   8.741  1.00  0.00     0.034 A 
ATOM     50  C   UNL     1       9.333 -10.501   6.067  1.00  0.00     0.049 A 
ATOM     51  C   UNL     1       8.797  -5.891   9.234  1.00  0.00     0.074 A 
ATOM     52  C   UNL     1      10.089 -11.530   6.596  1.00  0.00     0.029 A 
ATOM     53  N   UNL     1       9.338  -9.475   7.000  1.00  0.00    -0.354 N 
ATOM     54  N   UNL     1       9.035  -7.014   8.601  1.00  0.00    -0.248 NA
ATOM     55  C   UNL     1       9.349  -5.842  10.596  1.00  0.00     0.031 C 
ATOM     56  C   UNL     1      10.511 -11.145   7.870  1.00  0.00     0.029 A 
ATOM     57  C   UNL     1      10.062  -9.856   8.114  1.00  0.00     0.049 A 
ATOM     58  H   UNL     1       8.891  -8.605   6.886  1.00  0.00     0.167 HD
ATOM     59  C   UNL     1       9.789  -7.793   9.470  1.00  0.00     0.074 A 
ATOM     60  C   UNL     1       9.976  -7.010  10.675  1.00  0.00     0.031 C 
ATOM     61  C   UNL     1      10.277  -9.045   9.287  1.00  0.00     0.034 A 
BRANCH  48  62
ATOM     62  C   UNL     1       8.672 -11.693   3.941  1.00  0.00     0.023 A 
ATOM     63  C   UNL     1       9.436 -11.702   2.757  1.00  0.00     0.012 A 
ATOM     64  C   UNL     1       8.007 -12.868   4.343  1.00  0.00     0.148 A 
ATOM     65  C   UNL     1       9.516 -12.852   1.972  1.00  0.00     0.002 A 
ATOM     66  C   UNL     1       8.133 -14.025   3.584  1.00  0.00     0.091 A 
ATOM     67  F   UNL     1       7.265 -12.833   5.459  1.00  0.00    -0.205 F 
ATOM     68  C   UNL     1       8.877 -14.016   2.393  1.00  0.00     0.022 A 
BRANCH  66  69
ATOM     69  S   UNL     1       7.423 -15.596   4.088  1.00  0.00     0.127 S 
ATOM     70  O   UNL     1       6.370 -15.777   3.090  1.00  0.00    -0.237 OA
ATOM     71  O   UNL     1       8.561 -16.505   3.945  1.00  0.00    -0.237 OA
ATOM     72  O   UNL     1       6.961 -15.409   5.456  1.00  0.00    -0.744 OA
ENDBRANCH  66  69
ENDBRANCH  48  62
BRANCH  49  73
ATOM     73  C   UNL     1       7.949  -3.438   9.571  1.00  0.00     0.023 A 
ATOM     74  C   UNL     1       9.086  -2.650   9.827  1.00  0.00     0.012 A 
ATOM     75  C   UNL     1       6.688  -2.994  10.018  1.00  0.00     0.148 A 
ATOM     76  C   UNL     1       8.971  -1.441  10.516  1.00  0.00     0.002 A 
ATOM     77  C   UNL     1       6.572  -1.763  10.652  1.00  0.00     0.091 A 
ATOM     78  F   UNL     1       5.621  -3.767   9.771  1.00  0.00    -0.205 F 
ATOM     79  C   UNL     1       7.714  -0.991  10.914  1.00  0.00     0.022 A 
BRANCH  77  80
ATOM     80  S   UNL     1       4.984  -1.034  11.066  1.00  0.00     0.127 S 
ATOM     81  O   UNL     1       5.055  -0.970  12.524  1.00  0.00    -0.237 OA
ATOM     82  O   UNL     1       5.066   0.260  10.388  1.00  0.00    -0.237 OA
ATOM     83  O   UNL     1       3.978  -1.938  10.527  1.00  0.00    -0.744 OA
ENDBRANCH  77  80
ENDBRANCH  49  73
BRANCH  61  84
ATOM     84  C   UNL     1      11.094  -9.666  10.389  1.00  0.00     0.023 A 
ATOM     85  C   UNL     1      10.454 -10.157  11.543  1.00  0.00     0.012 A 
ATOM     86  C   UNL     1      12.469  -9.914  10.197  1.00  0.00     0.148 A 
ATOM     87  C   UNL     1      11.173 -10.882  12.493  1.00  0.00     0.002 A 
ATOM     88  C   UNL     1      13.165 -10.683  11.120  1.00  0.00     0.091 A 
ATOM     89  F   UNL     1      13.056  -9.426   9.094  1.00  0.00    -0.205 F 
ATOM     90  C   UNL     1      12.521 -11.161  12.273  1.00  0.00     0.022 A 
BRANCH  88  91
ATOM     91  S   UNL     1      14.869 -11.191  10.866  1.00  0.00     0.127 S 
ATOM     92  O   UNL     1      15.552 -10.498  11.957  1.00  0.00    -0.237 OA
ATOM     93  O   UNL     1      14.784 -12.643  11.024  1.00  0.00    -0.237 OA
ATOM     94  O   UNL     1      15.232 -10.744   9.528  1.00  0.00    -0.744 OA
ENDBRANCH  88  91
ENDBRANCH  61  84
ENDBRANCH  35  36
ENDBRANCH  28  30
ENDBRANCH  27  28
ENDBRANCH  26  27
ENDBRANCH  25  26
ENDBRANCH  24  25
ENDBRANCH   1  24
TORSDOF 21
