REMARK SMILES COc1cc(Cl)c(C)cc1N1C(=O)C[C@H](Nc2cc(C(=O)OCCOCCOC(=O)c3ccc(-c4c5nc(c(-c6cccc(S(=O)(=O)[O-])c6F)c6ccc([nH]6)c(-c6cccc(S(=O)(=O)[O-])c6F)c6nc(c(-c7cccc(S(=O)(=O)[O-])c7F)c7ccc4[nH]7)C=C6)C=C5)cc3)ccc2C)C1=O
REMARK SMILES IDX 24 1 23 2 22 3 20 4 21 5 19 6 17 7 18 8 96 9 95 10 97 11
REMARK SMILES IDX 94 12 16 13 15 15 11 16 12 17 98 18 13 19 14 20 99 21 10 22
REMARK SMILES IDX 3 23 4 24 5 25 9 26 6 27 7 28 8 29 2 30 1 31 25 32 26 33
REMARK SMILES IDX 27 34 28 35 29 36 30 37 31 38 32 39 93 40 33 41 92 42 34 43
REMARK SMILES IDX 35 44 36 45 86 46 37 47 91 48 85 49 87 50 38 51 90 52 84 53
REMARK SMILES IDX 83 54 39 56 71 57 51 58 70 59 52 60 55 61 69 62 88 63 53 64
REMARK SMILES IDX 54 65 68 67 89 68 56 69 40 70 41 71 49 72 42 73 44 74 50 75
REMARK SMILES IDX 43 76 45 77 46 78 47 79 48 80 72 81 73 82 81 83 74 84 76 85
REMARK SMILES IDX 82 86 75 87 77 88 78 89 79 90 80 91 57 92 58 93 66 94 59 95
REMARK SMILES IDX 61 96 67 97 60 98 62 99 63 100 64 101 65 102
REMARK H PARENT 16 14 87 55 55 66
REMARK Flexibility Score: inf
ROOT
ATOM      1  C   UNL     1       4.557   4.994   4.950  1.00  0.00     0.202 C 
ENDROOT
BRANCH   1   2
ATOM      2  C   UNL     1       3.697   4.733   3.758  1.00  0.00     0.261 C 
BRANCH   2   3
ATOM      3  O   UNL     1       4.494   4.239   2.651  1.00  0.00    -0.460 OA
BRANCH   3   4
ATOM      4  C   UNL     1       5.407   4.966   1.935  1.00  0.00     0.338 C 
ATOM      5  O   UNL     1       5.608   6.148   1.892  1.00  0.00    -0.246 OA
BRANCH   4   6
ATOM      6  C   UNL     1       6.250   3.983   1.220  1.00  0.00     0.062 A 
ATOM      7  C   UNL     1       6.687   1.649   0.701  1.00  0.00     0.038 A 
ATOM      8  C   UNL     1       5.860   2.648   1.198  1.00  0.00     0.041 A 
ATOM      9  C   UNL     1       7.964   2.003   0.247  1.00  0.00    -0.028 A 
ATOM     10  C   UNL     1       8.333   3.365   0.199  1.00  0.00     0.006 A 
ATOM     11  C   UNL     1       8.963   0.984  -0.216  1.00  0.00     0.046 C 
ATOM     12  C   UNL     1       7.476   4.358   0.677  1.00  0.00     0.016 A 
BRANCH   7  13
ATOM     13  N   UNL     1       6.265   0.321   0.848  1.00  0.00    -0.373 N 
ATOM     14  H   UNL     1       6.826  -0.366   1.275  1.00  0.00     0.161 HD
BRANCH  13  15
ATOM     15  C   UNL     1       4.920   0.025   0.319  1.00  0.00     0.179 C 
ATOM     16  N   UNL     1       3.414  -1.676   0.860  1.00  0.00    -0.245 N 
ATOM     17  C   UNL     1       4.042  -2.102  -0.279  1.00  0.00     0.236 C 
ATOM     18  C   UNL     1       3.968  -0.528   1.369  1.00  0.00     0.256 C 
ATOM     19  O   UNL     1       3.852  -3.146  -0.889  1.00  0.00    -0.274 OA
ATOM     20  C   UNL     1       5.026  -1.068  -0.722  1.00  0.00     0.136 C 
ATOM     21  O   UNL     1       3.816  -0.057   2.489  1.00  0.00    -0.272 OA
BRANCH  16  22
ATOM     22  C   UNL     1       2.385  -2.400   1.490  1.00  0.00     0.094 A 
ATOM     23  C   UNL     1       1.124  -1.832   1.720  1.00  0.00     0.144 A 
ATOM     24  C   UNL     1       0.116  -2.572   2.341  1.00  0.00     0.069 A 
ATOM     25  C   UNL     1       0.355  -3.892   2.726  1.00  0.00     0.047 A 
ATOM     26  C   UNL     1       2.609  -3.731   1.868  1.00  0.00     0.035 A 
ATOM     27  Cl  UNL     1      -0.939  -4.774   3.456  1.00  0.00    -0.084 Cl
ATOM     28  C   UNL     1       1.610  -4.482   2.512  1.00  0.00    -0.030 A 
ATOM     29  C   UNL     1       1.919  -5.883   2.959  1.00  0.00     0.046 C 
BRANCH  23  30
ATOM     30  O   UNL     1       0.802  -0.552   1.361  1.00  0.00    -0.495 OA
ATOM     31  C   UNL     1       0.679  -0.382  -0.052  1.00  0.00     0.278 C 
ENDBRANCH  23  30
ENDBRANCH  16  22
ENDBRANCH  13  15
ENDBRANCH   7  13
ENDBRANCH   4   6
ENDBRANCH   3   4
ENDBRANCH   2   3
ENDBRANCH   1   2
BRANCH   1  32
ATOM     32  O   UNL     1       5.447   5.996   4.514  1.00  0.00    -0.374 OA
BRANCH  32  33
ATOM     33  C   UNL     1       6.643   6.146   5.229  1.00  0.00     0.202 C 
BRANCH  33  34
ATOM     34  C   UNL     1       6.352   6.683   6.625  1.00  0.00     0.261 C 
BRANCH  34  35
ATOM     35  O   UNL     1       5.736   7.988   6.518  1.00  0.00    -0.460 OA
BRANCH  35  36
ATOM     36  C   UNL     1       4.369   7.987   6.572  1.00  0.00     0.338 C 
ATOM     37  O   UNL     1       3.731   7.529   7.507  1.00  0.00    -0.246 OA
BRANCH  36  38
ATOM     38  C   UNL     1       3.788   8.396   5.253  1.00  0.00     0.060 A 
ATOM     39  C   UNL     1       2.443   8.109   4.954  1.00  0.00     0.016 A 
ATOM     40  C   UNL     1       4.655   8.756   4.223  1.00  0.00     0.016 A 
ATOM     41  C   UNL     1       2.019   7.999   3.617  1.00  0.00     0.010 A 
ATOM     42  C   UNL     1       4.256   8.548   2.915  1.00  0.00     0.010 A 
ATOM     43  C   UNL     1       2.954   8.117   2.597  1.00  0.00    -0.014 A 
BRANCH  43  44
ATOM     44  C   UNL     1       2.726   7.840   1.173  1.00  0.00     0.031 A 
ATOM     45  C   UNL     1       2.752   8.987   0.242  1.00  0.00     0.074 A 
ATOM     46  C   UNL     1       2.740   6.598   0.626  1.00  0.00     0.049 A 
ATOM     47  N   UNL     1       2.358   8.921  -0.984  1.00  0.00    -0.248 NA
ATOM     48  C   UNL     1       3.199  10.320   0.632  1.00  0.00     0.031 C 
ATOM     49  C   UNL     1       3.237   6.245  -0.708  1.00  0.00     0.029 A 
ATOM     50  N   UNL     1       2.367   5.364   1.149  1.00  0.00    -0.354 N 
ATOM     51  C   UNL     1       2.806  10.057  -1.611  1.00  0.00     0.074 A 
ATOM     52  C   UNL     1       3.219  10.942  -0.548  1.00  0.00     0.031 C 
ATOM     53  C   UNL     1       2.977   4.953  -0.963  1.00  0.00     0.029 A 
ATOM     54  C   UNL     1       2.143   4.457   0.110  1.00  0.00     0.049 A 
ATOM     55  H   UNL     1       2.274   5.160   2.108  1.00  0.00     0.167 HD
ATOM     56  C   UNL     1       2.957  10.048  -2.963  1.00  0.00     0.034 A 
ATOM     57  C   UNL     1       0.997   3.731   0.023  1.00  0.00     0.034 A 
ATOM     58  C   UNL     1       2.611   8.725  -3.534  1.00  0.00     0.049 A 
ATOM     59  C   UNL     1       0.269   4.048  -1.257  1.00  0.00     0.074 A 
ATOM     60  C   UNL     1       3.373   7.661  -3.998  1.00  0.00     0.029 A 
ATOM     61  N   UNL     1       1.317   8.222  -3.405  1.00  0.00    -0.354 N 
ATOM     62  N   UNL     1       0.749   4.803  -2.203  1.00  0.00    -0.248 NA
ATOM     63  C   UNL     1      -1.083   3.599  -1.549  1.00  0.00     0.031 C 
ATOM     64  C   UNL     1       2.518   6.537  -4.188  1.00  0.00     0.029 A 
ATOM     65  C   UNL     1       1.225   6.908  -3.861  1.00  0.00     0.049 A 
ATOM     66  H   UNL     1       0.560   8.732  -3.036  1.00  0.00     0.167 HD
ATOM     67  C   UNL     1      -0.254   5.184  -3.051  1.00  0.00     0.074 A 
ATOM     68  C   UNL     1      -1.355   4.310  -2.657  1.00  0.00     0.031 C 
ATOM     69  C   UNL     1      -0.085   6.236  -3.921  1.00  0.00     0.034 A 
BRANCH  56  70
ATOM     70  C   UNL     1       3.748  11.116  -3.708  1.00  0.00     0.023 A 
ATOM     71  C   UNL     1       4.353  10.745  -4.927  1.00  0.00     0.012 A 
ATOM     72  C   UNL     1       3.984  12.449  -3.286  1.00  0.00     0.148 A 
ATOM     73  C   UNL     1       5.225  11.588  -5.625  1.00  0.00     0.002 A 
ATOM     74  C   UNL     1       4.919  13.264  -3.936  1.00  0.00     0.091 A 
ATOM     75  F   UNL     1       3.239  12.982  -2.311  1.00  0.00    -0.205 F 
ATOM     76  C   UNL     1       5.543  12.833  -5.107  1.00  0.00     0.022 A 
BRANCH  74  77
ATOM     77  S   UNL     1       5.457  14.848  -3.259  1.00  0.00     0.127 S 
ATOM     78  O   UNL     1       6.909  14.797  -3.454  1.00  0.00    -0.237 OA
ATOM     79  O   UNL     1       4.769  15.812  -4.113  1.00  0.00    -0.237 OA
ATOM     80  O   UNL     1       5.055  14.836  -1.857  1.00  0.00    -0.744 OA
ENDBRANCH  74  77
ENDBRANCH  56  70
BRANCH  57  81
ATOM     81  C   UNL     1       0.382   3.457   1.360  1.00  0.00     0.023 A 
ATOM     82  C   UNL     1       1.016   2.501   2.190  1.00  0.00     0.012 A 
ATOM     83  C   UNL     1      -0.484   4.389   1.956  1.00  0.00     0.148 A 
ATOM     84  C   UNL     1       0.853   2.518   3.578  1.00  0.00     0.002 A 
ATOM     85  C   UNL     1      -0.571   4.459   3.346  1.00  0.00     0.091 A 
ATOM     86  F   UNL     1      -1.148   5.240   1.164  1.00  0.00    -0.205 F 
ATOM     87  C   UNL     1       0.106   3.535   4.160  1.00  0.00     0.022 A 
BRANCH  85  88
ATOM     88  S   UNL     1      -1.368   5.843   4.171  1.00  0.00     0.127 S 
ATOM     89  O   UNL     1      -2.646   5.256   4.564  1.00  0.00    -0.237 OA
ATOM     90  O   UNL     1      -0.449   6.115   5.278  1.00  0.00    -0.237 OA
ATOM     91  O   UNL     1      -1.430   6.902   3.175  1.00  0.00    -0.744 OA
ENDBRANCH  85  88
ENDBRANCH  57  81
BRANCH  69  92
ATOM     92  C   UNL     1      -1.140   6.790  -4.878  1.00  0.00     0.023 A 
ATOM     93  C   UNL     1      -2.371   6.154  -5.109  1.00  0.00     0.012 A 
ATOM     94  C   UNL     1      -0.921   7.983  -5.622  1.00  0.00     0.148 A 
ATOM     95  C   UNL     1      -3.372   6.713  -5.912  1.00  0.00     0.002 A 
ATOM     96  C   UNL     1      -1.922   8.555  -6.400  1.00  0.00     0.091 A 
ATOM     97  F   UNL     1       0.292   8.546  -5.652  1.00  0.00    -0.205 F 
ATOM     98  C   UNL     1      -3.160   7.931  -6.533  1.00  0.00     0.022 A 
BRANCH  96  99
ATOM     99  S   UNL     1      -1.691  10.115  -7.262  1.00  0.00     0.127 S 
ATOM    100  O   UNL     1      -1.606   9.668  -8.652  1.00  0.00    -0.237 OA
ATOM    101  O   UNL     1      -2.923  10.829  -6.925  1.00  0.00    -0.237 OA
ATOM    102  O   UNL     1      -0.479  10.705  -6.715  1.00  0.00    -0.744 OA
ENDBRANCH  96  99
ENDBRANCH  69  92
ENDBRANCH  43  44
ENDBRANCH  36  38
ENDBRANCH  35  36
ENDBRANCH  34  35
ENDBRANCH  33  34
ENDBRANCH  32  33
ENDBRANCH   1  32
TORSDOF 21
