REMARK SMILES CC[N@@H+](Cc1cccc(C)n1)Cc1csc(C(=O)OCCOCCOC(=O)c2ccc(-c3c4nc(c(-c5cccc(S(=O)(=O)[O-])c5F)c5ccc([nH]5)c(-c5cccc(S(=O)(=O)[O-])c5F)c5nc(c(-c6cccc(S(=O)(=O)[O-])c6F)c6ccc3[nH]6)C=C5)C=C4)cc2)n1
REMARK SMILES IDX 21 1 20 2 19 3 17 4 18 5 16 6 13 7 14 8 91 9 15 10 12 11
REMARK SMILES IDX 3 12 2 14 1 15 4 16 5 17 6 18 11 19 7 20 9 21 8 22 10 23
REMARK SMILES IDX 22 24 23 25 24 26 25 27 26 28 27 29 28 30 29 31 90 32 30 33
REMARK SMILES IDX 89 34 31 35 32 36 33 37 83 38 34 39 88 40 82 41 84 42 35 43
REMARK SMILES IDX 87 44 81 45 80 46 36 48 68 49 48 50 67 51 49 52 52 53 66 54
REMARK SMILES IDX 85 55 50 56 51 57 65 59 86 60 53 61 37 62 38 63 46 64 39 65
REMARK SMILES IDX 41 66 47 67 40 68 42 69 43 70 44 71 45 72 69 73 70 74 78 75
REMARK SMILES IDX 71 76 73 77 79 78 72 79 74 80 75 81 76 82 77 83 54 84 55 85
REMARK SMILES IDX 63 86 56 87 58 88 64 89 57 90 59 91 60 92 61 93 62 94
REMARK H PARENT 3 13 84 47 52 58
REMARK Flexibility Score: inf
ROOT
ATOM      1  C   UNL     1       1.700   6.445  -1.349  1.00  0.00     0.202 C 
ENDROOT
BRANCH   1   2
ATOM      2  C   UNL     1       0.832   5.871  -2.473  1.00  0.00     0.261 C 
BRANCH   2   3
ATOM      3  O   UNL     1       1.192   4.506  -2.727  1.00  0.00    -0.458 OA
BRANCH   3   4
ATOM      4  C   UNL     1       1.975   4.274  -3.823  1.00  0.00     0.367 C 
ATOM      5  O   UNL     1       2.220   5.109  -4.689  1.00  0.00    -0.243 OA
BRANCH   4   6
ATOM      6  C   UNL     1       2.530   2.929  -3.750  1.00  0.00     0.202 A 
ATOM      7  C   UNL     1       2.807   0.810  -3.124  1.00  0.00     0.106 A 
ATOM      8  C   UNL     1       3.812   0.905  -4.071  1.00  0.00     0.097 A 
ATOM      9  N   UNL     1       2.142   2.007  -2.891  1.00  0.00    -0.229 NA
ATOM     10  S   UNL     1       3.827   2.468  -4.774  1.00  0.00    -0.115 S 
BRANCH   7  11
ATOM     11  C   UNL     1       2.395  -0.454  -2.406  1.00  0.00     0.320 C 
BRANCH  11  12
ATOM     12  N   UNL     1       0.944  -0.630  -2.223  1.00  0.00    -0.325 N 
ATOM     13  H   UNL     1       0.881  -1.585  -1.870  1.00  0.00     0.348 HD
BRANCH  12  14
ATOM     14  C   UNL     1       0.326   0.224  -1.196  1.00  0.00     0.259 C 
ATOM     15  C   UNL     1       0.927   0.072   0.197  1.00  0.00     0.071 C 
ENDBRANCH  12  14
BRANCH  12  16
ATOM     16  C   UNL     1       0.181  -0.538  -3.490  1.00  0.00     0.319 C 
BRANCH  16  17
ATOM     17  C   UNL     1       0.048  -1.833  -4.274  1.00  0.00     0.095 A 
ATOM     18  C   UNL     1       0.063  -3.073  -3.642  1.00  0.00     0.030 A 
ATOM     19  N   UNL     1      -0.258  -1.704  -5.595  1.00  0.00    -0.252 NA
ATOM     20  C   UNL     1      -0.245  -4.211  -4.380  1.00  0.00     0.004 A 
ATOM     21  C   UNL     1      -0.592  -2.816  -6.291  1.00  0.00     0.038 A 
ATOM     22  C   UNL     1      -0.591  -4.083  -5.720  1.00  0.00     0.023 A 
ATOM     23  C   UNL     1      -1.033  -2.607  -7.707  1.00  0.00     0.067 C 
ENDBRANCH  16  17
ENDBRANCH  12  16
ENDBRANCH  11  12
ENDBRANCH   7  11
ENDBRANCH   4   6
ENDBRANCH   3   4
ENDBRANCH   2   3
ENDBRANCH   1   2
BRANCH   1  24
ATOM     24  O   UNL     1       3.081   6.571  -1.701  1.00  0.00    -0.374 OA
BRANCH  24  25
ATOM     25  C   UNL     1       3.900   5.439  -1.389  1.00  0.00     0.202 C 
BRANCH  25  26
ATOM     26  C   UNL     1       4.492   5.456   0.023  1.00  0.00     0.261 C 
BRANCH  26  27
ATOM     27  O   UNL     1       3.472   5.202   1.004  1.00  0.00    -0.460 OA
BRANCH  27  28
ATOM     28  C   UNL     1       3.080   6.284   1.716  1.00  0.00     0.338 C 
ATOM     29  O   UNL     1       3.575   7.399   1.690  1.00  0.00    -0.246 OA
BRANCH  28  30
ATOM     30  C   UNL     1       1.828   5.980   2.441  1.00  0.00     0.060 A 
ATOM     31  C   UNL     1       0.832   6.965   2.438  1.00  0.00     0.016 A 
ATOM     32  C   UNL     1       1.641   4.787   3.145  1.00  0.00     0.016 A 
ATOM     33  C   UNL     1      -0.329   6.786   3.186  1.00  0.00     0.010 A 
ATOM     34  C   UNL     1       0.475   4.611   3.898  1.00  0.00     0.010 A 
ATOM     35  C   UNL     1      -0.497   5.625   3.952  1.00  0.00    -0.014 A 
BRANCH  35  36
ATOM     36  C   UNL     1      -1.626   5.538   4.909  1.00  0.00     0.031 A 
ATOM     37  C   UNL     1      -1.376   5.821   6.365  1.00  0.00     0.074 A 
ATOM     38  C   UNL     1      -2.861   5.215   4.485  1.00  0.00     0.049 A 
ATOM     39  N   UNL     1      -2.217   5.811   7.365  1.00  0.00    -0.248 NA
ATOM     40  C   UNL     1       0.007   6.157   6.744  1.00  0.00     0.031 C 
ATOM     41  C   UNL     1      -3.225   4.909   3.103  1.00  0.00     0.029 A 
ATOM     42  N   UNL     1      -4.032   5.071   5.185  1.00  0.00    -0.354 N 
ATOM     43  C   UNL     1      -1.466   6.113   8.494  1.00  0.00     0.074 A 
ATOM     44  C   UNL     1      -0.097   6.287   8.058  1.00  0.00     0.031 C 
ATOM     45  C   UNL     1      -4.529   4.584   3.060  1.00  0.00     0.029 A 
ATOM     46  C   UNL     1      -5.085   4.646   4.411  1.00  0.00     0.049 A 
ATOM     47  H   UNL     1      -4.111   5.254   6.149  1.00  0.00     0.167 HD
ATOM     48  C   UNL     1      -1.880   6.253   9.776  1.00  0.00     0.034 A 
ATOM     49  C   UNL     1      -6.349   4.330   4.755  1.00  0.00     0.034 A 
ATOM     50  C   UNL     1      -3.244   6.105  10.205  1.00  0.00     0.049 A 
ATOM     51  C   UNL     1      -6.785   4.487   6.189  1.00  0.00     0.074 A 
ATOM     52  C   UNL     1      -3.773   6.290  11.470  1.00  0.00     0.029 A 
ATOM     53  N   UNL     1      -4.294   5.724   9.384  1.00  0.00    -0.354 N 
ATOM     54  N   UNL     1      -6.095   4.913   7.220  1.00  0.00    -0.248 NA
ATOM     55  C   UNL     1      -8.182   4.152   6.501  1.00  0.00     0.031 C 
ATOM     56  C   UNL     1      -5.141   6.000  11.419  1.00  0.00     0.029 A 
ATOM     57  C   UNL     1      -5.466   5.653  10.117  1.00  0.00     0.049 A 
ATOM     58  H   UNL     1      -4.217   5.532   8.422  1.00  0.00     0.167 HD
ATOM     59  C   UNL     1      -6.980   4.929   8.293  1.00  0.00     0.074 A 
ATOM     60  C   UNL     1      -8.262   4.488   7.782  1.00  0.00     0.031 C 
ATOM     61  C   UNL     1      -6.748   5.264   9.587  1.00  0.00     0.034 A 
BRANCH  48  62
ATOM     62  C   UNL     1      -0.845   6.621  10.804  1.00  0.00     0.023 A 
ATOM     63  C   UNL     1      -0.338   7.936  10.840  1.00  0.00     0.012 A 
ATOM     64  C   UNL     1      -0.407   5.685  11.761  1.00  0.00     0.148 A 
ATOM     65  C   UNL     1       0.610   8.306  11.793  1.00  0.00     0.002 A 
ATOM     66  C   UNL     1       0.509   6.072  12.733  1.00  0.00     0.091 A 
ATOM     67  F   UNL     1      -0.879   4.432  11.693  1.00  0.00    -0.205 F 
ATOM     68  C   UNL     1       1.025   7.378  12.745  1.00  0.00     0.022 A 
BRANCH  66  69
ATOM     69  S   UNL     1       1.049   4.965  14.040  1.00  0.00     0.127 S 
ATOM     70  O   UNL     1       2.393   4.608  13.589  1.00  0.00    -0.237 OA
ATOM     71  O   UNL     1       1.012   5.834  15.218  1.00  0.00    -0.237 OA
ATOM     72  O   UNL     1       0.082   3.876  14.064  1.00  0.00    -0.744 OA
ENDBRANCH  66  69
ENDBRANCH  48  62
BRANCH  49  73
ATOM     73  C   UNL     1      -7.308   3.876   3.709  1.00  0.00     0.023 A 
ATOM     74  C   UNL     1      -8.364   4.722   3.321  1.00  0.00     0.012 A 
ATOM     75  C   UNL     1      -7.158   2.627   3.076  1.00  0.00     0.148 A 
ATOM     76  C   UNL     1      -9.268   4.324   2.335  1.00  0.00     0.002 A 
ATOM     77  C   UNL     1      -8.030   2.259   2.058  1.00  0.00     0.091 A 
ATOM     78  F   UNL     1      -6.158   1.829   3.475  1.00  0.00    -0.205 F 
ATOM     79  C   UNL     1      -9.094   3.099   1.696  1.00  0.00     0.022 A 
BRANCH  77  80
ATOM     80  S   UNL     1      -7.804   0.759   1.095  1.00  0.00     0.127 S 
ATOM     81  O   UNL     1      -8.907  -0.071   1.572  1.00  0.00    -0.237 OA
ATOM     82  O   UNL     1      -7.952   1.254  -0.274  1.00  0.00    -0.237 OA
ATOM     83  O   UNL     1      -6.466   0.283   1.420  1.00  0.00    -0.744 OA
ENDBRANCH  77  80
ENDBRANCH  49  73
BRANCH  61  84
ATOM     84  C   UNL     1      -7.906   5.193  10.548  1.00  0.00     0.023 A 
ATOM     85  C   UNL     1      -8.374   3.938  10.984  1.00  0.00     0.012 A 
ATOM     86  C   UNL     1      -8.474   6.366  11.084  1.00  0.00     0.148 A 
ATOM     87  C   UNL     1      -9.408   3.851  11.916  1.00  0.00     0.002 A 
ATOM     88  C   UNL     1      -9.473   6.272  12.046  1.00  0.00     0.091 A 
ATOM     89  F   UNL     1      -8.029   7.552  10.643  1.00  0.00    -0.205 F 
ATOM     90  C   UNL     1      -9.948   5.016  12.456  1.00  0.00     0.022 A 
BRANCH  88  91
ATOM     91  S   UNL     1     -10.159   7.719  12.862  1.00  0.00     0.127 S 
ATOM     92  O   UNL     1     -11.460   7.841  12.207  1.00  0.00    -0.237 OA
ATOM     93  O   UNL     1     -10.218   7.292  14.260  1.00  0.00    -0.237 OA
ATOM     94  O   UNL     1      -9.221   8.803  12.604  1.00  0.00    -0.744 OA
ENDBRANCH  88  91
ENDBRANCH  61  84
ENDBRANCH  35  36
ENDBRANCH  28  30
ENDBRANCH  27  28
ENDBRANCH  26  27
ENDBRANCH  25  26
ENDBRANCH  24  25
ENDBRANCH   1  24
TORSDOF 22
