REMARK SMILES O=C(CC[C@@H]1CN(c2ccncc2)CC[C@@H]1[NH+]1CCOCC1)OCCOCCOC(=O)c1ccc(-c2c3nc(c(-c4cccc(S(=O)(=O)[O-])c4F)c4ccc([nH]4)c(-c4cccc(S(=O)(=O)[O-])c4F)c4nc(c(-c5cccc(S(=O)(=O)[O-])c5F)c5ccc2[nH]5)C=C4)C=C3)cc1
REMARK SMILES IDX 26 1 25 2 24 3 23 4 2 5 1 6 3 7 4 8 5 9 6 10 16 11 7 12
REMARK SMILES IDX 15 13 14 14 17 15 18 16 22 17 19 19 21 20 20 21 8 22 9 23
REMARK SMILES IDX 13 24 10 25 12 26 11 27 27 28 28 29 29 30 30 31 31 32 32 33
REMARK SMILES IDX 33 34 94 35 34 36 93 37 35 38 36 39 37 40 87 41 38 42 92 43
REMARK SMILES IDX 86 44 88 45 39 46 91 47 85 48 84 49 40 51 72 52 52 53 71 54
REMARK SMILES IDX 53 55 56 56 70 57 89 58 54 59 55 60 69 62 90 63 57 64 41 65
REMARK SMILES IDX 42 66 50 67 43 68 45 69 51 70 44 71 46 72 47 73 48 74 49 75
REMARK SMILES IDX 73 76 74 77 82 78 75 79 77 80 83 81 76 82 78 83 79 84 80 85
REMARK SMILES IDX 81 86 58 87 59 88 67 89 60 90 62 91 68 92 61 93 63 94 64 95
REMARK SMILES IDX 65 96 66 97
REMARK H PARENT 17 18 88 50 56 61
REMARK Flexibility Score: inf
ROOT
ATOM      1  O   UNL     1       4.569   2.980  -3.435  1.00  0.00    -0.374 OA
ENDROOT
BRANCH   1   2
ATOM      2  C   UNL     1       4.418   2.363  -2.167  1.00  0.00     0.202 C 
BRANCH   2   3
ATOM      3  C   UNL     1       5.512   1.422  -1.693  1.00  0.00     0.261 C 
BRANCH   3   4
ATOM      4  O   UNL     1       6.241   0.744  -2.729  1.00  0.00    -0.463 OA
BRANCH   4   5
ATOM      5  C   UNL     1       6.069  -0.534  -3.110  1.00  0.00     0.305 C 
ATOM      6  O   UNL     1       6.885  -1.084  -3.845  1.00  0.00    -0.252 OA
BRANCH   5   7
ATOM      7  C   UNL     1       4.805  -1.223  -2.692  1.00  0.00     0.123 C 
BRANCH   7   8
ATOM      8  C   UNL     1       5.000  -2.306  -1.631  1.00  0.00     0.023 C 
BRANCH   8   9
ATOM      9  C   UNL     1       4.908  -1.955  -0.117  1.00  0.00     0.067 C 
ATOM     10  C   UNL     1       3.702  -1.052   0.274  1.00  0.00     0.126 C 
ATOM     11  C   UNL     1       6.244  -1.884   0.730  1.00  0.00     0.190 C 
ATOM     12  N   UNL     1       3.923  -0.084   1.345  1.00  0.00    -0.371 N 
ATOM     13  C   UNL     1       5.976  -1.179   2.061  1.00  0.00     0.087 C 
ATOM     14  C   UNL     1       5.250   0.138   1.901  1.00  0.00     0.122 C 
BRANCH  11  15
ATOM     15  N   UNL     1       7.536  -1.654   0.038  1.00  0.00    -0.328 N 
ATOM     16  C   UNL     1       8.687  -2.407   0.625  1.00  0.00     0.291 C 
ATOM     17  C   UNL     1       8.028  -0.291  -0.202  1.00  0.00     0.291 C 
ATOM     18  H   UNL     1       7.232  -2.005  -0.870  1.00  0.00     0.348 HD
ATOM     19  C   UNL     1       9.449  -1.702   1.770  1.00  0.00     0.221 C 
ATOM     20  C   UNL     1       8.780   0.398   0.941  1.00  0.00     0.221 C 
ATOM     21  O   UNL     1       9.871  -0.389   1.395  1.00  0.00    -0.370 OA
ENDBRANCH  11  15
BRANCH  12  22
ATOM     22  C   UNL     1       2.881   0.756   1.738  1.00  0.00     0.040 A 
ATOM     23  C   UNL     1       3.071   2.126   1.936  1.00  0.00     0.046 A 
ATOM     24  C   UNL     1       1.598   0.275   1.998  1.00  0.00     0.046 A 
ATOM     25  C   UNL     1       2.031   2.931   2.378  1.00  0.00     0.113 A 
ATOM     26  C   UNL     1       0.615   1.146   2.458  1.00  0.00     0.113 A 
ATOM     27  N   UNL     1       0.799   2.468   2.647  1.00  0.00    -0.265 NA
ENDBRANCH  12  22
ENDBRANCH   8   9
ENDBRANCH   7   8
ENDBRANCH   5   7
ENDBRANCH   4   5
ENDBRANCH   3   4
ENDBRANCH   2   3
ENDBRANCH   1   2
BRANCH   1  28
ATOM     28  C   UNL     1       5.864   3.370  -3.883  1.00  0.00     0.202 C 
BRANCH  28  29
ATOM     29  C   UNL     1       6.570   4.500  -3.128  1.00  0.00     0.261 C 
BRANCH  29  30
ATOM     30  O   UNL     1       7.191   4.108  -1.887  1.00  0.00    -0.460 OA
BRANCH  30  31
ATOM     31  C   UNL     1       6.653   4.660  -0.772  1.00  0.00     0.338 C 
ATOM     32  O   UNL     1       5.609   5.284  -0.698  1.00  0.00    -0.246 OA
BRANCH  31  33
ATOM     33  C   UNL     1       7.439   4.318   0.431  1.00  0.00     0.060 A 
ATOM     34  C   UNL     1       6.760   3.715   1.494  1.00  0.00     0.016 A 
ATOM     35  C   UNL     1       8.756   4.737   0.597  1.00  0.00     0.016 A 
ATOM     36  C   UNL     1       7.360   3.562   2.745  1.00  0.00     0.010 A 
ATOM     37  C   UNL     1       9.360   4.598   1.853  1.00  0.00     0.010 A 
ATOM     38  C   UNL     1       8.654   4.048   2.942  1.00  0.00    -0.014 A 
BRANCH  38  39
ATOM     39  C   UNL     1       9.221   4.177   4.308  1.00  0.00     0.031 A 
ATOM     40  C   UNL     1       9.226   5.535   4.949  1.00  0.00     0.074 A 
ATOM     41  C   UNL     1       9.790   3.134   4.936  1.00  0.00     0.049 A 
ATOM     42  N   UNL     1       9.890   5.960   5.989  1.00  0.00    -0.248 NA
ATOM     43  C   UNL     1       8.374   6.554   4.314  1.00  0.00     0.031 C 
ATOM     44  C   UNL     1       9.797   1.761   4.447  1.00  0.00     0.029 A 
ATOM     45  N   UNL     1      10.529   3.086   6.093  1.00  0.00    -0.354 N 
ATOM     46  C   UNL     1       9.597   7.314   6.092  1.00  0.00     0.074 A 
ATOM     47  C   UNL     1       8.673   7.631   5.024  1.00  0.00     0.031 C 
ATOM     48  C   UNL     1      10.566   1.013   5.253  1.00  0.00     0.029 A 
ATOM     49  C   UNL     1      11.147   1.871   6.283  1.00  0.00     0.049 A 
ATOM     50  H   UNL     1      10.608   3.841   6.720  1.00  0.00     0.167 HD
ATOM     51  C   UNL     1      10.068   8.214   6.987  1.00  0.00     0.034 A 
ATOM     52  C   UNL     1      12.123   1.511   7.141  1.00  0.00     0.034 A 
ATOM     53  C   UNL     1      10.973   7.882   8.053  1.00  0.00     0.049 A 
ATOM     54  C   UNL     1      12.660   2.529   8.112  1.00  0.00     0.074 A 
ATOM     55  C   UNL     1      11.482   8.706   9.040  1.00  0.00     0.029 A 
ATOM     56  N   UNL     1      11.516   6.623   8.261  1.00  0.00    -0.354 N 
ATOM     57  N   UNL     1      12.329   3.791   8.250  1.00  0.00    -0.248 NA
ATOM     58  C   UNL     1      13.688   2.073   9.059  1.00  0.00     0.031 C 
ATOM     59  C   UNL     1      12.358   7.951   9.826  1.00  0.00     0.029 A 
ATOM     60  C   UNL     1      12.366   6.648   9.352  1.00  0.00     0.049 A 
ATOM     61  H   UNL     1      11.325   5.828   7.713  1.00  0.00     0.167 HD
ATOM     62  C   UNL     1      13.078   4.270   9.320  1.00  0.00     0.074 A 
ATOM     63  C   UNL     1      13.876   3.159   9.799  1.00  0.00     0.031 C 
ATOM     64  C   UNL     1      13.108   5.517   9.852  1.00  0.00     0.034 A 
BRANCH  51  65
ATOM     65  C   UNL     1       9.629   9.645   6.824  1.00  0.00     0.023 A 
ATOM     66  C   UNL     1       8.301  10.016   7.118  1.00  0.00     0.012 A 
ATOM     67  C   UNL     1      10.536  10.624   6.373  1.00  0.00     0.148 A 
ATOM     68  C   UNL     1       7.870  11.328   6.919  1.00  0.00     0.002 A 
ATOM     69  C   UNL     1      10.111  11.939   6.222  1.00  0.00     0.091 A 
ATOM     70  F   UNL     1      11.787  10.249   6.071  1.00  0.00    -0.205 F 
ATOM     71  C   UNL     1       8.776  12.289   6.479  1.00  0.00     0.022 A 
BRANCH  69  72
ATOM     72  S   UNL     1      11.229  13.256   5.732  1.00  0.00     0.127 S 
ATOM     73  O   UNL     1      10.862  13.449   4.330  1.00  0.00    -0.237 OA
ATOM     74  O   UNL     1      10.832  14.348   6.622  1.00  0.00    -0.237 OA
ATOM     75  O   UNL     1      12.572  12.745   5.968  1.00  0.00    -0.744 OA
ENDBRANCH  69  72
ENDBRANCH  51  65
BRANCH  52  76
ATOM     76  C   UNL     1      12.652   0.118   7.105  1.00  0.00     0.023 A 
ATOM     77  C   UNL     1      12.350  -0.766   8.157  1.00  0.00     0.012 A 
ATOM     78  C   UNL     1      13.397  -0.351   6.003  1.00  0.00     0.148 A 
ATOM     79  C   UNL     1      12.793  -2.090   8.122  1.00  0.00     0.002 A 
ATOM     80  C   UNL     1      13.784  -1.685   5.948  1.00  0.00     0.091 A 
ATOM     81  F   UNL     1      13.680   0.510   5.017  1.00  0.00    -0.205 F 
ATOM     82  C   UNL     1      13.498  -2.551   7.014  1.00  0.00     0.022 A 
BRANCH  80  83
ATOM     83  S   UNL     1      14.576  -2.411   4.507  1.00  0.00     0.127 S 
ATOM     84  O   UNL     1      15.847  -2.869   5.063  1.00  0.00    -0.237 OA
ATOM     85  O   UNL     1      13.635  -3.477   4.162  1.00  0.00    -0.237 OA
ATOM     86  O   UNL     1      14.675  -1.342   3.525  1.00  0.00    -0.744 OA
ENDBRANCH  80  83
ENDBRANCH  52  76
BRANCH  64  87
ATOM     87  C   UNL     1      13.984   5.754  11.054  1.00  0.00     0.023 A 
ATOM     88  C   UNL     1      15.380   5.854  10.902  1.00  0.00     0.012 A 
ATOM     89  C   UNL     1      13.405   5.996  12.316  1.00  0.00     0.148 A 
ATOM     90  C   UNL     1      16.189   6.175  11.993  1.00  0.00     0.002 A 
ATOM     91  C   UNL     1      14.211   6.363  13.386  1.00  0.00     0.091 A 
ATOM     92  F   UNL     1      12.075   5.876  12.442  1.00  0.00    -0.205 F 
ATOM     93  C   UNL     1      15.604   6.444  13.229  1.00  0.00     0.022 A 
BRANCH  91  94
ATOM     94  S   UNL     1      13.537   6.829  14.985  1.00  0.00     0.127 S 
ATOM     95  O   UNL     1      13.944   5.701  15.820  1.00  0.00    -0.237 OA
ATOM     96  O   UNL     1      14.240   8.081  15.265  1.00  0.00    -0.237 OA
ATOM     97  O   UNL     1      12.100   6.974  14.790  1.00  0.00    -0.744 OA
ENDBRANCH  91  94
ENDBRANCH  64  87
ENDBRANCH  38  39
ENDBRANCH  31  33
ENDBRANCH  30  31
ENDBRANCH  29  30
ENDBRANCH  28  29
ENDBRANCH   1  28
TORSDOF 21
