REMARK SMILES CC[NH2+][C@@]1(C(=O)OCCOCCOC(=O)c2ccc(-c3c4nc(c(-c5cccc(S(=O)(=O)[O-])c5F)c5ccc([nH]5)c(-c5cccc(S(=O)(=O)[O-])c5F)c5nc(c(-c6cccc(S(=O)(=O)[O-])c6F)c6ccc3[nH]6)C=C5)C=C4)cc2)CC[C@H]([NH+]2CCC(C[NH+](C)C)CC2)C1
REMARK SMILES IDX 10 1 9 2 8 3 7 4 5 5 6 6 4 7 79 8 92 9 80 10 81 11 3 12 2 15
REMARK SMILES IDX 1 16 82 17 83 18 91 19 84 21 90 22 85 23 86 24 87 25 88 26
REMARK SMILES IDX 89 27 11 29 12 30 13 31 14 32 15 33 16 34 17 35 78 36 18 37
REMARK SMILES IDX 77 38 19 39 20 40 21 41 71 42 22 43 76 44 70 45 72 46 23 47
REMARK SMILES IDX 75 48 69 49 68 50 24 52 56 53 36 54 55 55 37 56 40 57 54 58
REMARK SMILES IDX 73 59 38 60 39 61 53 63 74 64 41 65 25 66 26 67 34 68 27 69
REMARK SMILES IDX 29 70 35 71 28 72 30 73 31 74 32 75 33 76 57 77 58 78 66 79
REMARK SMILES IDX 59 80 61 81 67 82 60 83 62 84 63 85 64 86 65 87 42 88 43 89
REMARK SMILES IDX 51 90 44 91 46 92 52 93 45 94 47 95 48 96 49 97 50 98
REMARK H PARENT 3 13 3 14 82 20 87 28 72 51 40 62
REMARK Flexibility Score: inf
ROOT
ATOM      1  O   UNL     1      -3.391  -2.843  -1.856  1.00  0.00    -0.374 OA
ENDROOT
BRANCH   1   2
ATOM      2  C   UNL     1      -3.833  -1.985  -2.913  1.00  0.00     0.202 C 
BRANCH   2   3
ATOM      3  C   UNL     1      -3.065  -0.670  -3.055  1.00  0.00     0.261 C 
BRANCH   3   4
ATOM      4  O   UNL     1      -1.720  -0.989  -3.429  1.00  0.00    -0.459 OA
BRANCH   4   5
ATOM      5  C   UNL     1      -0.783  -0.025  -3.294  1.00  0.00     0.368 C 
ATOM      6  O   UNL     1      -1.044   1.151  -3.061  1.00  0.00    -0.245 OA
BRANCH   5   7
ATOM      7  C   UNL     1       0.659  -0.625  -3.342  1.00  0.00     0.200 C 
ATOM      8  C   UNL     1       1.591   0.304  -4.131  1.00  0.00     0.087 C 
ATOM      9  C   UNL     1       0.792  -1.946  -4.139  1.00  0.00     0.146 C 
ATOM     10  C   UNL     1       1.346  -0.068  -5.593  1.00  0.00     0.072 C 
ATOM     11  C   UNL     1       1.043  -1.574  -5.616  1.00  0.00     0.191 C 
BRANCH   7  12
ATOM     12  N   UNL     1       1.132  -0.892  -1.951  1.00  0.00    -0.332 N 
ATOM     13  H   UNL     1       0.581  -1.663  -1.572  1.00  0.00     0.347 HD
ATOM     14  H   UNL     1       2.127  -1.105  -2.022  1.00  0.00     0.347 HD
BRANCH  12  15
ATOM     15  C   UNL     1       1.018   0.243  -1.035  1.00  0.00     0.257 C 
ATOM     16  C   UNL     1       1.666  -0.117   0.295  1.00  0.00     0.071 C 
ENDBRANCH  12  15
ENDBRANCH   7  12
BRANCH  11  17
ATOM     17  N   UNL     1       0.104  -2.138  -6.594  1.00  0.00    -0.332 N 
ATOM     18  C   UNL     1       0.361  -1.819  -7.998  1.00  0.00     0.262 C 
ATOM     19  C   UNL     1      -1.330  -2.032  -6.365  1.00  0.00     0.262 C 
ATOM     20  H   UNL     1       0.348  -3.109  -6.398  1.00  0.00     0.348 HD
ATOM     21  C   UNL     1      -0.117  -0.432  -8.435  1.00  0.00     0.071 C 
ATOM     22  C   UNL     1      -1.881  -0.637  -6.564  1.00  0.00     0.071 C 
ATOM     23  C   UNL     1      -1.494   0.025  -7.901  1.00  0.00     0.055 C 
BRANCH  23  24
ATOM     24  C   UNL     1      -1.594   1.560  -7.654  1.00  0.00     0.265 C 
BRANCH  24  25
ATOM     25  N   UNL     1      -1.595   2.487  -8.783  1.00  0.00    -0.340 N 
ATOM     26  C   UNL     1      -1.806   3.854  -8.291  1.00  0.00     0.332 C 
ATOM     27  C   UNL     1      -0.379   2.463  -9.594  1.00  0.00     0.332 C 
ATOM     28  H   UNL     1      -2.353   2.179  -9.392  1.00  0.00     0.347 HD
ENDBRANCH  24  25
ENDBRANCH  23  24
ENDBRANCH  11  17
ENDBRANCH   5   7
ENDBRANCH   4   5
ENDBRANCH   3   4
ENDBRANCH   2   3
ENDBRANCH   1   2
BRANCH   1  29
ATOM     29  C   UNL     1      -2.141  -3.512  -2.035  1.00  0.00     0.202 C 
BRANCH  29  30
ATOM     30  C   UNL     1      -2.144  -4.766  -2.923  1.00  0.00     0.261 C 
BRANCH  30  31
ATOM     31  O   UNL     1      -2.529  -4.526  -4.289  1.00  0.00    -0.460 OA
BRANCH  31  32
ATOM     32  C   UNL     1      -3.797  -4.884  -4.602  1.00  0.00     0.338 C 
ATOM     33  O   UNL     1      -4.627  -5.379  -3.850  1.00  0.00    -0.246 OA
BRANCH  32  34
ATOM     34  C   UNL     1      -4.135  -4.447  -5.971  1.00  0.00     0.060 A 
ATOM     35  C   UNL     1      -5.262  -3.632  -6.139  1.00  0.00     0.016 A 
ATOM     36  C   UNL     1      -3.414  -4.886  -7.085  1.00  0.00     0.016 A 
ATOM     37  C   UNL     1      -5.703  -3.297  -7.420  1.00  0.00     0.010 A 
ATOM     38  C   UNL     1      -3.853  -4.537  -8.370  1.00  0.00     0.010 A 
ATOM     39  C   UNL     1      -5.027  -3.781  -8.548  1.00  0.00    -0.014 A 
BRANCH  39  40
ATOM     40  C   UNL     1      -5.644  -3.641  -9.896  1.00  0.00     0.031 A 
ATOM     41  C   UNL     1      -6.259  -4.855 -10.547  1.00  0.00     0.074 A 
ATOM     42  C   UNL     1      -5.685  -2.455 -10.532  1.00  0.00     0.049 A 
ATOM     43  N   UNL     1      -6.834  -4.970 -11.716  1.00  0.00    -0.248 NA
ATOM     44  C   UNL     1      -6.215  -6.110  -9.777  1.00  0.00     0.031 C 
ATOM     45  C   UNL     1      -5.141  -1.199 -10.019  1.00  0.00     0.029 A 
ATOM     46  N   UNL     1      -6.194  -2.120 -11.764  1.00  0.00    -0.354 N 
ATOM     47  C   UNL     1      -7.189  -6.309 -11.837  1.00  0.00     0.074 A 
ATOM     48  C   UNL     1      -6.746  -6.972 -10.630  1.00  0.00     0.031 C 
ATOM     49  C   UNL     1      -5.326  -0.234 -10.937  1.00  0.00     0.029 A 
ATOM     50  C   UNL     1      -5.979  -0.807 -12.114  1.00  0.00     0.049 A 
ATOM     51  H   UNL     1      -6.669  -2.760 -12.343  1.00  0.00     0.167 HD
ATOM     52  C   UNL     1      -7.841  -6.932 -12.847  1.00  0.00     0.034 A 
ATOM     53  C   UNL     1      -6.259  -0.147 -13.257  1.00  0.00     0.034 A 
ATOM     54  C   UNL     1      -8.307  -6.274 -14.038  1.00  0.00     0.049 A 
ATOM     55  C   UNL     1      -6.961  -0.870 -14.380  1.00  0.00     0.074 A 
ATOM     56  C   UNL     1      -9.020  -6.815 -15.094  1.00  0.00     0.029 A 
ATOM     57  N   UNL     1      -8.098  -4.939 -14.339  1.00  0.00    -0.354 N 
ATOM     58  N   UNL     1      -7.388  -2.109 -14.430  1.00  0.00    -0.248 NA
ATOM     59  C   UNL     1      -7.252  -0.092 -15.595  1.00  0.00     0.031 C 
ATOM     60  C   UNL     1      -9.208  -5.814 -16.052  1.00  0.00     0.029 A 
ATOM     61  C   UNL     1      -8.653  -4.639 -15.572  1.00  0.00     0.049 A 
ATOM     62  H   UNL     1      -7.625  -4.297 -13.762  1.00  0.00     0.167 HD
ATOM     63  C   UNL     1      -8.030  -2.246 -15.658  1.00  0.00     0.074 A 
ATOM     64  C   UNL     1      -7.953  -0.958 -16.314  1.00  0.00     0.031 C 
ATOM     65  C   UNL     1      -8.620  -3.342 -16.197  1.00  0.00     0.034 A 
BRANCH  52  66
ATOM     66  C   UNL     1      -8.109  -8.408 -12.702  1.00  0.00     0.023 A 
ATOM     67  C   UNL     1      -9.068  -8.860 -11.771  1.00  0.00     0.012 A 
ATOM     68  C   UNL     1      -7.453  -9.344 -13.526  1.00  0.00     0.148 A 
ATOM     69  C   UNL     1      -9.342 -10.220 -11.638  1.00  0.00     0.002 A 
ATOM     70  C   UNL     1      -7.768 -10.693 -13.422  1.00  0.00     0.091 A 
ATOM     71  F   UNL     1      -6.532  -8.897 -14.392  1.00  0.00    -0.205 F 
ATOM     72  C   UNL     1      -8.701 -11.134 -12.470  1.00  0.00     0.022 A 
BRANCH  70  73
ATOM     73  S   UNL     1      -7.060 -11.940 -14.504  1.00  0.00     0.127 S 
ATOM     74  O   UNL     1      -6.216 -12.692 -13.575  1.00  0.00    -0.237 OA
ATOM     75  O   UNL     1      -8.249 -12.658 -14.964  1.00  0.00    -0.237 OA
ATOM     76  O   UNL     1      -6.346 -11.214 -15.544  1.00  0.00    -0.744 OA
ENDBRANCH  70  73
ENDBRANCH  52  66
BRANCH  53  77
ATOM     77  C   UNL     1      -5.906   1.297 -13.393  1.00  0.00     0.023 A 
ATOM     78  C   UNL     1      -6.933   2.259 -13.470  1.00  0.00     0.012 A 
ATOM     79  C   UNL     1      -4.563   1.721 -13.453  1.00  0.00     0.148 A 
ATOM     80  C   UNL     1      -6.631   3.611 -13.641  1.00  0.00     0.002 A 
ATOM     81  C   UNL     1      -4.268   3.075 -13.569  1.00  0.00     0.091 A 
ATOM     82  F   UNL     1      -3.601   0.790 -13.399  1.00  0.00    -0.205 F 
ATOM     83  C   UNL     1      -5.301   4.019 -13.681  1.00  0.00     0.022 A 
BRANCH  81  84
ATOM     84  S   UNL     1      -2.587   3.708 -13.534  1.00  0.00     0.127 S 
ATOM     85  O   UNL     1      -2.428   4.205 -14.899  1.00  0.00    -0.237 OA
ATOM     86  O   UNL     1      -2.675   4.750 -12.510  1.00  0.00    -0.237 OA
ATOM     87  O   UNL     1      -1.739   2.578 -13.177  1.00  0.00    -0.744 OA
ENDBRANCH  81  84
ENDBRANCH  53  77
BRANCH  65  88
ATOM     88  C   UNL     1      -9.282  -3.201 -17.547  1.00  0.00     0.023 A 
ATOM     89  C   UNL     1      -8.498  -3.039 -18.706  1.00  0.00     0.012 A 
ATOM     90  C   UNL     1     -10.682  -3.310 -17.672  1.00  0.00     0.148 A 
ATOM     91  C   UNL     1      -9.098  -2.952 -19.963  1.00  0.00     0.002 A 
ATOM     92  C   UNL     1     -11.269  -3.275 -18.932  1.00  0.00     0.091 A 
ATOM     93  F   UNL     1     -11.415  -3.450 -16.558  1.00  0.00    -0.205 F 
ATOM     94  C   UNL     1     -10.480  -3.082 -20.077  1.00  0.00     0.022 A 
BRANCH  92  95
ATOM     95  S   UNL     1     -13.029  -3.533 -19.186  1.00  0.00     0.127 S 
ATOM     96  O   UNL     1     -13.470  -2.199 -19.592  1.00  0.00    -0.237 OA
ATOM     97  O   UNL     1     -13.045  -4.531 -20.256  1.00  0.00    -0.237 OA
ATOM     98  O   UNL     1     -13.557  -4.002 -17.912  1.00  0.00    -0.744 OA
ENDBRANCH  92  95
ENDBRANCH  65  88
ENDBRANCH  39  40
ENDBRANCH  32  34
ENDBRANCH  31  32
ENDBRANCH  30  31
ENDBRANCH  29  30
ENDBRANCH   1  29
TORSDOF 22
