REMARK SMILES Nc1ccc(-c2cc(Cl)cc3c2O[C@H](C(F)(F)F)C(C(=O)OCCOCCOC(=O)c2ccc(-c4c5nc(c(-c6cccc(S(=O)(=O)[O-])c6F)c6ccc([nH]6)c(-c6cccc(S(=O)(=O)[O-])c6F)c6nc(c(-c7cccc(S(=O)(=O)[O-])c7F)c7ccc4[nH]7)C=C6)C=C5)cc2)=C3)cc1
REMARK SMILES IDX 26 1 25 2 24 3 23 4 22 5 20 6 21 7 19 8 6 9 7 10 12 11 8 12
REMARK SMILES IDX 11 13 13 14 9 15 10 16 94 17 14 18 5 19 2 20 3 21 96 22 4 23
REMARK SMILES IDX 95 24 1 25 15 28 16 29 17 30 18 31 27 32 28 33 29 34 30 35
REMARK SMILES IDX 31 36 32 37 93 38 33 39 92 40 34 41 35 42 36 43 86 44 37 45
REMARK SMILES IDX 91 46 85 47 87 48 38 49 90 50 84 51 83 52 39 54 71 55 51 56
REMARK SMILES IDX 70 57 52 58 55 59 69 60 88 61 53 62 54 63 68 65 89 66 56 67
REMARK SMILES IDX 40 68 41 69 49 70 42 71 44 72 50 73 43 74 45 75 46 76 47 77
REMARK SMILES IDX 48 78 72 79 73 80 81 81 74 82 76 83 82 84 75 85 77 86 78 87
REMARK SMILES IDX 79 88 80 89 57 90 58 91 66 92 59 93 61 94 67 95 60 96 62 97
REMARK SMILES IDX 63 98 64 99 65 100
REMARK H PARENT 1 26 1 27 87 53 55 64
REMARK Flexibility Score: inf
ROOT
ATOM      1  C   UNL     1      -7.584  -0.929   5.536  1.00  0.00     0.202 C 
ENDROOT
BRANCH   1   2
ATOM      2  O   UNL     1      -8.267  -2.062   6.069  1.00  0.00    -0.374 OA
BRANCH   2   3
ATOM      3  C   UNL     1      -7.497  -3.122   6.631  1.00  0.00     0.202 C 
BRANCH   3   4
ATOM      4  C   UNL     1      -6.758  -4.061   5.671  1.00  0.00     0.261 C 
BRANCH   4   5
ATOM      5  O   UNL     1      -5.899  -3.349   4.768  1.00  0.00    -0.460 OA
BRANCH   5   6
ATOM      6  C   UNL     1      -6.337  -3.318   3.489  1.00  0.00     0.338 C 
ATOM      7  O   UNL     1      -7.309  -3.896   3.029  1.00  0.00    -0.246 OA
BRANCH   6   8
ATOM      8  C   UNL     1      -5.537  -2.352   2.711  1.00  0.00     0.087 C 
ATOM      9  C   UNL     1      -3.330   0.026   0.072  1.00  0.00     0.026 A 
ATOM     10  C   UNL     1      -4.027   0.701  -0.949  1.00  0.00     0.033 A 
ATOM     11  C   UNL     1      -4.080  -0.685   1.034  1.00  0.00     0.135 A 
ATOM     12  C   UNL     1      -5.419   0.672  -1.006  1.00  0.00     0.042 A 
ATOM     13  C   UNL     1      -5.476  -0.748   0.940  1.00  0.00     0.019 A 
ATOM     14  O   UNL     1      -3.393  -1.274   2.064  1.00  0.00    -0.475 OA
ATOM     15  Cl  UNL     1      -6.242   1.500  -2.270  1.00  0.00    -0.084 Cl
ATOM     16  C   UNL     1      -6.146  -0.051  -0.068  1.00  0.00     0.032 A 
ATOM     17  C   UNL     1      -6.225  -1.603   1.841  1.00  0.00     0.027 C 
ATOM     18  C   UNL     1      -4.048  -2.273   2.891  1.00  0.00     0.316 C 
BRANCH   9  19
ATOM     19  C   UNL     1      -1.855   0.029   0.063  1.00  0.00    -0.014 A 
ATOM     20  C   UNL     1       0.981   0.016   0.012  1.00  0.00     0.031 A 
ATOM     21  C   UNL     1       0.264  -1.179  -0.011  1.00  0.00     0.026 A 
ATOM     22  C   UNL     1       0.273   1.218   0.003  1.00  0.00     0.026 A 
ATOM     23  C   UNL     1      -1.134  -1.175   0.025  1.00  0.00     0.011 A 
ATOM     24  C   UNL     1      -1.127   1.227   0.044  1.00  0.00     0.011 A 
BRANCH  20  25
ATOM     25  N   UNL     1       2.363   0.009  -0.106  1.00  0.00    -0.399 N 
ATOM     26  H   UNL     1       2.853  -0.845  -0.099  1.00  0.00     0.156 HD
ATOM     27  H   UNL     1       2.854   0.858  -0.197  1.00  0.00     0.156 HD
ENDBRANCH  20  25
ENDBRANCH   9  19
BRANCH  18  28
ATOM     28  C   UNL     1      -3.351  -3.622   2.662  1.00  0.00     0.430 C 
ATOM     29  F   UNL     1      -2.007  -3.507   2.773  1.00  0.00    -0.167 F 
ATOM     30  F   UNL     1      -3.742  -4.552   3.562  1.00  0.00    -0.167 F 
ATOM     31  F   UNL     1      -3.613  -4.115   1.428  1.00  0.00    -0.167 F 
ENDBRANCH  18  28
ENDBRANCH   6   8
ENDBRANCH   5   6
ENDBRANCH   4   5
ENDBRANCH   3   4
ENDBRANCH   2   3
ENDBRANCH   1   2
BRANCH   1  32
ATOM     32  C   UNL     1      -6.867   0.029   6.496  1.00  0.00     0.261 C 
BRANCH  32  33
ATOM     33  O   UNL     1      -5.788  -0.591   7.212  1.00  0.00    -0.460 OA
BRANCH  33  34
ATOM     34  C   UNL     1      -6.028  -0.791   8.534  1.00  0.00     0.338 C 
ATOM     35  O   UNL     1      -7.034  -0.478   9.152  1.00  0.00    -0.246 OA
BRANCH  34  36
ATOM     36  C   UNL     1      -4.966  -1.645   9.098  1.00  0.00     0.060 A 
ATOM     37  C   UNL     1      -3.622  -1.286   8.995  1.00  0.00     0.016 A 
ATOM     38  C   UNL     1      -5.345  -2.808   9.780  1.00  0.00     0.016 A 
ATOM     39  C   UNL     1      -2.656  -2.085   9.612  1.00  0.00     0.010 A 
ATOM     40  C   UNL     1      -4.378  -3.604  10.395  1.00  0.00     0.010 A 
ATOM     41  C   UNL     1      -3.028  -3.235  10.336  1.00  0.00    -0.014 A 
BRANCH  41  42
ATOM     42  C   UNL     1      -2.021  -3.944  11.162  1.00  0.00     0.031 A 
ATOM     43  C   UNL     1      -1.502  -5.301  10.791  1.00  0.00     0.074 A 
ATOM     44  C   UNL     1      -1.591  -3.344  12.290  1.00  0.00     0.049 A 
ATOM     45  N   UNL     1      -0.547  -5.989  11.361  1.00  0.00    -0.248 NA
ATOM     46  C   UNL     1      -2.130  -5.978   9.646  1.00  0.00     0.031 C 
ATOM     47  C   UNL     1      -2.085  -2.060  12.794  1.00  0.00     0.029 A 
ATOM     48  N   UNL     1      -0.650  -3.724  13.211  1.00  0.00    -0.354 N 
ATOM     49  C   UNL     1      -0.459  -7.180  10.654  1.00  0.00     0.074 A 
ATOM     50  C   UNL     1      -1.472  -7.132   9.621  1.00  0.00     0.031 C 
ATOM     51  C   UNL     1      -1.419  -1.744  13.915  1.00  0.00     0.029 A 
ATOM     52  C   UNL     1      -0.469  -2.810  14.221  1.00  0.00     0.049 A 
ATOM     53  H   UNL     1      -0.151  -4.571  13.154  1.00  0.00     0.167 HD
ATOM     54  C   UNL     1       0.406  -8.206  10.838  1.00  0.00     0.034 A 
ATOM     55  C   UNL     1       0.373  -2.816  15.272  1.00  0.00     0.034 A 
ATOM     56  C   UNL     1       1.420  -8.241  11.858  1.00  0.00     0.049 A 
ATOM     57  C   UNL     1       1.334  -3.956  15.440  1.00  0.00     0.074 A 
ATOM     58  C   UNL     1       2.389  -9.208  12.066  1.00  0.00     0.029 A 
ATOM     59  N   UNL     1       1.588  -7.286  12.847  1.00  0.00    -0.354 N 
ATOM     60  N   UNL     1       1.504  -5.002  14.670  1.00  0.00    -0.248 NA
ATOM     61  C   UNL     1       2.236  -3.909  16.600  1.00  0.00     0.031 C 
ATOM     62  C   UNL     1       3.127  -8.850  13.197  1.00  0.00     0.029 A 
ATOM     63  C   UNL     1       2.636  -7.647  13.676  1.00  0.00     0.049 A 
ATOM     64  H   UNL     1       1.044  -6.471  12.945  1.00  0.00     0.167 HD
ATOM     65  C   UNL     1       2.546  -5.726  15.236  1.00  0.00     0.074 A 
ATOM     66  C   UNL     1       2.976  -4.995  16.410  1.00  0.00     0.031 C 
ATOM     67  C   UNL     1       3.086  -6.895  14.819  1.00  0.00     0.034 A 
BRANCH  54  68
ATOM     68  C   UNL     1       0.353  -9.367   9.884  1.00  0.00     0.023 A 
ATOM     69  C   UNL     1       0.933  -9.229   8.607  1.00  0.00     0.012 A 
ATOM     70  C   UNL     1      -0.133 -10.623  10.295  1.00  0.00     0.148 A 
ATOM     71  C   UNL     1       1.028 -10.325   7.751  1.00  0.00     0.002 A 
ATOM     72  C   UNL     1      -0.010 -11.717   9.447  1.00  0.00     0.091 A 
ATOM     73  F   UNL     1      -0.684 -10.725  11.513  1.00  0.00    -0.205 F 
ATOM     74  C   UNL     1       0.569 -11.569   8.175  1.00  0.00     0.022 A 
BRANCH  72  75
ATOM     75  S   UNL     1      -0.523 -13.374   9.913  1.00  0.00     0.127 S 
ATOM     76  O   UNL     1      -1.597 -13.629   8.954  1.00  0.00    -0.237 OA
ATOM     77  O   UNL     1       0.697 -14.148   9.683  1.00  0.00    -0.237 OA
ATOM     78  O   UNL     1      -0.945 -13.292  11.304  1.00  0.00    -0.744 OA
ENDBRANCH  72  75
ENDBRANCH  54  68
BRANCH  55  79
ATOM     79  C   UNL     1       0.385  -1.651  16.195  1.00  0.00     0.023 A 
ATOM     80  C   UNL     1       1.428  -0.711  16.105  1.00  0.00     0.012 A 
ATOM     81  C   UNL     1      -0.674  -1.428  17.096  1.00  0.00     0.148 A 
ATOM     82  C   UNL     1       1.420   0.433  16.903  1.00  0.00     0.002 A 
ATOM     83  C   UNL     1      -0.695  -0.269  17.861  1.00  0.00     0.091 A 
ATOM     84  F   UNL     1      -1.655  -2.339  17.155  1.00  0.00    -0.205 F 
ATOM     85  C   UNL     1       0.355   0.659  17.773  1.00  0.00     0.022 A 
BRANCH  83  86
ATOM     86  S   UNL     1      -2.066   0.156  18.940  1.00  0.00     0.127 S 
ATOM     87  O   UNL     1      -1.419   0.176  20.250  1.00  0.00    -0.237 OA
ATOM     88  O   UNL     1      -2.454   1.469  18.423  1.00  0.00    -0.237 OA
ATOM     89  O   UNL     1      -3.060  -0.891  18.751  1.00  0.00    -0.744 OA
ENDBRANCH  83  86
ENDBRANCH  55  79
BRANCH  67  90
ATOM     90  C   UNL     1       4.223  -7.480  15.610  1.00  0.00     0.023 A 
ATOM     91  C   UNL     1       3.951  -8.180  16.800  1.00  0.00     0.012 A 
ATOM     92  C   UNL     1       5.533  -7.470  15.090  1.00  0.00     0.148 A 
ATOM     93  C   UNL     1       4.968  -8.864  17.464  1.00  0.00     0.002 A 
ATOM     94  C   UNL     1       6.534  -8.182  15.738  1.00  0.00     0.091 A 
ATOM     95  F   UNL     1       5.762  -6.792  13.956  1.00  0.00    -0.205 F 
ATOM     96  C   UNL     1       6.254  -8.877  16.926  1.00  0.00     0.022 A 
BRANCH  94  97
ATOM     97  S   UNL     1       8.203  -8.319  15.088  1.00  0.00     0.127 S 
ATOM     98  O   UNL     1       8.984  -7.659  16.134  1.00  0.00    -0.237 OA
ATOM     99  O   UNL     1       8.385  -9.768  15.012  1.00  0.00    -0.237 OA
ATOM    100  O   UNL     1       8.196  -7.635  13.802  1.00  0.00    -0.744 OA
ENDBRANCH  94  97
ENDBRANCH  67  90
ENDBRANCH  41  42
ENDBRANCH  34  36
ENDBRANCH  33  34
ENDBRANCH  32  33
ENDBRANCH   1  32
TORSDOF 20
