REMARK SMILES O=C(OCCOCCOC(=O)[C@H]1[C@H]2CC[C@H](CC2)[C@@H]1C(=O)Nc1ccc(Cc2ccncc2)cc1)c1ccc(-c2c3nc(c(-c4cccc(S(=O)(=O)[O-])c4F)c4ccc([nH]4)c(-c4cccc(S(=O)(=O)[O-])c4F)c4nc(c(-c5cccc(S(=O)(=O)[O-])c5F)c5ccc2[nH]5)C=C4)C=C3)cc1
REMARK SMILES IDX 7 1 6 2 5 3 4 4 3 5 2 6 1 7 36 8 37 9 98 10 38 11 97 12
REMARK SMILES IDX 39 13 40 14 41 15 91 16 42 17 96 18 90 19 92 20 43 21 95 22
REMARK SMILES IDX 89 23 88 24 44 26 76 27 56 28 75 29 57 30 60 31 74 32 93 33
REMARK SMILES IDX 58 34 59 35 73 37 94 38 61 39 45 40 46 41 54 42 47 43 49 44
REMARK SMILES IDX 55 45 48 46 50 47 51 48 52 49 53 50 77 51 78 52 86 53 79 54
REMARK SMILES IDX 81 55 87 56 80 57 82 58 83 59 84 60 85 61 62 62 63 63 71 64
REMARK SMILES IDX 64 65 66 66 72 67 65 68 67 69 68 70 69 71 70 72 8 73 9 74
REMARK SMILES IDX 10 75 11 76 12 77 13 78 19 79 18 80 14 81 16 82 17 83 15 84
REMARK SMILES IDX 20 85 21 86 22 87 23 89 24 90 35 91 25 92 34 93 26 94 27 95
REMARK SMILES IDX 28 96 29 97 33 98 30 99 32 100 31 101
REMARK H PARENT 92 25 60 36 22 88
REMARK Flexibility Score: inf
ROOT
ATOM      1  C   UNL     1       2.821  -1.667  -0.931  1.00  0.00     0.202 C 
ENDROOT
BRANCH   1   2
ATOM      2  O   UNL     1       4.216  -1.435  -0.699  1.00  0.00    -0.374 OA
BRANCH   2   3
ATOM      3  C   UNL     1       4.684  -1.027   0.591  1.00  0.00     0.202 C 
BRANCH   3   4
ATOM      4  C   UNL     1       4.267   0.332   1.159  1.00  0.00     0.261 C 
BRANCH   4   5
ATOM      5  O   UNL     1       2.847   0.505   1.106  1.00  0.00    -0.460 OA
BRANCH   5   6
ATOM      6  C   UNL     1       2.164   1.241   0.195  1.00  0.00     0.338 C 
ATOM      7  O   UNL     1       0.951   1.377   0.338  1.00  0.00    -0.246 OA
BRANCH   6   8
ATOM      8  C   UNL     1       2.818   1.847  -1.006  1.00  0.00     0.060 A 
ATOM      9  C   UNL     1       3.993   1.370  -1.597  1.00  0.00     0.016 A 
ATOM     10  C   UNL     1       2.146   2.898  -1.641  1.00  0.00     0.016 A 
ATOM     11  C   UNL     1       4.512   1.900  -2.752  1.00  0.00     0.010 A 
ATOM     12  C   UNL     1       2.659   3.453  -2.812  1.00  0.00     0.010 A 
ATOM     13  C   UNL     1       3.848   2.950  -3.352  1.00  0.00    -0.014 A 
BRANCH  13  14
ATOM     14  C   UNL     1       4.551   3.606  -4.448  1.00  0.00     0.031 A 
ATOM     15  C   UNL     1       5.311   4.841  -4.120  1.00  0.00     0.074 A 
ATOM     16  C   UNL     1       4.590   3.011  -5.649  1.00  0.00     0.049 A 
ATOM     17  N   UNL     1       5.908   5.674  -4.917  1.00  0.00    -0.248 NA
ATOM     18  C   UNL     1       5.420   5.181  -2.688  1.00  0.00     0.031 C 
ATOM     19  C   UNL     1       3.996   1.710  -5.966  1.00  0.00     0.029 A 
ATOM     20  N   UNL     1       5.142   3.430  -6.824  1.00  0.00    -0.354 N 
ATOM     21  C   UNL     1       6.390   6.682  -4.097  1.00  0.00     0.074 A 
ATOM     22  C   UNL     1       6.060   6.336  -2.735  1.00  0.00     0.031 C 
ATOM     23  C   UNL     1       4.170   1.461  -7.273  1.00  0.00     0.029 A 
ATOM     24  C   UNL     1       4.816   2.617  -7.882  1.00  0.00     0.049 A 
ATOM     25  H   UNL     1       5.712   4.229  -6.906  1.00  0.00     0.167 HD
ATOM     26  C   UNL     1       7.023   7.812  -4.476  1.00  0.00     0.034 A 
ATOM     27  C   UNL     1       4.957   2.841  -9.200  1.00  0.00     0.034 A 
ATOM     28  C   UNL     1       7.308   8.101  -5.851  1.00  0.00     0.049 A 
ATOM     29  C   UNL     1       5.604   4.135  -9.610  1.00  0.00     0.074 A 
ATOM     30  C   UNL     1       7.913   9.214  -6.396  1.00  0.00     0.029 A 
ATOM     31  N   UNL     1       6.980   7.256  -6.907  1.00  0.00    -0.354 N 
ATOM     32  N   UNL     1       6.055   5.103  -8.845  1.00  0.00    -0.248 NA
ATOM     33  C   UNL     1       5.777   4.369 -11.046  1.00  0.00     0.031 C 
ATOM     34  C   UNL     1       7.909   9.061  -7.786  1.00  0.00     0.029 A 
ATOM     35  C   UNL     1       7.352   7.828  -8.105  1.00  0.00     0.049 A 
ATOM     36  H   UNL     1       6.544   6.378  -6.813  1.00  0.00     0.167 HD
ATOM     37  C   UNL     1       6.598   6.049  -9.701  1.00  0.00     0.074 A 
ATOM     38  C   UNL     1       6.418   5.532 -11.047  1.00  0.00     0.031 C 
ATOM     39  C   UNL     1       7.187   7.237  -9.412  1.00  0.00     0.034 A 
BRANCH  26  40
ATOM     40  C   UNL     1       7.332   8.812  -3.399  1.00  0.00     0.023 A 
ATOM     41  C   UNL     1       8.309   8.538  -2.419  1.00  0.00     0.012 A 
ATOM     42  C   UNL     1       6.588  10.005  -3.316  1.00  0.00     0.148 A 
ATOM     43  C   UNL     1       8.498   9.407  -1.344  1.00  0.00     0.002 A 
ATOM     44  C   UNL     1       6.818  10.890  -2.270  1.00  0.00     0.091 A 
ATOM     45  F   UNL     1       5.636  10.231  -4.232  1.00  0.00    -0.205 F 
ATOM     46  C   UNL     1       7.758  10.584  -1.273  1.00  0.00     0.022 A 
BRANCH  44  47
ATOM     47  S   UNL     1       5.958  12.459  -2.131  1.00  0.00     0.127 S 
ATOM     48  O   UNL     1       5.071  12.211  -0.996  1.00  0.00    -0.237 OA
ATOM     49  O   UNL     1       7.057  13.386  -1.856  1.00  0.00    -0.237 OA
ATOM     50  O   UNL     1       5.295  12.669  -3.411  1.00  0.00    -0.744 OA
ENDBRANCH  44  47
ENDBRANCH  26  40
BRANCH  27  51
ATOM     51  C   UNL     1       4.439   1.844 -10.175  1.00  0.00     0.023 A 
ATOM     52  C   UNL     1       5.335   1.081 -10.944  1.00  0.00     0.012 A 
ATOM     53  C   UNL     1       3.054   1.586 -10.274  1.00  0.00     0.148 A 
ATOM     54  C   UNL     1       4.862   0.088 -11.805  1.00  0.00     0.002 A 
ATOM     55  C   UNL     1       2.595   0.561 -11.091  1.00  0.00     0.091 A 
ATOM     56  F   UNL     1       2.217   2.329  -9.537  1.00  0.00    -0.205 F 
ATOM     57  C   UNL     1       3.496  -0.181 -11.869  1.00  0.00     0.022 A 
BRANCH  55  58
ATOM     58  S   UNL     1       0.870   0.057 -11.136  1.00  0.00     0.127 S 
ATOM     59  O   UNL     1       0.493   0.405 -12.504  1.00  0.00    -0.237 OA
ATOM     60  O   UNL     1       0.970  -1.378 -10.871  1.00  0.00    -0.237 OA
ATOM     61  O   UNL     1       0.205   0.820 -10.089  1.00  0.00    -0.744 OA
ENDBRANCH  55  58
ENDBRANCH  27  51
BRANCH  39  62
ATOM     62  C   UNL     1       7.737   8.030 -10.562  1.00  0.00     0.023 A 
ATOM     63  C   UNL     1       6.871   8.761 -11.394  1.00  0.00     0.012 A 
ATOM     64  C   UNL     1       9.132   8.164 -10.704  1.00  0.00     0.148 A 
ATOM     65  C   UNL     1       7.391   9.615 -12.364  1.00  0.00     0.002 A 
ATOM     66  C   UNL     1       9.640   9.059 -11.632  1.00  0.00     0.091 A 
ATOM     67  F   UNL     1       9.928   7.439  -9.904  1.00  0.00    -0.205 F 
ATOM     68  C   UNL     1       8.772   9.778 -12.470  1.00  0.00     0.022 A 
BRANCH  66  69
ATOM     69  S   UNL     1      11.393   9.425 -11.749  1.00  0.00     0.127 S 
ATOM     70  O   UNL     1      11.723   8.877 -13.064  1.00  0.00    -0.237 OA
ATOM     71  O   UNL     1      11.407  10.886 -11.674  1.00  0.00    -0.237 OA
ATOM     72  O   UNL     1      12.025   8.753 -10.621  1.00  0.00    -0.744 OA
ENDBRANCH  66  69
ENDBRANCH  39  62
ENDBRANCH  13  14
ENDBRANCH   6   8
ENDBRANCH   5   6
ENDBRANCH   4   5
ENDBRANCH   3   4
ENDBRANCH   2   3
ENDBRANCH   1   2
BRANCH   1  73
ATOM     73  C   UNL     1       2.655  -2.818  -1.933  1.00  0.00     0.261 C 
BRANCH  73  74
ATOM     74  O   UNL     1       2.984  -4.044  -1.279  1.00  0.00    -0.463 OA
BRANCH  74  75
ATOM     75  C   UNL     1       4.306  -4.160  -1.022  1.00  0.00     0.310 C 
ATOM     76  O   UNL     1       5.179  -4.091  -1.873  1.00  0.00    -0.252 OA
BRANCH  75  77
ATOM     77  C   UNL     1       4.572  -4.419   0.449  1.00  0.00     0.115 C 
ATOM     78  C   UNL     1       3.414  -4.139   1.478  1.00  0.00     0.004 C 
ATOM     79  C   UNL     1       5.102  -5.873   0.583  1.00  0.00     0.096 C 
ATOM     80  C   UNL     1       2.178  -5.011   1.245  1.00  0.00     0.005 C 
ATOM     81  C   UNL     1       3.955  -4.490   2.877  1.00  0.00     0.005 C 
ATOM     82  C   UNL     1       4.098  -6.589   1.526  1.00  0.00     0.002 C 
ATOM     83  C   UNL     1       2.658  -6.424   0.975  1.00  0.00     0.005 C 
ATOM     84  C   UNL     1       4.176  -5.998   2.942  1.00  0.00     0.005 C 
BRANCH  79  85
ATOM     85  C   UNL     1       6.620  -5.825   0.940  1.00  0.00     0.228 C 
ATOM     86  O   UNL     1       7.264  -4.770   0.906  1.00  0.00    -0.274 OA
ATOM     87  N   UNL     1       7.355  -6.931   1.278  1.00  0.00    -0.326 N 
ATOM     88  H   UNL     1       8.332  -6.880   1.164  1.00  0.00     0.169 HD
BRANCH  87  89
ATOM     89  C   UNL     1       6.826  -8.118   1.769  1.00  0.00     0.041 A 
ATOM     90  C   UNL     1       6.822  -8.272   3.153  1.00  0.00     0.026 A 
ATOM     91  C   UNL     1       6.125  -8.989   0.938  1.00  0.00     0.026 A 
ATOM     92  C   UNL     1       5.892  -9.130   3.721  1.00  0.00     0.006 A 
ATOM     93  C   UNL     1       5.239  -9.900   1.514  1.00  0.00     0.006 A 
ATOM     94  C   UNL     1       5.043  -9.894   2.904  1.00  0.00    -0.043 A 
BRANCH  94  95
ATOM     95  C   UNL     1       3.900 -10.659   3.525  1.00  0.00     0.071 C 
BRANCH  95  96
ATOM     96  C   UNL     1       4.338 -12.011   4.003  1.00  0.00    -0.041 A 
ATOM     97  C   UNL     1       5.149 -12.135   5.134  1.00  0.00     0.024 A 
ATOM     98  C   UNL     1       4.027 -13.156   3.271  1.00  0.00     0.024 A 
ATOM     99  C   UNL     1       5.645 -13.383   5.459  1.00  0.00     0.111 A 
ATOM    100  C   UNL     1       4.558 -14.363   3.688  1.00  0.00     0.111 A 
ATOM    101  N   UNL     1       5.364 -14.504   4.763  1.00  0.00    -0.265 NA
ENDBRANCH  95  96
ENDBRANCH  94  95
ENDBRANCH  87  89
ENDBRANCH  79  85
ENDBRANCH  75  77
ENDBRANCH  74  75
ENDBRANCH  73  74
ENDBRANCH   1  73
TORSDOF 21
