REMARK SMILES CC[C@H](NC(=O)c1nn(C)cc1C(=O)OCCOCCOC(=O)c1ccc(-c2c3nc(c(-c4cccc(S(=O)(=O)[O-])c4F)c4ccc([nH]4)c(-c4cccc(S(=O)(=O)[O-])c4F)c4nc(c(-c5cccc(S(=O)(=O)[O-])c5F)c5ccc2[nH]5)C=C4)C=C3)cc1)c1ccccc1
REMARK SMILES IDX 18 1 17 2 16 3 15 4 13 5 14 6 12 7 7 8 8 9 9 10 11 11 10 12
REMARK SMILES IDX 5 13 4 14 6 16 3 17 2 18 1 19 87 20 88 21 92 22 89 23 91 24
REMARK SMILES IDX 90 25 19 26 20 27 21 28 22 29 23 30 24 31 25 32 86 33 26 34
REMARK SMILES IDX 85 35 27 36 28 37 29 38 79 39 30 40 84 41 78 42 80 43 31 44
REMARK SMILES IDX 83 45 77 46 76 47 32 49 64 50 44 51 63 52 45 53 48 54 62 55
REMARK SMILES IDX 81 56 46 57 47 58 61 60 82 61 49 62 33 63 34 64 42 65 35 66
REMARK SMILES IDX 37 67 43 68 36 69 38 70 39 71 40 72 41 73 65 74 66 75 74 76
REMARK SMILES IDX 67 77 69 78 75 79 68 80 70 81 71 82 72 83 73 84 50 85 51 86
REMARK SMILES IDX 59 87 52 88 54 89 60 90 53 91 55 92 56 93 57 94 58 95
REMARK H PARENT 4 15 80 48 48 59
REMARK Flexibility Score: inf
ROOT
ATOM      1  O   UNL     1       3.943   3.868   1.794  1.00  0.00    -0.374 OA
ENDROOT
BRANCH   1   2
ATOM      2  C   UNL     1       4.673   3.693   3.013  1.00  0.00     0.202 C 
BRANCH   2   3
ATOM      3  C   UNL     1       4.106   2.612   3.944  1.00  0.00     0.261 C 
BRANCH   3   4
ATOM      4  O   UNL     1       4.157   1.329   3.297  1.00  0.00    -0.460 OA
BRANCH   4   5
ATOM      5  C   UNL     1       2.961   0.707   3.087  1.00  0.00     0.342 C 
ATOM      6  O   UNL     1       1.921   0.960   3.676  1.00  0.00    -0.246 OA
BRANCH   5   7
ATOM      7  C   UNL     1       3.037  -0.207   1.965  1.00  0.00     0.111 A 
ATOM      8  C   UNL     1       1.987  -0.645   1.106  1.00  0.00     0.164 A 
ATOM      9  N   UNL     1       2.470  -1.442   0.128  1.00  0.00    -0.167 NA
ATOM     10  N   UNL     1       3.775  -1.574   0.418  1.00  0.00    -0.274 N 
ATOM     11  C   UNL     1       4.180  -0.801   1.459  1.00  0.00     0.125 A 
ATOM     12  C   UNL     1       4.583  -2.517  -0.320  1.00  0.00     0.173 C 
BRANCH   8  13
ATOM     13  C   UNL     1       0.544  -0.416   1.239  1.00  0.00     0.273 C 
ATOM     14  N   UNL     1      -0.046   0.717   0.732  1.00  0.00    -0.344 N 
ATOM     15  H   UNL     1      -1.030   0.697   0.755  1.00  0.00     0.164 HD
ATOM     16  O   UNL     1      -0.190  -1.251   1.770  1.00  0.00    -0.267 OA
BRANCH  14  17
ATOM     17  C   UNL     1       0.507   1.945   0.164  1.00  0.00     0.112 C 
BRANCH  17  18
ATOM     18  C   UNL     1      -0.097   2.158  -1.247  1.00  0.00     0.026 C 
ATOM     19  C   UNL     1       0.730   1.469  -2.327  1.00  0.00     0.006 C 
ENDBRANCH  17  18
BRANCH  17  20
ATOM     20  C   UNL     1       0.277   3.144   1.094  1.00  0.00    -0.026 A 
ATOM     21  C   UNL     1       0.565   4.455   0.669  1.00  0.00     0.006 A 
ATOM     22  C   UNL     1      -0.140   2.984   2.428  1.00  0.00     0.006 A 
ATOM     23  C   UNL     1       0.410   5.553   1.524  1.00  0.00     0.000 A 
ATOM     24  C   UNL     1      -0.285   4.079   3.287  1.00  0.00     0.000 A 
ATOM     25  C   UNL     1      -0.017   5.365   2.833  1.00  0.00     0.000 A 
ENDBRANCH  17  20
ENDBRANCH  14  17
ENDBRANCH   8  13
ENDBRANCH   5   7
ENDBRANCH   4   5
ENDBRANCH   3   4
ENDBRANCH   2   3
ENDBRANCH   1   2
BRANCH   1  26
ATOM     26  C   UNL     1       4.168   2.848   0.820  1.00  0.00     0.202 C 
BRANCH  26  27
ATOM     27  C   UNL     1       4.080   3.399  -0.602  1.00  0.00     0.261 C 
BRANCH  27  28
ATOM     28  O   UNL     1       5.331   4.018  -0.903  1.00  0.00    -0.460 OA
BRANCH  28  29
ATOM     29  C   UNL     1       5.446   5.256  -0.368  1.00  0.00     0.338 C 
ATOM     30  O   UNL     1       4.554   6.077  -0.238  1.00  0.00    -0.246 OA
BRANCH  29  31
ATOM     31  C   UNL     1       6.801   5.385   0.209  1.00  0.00     0.060 A 
ATOM     32  C   UNL     1       6.976   6.309   1.244  1.00  0.00     0.016 A 
ATOM     33  C   UNL     1       7.879   4.607  -0.239  1.00  0.00     0.016 A 
ATOM     34  C   UNL     1       8.248   6.536   1.757  1.00  0.00     0.010 A 
ATOM     35  C   UNL     1       9.149   4.820   0.289  1.00  0.00     0.010 A 
ATOM     36  C   UNL     1       9.344   5.835   1.236  1.00  0.00    -0.014 A 
BRANCH  36  37
ATOM     37  C   UNL     1      10.705   6.332   1.520  1.00  0.00     0.031 A 
ATOM     38  C   UNL     1      11.370   7.203   0.491  1.00  0.00     0.074 A 
ATOM     39  C   UNL     1      11.319   6.040   2.676  1.00  0.00     0.049 A 
ATOM     40  N   UNL     1      12.509   7.838   0.558  1.00  0.00    -0.248 NA
ATOM     41  C   UNL     1      10.661   7.375  -0.789  1.00  0.00     0.031 C 
ATOM     42  C   UNL     1      10.785   5.165   3.718  1.00  0.00     0.029 A 
ATOM     43  N   UNL     1      12.538   6.439   3.155  1.00  0.00    -0.354 N 
ATOM     44  C   UNL     1      12.659   8.471  -0.669  1.00  0.00     0.074 A 
ATOM     45  C   UNL     1      11.515   8.116  -1.477  1.00  0.00     0.031 C 
ATOM     46  C   UNL     1      11.688   5.074   4.710  1.00  0.00     0.029 A 
ATOM     47  C   UNL     1      12.855   5.887   4.371  1.00  0.00     0.049 A 
ATOM     48  H   UNL     1      13.130   7.061   2.674  1.00  0.00     0.167 HD
ATOM     49  C   UNL     1      13.645   9.303  -1.077  1.00  0.00     0.034 A 
ATOM     50  C   UNL     1      13.964   6.029   5.123  1.00  0.00     0.034 A 
ATOM     51  C   UNL     1      14.766   9.669  -0.260  1.00  0.00     0.049 A 
ATOM     52  C   UNL     1      15.032   6.990   4.672  1.00  0.00     0.074 A 
ATOM     53  C   UNL     1      15.789  10.554  -0.544  1.00  0.00     0.029 A 
ATOM     54  N   UNL     1      15.018   9.154   1.003  1.00  0.00    -0.354 N 
ATOM     55  N   UNL     1      15.078   7.719   3.582  1.00  0.00    -0.248 NA
ATOM     56  C   UNL     1      16.172   7.190   5.576  1.00  0.00     0.031 C 
ATOM     57  C   UNL     1      16.670  10.562   0.544  1.00  0.00     0.029 A 
ATOM     58  C   UNL     1      16.185   9.695   1.511  1.00  0.00     0.049 A 
ATOM     59  H   UNL     1      14.449   8.501   1.470  1.00  0.00     0.167 HD
ATOM     60  C   UNL     1      16.235   8.484   3.680  1.00  0.00     0.074 A 
ATOM     61  C   UNL     1      16.848   8.145   4.950  1.00  0.00     0.031 C 
ATOM     62  C   UNL     1      16.752   9.376   2.797  1.00  0.00     0.034 A 
BRANCH  49  63
ATOM     63  C   UNL     1      13.518   9.892  -2.456  1.00  0.00     0.023 A 
ATOM     64  C   UNL     1      12.544  10.883  -2.702  1.00  0.00     0.012 A 
ATOM     65  C   UNL     1      14.353   9.469  -3.506  1.00  0.00     0.148 A 
ATOM     66  C   UNL     1      12.378  11.414  -3.980  1.00  0.00     0.002 A 
ATOM     67  C   UNL     1      14.209  10.034  -4.769  1.00  0.00     0.091 A 
ATOM     68  F   UNL     1      15.248   8.500  -3.265  1.00  0.00    -0.205 F 
ATOM     69  C   UNL     1      13.216  10.997  -5.010  1.00  0.00     0.022 A 
BRANCH  67  70
ATOM     70  S   UNL     1      15.291   9.601  -6.135  1.00  0.00     0.127 S 
ATOM     71  O   UNL     1      14.460   8.662  -6.886  1.00  0.00    -0.237 OA
ATOM     72  O   UNL     1      15.497  10.893  -6.793  1.00  0.00    -0.237 OA
ATOM     73  O   UNL     1      16.489   9.042  -5.525  1.00  0.00    -0.744 OA
ENDBRANCH  67  70
ENDBRANCH  49  63
BRANCH  50  74
ATOM     74  C   UNL     1      14.069   5.287   6.409  1.00  0.00     0.023 A 
ATOM     75  C   UNL     1      13.946   5.978   7.629  1.00  0.00     0.012 A 
ATOM     76  C   UNL     1      14.216   3.886   6.422  1.00  0.00     0.148 A 
ATOM     77  C   UNL     1      13.985   5.287   8.841  1.00  0.00     0.002 A 
ATOM     78  C   UNL     1      14.200   3.199   7.629  1.00  0.00     0.091 A 
ATOM     79  F   UNL     1      14.344   3.251   5.248  1.00  0.00    -0.205 F 
ATOM     80  C   UNL     1      14.098   3.899   8.841  1.00  0.00     0.022 A 
BRANCH  78  81
ATOM     81  S   UNL     1      14.197   1.405   7.716  1.00  0.00     0.127 S 
ATOM     82  O   UNL     1      15.517   1.131   8.278  1.00  0.00    -0.237 OA
ATOM     83  O   UNL     1      13.076   1.149   8.621  1.00  0.00    -0.237 OA
ATOM     84  O   UNL     1      13.983   0.944   6.351  1.00  0.00    -0.744 OA
ENDBRANCH  78  81
ENDBRANCH  50  74
BRANCH  62  85
ATOM     85  C   UNL     1      18.038  10.063   3.174  1.00  0.00     0.023 A 
ATOM     86  C   UNL     1      19.249   9.344   3.133  1.00  0.00     0.012 A 
ATOM     87  C   UNL     1      18.058  11.435   3.488  1.00  0.00     0.148 A 
ATOM     88  C   UNL     1      20.457   9.975   3.430  1.00  0.00     0.002 A 
ATOM     89  C   UNL     1      19.270  12.068   3.738  1.00  0.00     0.091 A 
ATOM     90  F   UNL     1      16.893  12.099   3.543  1.00  0.00    -0.205 F 
ATOM     91  C   UNL     1      20.469  11.337   3.720  1.00  0.00     0.022 A 
BRANCH  89  92
ATOM     92  S   UNL     1      19.377  13.838   4.023  1.00  0.00     0.127 S 
ATOM     93  O   UNL     1      19.481  13.901   5.479  1.00  0.00    -0.237 OA
ATOM     94  O   UNL     1      20.602  14.201   3.308  1.00  0.00    -0.237 OA
ATOM     95  O   UNL     1      18.162  14.402   3.451  1.00  0.00    -0.744 OA
ENDBRANCH  89  92
ENDBRANCH  62  85
ENDBRANCH  36  37
ENDBRANCH  29  31
ENDBRANCH  28  29
ENDBRANCH  27  28
ENDBRANCH  26  27
ENDBRANCH   1  26
TORSDOF 21
