REMARK SMILES Cc1cc2c(c(C)c1Br)C=C(C(=O)OCCOCCOC(=O)c1ccc(-c3c4nc(c(-c5cccc(S(=O)(=O)[O-])c5F)c5ccc([nH]5)c(-c5cccc(S(=O)(=O)[O-])c5F)c5nc(c(-c6cccc(S(=O)(=O)[O-])c6F)c6ccc3[nH]6)C=C5)C=C4)cc1)[C@@H](C(F)(F)F)O2
REMARK SMILES IDX 18 1 17 2 16 3 15 4 14 5 12 6 13 7 11 8 1 9 2 10 3 11 8 12
REMARK SMILES IDX 4 13 6 14 9 15 5 16 91 17 7 18 10 19 86 20 87 21 88 22 89 23
REMARK SMILES IDX 90 24 19 25 20 26 21 27 22 28 23 29 24 30 85 31 25 32 84 33
REMARK SMILES IDX 26 34 27 35 28 36 78 37 29 38 83 39 77 40 79 41 30 42 82 43
REMARK SMILES IDX 76 44 75 45 31 47 63 48 43 49 62 50 44 51 47 52 61 53 80 54
REMARK SMILES IDX 45 55 46 56 60 58 81 59 48 60 32 61 33 62 41 63 34 64 36 65
REMARK SMILES IDX 42 66 35 67 37 68 38 69 39 70 40 71 64 72 65 73 73 74 66 75
REMARK SMILES IDX 68 76 74 77 67 78 69 79 70 80 71 81 72 82 49 83 50 84 58 85
REMARK SMILES IDX 51 86 53 87 59 88 52 89 54 90 55 91 56 92 57 93
REMARK H PARENT 79 46 47 57
REMARK Flexibility Score: inf
ROOT
ATOM      1  C   UNL     1       0.055  -1.247   8.895  1.00  0.00     0.202 C 
ENDROOT
BRANCH   1   2
ATOM      2  O   UNL     1      -1.029  -1.387   9.815  1.00  0.00    -0.374 OA
BRANCH   2   3
ATOM      3  C   UNL     1      -1.608  -2.682   9.969  1.00  0.00     0.202 C 
BRANCH   3   4
ATOM      4  C   UNL     1      -2.577  -3.145   8.876  1.00  0.00     0.261 C 
BRANCH   4   5
ATOM      5  O   UNL     1      -1.971  -3.107   7.575  1.00  0.00    -0.460 OA
BRANCH   5   6
ATOM      6  C   UNL     1      -2.478  -2.165   6.747  1.00  0.00     0.338 C 
ATOM      7  O   UNL     1      -3.444  -1.445   6.957  1.00  0.00    -0.246 OA
BRANCH   6   8
ATOM      8  C   UNL     1      -1.600  -2.004   5.573  1.00  0.00     0.087 C 
ATOM      9  C   UNL     1       1.093  -0.061   0.032  1.00  0.00     0.046 C 
ATOM     10  C   UNL     1       0.527  -0.151   1.424  1.00  0.00    -0.033 A 
ATOM     11  C   UNL     1       0.408  -1.424   1.999  1.00  0.00     0.051 A 
ATOM     12  C   UNL     1       0.146   0.977   2.181  1.00  0.00     0.024 A 
ATOM     13  C   UNL     1      -0.170  -1.593   3.254  1.00  0.00     0.128 A 
ATOM     14  C   UNL     1      -0.435   0.826   3.463  1.00  0.00    -0.026 A 
ATOM     15  Br  UNL     1       0.427   2.717   1.433  1.00  0.00    -0.050 Br
ATOM     16  C   UNL     1      -0.632  -0.485   3.970  1.00  0.00     0.021 A 
ATOM     17  O   UNL     1      -0.231  -2.883   3.699  1.00  0.00    -0.475 OA
ATOM     18  C   UNL     1      -0.857   2.007   4.309  1.00  0.00     0.046 C 
ATOM     19  C   UNL     1      -1.370  -0.739   5.203  1.00  0.00     0.027 C 
ATOM     20  C   UNL     1      -1.053  -3.202   4.855  1.00  0.00     0.316 C 
BRANCH  20  21
ATOM     21  C   UNL     1      -2.149  -4.182   4.414  1.00  0.00     0.430 C 
ATOM     22  F   UNL     1      -1.625  -5.221   3.723  1.00  0.00    -0.167 F 
ATOM     23  F   UNL     1      -2.811  -4.701   5.472  1.00  0.00    -0.167 F 
ATOM     24  F   UNL     1      -3.063  -3.582   3.616  1.00  0.00    -0.167 F 
ENDBRANCH  20  21
ENDBRANCH   6   8
ENDBRANCH   5   6
ENDBRANCH   4   5
ENDBRANCH   3   4
ENDBRANCH   2   3
ENDBRANCH   1   2
BRANCH   1  25
ATOM     25  C   UNL     1       1.407  -1.855   9.291  1.00  0.00     0.261 C 
BRANCH  25  26
ATOM     26  O   UNL     1       1.373  -3.293   9.322  1.00  0.00    -0.460 OA
BRANCH  26  27
ATOM     27  C   UNL     1       1.560  -3.840  10.547  1.00  0.00     0.338 C 
ATOM     28  O   UNL     1       1.809  -3.248  11.589  1.00  0.00    -0.246 OA
BRANCH  27  29
ATOM     29  C   UNL     1       1.231  -5.275  10.514  1.00  0.00     0.060 A 
ATOM     30  C   UNL     1       0.221  -5.730  11.371  1.00  0.00     0.016 A 
ATOM     31  C   UNL     1       1.951  -6.171   9.722  1.00  0.00     0.016 A 
ATOM     32  C   UNL     1      -0.044  -7.093  11.473  1.00  0.00     0.010 A 
ATOM     33  C   UNL     1       1.692  -7.540   9.835  1.00  0.00     0.010 A 
ATOM     34  C   UNL     1       0.718  -8.009  10.736  1.00  0.00    -0.014 A 
BRANCH  34  35
ATOM     35  C   UNL     1       0.587  -9.458  11.019  1.00  0.00     0.031 A 
ATOM     36  C   UNL     1       1.590 -10.118  11.924  1.00  0.00     0.074 A 
ATOM     37  C   UNL     1      -0.429 -10.168  10.498  1.00  0.00     0.049 A 
ATOM     38  N   UNL     1       1.656 -11.364  12.313  1.00  0.00    -0.248 NA
ATOM     39  C   UNL     1       2.659  -9.261  12.465  1.00  0.00     0.031 C 
ATOM     40  C   UNL     1      -1.469  -9.632   9.623  1.00  0.00     0.029 A 
ATOM     41  N   UNL     1      -0.745 -11.498  10.623  1.00  0.00    -0.354 N 
ATOM     42  C   UNL     1       2.775 -11.446  13.133  1.00  0.00     0.074 A 
ATOM     43  C   UNL     1       3.373 -10.130  13.168  1.00  0.00     0.031 C 
ATOM     44  C   UNL     1      -2.304 -10.628   9.278  1.00  0.00     0.029 A 
ATOM     45  C   UNL     1      -1.844 -11.874   9.890  1.00  0.00     0.049 A 
ATOM     46  H   UNL     1      -0.232 -12.123  11.185  1.00  0.00     0.167 HD
ATOM     47  C   UNL     1       3.247 -12.515  13.815  1.00  0.00     0.034 A 
ATOM     48  C   UNL     1      -2.409 -13.087   9.723  1.00  0.00     0.034 A 
ATOM     49  C   UNL     1       2.639 -13.817  13.793  1.00  0.00     0.049 A 
ATOM     50  C   UNL     1      -1.833 -14.273  10.454  1.00  0.00     0.074 A 
ATOM     51  C   UNL     1       3.025 -14.955  14.478  1.00  0.00     0.029 A 
ATOM     52  N   UNL     1       1.524 -14.159  13.043  1.00  0.00    -0.354 N 
ATOM     53  N   UNL     1      -0.841 -14.312  11.311  1.00  0.00    -0.248 NA
ATOM     54  C   UNL     1      -2.470 -15.578  10.218  1.00  0.00     0.031 C 
ATOM     55  C   UNL     1       2.159 -15.993  14.122  1.00  0.00     0.029 A 
ATOM     56  C   UNL     1       1.217 -15.495  13.236  1.00  0.00     0.049 A 
ATOM     57  H   UNL     1       1.025 -13.543  12.460  1.00  0.00     0.167 HD
ATOM     58  C   UNL     1      -0.752 -15.633  11.736  1.00  0.00     0.074 A 
ATOM     59  C   UNL     1      -1.806 -16.361  11.059  1.00  0.00     0.031 C 
ATOM     60  C   UNL     1       0.134 -16.197  12.595  1.00  0.00     0.034 A 
BRANCH  47  61
ATOM     61  C   UNL     1       4.459 -12.316  14.687  1.00  0.00     0.023 A 
ATOM     62  C   UNL     1       4.327 -11.615  15.902  1.00  0.00     0.012 A 
ATOM     63  C   UNL     1       5.699 -12.893  14.351  1.00  0.00     0.148 A 
ATOM     64  C   UNL     1       5.415 -11.473  16.762  1.00  0.00     0.002 A 
ATOM     65  C   UNL     1       6.768 -12.784  15.233  1.00  0.00     0.091 A 
ATOM     66  F   UNL     1       5.808 -13.537  13.181  1.00  0.00    -0.205 F 
ATOM     67  C   UNL     1       6.631 -12.067  16.433  1.00  0.00     0.022 A 
BRANCH  65  68
ATOM     68  S   UNL     1       8.353 -13.579  14.941  1.00  0.00     0.127 S 
ATOM     69  O   UNL     1       9.222 -12.426  14.708  1.00  0.00    -0.237 OA
ATOM     70  O   UNL     1       8.586 -14.272  16.209  1.00  0.00    -0.237 OA
ATOM     71  O   UNL     1       8.159 -14.454  13.794  1.00  0.00    -0.744 OA
ENDBRANCH  65  68
ENDBRANCH  47  61
BRANCH  48  72
ATOM     72  C   UNL     1      -3.622 -13.227   8.867  1.00  0.00     0.023 A 
ATOM     73  C   UNL     1      -4.860 -13.526   9.468  1.00  0.00     0.012 A 
ATOM     74  C   UNL     1      -3.566 -13.021   7.475  1.00  0.00     0.148 A 
ATOM     75  C   UNL     1      -6.018 -13.634   8.696  1.00  0.00     0.002 A 
ATOM     76  C   UNL     1      -4.732 -13.074   6.719  1.00  0.00     0.091 A 
ATOM     77  F   UNL     1      -2.375 -12.756   6.920  1.00  0.00    -0.205 F 
ATOM     78  C   UNL     1      -5.956 -13.396   7.325  1.00  0.00     0.022 A 
BRANCH  76  79
ATOM     79  S   UNL     1      -4.773 -12.650   4.974  1.00  0.00     0.127 S 
ATOM     80  O   UNL     1      -5.070 -13.942   4.359  1.00  0.00    -0.237 OA
ATOM     81  O   UNL     1      -5.866 -11.679   4.927  1.00  0.00    -0.237 OA
ATOM     82  O   UNL     1      -3.461 -12.095   4.672  1.00  0.00    -0.744 OA
ENDBRANCH  76  79
ENDBRANCH  48  72
BRANCH  60  83
ATOM     83  C   UNL     1       0.016 -17.674  12.874  1.00  0.00     0.023 A 
ATOM     84  C   UNL     1       0.421 -18.598  11.892  1.00  0.00     0.012 A 
ATOM     85  C   UNL     1      -0.367 -18.140  14.148  1.00  0.00     0.148 A 
ATOM     86  C   UNL     1       0.431 -19.965  12.167  1.00  0.00     0.002 A 
ATOM     87  C   UNL     1      -0.307 -19.500  14.431  1.00  0.00     0.091 A 
ATOM     88  F   UNL     1      -0.762 -17.244  15.065  1.00  0.00    -0.205 F 
ATOM     89  C   UNL     1       0.083 -20.414  13.439  1.00  0.00     0.022 A 
BRANCH  87  90
ATOM     90  S   UNL     1      -0.632 -20.164  16.069  1.00  0.00     0.127 S 
ATOM     91  O   UNL     1      -1.885 -20.887  15.853  1.00  0.00    -0.237 OA
ATOM     92  O   UNL     1       0.534 -21.019  16.293  1.00  0.00    -0.237 OA
ATOM     93  O   UNL     1      -0.723 -19.015  16.960  1.00  0.00    -0.744 OA
ENDBRANCH  87  90
ENDBRANCH  60  83
ENDBRANCH  34  35
ENDBRANCH  27  29
ENDBRANCH  26  27
ENDBRANCH  25  26
ENDBRANCH   1  25
TORSDOF 18
