REMARK SMILES CC1(C)C(n2c(SCC(=O)OCCOCCOC(=O)c3ccc(-c4c5nc(c(-c6cccc(S(=O)(=O)[O-])c6F)c6ccc([nH]6)c(-c6cccc(S(=O)(=O)[O-])c6F)c6nc(c(-c7cccc(S(=O)(=O)[O-])c7F)c7ccc4[nH]7)C=C6)C=C5)cc3)nc3cnccc32)C1(C)C
REMARK SMILES IDX 14 1 13 2 12 3 11 4 9 5 10 6 8 7 7 8 6 9 5 10 89 11 83 12
REMARK SMILES IDX 84 13 88 14 85 15 87 16 86 17 4 18 1 19 2 20 3 21 90 22
REMARK SMILES IDX 91 23 92 24 15 25 16 26 17 27 18 28 19 29 20 30 21 31 82 32
REMARK SMILES IDX 22 33 81 34 23 35 24 36 25 37 75 38 26 39 80 40 74 41 76 42
REMARK SMILES IDX 27 43 79 44 73 45 72 46 28 48 60 49 40 50 59 51 41 52 44 53
REMARK SMILES IDX 58 54 77 55 42 56 43 57 57 59 78 60 45 61 29 62 30 63 38 64
REMARK SMILES IDX 31 65 33 66 39 67 32 68 34 69 35 70 36 71 37 72 61 73 62 74
REMARK SMILES IDX 70 75 63 76 65 77 71 78 64 79 66 80 67 81 68 82 69 83 46 84
REMARK SMILES IDX 47 85 55 86 48 87 50 88 56 89 49 90 51 91 52 92 53 93 54 94
REMARK H PARENT 76 47 44 58
REMARK Flexibility Score: inf
ROOT
ATOM      1  O   UNL     1       4.271  -1.786  -0.165  1.00  0.00    -0.374 OA
ENDROOT
BRANCH   1   2
ATOM      2  C   UNL     1       4.596  -3.084   0.315  1.00  0.00     0.202 C 
BRANCH   2   3
ATOM      3  C   UNL     1       3.507  -4.142   0.555  1.00  0.00     0.261 C 
BRANCH   3   4
ATOM      4  O   UNL     1       2.877  -4.486  -0.695  1.00  0.00    -0.463 OA
BRANCH   4   5
ATOM      5  C   UNL     1       1.696  -5.142  -0.618  1.00  0.00     0.316 C 
ATOM      6  O   UNL     1       1.271  -5.664   0.408  1.00  0.00    -0.251 OA
BRANCH   5   7
ATOM      7  C   UNL     1       0.851  -5.042  -1.878  1.00  0.00     0.200 C 
BRANCH   7   8
ATOM      8  S   UNL     1       1.710  -4.457  -3.330  1.00  0.00    -0.076 SA
BRANCH   8   9
ATOM      9  C   UNL     1       0.914  -3.045  -3.995  1.00  0.00     0.169 A 
ATOM     10  N   UNL     1       0.668  -1.813  -3.380  1.00  0.00    -0.315 N 
ATOM     11  C   UNL     1       1.271  -0.873  -4.214  1.00  0.00     0.072 A 
ATOM     12  N   UNL     1       1.063  -2.861  -5.296  1.00  0.00    -0.221 NA
ATOM     13  C   UNL     1       1.485  -1.563  -5.408  1.00  0.00     0.108 A 
ATOM     14  C   UNL     1       1.732   0.435  -4.040  1.00  0.00     0.049 A 
ATOM     15  C   UNL     1       2.160  -0.928  -6.457  1.00  0.00     0.141 A 
ATOM     16  C   UNL     1       2.421   0.968  -5.125  1.00  0.00     0.113 A 
ATOM     17  N   UNL     1       2.628   0.338  -6.304  1.00  0.00    -0.262 NA
BRANCH  10  18
ATOM     18  C   UNL     1       0.462  -1.547  -1.969  1.00  0.00     0.102 C 
ATOM     19  C   UNL     1       0.421   0.310  -0.170  1.00  0.00     0.014 C 
ATOM     20  C   UNL     1      -0.301  -0.429  -1.296  1.00  0.00    -0.007 C 
ATOM     21  C   UNL     1      -1.251   0.460  -2.051  1.00  0.00     0.014 C 
ATOM     22  C   UNL     1      -0.677  -1.928  -1.065  1.00  0.00    -0.007 C 
ATOM     23  C   UNL     1      -0.316  -2.535   0.285  1.00  0.00     0.014 C 
ATOM     24  C   UNL     1      -1.927  -2.517  -1.672  1.00  0.00     0.014 C 
ENDBRANCH  10  18
ENDBRANCH   8   9
ENDBRANCH   7   8
ENDBRANCH   5   7
ENDBRANCH   4   5
ENDBRANCH   3   4
ENDBRANCH   2   3
ENDBRANCH   1   2
BRANCH   1  25
ATOM     25  C   UNL     1       3.729  -1.752  -1.470  1.00  0.00     0.202 C 
BRANCH  25  26
ATOM     26  C   UNL     1       4.571  -1.994  -2.725  1.00  0.00     0.261 C 
BRANCH  26  27
ATOM     27  O   UNL     1       5.159  -3.293  -2.721  1.00  0.00    -0.460 OA
BRANCH  27  28
ATOM     28  C   UNL     1       6.494  -3.300  -3.002  1.00  0.00     0.338 C 
ATOM     29  O   UNL     1       7.100  -2.533  -3.705  1.00  0.00    -0.246 OA
BRANCH  28  30
ATOM     30  C   UNL     1       7.062  -4.114  -1.905  1.00  0.00     0.060 A 
ATOM     31  C   UNL     1       6.509  -5.365  -1.602  1.00  0.00     0.016 A 
ATOM     32  C   UNL     1       7.786  -3.378  -0.953  1.00  0.00     0.016 A 
ATOM     33  C   UNL     1       6.573  -5.814  -0.287  1.00  0.00     0.010 A 
ATOM     34  C   UNL     1       7.816  -3.817   0.365  1.00  0.00     0.010 A 
ATOM     35  C   UNL     1       7.161  -5.005   0.712  1.00  0.00    -0.014 A 
BRANCH  35  36
ATOM     36  C   UNL     1       7.400  -5.604   2.029  1.00  0.00     0.031 A 
ATOM     37  C   UNL     1       8.463  -6.630   1.849  1.00  0.00     0.074 A 
ATOM     38  C   UNL     1       6.896  -5.264   3.240  1.00  0.00     0.049 A 
ATOM     39  N   UNL     1       8.303  -7.913   1.828  1.00  0.00    -0.248 NA
ATOM     40  C   UNL     1       9.767  -6.178   1.322  1.00  0.00     0.031 C 
ATOM     41  C   UNL     1       6.024  -4.147   3.605  1.00  0.00     0.029 A 
ATOM     42  N   UNL     1       7.155  -5.818   4.468  1.00  0.00    -0.354 N 
ATOM     43  C   UNL     1       9.571  -8.412   1.553  1.00  0.00     0.074 A 
ATOM     44  C   UNL     1      10.334  -7.335   0.985  1.00  0.00     0.031 C 
ATOM     45  C   UNL     1       6.046  -3.945   4.943  1.00  0.00     0.029 A 
ATOM     46  C   UNL     1       6.814  -5.004   5.557  1.00  0.00     0.049 A 
ATOM     47  H   UNL     1       7.549  -6.714   4.576  1.00  0.00     0.167 HD
ATOM     48  C   UNL     1      10.024  -9.534   2.168  1.00  0.00     0.034 A 
ATOM     49  C   UNL     1       7.163  -5.181   6.858  1.00  0.00     0.034 A 
ATOM     50  C   UNL     1       8.957 -10.266   2.784  1.00  0.00     0.049 A 
ATOM     51  C   UNL     1       7.503  -6.607   6.997  1.00  0.00     0.074 A 
ATOM     52  C   UNL     1       7.914 -11.059   2.363  1.00  0.00     0.029 A 
ATOM     53  N   UNL     1       8.663  -9.822   4.045  1.00  0.00    -0.354 N 
ATOM     54  N   UNL     1       6.620  -7.560   6.921  1.00  0.00    -0.248 NA
ATOM     55  C   UNL     1       8.898  -7.017   6.923  1.00  0.00     0.031 C 
ATOM     56  C   UNL     1       6.900 -10.936   3.357  1.00  0.00     0.029 A 
ATOM     57  C   UNL     1       7.369 -10.109   4.375  1.00  0.00     0.049 A 
ATOM     58  H   UNL     1       9.299  -9.358   4.636  1.00  0.00     0.167 HD
ATOM     59  C   UNL     1       7.320  -8.595   6.339  1.00  0.00     0.074 A 
ATOM     60  C   UNL     1       8.729  -8.284   6.541  1.00  0.00     0.031 C 
ATOM     61  C   UNL     1       6.704  -9.423   5.454  1.00  0.00     0.034 A 
BRANCH  48  62
ATOM     62  C   UNL     1      11.446  -9.670   2.646  1.00  0.00     0.023 A 
ATOM     63  C   UNL     1      11.928 -10.953   2.955  1.00  0.00     0.012 A 
ATOM     64  C   UNL     1      12.241  -8.567   3.044  1.00  0.00     0.148 A 
ATOM     65  C   UNL     1      13.163 -11.127   3.592  1.00  0.00     0.002 A 
ATOM     66  C   UNL     1      13.505  -8.745   3.583  1.00  0.00     0.091 A 
ATOM     67  F   UNL     1      11.716  -7.337   3.046  1.00  0.00    -0.205 F 
ATOM     68  C   UNL     1      13.966 -10.026   3.878  1.00  0.00     0.022 A 
BRANCH  66  69
ATOM     69  S   UNL     1      14.581  -7.346   3.922  1.00  0.00     0.127 S 
ATOM     70  O   UNL     1      14.545  -7.295   5.380  1.00  0.00    -0.237 OA
ATOM     71  O   UNL     1      15.847  -7.799   3.345  1.00  0.00    -0.237 OA
ATOM     72  O   UNL     1      13.978  -6.217   3.223  1.00  0.00    -0.744 OA
ENDBRANCH  66  69
ENDBRANCH  48  62
BRANCH  49  73
ATOM     73  C   UNL     1       7.401  -4.269   8.011  1.00  0.00     0.023 A 
ATOM     74  C   UNL     1       7.504  -4.837   9.305  1.00  0.00     0.012 A 
ATOM     75  C   UNL     1       7.895  -2.963   7.825  1.00  0.00     0.148 A 
ATOM     76  C   UNL     1       8.182  -4.183  10.340  1.00  0.00     0.002 A 
ATOM     77  C   UNL     1       8.566  -2.313   8.863  1.00  0.00     0.091 A 
ATOM     78  F   UNL     1       7.798  -2.405   6.612  1.00  0.00    -0.205 F 
ATOM     79  C   UNL     1       8.737  -2.931  10.110  1.00  0.00     0.022 A 
BRANCH  77  80
ATOM     80  S   UNL     1       9.332  -0.700   8.648  1.00  0.00     0.127 S 
ATOM     81  O   UNL     1       8.956  -0.013   9.885  1.00  0.00    -0.237 OA
ATOM     82  O   UNL     1      10.746  -1.048   8.549  1.00  0.00    -0.237 OA
ATOM     83  O   UNL     1       8.727  -0.138   7.447  1.00  0.00    -0.744 OA
ENDBRANCH  77  80
ENDBRANCH  49  73
BRANCH  61  84
ATOM     84  C   UNL     1       5.213  -9.517   5.519  1.00  0.00     0.023 A 
ATOM     85  C   UNL     1       4.348  -8.526   5.014  1.00  0.00     0.012 A 
ATOM     86  C   UNL     1       4.684 -10.726   5.992  1.00  0.00     0.148 A 
ATOM     87  C   UNL     1       2.969  -8.755   4.972  1.00  0.00     0.002 A 
ATOM     88  C   UNL     1       3.323 -10.964   5.913  1.00  0.00     0.091 A 
ATOM     89  F   UNL     1       5.541 -11.639   6.474  1.00  0.00    -0.205 F 
ATOM     90  C   UNL     1       2.459  -9.981   5.406  1.00  0.00     0.022 A 
BRANCH  88  91
ATOM     91  S   UNL     1       2.627 -12.554   6.358  1.00  0.00     0.127 S 
ATOM     92  O   UNL     1       1.812 -12.215   7.522  1.00  0.00    -0.237 OA
ATOM     93  O   UNL     1       1.868 -12.903   5.157  1.00  0.00    -0.237 OA
ATOM     94  O   UNL     1       3.758 -13.433   6.628  1.00  0.00    -0.744 OA
ENDBRANCH  88  91
ENDBRANCH  61  84
ENDBRANCH  35  36
ENDBRANCH  28  30
ENDBRANCH  27  28
ENDBRANCH  26  27
ENDBRANCH  25  26
ENDBRANCH   1  25
TORSDOF 20
