REMARK SMILES COc1ccccc1N1C(=O)CC[C@H]1CC(=O)OCCOCCOC(=O)c1ccc(-c2c3nc(c(-c4cccc(S(=O)(=O)[O-])c4F)c4ccc([nH]4)c(-c4cccc(S(=O)(=O)[O-])c4F)c4nc(c(-c5cccc(S(=O)(=O)[O-])c5F)c5ccc2[nH]5)C=C4)C=C3)cc1
REMARK SMILES IDX 21 1 20 2 19 3 18 4 16 5 17 6 15 7 14 8 9 9 10 10 11 11
REMARK SMILES IDX 12 12 13 13 8 14 3 15 4 16 5 17 7 18 6 19 2 20 1 21 22 22
REMARK SMILES IDX 23 23 24 24 25 25 26 26 27 27 28 28 89 29 29 30 88 31 30 32
REMARK SMILES IDX 31 33 32 34 82 35 33 36 87 37 81 38 83 39 34 40 86 41 80 42
REMARK SMILES IDX 79 43 35 45 67 46 47 47 66 48 48 49 51 50 65 51 84 52 49 53
REMARK SMILES IDX 50 54 64 56 85 57 52 58 36 59 37 60 45 61 38 62 40 63 46 64
REMARK SMILES IDX 39 65 41 66 42 67 43 68 44 69 68 70 69 71 77 72 70 73 72 74
REMARK SMILES IDX 78 75 71 76 73 77 74 78 75 79 76 80 53 81 54 82 62 83 55 84
REMARK SMILES IDX 57 85 63 86 56 87 58 88 59 89 60 90 61 91
REMARK H PARENT 83 44 51 55
REMARK Flexibility Score: inf
ROOT
ATOM      1  O   UNL     1       7.051   0.335   3.684  1.00  0.00    -0.374 OA
ENDROOT
BRANCH   1   2
ATOM      2  C   UNL     1       6.286   1.278   4.441  1.00  0.00     0.202 C 
BRANCH   2   3
ATOM      3  C   UNL     1       6.070   2.674   3.839  1.00  0.00     0.261 C 
BRANCH   3   4
ATOM      4  O   UNL     1       5.126   2.667   2.741  1.00  0.00    -0.463 OA
BRANCH   4   5
ATOM      5  C   UNL     1       5.582   3.145   1.551  1.00  0.00     0.307 C 
ATOM      6  O   UNL     1       6.730   3.507   1.328  1.00  0.00    -0.252 OA
BRANCH   5   7
ATOM      7  C   UNL     1       4.503   3.176   0.496  1.00  0.00     0.148 C 
BRANCH   7   8
ATOM      8  C   UNL     1       4.082   1.802  -0.022  1.00  0.00     0.102 C 
ATOM      9  N   UNL     1       3.029   1.717  -1.035  1.00  0.00    -0.305 N 
ATOM     10  C   UNL     1       3.183   0.577  -1.848  1.00  0.00     0.227 C 
ATOM     11  O   UNL     1       2.501   0.189  -2.782  1.00  0.00    -0.275 OA
ATOM     12  C   UNL     1       4.434  -0.119  -1.389  1.00  0.00     0.103 C 
ATOM     13  C   UNL     1       5.195   1.027  -0.733  1.00  0.00     0.036 C 
BRANCH   9  14
ATOM     14  C   UNL     1       1.941   2.603  -1.195  1.00  0.00     0.086 A 
ATOM     15  C   UNL     1       0.612   2.153  -1.303  1.00  0.00     0.142 A 
ATOM     16  C   UNL     1      -0.403   3.040  -1.682  1.00  0.00     0.048 A 
ATOM     17  C   UNL     1      -0.118   4.382  -1.927  1.00  0.00     0.004 A 
ATOM     18  C   UNL     1       2.206   3.958  -1.445  1.00  0.00     0.030 A 
ATOM     19  C   UNL     1       1.187   4.843  -1.802  1.00  0.00     0.002 A 
BRANCH  15  20
ATOM     20  O   UNL     1       0.208   0.853  -1.130  1.00  0.00    -0.495 OA
ATOM     21  C   UNL     1       0.438   0.357   0.185  1.00  0.00     0.278 C 
ENDBRANCH  15  20
ENDBRANCH   9  14
ENDBRANCH   7   8
ENDBRANCH   5   7
ENDBRANCH   4   5
ENDBRANCH   3   4
ENDBRANCH   2   3
ENDBRANCH   1   2
BRANCH   1  22
ATOM     22  C   UNL     1       6.526  -0.061   2.426  1.00  0.00     0.202 C 
BRANCH  22  23
ATOM     23  C   UNL     1       5.413  -1.116   2.398  1.00  0.00     0.261 C 
BRANCH  23  24
ATOM     24  O   UNL     1       4.450  -0.950   3.435  1.00  0.00    -0.460 OA
BRANCH  24  25
ATOM     25  C   UNL     1       4.693  -1.751   4.501  1.00  0.00     0.338 C 
ATOM     26  O   UNL     1       5.521  -2.639   4.587  1.00  0.00    -0.246 OA
BRANCH  25  27
ATOM     27  C   UNL     1       3.919  -1.268   5.650  1.00  0.00     0.060 A 
ATOM     28  C   UNL     1       4.641  -0.990   6.815  1.00  0.00     0.016 A 
ATOM     29  C   UNL     1       2.530  -1.138   5.604  1.00  0.00     0.016 A 
ATOM     30  C   UNL     1       3.962  -0.650   7.974  1.00  0.00     0.010 A 
ATOM     31  C   UNL     1       1.849  -0.796   6.771  1.00  0.00     0.010 A 
ATOM     32  C   UNL     1       2.562  -0.603   7.966  1.00  0.00    -0.014 A 
BRANCH  32  33
ATOM     33  C   UNL     1       1.857  -0.520   9.259  1.00  0.00     0.031 A 
ATOM     34  C   UNL     1       1.288  -1.780   9.848  1.00  0.00     0.074 A 
ATOM     35  C   UNL     1       1.777   0.654   9.906  1.00  0.00     0.049 A 
ATOM     36  N   UNL     1       0.659  -1.951  10.978  1.00  0.00    -0.248 NA
ATOM     37  C   UNL     1       1.449  -3.013   9.056  1.00  0.00     0.031 C 
ATOM     38  C   UNL     1       2.307   1.925   9.410  1.00  0.00     0.029 A 
ATOM     39  N   UNL     1       1.208   0.971  11.110  1.00  0.00    -0.354 N 
ATOM     40  C   UNL     1       0.320  -3.298  11.021  1.00  0.00     0.074 A 
ATOM     41  C   UNL     1       0.802  -3.900   9.798  1.00  0.00     0.031 C 
ATOM     42  C   UNL     1       2.016   2.892  10.296  1.00  0.00     0.029 A 
ATOM     43  C   UNL     1       1.260   2.312  11.402  1.00  0.00     0.049 A 
ATOM     44  H   UNL     1       0.801   0.303  11.707  1.00  0.00     0.167 HD
ATOM     45  C   UNL     1      -0.326  -3.972  12.000  1.00  0.00     0.034 A 
ATOM     46  C   UNL     1       0.733   2.991  12.438  1.00  0.00     0.034 A 
ATOM     47  C   UNL     1      -0.783  -3.356  13.215  1.00  0.00     0.049 A 
ATOM     48  C   UNL     1       0.011   2.219  13.509  1.00  0.00     0.074 A 
ATOM     49  C   UNL     1      -1.404  -3.946  14.299  1.00  0.00     0.029 A 
ATOM     50  N   UNL     1      -0.681  -2.001  13.497  1.00  0.00    -0.354 N 
ATOM     51  N   UNL     1      -0.204   0.927  13.591  1.00  0.00    -0.248 NA
ATOM     52  C   UNL     1      -0.509   2.988  14.646  1.00  0.00     0.031 C 
ATOM     53  C   UNL     1      -1.715  -2.941  15.220  1.00  0.00     0.029 A 
ATOM     54  C   UNL     1      -1.244  -1.732  14.731  1.00  0.00     0.049 A 
ATOM     55  H   UNL     1      -0.268  -1.331  12.907  1.00  0.00     0.167 HD
ATOM     56  C   UNL     1      -0.853   0.723  14.802  1.00  0.00     0.074 A 
ATOM     57  C   UNL     1      -0.977   2.024  15.429  1.00  0.00     0.031 C 
ATOM     58  C   UNL     1      -1.314  -0.431  15.347  1.00  0.00     0.034 A 
BRANCH  45  59
ATOM     59  C   UNL     1      -0.576  -5.443  11.797  1.00  0.00     0.023 A 
ATOM     60  C   UNL     1       0.497  -6.357  11.850  1.00  0.00     0.012 A 
ATOM     61  C   UNL     1      -1.884  -5.926  11.599  1.00  0.00     0.148 A 
ATOM     62  C   UNL     1       0.275  -7.723  11.679  1.00  0.00     0.002 A 
ATOM     63  C   UNL     1      -2.103  -7.293  11.477  1.00  0.00     0.091 A 
ATOM     64  F   UNL     1      -2.887  -5.040  11.525  1.00  0.00    -0.205 F 
ATOM     65  C   UNL     1      -1.024  -8.191  11.504  1.00  0.00     0.022 A 
BRANCH  63  66
ATOM     66  S   UNL     1      -3.747  -8.001  11.325  1.00  0.00     0.127 S 
ATOM     67  O   UNL     1      -3.720  -8.518   9.957  1.00  0.00    -0.237 OA
ATOM     68  O   UNL     1      -3.733  -9.029  12.366  1.00  0.00    -0.237 OA
ATOM     69  O   UNL     1      -4.680  -6.908  11.559  1.00  0.00    -0.744 OA
ENDBRANCH  63  66
ENDBRANCH  45  59
BRANCH  46  70
ATOM     70  C   UNL     1       0.890   4.470  12.514  1.00  0.00     0.023 A 
ATOM     71  C   UNL     1       1.698   5.041  13.515  1.00  0.00     0.012 A 
ATOM     72  C   UNL     1       0.263   5.311  11.574  1.00  0.00     0.148 A 
ATOM     73  C   UNL     1       1.854   6.426  13.596  1.00  0.00     0.002 A 
ATOM     74  C   UNL     1       0.470   6.684  11.624  1.00  0.00     0.091 A 
ATOM     75  F   UNL     1      -0.513   4.748  10.636  1.00  0.00    -0.205 F 
ATOM     76  C   UNL     1       1.250   7.246  12.646  1.00  0.00     0.022 A 
BRANCH  74  77
ATOM     77  S   UNL     1      -0.156   7.797  10.361  1.00  0.00     0.127 S 
ATOM     78  O   UNL     1      -1.191   8.525  11.090  1.00  0.00    -0.237 OA
ATOM     79  O   UNL     1       1.036   8.580  10.033  1.00  0.00    -0.237 OA
ATOM     80  O   UNL     1      -0.625   6.941   9.280  1.00  0.00    -0.744 OA
ENDBRANCH  74  77
ENDBRANCH  46  70
BRANCH  58  81
ATOM     81  C   UNL     1      -1.956  -0.347  16.706  1.00  0.00     0.023 A 
ATOM     82  C   UNL     1      -3.230   0.236  16.850  1.00  0.00     0.012 A 
ATOM     83  C   UNL     1      -1.323  -0.920  17.826  1.00  0.00     0.148 A 
ATOM     84  C   UNL     1      -3.849   0.281  18.098  1.00  0.00     0.002 A 
ATOM     85  C   UNL     1      -1.970  -0.921  19.055  1.00  0.00     0.091 A 
ATOM     86  F   UNL     1      -0.104  -1.455  17.668  1.00  0.00    -0.205 F 
ATOM     87  C   UNL     1      -3.225  -0.308  19.196  1.00  0.00     0.022 A 
BRANCH  85  88
ATOM     88  S   UNL     1      -1.291  -1.747  20.497  1.00  0.00     0.127 S 
ATOM     89  O   UNL     1      -0.920  -0.613  21.342  1.00  0.00    -0.237 OA
ATOM     90  O   UNL     1      -2.437  -2.519  20.979  1.00  0.00    -0.237 OA
ATOM     91  O   UNL     1      -0.179  -2.554  20.014  1.00  0.00    -0.744 OA
ENDBRANCH  85  88
ENDBRANCH  58  81
ENDBRANCH  32  33
ENDBRANCH  25  27
ENDBRANCH  24  25
ENDBRANCH  23  24
ENDBRANCH  22  23
ENDBRANCH   1  22
TORSDOF 20
