REMARK SMILES O=C(OCCOCCOC(=O)c1cc(-c2ccccc2)nc(Nc2nc3ccccc3s2)n1)c1ccc(-c2c3nc(c(-c4cccc(S(=O)(=O)[O-])c4F)c4ccc([nH]4)c(-c4cccc(S(=O)(=O)[O-])c4F)c4nc(c(-c5cccc(S(=O)(=O)[O-])c5F)c5ccc2[nH]5)C=C4)C=C3)cc1
REMARK SMILES IDX 5 1 4 2 3 3 2 4 1 5 34 6 35 7 96 8 36 9 95 10 37 11 38 12
REMARK SMILES IDX 39 13 89 14 40 15 94 16 88 17 90 18 41 19 93 20 87 21 86 22
REMARK SMILES IDX 42 24 74 25 54 26 73 27 55 28 58 29 72 30 91 31 56 32 57 33
REMARK SMILES IDX 71 35 92 36 59 37 43 38 44 39 52 40 45 41 47 42 53 43 46 44
REMARK SMILES IDX 48 45 49 46 50 47 51 48 75 49 76 50 84 51 77 52 79 53 85 54
REMARK SMILES IDX 78 55 80 56 81 57 82 58 83 59 60 60 61 61 69 62 62 63 64 64
REMARK SMILES IDX 70 65 63 66 65 67 66 68 67 69 68 70 6 71 7 72 8 73 9 74
REMARK SMILES IDX 10 75 11 76 12 77 13 78 33 79 14 80 22 81 21 82 15 83 16 84
REMARK SMILES IDX 20 85 17 86 19 87 18 88 23 89 24 91 25 92 32 93 26 94 31 95
REMARK SMILES IDX 27 96 30 97 28 98 29 99
REMARK H PARENT 90 23 58 34 23 90
REMARK Flexibility Score: inf
ROOT
ATOM      1  C   UNL     1       3.810  -0.677  -1.606  1.00  0.00     0.202 C 
ENDROOT
BRANCH   1   2
ATOM      2  C   UNL     1       3.438  -1.462  -0.350  1.00  0.00     0.261 C 
BRANCH   2   3
ATOM      3  O   UNL     1       2.115  -1.119   0.084  1.00  0.00    -0.460 OA
BRANCH   3   4
ATOM      4  C   UNL     1       1.754  -0.145   0.955  1.00  0.00     0.338 C 
ATOM      5  O   UNL     1       0.549   0.001   1.168  1.00  0.00    -0.246 OA
BRANCH   4   6
ATOM      6  C   UNL     1       2.707   0.746   1.705  1.00  0.00     0.060 A 
ATOM      7  C   UNL     1       4.031   1.030   1.358  1.00  0.00     0.016 A 
ATOM      8  C   UNL     1       2.182   1.412   2.829  1.00  0.00     0.016 A 
ATOM      9  C   UNL     1       4.814   1.914   2.093  1.00  0.00     0.010 A 
ATOM     10  C   UNL     1       2.954   2.316   3.567  1.00  0.00     0.010 A 
ATOM     11  C   UNL     1       4.282   2.556   3.205  1.00  0.00    -0.014 A 
BRANCH  11  12
ATOM     12  C   UNL     1       5.184   3.382   4.024  1.00  0.00     0.031 A 
ATOM     13  C   UNL     1       5.763   2.781   5.267  1.00  0.00     0.074 A 
ATOM     14  C   UNL     1       5.546   4.604   3.595  1.00  0.00     0.049 A 
ATOM     15  N   UNL     1       6.616   3.293   6.110  1.00  0.00    -0.248 NA
ATOM     16  C   UNL     1       5.337   1.408   5.594  1.00  0.00     0.031 C 
ATOM     17  C   UNL     1       5.082   5.234   2.357  1.00  0.00     0.029 A 
ATOM     18  N   UNL     1       6.397   5.527   4.142  1.00  0.00    -0.354 N 
ATOM     19  C   UNL     1       6.798   2.326   7.090  1.00  0.00     0.074 A 
ATOM     20  C   UNL     1       5.979   1.190   6.731  1.00  0.00     0.031 C 
ATOM     21  C   UNL     1       5.659   6.441   2.237  1.00  0.00     0.029 A 
ATOM     22  C   UNL     1       6.503   6.682   3.402  1.00  0.00     0.049 A 
ATOM     23  H   UNL     1       6.885   5.378   4.983  1.00  0.00     0.167 HD
ATOM     24  C   UNL     1       7.580   2.386   8.191  1.00  0.00     0.034 A 
ATOM     25  C   UNL     1       7.203   7.805   3.654  1.00  0.00     0.034 A 
ATOM     26  C   UNL     1       8.390   3.523   8.524  1.00  0.00     0.049 A 
ATOM     27  C   UNL     1       8.048   7.850   4.900  1.00  0.00     0.074 A 
ATOM     28  C   UNL     1       9.200   3.713   9.627  1.00  0.00     0.029 A 
ATOM     29  N   UNL     1       8.483   4.673   7.751  1.00  0.00    -0.354 N 
ATOM     30  N   UNL     1       8.255   6.910   5.792  1.00  0.00    -0.248 NA
ATOM     31  C   UNL     1       8.775   9.099   5.165  1.00  0.00     0.031 C 
ATOM     32  C   UNL     1       9.771   4.987   9.529  1.00  0.00     0.029 A 
ATOM     33  C   UNL     1       9.335   5.580   8.353  1.00  0.00     0.049 A 
ATOM     34  H   UNL     1       8.011   4.821   6.900  1.00  0.00     0.167 HD
ATOM     35  C   UNL     1       9.160   7.438   6.704  1.00  0.00     0.074 A 
ATOM     36  C   UNL     1       9.477   8.776   6.243  1.00  0.00     0.031 C 
ATOM     37  C   UNL     1       9.671   6.880   7.830  1.00  0.00     0.034 A 
BRANCH  24  38
ATOM     38  C   UNL     1       7.563   1.194   9.106  1.00  0.00     0.023 A 
ATOM     39  C   UNL     1       8.235   0.012   8.735  1.00  0.00     0.012 A 
ATOM     40  C   UNL     1       6.862   1.240  10.326  1.00  0.00     0.148 A 
ATOM     41  C   UNL     1       8.179  -1.120   9.548  1.00  0.00     0.002 A 
ATOM     42  C   UNL     1       6.841   0.119  11.149  1.00  0.00     0.091 A 
ATOM     43  F   UNL     1       6.203   2.363  10.644  1.00  0.00    -0.205 F 
ATOM     44  C   UNL     1       7.488  -1.064  10.757  1.00  0.00     0.022 A 
BRANCH  42  45
ATOM     45  S   UNL     1       6.020   0.111  12.746  1.00  0.00     0.127 S 
ATOM     46  O   UNL     1       4.855  -0.729  12.474  1.00  0.00    -0.237 OA
ATOM     47  O   UNL     1       7.029  -0.507  13.607  1.00  0.00    -0.237 OA
ATOM     48  O   UNL     1       5.732   1.504  13.055  1.00  0.00    -0.744 OA
ENDBRANCH  42  45
ENDBRANCH  24  38
BRANCH  25  49
ATOM     49  C   UNL     1       7.169   8.948   2.696  1.00  0.00     0.023 A 
ATOM     50  C   UNL     1       8.334   9.294   1.984  1.00  0.00     0.012 A 
ATOM     51  C   UNL     1       5.988   9.685   2.471  1.00  0.00     0.148 A 
ATOM     52  C   UNL     1       8.332  10.368   1.091  1.00  0.00     0.002 A 
ATOM     53  C   UNL     1       5.979  10.719   1.541  1.00  0.00     0.091 A 
ATOM     54  F   UNL     1       4.893   9.360   3.172  1.00  0.00    -0.205 F 
ATOM     55  C   UNL     1       7.154  11.073   0.862  1.00  0.00     0.022 A 
BRANCH  53  56
ATOM     56  S   UNL     1       4.475  11.598   1.099  1.00  0.00     0.127 S 
ATOM     57  O   UNL     1       4.661  12.874   1.786  1.00  0.00    -0.237 OA
ATOM     58  O   UNL     1       4.575  11.664  -0.359  1.00  0.00    -0.237 OA
ATOM     59  O   UNL     1       3.382  10.767   1.585  1.00  0.00    -0.744 OA
ENDBRANCH  53  56
ENDBRANCH  25  49
BRANCH  37  60
ATOM     60  C   UNL     1      10.654   7.698   8.621  1.00  0.00     0.023 A 
ATOM     61  C   UNL     1      10.198   8.777   9.402  1.00  0.00     0.012 A 
ATOM     62  C   UNL     1      12.015   7.338   8.659  1.00  0.00     0.148 A 
ATOM     63  C   UNL     1      11.088   9.503  10.191  1.00  0.00     0.002 A 
ATOM     64  C   UNL     1      12.887   8.035   9.485  1.00  0.00     0.091 A 
ATOM     65  F   UNL     1      12.432   6.323   7.888  1.00  0.00    -0.205 F 
ATOM     66  C   UNL     1      12.428   9.124  10.244  1.00  0.00     0.022 A 
BRANCH  64  67
ATOM     67  S   UNL     1      14.601   7.540   9.687  1.00  0.00     0.127 S 
ATOM     68  O   UNL     1      15.293   8.495   8.825  1.00  0.00    -0.237 OA
ATOM     69  O   UNL     1      14.821   7.740  11.120  1.00  0.00    -0.237 OA
ATOM     70  O   UNL     1      14.661   6.147   9.263  1.00  0.00    -0.744 OA
ENDBRANCH  64  67
ENDBRANCH  37  60
ENDBRANCH  11  12
ENDBRANCH   4   6
ENDBRANCH   3   4
ENDBRANCH   2   3
ENDBRANCH   1   2
BRANCH   1  71
ATOM     71  O   UNL     1       3.606   0.730  -1.471  1.00  0.00    -0.374 OA
BRANCH  71  72
ATOM     72  C   UNL     1       2.429   1.252  -2.083  1.00  0.00     0.202 C 
BRANCH  72  73
ATOM     73  C   UNL     1       2.810   2.053  -3.329  1.00  0.00     0.261 C 
BRANCH  73  74
ATOM     74  O   UNL     1       3.450   1.169  -4.267  1.00  0.00    -0.459 OA
BRANCH  74  75
ATOM     75  C   UNL     1       4.806   1.107  -4.168  1.00  0.00     0.357 C 
ATOM     76  O   UNL     1       5.553   1.926  -3.664  1.00  0.00    -0.244 OA
BRANCH  75  77
ATOM     77  C   UNL     1       5.214  -0.223  -4.683  1.00  0.00     0.154 A 
ATOM     78  C   UNL     1       4.651  -0.699  -5.831  1.00  0.00     0.065 A 
ATOM     79  N   UNL     1       6.074  -0.931  -3.926  1.00  0.00    -0.206 NA
ATOM     80  C   UNL     1       5.037  -1.966  -6.197  1.00  0.00     0.077 A 
ATOM     81  C   UNL     1       6.351  -2.180  -4.303  1.00  0.00     0.230 A 
ATOM     82  N   UNL     1       5.875  -2.720  -5.444  1.00  0.00    -0.213 NA
BRANCH  80  83
ATOM     83  C   UNL     1       4.524  -2.519  -7.457  1.00  0.00     0.000 A 
ATOM     84  C   UNL     1       3.820  -3.730  -7.508  1.00  0.00     0.010 A 
ATOM     85  C   UNL     1       4.622  -1.760  -8.642  1.00  0.00     0.010 A 
ATOM     86  C   UNL     1       3.194  -4.140  -8.692  1.00  0.00     0.001 A 
ATOM     87  C   UNL     1       3.998  -2.166  -9.820  1.00  0.00     0.001 A 
ATOM     88  C   UNL     1       3.274  -3.353  -9.841  1.00  0.00     0.000 A 
ENDBRANCH  80  83
BRANCH  81  89
ATOM     89  N   UNL     1       7.217  -2.960  -3.543  1.00  0.00    -0.300 N 
ATOM     90  H   UNL     1       7.546  -3.791  -3.955  1.00  0.00     0.172 HD
BRANCH  89  91
ATOM     91  C   UNL     1       7.651  -2.684  -2.292  1.00  0.00     0.190 A 
ATOM     92  N   UNL     1       6.952  -2.121  -1.329  1.00  0.00    -0.220 NA
ATOM     93  S   UNL     1       9.244  -3.159  -1.817  1.00  0.00    -0.097 S 
ATOM     94  C   UNL     1       7.725  -1.936  -0.192  1.00  0.00     0.084 A 
ATOM     95  C   UNL     1       9.032  -2.410  -0.280  1.00  0.00     0.056 A 
ATOM     96  C   UNL     1       7.312  -1.321   1.010  1.00  0.00     0.030 A 
ATOM     97  C   UNL     1       9.949  -2.257   0.777  1.00  0.00     0.021 A 
ATOM     98  C   UNL     1       8.212  -1.164   2.069  1.00  0.00     0.002 A 
ATOM     99  C   UNL     1       9.519  -1.620   1.947  1.00  0.00     0.002 A 
ENDBRANCH  89  91
ENDBRANCH  81  89
ENDBRANCH  75  77
ENDBRANCH  74  75
ENDBRANCH  73  74
ENDBRANCH  72  73
ENDBRANCH  71  72
ENDBRANCH   1  71
TORSDOF 20
