REMARK SMILES CC(=O)c1ccc(NC(=O)C[C@H](C(=O)OCCOCCOC(=O)c2ccc(-c3c4nc(c(-c5cccc(S(=O)(=O)[O-])c5F)c5ccc([nH]5)c(-c5cccc(S(=O)(=O)[O-])c5F)c5nc(c(-c6cccc(S(=O)(=O)[O-])c6F)c6ccc3[nH]6)C=C5)C=C4)cc2)[NH+](C)C)cc1
REMARK SMILES IDX 17 1 16 2 15 3 13 4 14 5 12 6 11 7 9 8 8 9 10 11 7 12 4 13
REMARK SMILES IDX 5 14 91 15 6 16 90 17 2 18 1 19 3 20 87 21 88 22 89 23 18 25
REMARK SMILES IDX 19 26 20 27 21 28 22 29 23 30 24 31 25 32 86 33 26 34 85 35
REMARK SMILES IDX 27 36 28 37 29 38 79 39 30 40 84 41 78 42 80 43 31 44 83 45
REMARK SMILES IDX 77 46 76 47 32 49 64 50 44 51 63 52 45 53 48 54 62 55 81 56
REMARK SMILES IDX 46 57 47 58 61 60 82 61 49 62 33 63 34 64 42 65 35 66 37 67
REMARK SMILES IDX 43 68 36 69 38 70 39 71 40 72 41 73 65 74 66 75 74 76 67 77
REMARK SMILES IDX 69 78 75 79 68 80 70 81 71 82 72 83 73 84 50 85 51 86 59 87
REMARK SMILES IDX 52 88 54 89 60 90 53 91 55 92 56 93 57 94 58 95
REMARK H PARENT 8 10 87 24 80 48 48 59
REMARK Flexibility Score: inf
ROOT
ATOM      1  C   UNL     1       0.402   0.532  -8.871  1.00  0.00     0.202 C 
ENDROOT
BRANCH   1   2
ATOM      2  C   UNL     1      -0.807   0.155  -8.009  1.00  0.00     0.261 C 
BRANCH   2   3
ATOM      3  O   UNL     1      -0.555  -0.848  -7.018  1.00  0.00    -0.459 OA
BRANCH   3   4
ATOM      4  C   UNL     1      -0.900  -2.112  -7.392  1.00  0.00     0.365 C 
ATOM      5  O   UNL     1      -1.243  -2.426  -8.529  1.00  0.00    -0.245 OA
BRANCH   4   6
ATOM      6  C   UNL     1      -0.887  -3.109  -6.220  1.00  0.00     0.304 C 
BRANCH   6   7
ATOM      7  C   UNL     1      -0.231  -2.588  -4.927  1.00  0.00     0.177 C 
BRANCH   7   8
ATOM      8  C   UNL     1       0.285  -3.733  -4.066  1.00  0.00     0.231 C 
ATOM      9  N   UNL     1      -0.525  -4.465  -3.238  1.00  0.00    -0.326 N 
ATOM     10  H   UNL     1      -0.079  -5.191  -2.746  1.00  0.00     0.169 HD
ATOM     11  O   UNL     1       1.457  -4.109  -4.193  1.00  0.00    -0.274 OA
BRANCH   9  12
ATOM     12  C   UNL     1      -1.899  -4.328  -2.989  1.00  0.00     0.041 A 
ATOM     13  C   UNL     1      -4.668  -4.131  -3.079  1.00  0.00     0.017 A 
ATOM     14  C   UNL     1      -3.911  -2.988  -2.823  1.00  0.00     0.014 A 
ATOM     15  C   UNL     1      -4.065  -5.388  -3.151  1.00  0.00     0.014 A 
ATOM     16  C   UNL     1      -2.517  -3.094  -2.771  1.00  0.00     0.027 A 
ATOM     17  C   UNL     1      -2.676  -5.490  -3.065  1.00  0.00     0.027 A 
BRANCH  13  18
ATOM     18  C   UNL     1      -6.083  -4.012  -3.474  1.00  0.00     0.159 C 
ATOM     19  C   UNL     1      -7.110  -3.905  -2.390  1.00  0.00     0.093 C 
ATOM     20  O   UNL     1      -6.380  -4.097  -4.663  1.00  0.00    -0.295 OA
ENDBRANCH  13  18
ENDBRANCH   9  12
ENDBRANCH   7   8
ENDBRANCH   6   7
BRANCH   6  21
ATOM     21  N   UNL     1      -2.256  -3.632  -5.972  1.00  0.00    -0.328 N 
ATOM     22  C   UNL     1      -2.530  -4.845  -6.736  1.00  0.00     0.333 C 
ATOM     23  C   UNL     1      -3.319  -2.643  -6.166  1.00  0.00     0.333 C 
ATOM     24  H   UNL     1      -2.265  -3.869  -4.980  1.00  0.00     0.348 HD
ENDBRANCH   6  21
ENDBRANCH   4   6
ENDBRANCH   3   4
ENDBRANCH   2   3
ENDBRANCH   1   2
BRANCH   1  25
ATOM     25  O   UNL     1       1.101  -0.497  -9.561  1.00  0.00    -0.374 OA
BRANCH  25  26
ATOM     26  C   UNL     1       1.905  -1.407  -8.815  1.00  0.00     0.202 C 
BRANCH  26  27
ATOM     27  C   UNL     1       3.142  -0.870  -8.090  1.00  0.00     0.261 C 
BRANCH  27  28
ATOM     28  O   UNL     1       2.825   0.089  -7.067  1.00  0.00    -0.460 OA
BRANCH  28  29
ATOM     29  C   UNL     1       3.312   1.333  -7.304  1.00  0.00     0.338 C 
ATOM     30  O   UNL     1       3.980   1.692  -8.258  1.00  0.00    -0.246 OA
BRANCH  29  31
ATOM     31  C   UNL     1       2.781   2.291  -6.319  1.00  0.00     0.060 A 
ATOM     32  C   UNL     1       2.107   3.416  -6.812  1.00  0.00     0.016 A 
ATOM     33  C   UNL     1       3.062   2.164  -4.958  1.00  0.00     0.016 A 
ATOM     34  C   UNL     1       1.770   4.456  -5.951  1.00  0.00     0.010 A 
ATOM     35  C   UNL     1       2.730   3.214  -4.097  1.00  0.00     0.010 A 
ATOM     36  C   UNL     1       2.127   4.382  -4.599  1.00  0.00    -0.014 A 
BRANCH  36  37
ATOM     37  C   UNL     1       2.024   5.593  -3.753  1.00  0.00     0.031 A 
ATOM     38  C   UNL     1       3.253   6.433  -3.535  1.00  0.00     0.074 A 
ATOM     39  C   UNL     1       0.851   5.945  -3.199  1.00  0.00     0.049 A 
ATOM     40  N   UNL     1       3.395   7.524  -2.829  1.00  0.00    -0.248 NA
ATOM     41  C   UNL     1       4.487   5.983  -4.201  1.00  0.00     0.031 C 
ATOM     42  C   UNL     1      -0.405   5.214  -3.351  1.00  0.00     0.029 A 
ATOM     43  N   UNL     1       0.535   6.997  -2.379  1.00  0.00    -0.354 N 
ATOM     44  C   UNL     1       4.734   7.878  -2.944  1.00  0.00     0.074 A 
ATOM     45  C   UNL     1       5.367   6.879  -3.778  1.00  0.00     0.031 C 
ATOM     46  C   UNL     1      -1.355   5.826  -2.623  1.00  0.00     0.029 A 
ATOM     47  C   UNL     1      -0.768   6.978  -1.941  1.00  0.00     0.049 A 
ATOM     48  H   UNL     1       1.178   7.699  -2.128  1.00  0.00     0.167 HD
ATOM     49  C   UNL     1       5.376   8.948  -2.419  1.00  0.00     0.034 A 
ATOM     50  C   UNL     1      -1.406   7.791  -1.075  1.00  0.00     0.034 A 
ATOM     51  C   UNL     1       4.739   9.950  -1.609  1.00  0.00     0.049 A 
ATOM     52  C   UNL     1      -0.662   8.959  -0.482  1.00  0.00     0.074 A 
ATOM     53  C   UNL     1       5.289  11.097  -1.066  1.00  0.00     0.029 A 
ATOM     54  N   UNL     1       3.410   9.919  -1.216  1.00  0.00    -0.354 N 
ATOM     55  N   UNL     1       0.571   9.350  -0.699  1.00  0.00    -0.248 NA
ATOM     56  C   UNL     1      -1.407   9.818   0.451  1.00  0.00     0.031 C 
ATOM     57  C   UNL     1       4.296  11.750  -0.328  1.00  0.00     0.029 A 
ATOM     58  C   UNL     1       3.123  11.019  -0.427  1.00  0.00     0.049 A 
ATOM     59  H   UNL     1       2.765   9.217  -1.461  1.00  0.00     0.167 HD
ATOM     60  C   UNL     1       0.739  10.517   0.039  1.00  0.00     0.074 A 
ATOM     61  C   UNL     1      -0.525  10.779   0.696  1.00  0.00     0.031 C 
ATOM     62  C   UNL     1       1.842  11.294   0.173  1.00  0.00     0.034 A 
BRANCH  49  63
ATOM     63  C   UNL     1       6.840   9.105  -2.732  1.00  0.00     0.023 A 
ATOM     64  C   UNL     1       7.234   9.523  -4.019  1.00  0.00     0.012 A 
ATOM     65  C   UNL     1       7.821   8.882  -1.747  1.00  0.00     0.148 A 
ATOM     66  C   UNL     1       8.583   9.688  -4.330  1.00  0.00     0.002 A 
ATOM     67  C   UNL     1       9.162   9.087  -2.053  1.00  0.00     0.091 A 
ATOM     68  F   UNL     1       7.429   8.458  -0.537  1.00  0.00    -0.205 F 
ATOM     69  C   UNL     1       9.545   9.481  -3.345  1.00  0.00     0.022 A 
BRANCH  67  70
ATOM     70  S   UNL     1      10.466   8.912  -0.830  1.00  0.00     0.127 S 
ATOM     71  O   UNL     1      11.069   7.638  -1.221  1.00  0.00    -0.237 OA
ATOM     72  O   UNL     1      11.299  10.086  -1.092  1.00  0.00    -0.237 OA
ATOM     73  O   UNL     1       9.800   8.921   0.466  1.00  0.00    -0.744 OA
ENDBRANCH  67  70
ENDBRANCH  49  63
BRANCH  50  74
ATOM     74  C   UNL     1      -2.841   7.553  -0.754  1.00  0.00     0.023 A 
ATOM     75  C   UNL     1      -3.813   8.460  -1.215  1.00  0.00     0.012 A 
ATOM     76  C   UNL     1      -3.250   6.420  -0.023  1.00  0.00     0.148 A 
ATOM     77  C   UNL     1      -5.165   8.259  -0.932  1.00  0.00     0.002 A 
ATOM     78  C   UNL     1      -4.602   6.196   0.209  1.00  0.00     0.091 A 
ATOM     79  F   UNL     1      -2.308   5.578   0.426  1.00  0.00    -0.205 F 
ATOM     80  C   UNL     1      -5.561   7.122  -0.231  1.00  0.00     0.022 A 
BRANCH  78  81
ATOM     81  S   UNL     1      -5.205   4.692   0.985  1.00  0.00     0.127 S 
ATOM     82  O   UNL     1      -5.595   5.173   2.308  1.00  0.00    -0.237 OA
ATOM     83  O   UNL     1      -6.319   4.322   0.111  1.00  0.00    -0.237 OA
ATOM     84  O   UNL     1      -4.087   3.759   0.951  1.00  0.00    -0.744 OA
ENDBRANCH  78  81
ENDBRANCH  50  74
BRANCH  62  85
ATOM     85  C   UNL     1       1.732  12.522   1.039  1.00  0.00     0.023 A 
ATOM     86  C   UNL     1       1.695  12.385   2.440  1.00  0.00     0.012 A 
ATOM     87  C   UNL     1       1.751  13.810   0.469  1.00  0.00     0.148 A 
ATOM     88  C   UNL     1       1.649  13.512   3.261  1.00  0.00     0.002 A 
ATOM     89  C   UNL     1       1.752  14.929   1.294  1.00  0.00     0.091 A 
ATOM     90  F   UNL     1       1.768  13.919  -0.868  1.00  0.00    -0.205 F 
ATOM     91  C   UNL     1       1.690  14.782   2.689  1.00  0.00     0.022 A 
BRANCH  89  92
ATOM     92  S   UNL     1       1.897  16.599   0.647  1.00  0.00     0.127 S 
ATOM     93  O   UNL     1       0.529  17.093   0.787  1.00  0.00    -0.237 OA
ATOM     94  O   UNL     1       2.862  17.207   1.564  1.00  0.00    -0.237 OA
ATOM     95  O   UNL     1       2.376  16.455  -0.721  1.00  0.00    -0.744 OA
ENDBRANCH  89  92
ENDBRANCH  62  85
ENDBRANCH  36  37
ENDBRANCH  29  31
ENDBRANCH  28  29
ENDBRANCH  27  28
ENDBRANCH  26  27
ENDBRANCH  25  26
ENDBRANCH   1  25
TORSDOF 22
