REMARK SMILES O=C(OCCOCCOC(=O)c1ccc(-c2ccc(Cl)c3ccccc23)o1)c1ccc(-c2c3nc(c(-c4cccc(S(=O)(=O)[O-])c4F)c4ccc([nH]4)c(-c4cccc(S(=O)(=O)[O-])c4F)c4nc(c(-c5cccc(S(=O)(=O)[O-])c5F)c5ccc2[nH]5)C=C4)C=C3)cc1
REMARK SMILES IDX 5 1 4 2 3 3 2 4 1 5 28 6 29 7 90 8 30 9 89 10 31 11 32 12
REMARK SMILES IDX 33 13 83 14 34 15 88 16 82 17 84 18 35 19 87 20 81 21 80 22
REMARK SMILES IDX 36 24 68 25 48 26 67 27 49 28 52 29 66 30 85 31 50 32 51 33
REMARK SMILES IDX 65 35 86 36 53 37 37 38 38 39 46 40 39 41 41 42 47 43 40 44
REMARK SMILES IDX 42 45 43 46 44 47 45 48 69 49 70 50 78 51 71 52 73 53 79 54
REMARK SMILES IDX 72 55 74 56 75 57 76 58 77 59 54 60 55 61 63 62 56 63 58 64
REMARK SMILES IDX 64 65 57 66 59 67 60 68 61 69 62 70 6 71 7 72 8 73 9 74
REMARK SMILES IDX 10 75 11 76 12 77 13 78 27 79 14 80 15 81 16 82 17 83 26 84
REMARK SMILES IDX 18 85 21 86 25 87 19 88 22 89 24 90 20 91 23 92
REMARK H PARENT 84 23 52 34
REMARK Flexibility Score: inf
ROOT
ATOM      1  C   UNL     1       4.410  -1.479   1.005  1.00  0.00     0.202 C 
ENDROOT
BRANCH   1   2
ATOM      2  C   UNL     1       4.156  -0.009   1.347  1.00  0.00     0.261 C 
BRANCH   2   3
ATOM      3  O   UNL     1       2.758   0.288   1.183  1.00  0.00    -0.460 OA
BRANCH   3   4
ATOM      4  C   UNL     1       2.143   0.990   0.205  1.00  0.00     0.338 C 
ATOM      5  O   UNL     1       0.929   1.167   0.299  1.00  0.00    -0.246 OA
BRANCH   4   6
ATOM      6  C   UNL     1       2.849   1.573  -0.979  1.00  0.00     0.060 A 
ATOM      7  C   UNL     1       4.026   1.077  -1.547  1.00  0.00     0.016 A 
ATOM      8  C   UNL     1       2.213   2.650  -1.620  1.00  0.00     0.016 A 
ATOM      9  C   UNL     1       4.596   1.664  -2.672  1.00  0.00     0.010 A 
ATOM     10  C   UNL     1       2.758   3.223  -2.772  1.00  0.00     0.010 A 
ATOM     11  C   UNL     1       3.966   2.741  -3.287  1.00  0.00    -0.014 A 
BRANCH  11  12
ATOM     12  C   UNL     1       4.620   3.404  -4.427  1.00  0.00     0.031 A 
ATOM     13  C   UNL     1       5.311   4.710  -4.194  1.00  0.00     0.074 A 
ATOM     14  C   UNL     1       4.599   2.824  -5.638  1.00  0.00     0.049 A 
ATOM     15  N   UNL     1       5.876   5.509  -5.055  1.00  0.00    -0.248 NA
ATOM     16  C   UNL     1       5.375   5.177  -2.798  1.00  0.00     0.031 C 
ATOM     17  C   UNL     1       3.986   1.529  -5.938  1.00  0.00     0.029 A 
ATOM     18  N   UNL     1       5.084   3.255  -6.844  1.00  0.00    -0.354 N 
ATOM     19  C   UNL     1       6.319   6.597  -4.317  1.00  0.00     0.074 A 
ATOM     20  C   UNL     1       5.972   6.351  -2.935  1.00  0.00     0.031 C 
ATOM     21  C   UNL     1       4.104   1.284  -7.252  1.00  0.00     0.029 A 
ATOM     22  C   UNL     1       4.760   2.422  -7.889  1.00  0.00     0.049 A 
ATOM     23  H   UNL     1       5.612   4.079  -6.952  1.00  0.00     0.167 HD
ATOM     24  C   UNL     1       6.955   7.705  -4.760  1.00  0.00     0.034 A 
ATOM     25  C   UNL     1       4.939   2.587  -9.214  1.00  0.00     0.034 A 
ATOM     26  C   UNL     1       7.295   7.921  -6.138  1.00  0.00     0.049 A 
ATOM     27  C   UNL     1       5.638   3.833  -9.688  1.00  0.00     0.074 A 
ATOM     28  C   UNL     1       7.937   9.002  -6.710  1.00  0.00     0.029 A 
ATOM     29  N   UNL     1       7.004   7.032  -7.165  1.00  0.00    -0.354 N 
ATOM     30  N   UNL     1       6.116   4.827  -8.976  1.00  0.00    -0.248 NA
ATOM     31  C   UNL     1       5.845   3.976 -11.135  1.00  0.00     0.031 C 
ATOM     32  C   UNL     1       8.019   8.774  -8.088  1.00  0.00     0.029 A 
ATOM     33  C   UNL     1       7.445   7.542  -8.371  1.00  0.00     0.049 A 
ATOM     34  H   UNL     1       6.551   6.166  -7.050  1.00  0.00     0.167 HD
ATOM     35  C   UNL     1       6.699   5.704  -9.882  1.00  0.00     0.074 A 
ATOM     36  C   UNL     1       6.528   5.114 -11.196  1.00  0.00     0.031 C 
ATOM     37  C   UNL     1       7.304   6.896  -9.653  1.00  0.00     0.034 A 
BRANCH  24  38
ATOM     38  C   UNL     1       7.296   8.750  -3.736  1.00  0.00     0.023 A 
ATOM     39  C   UNL     1       8.357   8.530  -2.835  1.00  0.00     0.012 A 
ATOM     40  C   UNL     1       6.541   9.934  -3.639  1.00  0.00     0.148 A 
ATOM     41  C   UNL     1       8.636   9.453  -1.827  1.00  0.00     0.002 A 
ATOM     42  C   UNL     1       6.846  10.866  -2.654  1.00  0.00     0.091 A 
ATOM     43  F   UNL     1       5.511  10.109  -4.480  1.00  0.00    -0.205 F 
ATOM     44  C   UNL     1       7.884  10.623  -1.740  1.00  0.00     0.022 A 
BRANCH  42  45
ATOM     45  S   UNL     1       5.956  12.418  -2.504  1.00  0.00     0.127 S 
ATOM     46  O   UNL     1       5.024  12.122  -1.417  1.00  0.00    -0.237 OA
ATOM     47  O   UNL     1       7.021  13.359  -2.152  1.00  0.00    -0.237 OA
ATOM     48  O   UNL     1       5.356  12.654  -3.809  1.00  0.00    -0.744 OA
ENDBRANCH  42  45
ENDBRANCH  24  38
BRANCH  25  49
ATOM     49  C   UNL     1       4.458   1.536 -10.155  1.00  0.00     0.023 A 
ATOM     50  C   UNL     1       5.388   0.725 -10.831  1.00  0.00     0.012 A 
ATOM     51  C   UNL     1       3.080   1.276 -10.311  1.00  0.00     0.148 A 
ATOM     52  C   UNL     1       4.956  -0.320 -11.651  1.00  0.00     0.002 A 
ATOM     53  C   UNL     1       2.659   0.200 -11.084  1.00  0.00     0.091 A 
ATOM     54  F   UNL     1       2.209   2.070  -9.673  1.00  0.00    -0.205 F 
ATOM     55  C   UNL     1       3.595  -0.592 -11.765  1.00  0.00     0.022 A 
BRANCH  53  56
ATOM     56  S   UNL     1       0.937  -0.310 -11.168  1.00  0.00     0.127 S 
ATOM     57  O   UNL     1       0.581   0.064 -12.534  1.00  0.00    -0.237 OA
ATOM     58  O   UNL     1       1.035  -1.750 -10.928  1.00  0.00    -0.237 OA
ATOM     59  O   UNL     1       0.257   0.427 -10.111  1.00  0.00    -0.744 OA
ENDBRANCH  53  56
ENDBRANCH  25  49
BRANCH  37  60
ATOM     60  C   UNL     1       7.851   7.640 -10.839  1.00  0.00     0.023 A 
ATOM     61  C   UNL     1       6.974   8.363 -11.668  1.00  0.00     0.012 A 
ATOM     62  C   UNL     1       9.242   7.735 -11.040  1.00  0.00     0.148 A 
ATOM     63  C   UNL     1       7.474   9.169 -12.689  1.00  0.00     0.002 A 
ATOM     64  C   UNL     1       9.734   8.574 -12.031  1.00  0.00     0.091 A 
ATOM     65  F   UNL     1      10.053   7.021 -10.247  1.00  0.00    -0.205 F 
ATOM     66  C   UNL     1       8.852   9.287 -12.860  1.00  0.00     0.022 A 
BRANCH  64  67
ATOM     67  S   UNL     1      11.492   8.867 -12.256  1.00  0.00     0.127 S 
ATOM     68  O   UNL     1      11.752   8.165 -13.512  1.00  0.00    -0.237 OA
ATOM     69  O   UNL     1      11.554  10.326 -12.347  1.00  0.00    -0.237 OA
ATOM     70  O   UNL     1      12.146   8.307 -11.081  1.00  0.00    -0.744 OA
ENDBRANCH  64  67
ENDBRANCH  37  60
ENDBRANCH  11  12
ENDBRANCH   4   6
ENDBRANCH   3   4
ENDBRANCH   2   3
ENDBRANCH   1   2
BRANCH   1  71
ATOM     71  O   UNL     1       4.165  -1.803  -0.363  1.00  0.00    -0.374 OA
BRANCH  71  72
ATOM     72  C   UNL     1       2.824  -2.187  -0.690  1.00  0.00     0.202 C 
BRANCH  72  73
ATOM     73  C   UNL     1       2.862  -3.501  -1.478  1.00  0.00     0.261 C 
BRANCH  73  74
ATOM     74  O   UNL     1       3.315  -4.542  -0.596  1.00  0.00    -0.457 OA
BRANCH  74  75
ATOM     75  C   UNL     1       4.673  -4.613  -0.452  1.00  0.00     0.374 C 
ATOM     76  O   UNL     1       5.490  -4.315  -1.314  1.00  0.00    -0.242 OA
BRANCH  75  77
ATOM     77  C   UNL     1       4.960  -4.966   0.918  1.00  0.00     0.212 A 
ATOM     78  C   UNL     1       4.175  -5.534   1.907  1.00  0.00     0.059 A 
ATOM     79  O   UNL     1       6.176  -4.615   1.450  1.00  0.00    -0.449 OA
ATOM     80  C   UNL     1       4.931  -5.503   3.099  1.00  0.00     0.052 A 
ATOM     81  C   UNL     1       6.135  -4.915   2.776  1.00  0.00     0.135 A 
BRANCH  81  82
ATOM     82  C   UNL     1       7.323  -4.597   3.552  1.00  0.00     0.025 A 
ATOM     83  C   UNL     1       8.391  -5.500   3.471  1.00  0.00     0.014 A 
ATOM     84  C   UNL     1       7.387  -3.477   4.429  1.00  0.00    -0.006 A 
ATOM     85  C   UNL     1       9.504  -5.346   4.286  1.00  0.00     0.022 A 
ATOM     86  C   UNL     1       8.521  -3.325   5.275  1.00  0.00     0.001 A 
ATOM     87  C   UNL     1       6.366  -2.495   4.499  1.00  0.00     0.009 A 
ATOM     88  C   UNL     1       9.562  -4.284   5.190  1.00  0.00     0.048 A 
ATOM     89  C   UNL     1       8.557  -2.224   6.165  1.00  0.00     0.010 A 
ATOM     90  C   UNL     1       6.439  -1.409   5.373  1.00  0.00     0.001 A 
ATOM     91  Cl  UNL     1      10.968  -4.214   6.205  1.00  0.00    -0.084 Cl
ATOM     92  C   UNL     1       7.532  -1.279   6.214  1.00  0.00     0.001 A 
ENDBRANCH  81  82
ENDBRANCH  75  77
ENDBRANCH  74  75
ENDBRANCH  73  74
ENDBRANCH  72  73
ENDBRANCH  71  72
ENDBRANCH   1  71
TORSDOF 18
