REMARK SMILES CC(C)CCc1cc2c(cc1Cl)C=C(C(=O)OCCOCCOC(=O)c1ccc(-c3c4nc(c(-c5cccc(S(=O)(=O)[O-])c5F)c5ccc([nH]5)c(-c5cccc(S(=O)(=O)[O-])c5F)c5nc(c(-c6cccc(S(=O)(=O)[O-])c6F)c6ccc3[nH]6)C=C5)C=C4)cc1)[C@@H](C(F)(F)F)O2
REMARK SMILES IDX 20 1 19 2 18 3 17 4 15 5 16 6 14 7 6 8 7 9 11 10 8 11 10 12
REMARK SMILES IDX 12 13 9 14 94 15 13 16 89 17 5 18 4 19 2 20 1 21 3 22 90 23
REMARK SMILES IDX 91 24 92 25 93 26 21 27 22 28 23 29 24 30 25 31 26 32 27 33
REMARK SMILES IDX 88 34 28 35 87 36 29 37 30 38 31 39 81 40 32 41 86 42 80 43
REMARK SMILES IDX 82 44 33 45 85 46 79 47 78 48 34 50 66 51 46 52 65 53 47 54
REMARK SMILES IDX 50 55 64 56 83 57 48 58 49 59 63 61 84 62 51 63 35 64 36 65
REMARK SMILES IDX 44 66 37 67 39 68 45 69 38 70 40 71 41 72 42 73 43 74 67 75
REMARK SMILES IDX 68 76 76 77 69 78 71 79 77 80 70 81 72 82 73 83 74 84 75 85
REMARK SMILES IDX 52 86 53 87 61 88 54 89 56 90 62 91 55 92 57 93 58 94 59 95
REMARK SMILES IDX 60 96
REMARK H PARENT 82 49 50 60
REMARK Flexibility Score: inf
ROOT
ATOM      1  O   UNL     1       0.270   2.643  11.102  1.00  0.00    -0.374 OA
ENDROOT
BRANCH   1   2
ATOM      2  C   UNL     1       0.761   3.981  11.143  1.00  0.00     0.202 C 
BRANCH   2   3
ATOM      3  C   UNL     1       1.695   4.435  10.016  1.00  0.00     0.261 C 
BRANCH   3   4
ATOM      4  O   UNL     1       1.112   4.241   8.719  1.00  0.00    -0.460 OA
BRANCH   4   5
ATOM      5  C   UNL     1       1.674   3.243   7.998  1.00  0.00     0.338 C 
ATOM      6  O   UNL     1       2.659   2.586   8.293  1.00  0.00    -0.246 OA
BRANCH   5   7
ATOM      7  C   UNL     1       0.827   2.941   6.828  1.00  0.00     0.087 C 
ATOM      8  C   UNL     1      -1.116   0.657   2.811  1.00  0.00    -0.026 A 
ATOM      9  C   UNL     1      -1.151   1.975   3.310  1.00  0.00     0.052 A 
ATOM     10  C   UNL     1      -0.614  -0.353   3.649  1.00  0.00     0.045 A 
ATOM     11  C   UNL     1      -0.588   2.293   4.546  1.00  0.00     0.128 A 
ATOM     12  C   UNL     1      -0.068  -0.035   4.895  1.00  0.00     0.032 A 
ATOM     13  Cl  UNL     1      -0.609  -2.022   3.198  1.00  0.00    -0.084 Cl
ATOM     14  C   UNL     1      -0.015   1.292   5.324  1.00  0.00     0.019 A 
ATOM     15  O   UNL     1      -0.629   3.608   4.914  1.00  0.00    -0.475 OA
ATOM     16  C   UNL     1       0.693   1.640   6.538  1.00  0.00     0.027 C 
ATOM     17  C   UNL     1       0.198   4.050   6.031  1.00  0.00     0.316 C 
BRANCH   8  18
ATOM     18  C   UNL     1      -1.592   0.392   1.399  1.00  0.00     0.037 C 
BRANCH  18  19
ATOM     19  C   UNL     1      -0.953   1.298   0.328  1.00  0.00     0.008 C 
BRANCH  19  20
ATOM     20  C   UNL     1       0.590   1.286   0.279  1.00  0.00    -0.017 C 
ATOM     21  C   UNL     1       1.154  -0.084  -0.097  1.00  0.00     0.007 C 
ATOM     22  C   UNL     1       1.083   2.339  -0.719  1.00  0.00     0.007 C 
ENDBRANCH  19  20
ENDBRANCH  18  19
ENDBRANCH   8  18
BRANCH  17  23
ATOM     23  C   UNL     1       1.234   5.055   5.505  1.00  0.00     0.430 C 
ATOM     24  F   UNL     1       0.651   6.000   4.730  1.00  0.00    -0.167 F 
ATOM     25  F   UNL     1       1.860   5.705   6.512  1.00  0.00    -0.167 F 
ATOM     26  F   UNL     1       2.186   4.449   4.759  1.00  0.00    -0.167 F 
ENDBRANCH  17  23
ENDBRANCH   5   7
ENDBRANCH   4   5
ENDBRANCH   3   4
ENDBRANCH   2   3
ENDBRANCH   1   2
BRANCH   1  27
ATOM     27  C   UNL     1      -0.762   2.323  10.172  1.00  0.00     0.202 C 
BRANCH  27  28
ATOM     28  C   UNL     1      -2.170   2.887  10.403  1.00  0.00     0.261 C 
BRANCH  28  29
ATOM     29  O   UNL     1      -2.225   4.319  10.320  1.00  0.00    -0.460 OA
BRANCH  29  30
ATOM     30  C   UNL     1      -2.435   4.950  11.505  1.00  0.00     0.338 C 
ATOM     31  O   UNL     1      -2.601   4.427  12.596  1.00  0.00    -0.246 OA
BRANCH  30  32
ATOM     32  C   UNL     1      -2.228   6.398  11.323  1.00  0.00     0.060 A 
ATOM     33  C   UNL     1      -2.970   7.119  10.388  1.00  0.00     0.016 A 
ATOM     34  C   UNL     1      -1.286   7.042  12.136  1.00  0.00     0.016 A 
ATOM     35  C   UNL     1      -2.779   8.499  10.283  1.00  0.00     0.010 A 
ATOM     36  C   UNL     1      -1.095   8.419  12.027  1.00  0.00     0.010 A 
ATOM     37  C   UNL     1      -1.852   9.161  11.111  1.00  0.00    -0.014 A 
BRANCH  37  38
ATOM     38  C   UNL     1      -1.774  10.642  11.105  1.00  0.00     0.031 A 
ATOM     39  C   UNL     1      -0.601  11.366  10.512  1.00  0.00     0.074 A 
ATOM     40  C   UNL     1      -2.776  11.337  11.676  1.00  0.00     0.049 A 
ATOM     41  N   UNL     1      -0.423  12.654  10.376  1.00  0.00    -0.248 NA
ATOM     42  C   UNL     1       0.514  10.548  10.011  1.00  0.00     0.031 C 
ATOM     43  C   UNL     1      -3.937  10.742  12.342  1.00  0.00     0.029 A 
ATOM     44  N   UNL     1      -2.981  12.688  11.794  1.00  0.00    -0.354 N 
ATOM     45  C   UNL     1       0.822  12.808   9.782  1.00  0.00     0.074 A 
ATOM     46  C   UNL     1       1.367  11.479   9.599  1.00  0.00     0.031 C 
ATOM     47  C   UNL     1      -4.741  11.722  12.781  1.00  0.00     0.029 A 
ATOM     48  C   UNL     1      -4.145  13.013  12.449  1.00  0.00     0.049 A 
ATOM     49  H   UNL     1      -2.353  13.361  11.444  1.00  0.00     0.167 HD
ATOM     50  C   UNL     1       1.440  13.951   9.404  1.00  0.00     0.034 A 
ATOM     51  C   UNL     1      -4.680  14.212  12.747  1.00  0.00     0.034 A 
ATOM     52  C   UNL     1       0.888  15.269   9.576  1.00  0.00     0.049 A 
ATOM     53  C   UNL     1      -3.977  15.464  12.310  1.00  0.00     0.074 A 
ATOM     54  C   UNL     1       1.421  16.479   9.164  1.00  0.00     0.029 A 
ATOM     55  N   UNL     1      -0.304  15.556  10.219  1.00  0.00    -0.354 N 
ATOM     56  N   UNL     1      -2.861  15.582  11.633  1.00  0.00    -0.248 NA
ATOM     57  C   UNL     1      -4.614  16.745  12.650  1.00  0.00     0.031 C 
ATOM     58  C   UNL     1       0.562  17.499   9.578  1.00  0.00     0.029 A 
ATOM     59  C   UNL     1      -0.520  16.923  10.224  1.00  0.00     0.049 A 
ATOM     60  H   UNL     1      -0.909  14.887  10.614  1.00  0.00     0.167 HD
ATOM     61  C   UNL     1      -2.675  16.946  11.443  1.00  0.00     0.074 A 
ATOM     62  C   UNL     1      -3.796  17.615  12.069  1.00  0.00     0.031 C 
ATOM     63  C   UNL     1      -1.659  17.580  10.811  1.00  0.00     0.034 A 
BRANCH  50  64
ATOM     64  C   UNL     1       2.767  13.847   8.706  1.00  0.00     0.023 A 
ATOM     65  C   UNL     1       2.797  13.489   7.343  1.00  0.00     0.012 A 
ATOM     66  C   UNL     1       3.959  14.232   9.350  1.00  0.00     0.148 A 
ATOM     67  C   UNL     1       3.995  13.511   6.632  1.00  0.00     0.002 A 
ATOM     68  C   UNL     1       5.145  14.278   8.627  1.00  0.00     0.091 A 
ATOM     69  F   UNL     1       3.903  14.564  10.648  1.00  0.00    -0.205 F 
ATOM     70  C   UNL     1       5.165  13.916   7.270  1.00  0.00     0.022 A 
BRANCH  68  71
ATOM     71  S   UNL     1       6.698  14.834   9.338  1.00  0.00     0.127 S 
ATOM     72  O   UNL     1       7.509  13.619   9.257  1.00  0.00    -0.237 OA
ATOM     73  O   UNL     1       7.096  15.895   8.413  1.00  0.00    -0.237 OA
ATOM     74  O   UNL     1       6.389  15.280  10.689  1.00  0.00    -0.744 OA
ENDBRANCH  68  71
ENDBRANCH  50  64
BRANCH  51  75
ATOM     75  C   UNL     1      -5.993  14.266  13.442  1.00  0.00     0.023 A 
ATOM     76  C   UNL     1      -7.149  14.589  12.708  1.00  0.00     0.012 A 
ATOM     77  C   UNL     1      -6.108  13.922  14.803  1.00  0.00     0.148 A 
ATOM     78  C   UNL     1      -8.402  14.573  13.319  1.00  0.00     0.002 A 
ATOM     79  C   UNL     1      -7.363  13.873  15.396  1.00  0.00     0.091 A 
ATOM     80  F   UNL     1      -4.990  13.616  15.474  1.00  0.00    -0.205 F 
ATOM     81  C   UNL     1      -8.511  14.206  14.659  1.00  0.00     0.022 A 
BRANCH  79  82
ATOM     82  S   UNL     1      -7.615  13.325  17.087  1.00  0.00     0.127 S 
ATOM     83  O   UNL     1      -8.182  14.521  17.706  1.00  0.00    -0.237 OA
ATOM     84  O   UNL     1      -8.556  12.220  16.904  1.00  0.00    -0.237 OA
ATOM     85  O   UNL     1      -6.302  12.932  17.578  1.00  0.00    -0.744 OA
ENDBRANCH  79  82
ENDBRANCH  51  75
BRANCH  63  86
ATOM     86  C   UNL     1      -1.696  19.081  10.729  1.00  0.00     0.023 A 
ATOM     87  C   UNL     1      -1.327  19.848  11.850  1.00  0.00     0.012 A 
ATOM     88  C   UNL     1      -1.959  19.722   9.502  1.00  0.00     0.148 A 
ATOM     89  C   UNL     1      -1.221  21.235  11.752  1.00  0.00     0.002 A 
ATOM     90  C   UNL     1      -1.818  21.101   9.403  1.00  0.00     0.091 A 
ATOM     91  F   UNL     1      -2.314  18.967   8.452  1.00  0.00    -0.205 F 
ATOM     92  C   UNL     1      -1.453  21.859  10.527  1.00  0.00     0.022 A 
BRANCH  90  93
ATOM     93  S   UNL     1      -2.027  21.988   7.855  1.00  0.00     0.127 S 
ATOM     94  O   UNL     1      -3.195  22.819   8.144  1.00  0.00    -0.237 OA
ATOM     95  O   UNL     1      -0.766  22.721   7.748  1.00  0.00    -0.237 OA
ATOM     96  O   UNL     1      -2.232  20.973   6.829  1.00  0.00    -0.744 OA
ENDBRANCH  90  93
ENDBRANCH  63  86
ENDBRANCH  37  38
ENDBRANCH  30  32
ENDBRANCH  29  30
ENDBRANCH  28  29
ENDBRANCH  27  28
ENDBRANCH   1  27
TORSDOF 21
