REMARK SMILES C[C@H]1OCC[C@@H]1C(=O)Nc1sc2c(c1C(=O)OCCOCCOC(=O)c1ccc(-c3c4nc(c(-c5cccc(S(=O)(=O)[O-])c5F)c5ccc([nH]5)c(-c5cccc(S(=O)(=O)[O-])c5F)c5nc(c(-c6cccc(S(=O)(=O)[O-])c6F)c6ccc3[nH]6)C=C5)C=C4)cc1)CCC2
REMARK SMILES IDX 21 1 20 2 19 3 18 4 17 5 15 6 16 7 14 8 10 9 11 10 12 11
REMARK SMILES IDX 13 12 91 13 89 14 90 15 9 16 7 17 8 18 6 20 1 21 2 22 3 23
REMARK SMILES IDX 4 24 5 25 22 26 23 27 24 28 25 29 26 30 27 31 88 32 28 33
REMARK SMILES IDX 87 34 29 35 30 36 31 37 81 38 32 39 86 40 80 41 82 42 33 43
REMARK SMILES IDX 85 44 79 45 78 46 34 48 66 49 46 50 65 51 47 52 50 53 64 54
REMARK SMILES IDX 83 55 48 56 49 57 63 59 84 60 51 61 35 62 36 63 44 64 37 65
REMARK SMILES IDX 39 66 45 67 38 68 40 69 41 70 42 71 43 72 67 73 68 74 76 75
REMARK SMILES IDX 69 76 71 77 77 78 70 79 72 80 73 81 74 82 75 83 52 84 53 85
REMARK SMILES IDX 61 86 54 87 56 88 62 89 55 90 57 91 58 92 59 93 60 94
REMARK H PARENT 9 19 82 47 50 58
REMARK Flexibility Score: inf
ROOT
ATOM      1  C   UNL     1      -2.059  -0.998  -2.334  1.00  0.00     0.202 C 
ENDROOT
BRANCH   1   2
ATOM      2  O   UNL     1      -3.423  -0.767  -2.656  1.00  0.00    -0.374 OA
BRANCH   2   3
ATOM      3  C   UNL     1      -4.095   0.141  -1.752  1.00  0.00     0.202 C 
BRANCH   3   4
ATOM      4  C   UNL     1      -4.418  -0.458  -0.361  1.00  0.00     0.261 C 
BRANCH   4   5
ATOM      5  O   UNL     1      -3.504  -0.005   0.683  1.00  0.00    -0.460 OA
BRANCH   5   6
ATOM      6  C   UNL     1      -3.434  -0.806   1.807  1.00  0.00     0.341 C 
ATOM      7  O   UNL     1      -4.081  -1.839   1.934  1.00  0.00    -0.246 OA
BRANCH   6   8
ATOM      8  C   UNL     1      -2.481  -0.348   2.834  1.00  0.00     0.098 A 
ATOM      9  C   UNL     1      -1.413  -1.101   3.333  1.00  0.00     0.110 A 
ATOM     10  S   UNL     1      -0.663  -0.429   4.725  1.00  0.00    -0.122 S 
ATOM     11  C   UNL     1      -1.488   0.990   4.473  1.00  0.00     0.011 A 
ATOM     12  C   UNL     1      -2.414   0.938   3.463  1.00  0.00    -0.017 A 
ATOM     13  C   UNL     1      -1.350   2.306   5.133  1.00  0.00     0.047 C 
ATOM     14  C   UNL     1      -3.061   2.268   3.301  1.00  0.00     0.038 C 
ATOM     15  C   UNL     1      -2.111   3.207   4.120  1.00  0.00     0.010 C 
BRANCH   9  16
ATOM     16  N   UNL     1      -0.861  -2.316   2.996  1.00  0.00    -0.317 N 
ATOM     17  C   UNL     1       0.295  -2.443   2.266  1.00  0.00     0.230 C 
ATOM     18  O   UNL     1       1.020  -3.412   2.535  1.00  0.00    -0.274 OA
ATOM     19  H   UNL     1      -1.318  -3.136   3.293  1.00  0.00     0.170 HD
BRANCH  17  20
ATOM     20  C   UNL     1       0.698  -1.543   1.107  1.00  0.00     0.110 C 
ATOM     21  C   UNL     1       2.680  -0.244   0.269  1.00  0.00     0.039 C 
ATOM     22  C   UNL     1       1.596  -0.342   1.348  1.00  0.00     0.127 C 
ATOM     23  O   UNL     1       0.800   0.843   1.208  1.00  0.00    -0.378 OA
ATOM     24  C   UNL     1      -0.398   0.521   0.521  1.00  0.00     0.161 C 
ATOM     25  C   UNL     1      -0.424  -0.979   0.314  1.00  0.00     0.044 C 
ENDBRANCH  17  20
ENDBRANCH   9  16
ENDBRANCH   6   8
ENDBRANCH   5   6
ENDBRANCH   4   5
ENDBRANCH   3   4
ENDBRANCH   2   3
ENDBRANCH   1   2
BRANCH   1  26
ATOM     26  C   UNL     1      -1.002  -0.245  -3.144  1.00  0.00     0.261 C 
BRANCH  26  27
ATOM     27  O   UNL     1      -1.108   1.137  -2.854  1.00  0.00    -0.460 OA
BRANCH  27  28
ATOM     28  C   UNL     1      -2.047   1.783  -3.570  1.00  0.00     0.338 C 
ATOM     29  O   UNL     1      -2.771   1.330  -4.447  1.00  0.00    -0.246 OA
BRANCH  28  30
ATOM     30  C   UNL     1      -1.891   3.193  -3.251  1.00  0.00     0.060 A 
ATOM     31  C   UNL     1      -2.044   4.026  -4.347  1.00  0.00     0.016 A 
ATOM     32  C   UNL     1      -1.295   3.612  -2.044  1.00  0.00     0.016 A 
ATOM     33  C   UNL     1      -1.351   5.201  -4.329  1.00  0.00     0.010 A 
ATOM     34  C   UNL     1      -0.626   4.813  -2.017  1.00  0.00     0.010 A 
ATOM     35  C   UNL     1      -0.595   5.548  -3.192  1.00  0.00    -0.014 A 
BRANCH  35  36
ATOM     36  C   UNL     1       0.030   6.847  -3.254  1.00  0.00     0.031 A 
ATOM     37  C   UNL     1      -1.007   7.896  -3.369  1.00  0.00     0.074 A 
ATOM     38  C   UNL     1       1.356   7.052  -3.280  1.00  0.00     0.049 A 
ATOM     39  N   UNL     1      -1.337   8.525  -4.446  1.00  0.00    -0.248 NA
ATOM     40  C   UNL     1      -1.974   8.023  -2.268  1.00  0.00     0.031 C 
ATOM     41  C   UNL     1       2.442   6.137  -2.936  1.00  0.00     0.029 A 
ATOM     42  N   UNL     1       2.004   8.214  -3.540  1.00  0.00    -0.354 N 
ATOM     43  C   UNL     1      -2.422   9.312  -4.086  1.00  0.00     0.074 A 
ATOM     44  C   UNL     1      -2.903   8.790  -2.837  1.00  0.00     0.031 C 
ATOM     45  C   UNL     1       3.576   6.857  -2.752  1.00  0.00     0.029 A 
ATOM     46  C   UNL     1       3.320   8.245  -3.101  1.00  0.00     0.049 A 
ATOM     47  H   UNL     1       1.577   8.972  -4.001  1.00  0.00     0.167 HD
ATOM     48  C   UNL     1      -2.632  10.502  -4.707  1.00  0.00     0.034 A 
ATOM     49  C   UNL     1       4.075   9.364  -2.956  1.00  0.00     0.034 A 
ATOM     50  C   UNL     1      -1.974  10.530  -5.993  1.00  0.00     0.049 A 
ATOM     51  C   UNL     1       3.451  10.424  -3.788  1.00  0.00     0.074 A 
ATOM     52  C   UNL     1      -2.068   9.780  -7.149  1.00  0.00     0.029 A 
ATOM     53  N   UNL     1      -0.761  11.174  -6.056  1.00  0.00    -0.354 N 
ATOM     54  N   UNL     1       3.431  10.392  -5.091  1.00  0.00    -0.248 NA
ATOM     55  C   UNL     1       2.451  11.278  -3.166  1.00  0.00     0.031 C 
ATOM     56  C   UNL     1      -0.728   9.654  -7.620  1.00  0.00     0.029 A 
ATOM     57  C   UNL     1       0.102  10.389  -6.772  1.00  0.00     0.049 A 
ATOM     58  H   UNL     1      -0.550  12.048  -5.655  1.00  0.00     0.167 HD
ATOM     59  C   UNL     1       2.153  10.824  -5.424  1.00  0.00     0.074 A 
ATOM     60  C   UNL     1       1.631  11.447  -4.208  1.00  0.00     0.031 C 
ATOM     61  C   UNL     1       1.532  10.372  -6.553  1.00  0.00     0.034 A 
BRANCH  48  62
ATOM     62  C   UNL     1      -3.012  11.766  -3.964  1.00  0.00     0.023 A 
ATOM     63  C   UNL     1      -3.123  12.942  -4.738  1.00  0.00     0.012 A 
ATOM     64  C   UNL     1      -2.974  11.934  -2.558  1.00  0.00     0.148 A 
ATOM     65  C   UNL     1      -3.092  14.211  -4.152  1.00  0.00     0.002 A 
ATOM     66  C   UNL     1      -3.007  13.193  -1.976  1.00  0.00     0.091 A 
ATOM     67  F   UNL     1      -2.793  10.891  -1.750  1.00  0.00    -0.205 F 
ATOM     68  C   UNL     1      -3.028  14.338  -2.770  1.00  0.00     0.022 A 
BRANCH  66  69
ATOM     69  S   UNL     1      -2.959  13.407  -0.189  1.00  0.00     0.127 S 
ATOM     70  O   UNL     1      -1.641  14.008  -0.003  1.00  0.00    -0.237 OA
ATOM     71  O   UNL     1      -4.091  14.308   0.027  1.00  0.00    -0.237 OA
ATOM     72  O   UNL     1      -3.137  12.078   0.383  1.00  0.00    -0.744 OA
ENDBRANCH  66  69
ENDBRANCH  48  62
BRANCH  49  73
ATOM     73  C   UNL     1       5.091   9.703  -1.930  1.00  0.00     0.023 A 
ATOM     74  C   UNL     1       5.935  10.815  -2.138  1.00  0.00     0.012 A 
ATOM     75  C   UNL     1       5.027   9.153  -0.631  1.00  0.00     0.148 A 
ATOM     76  C   UNL     1       6.649  11.390  -1.080  1.00  0.00     0.002 A 
ATOM     77  C   UNL     1       5.740   9.728   0.417  1.00  0.00     0.091 A 
ATOM     78  F   UNL     1       4.191   8.133  -0.400  1.00  0.00    -0.205 F 
ATOM     79  C   UNL     1       6.542  10.855   0.200  1.00  0.00     0.022 A 
BRANCH  77  80
ATOM     80  S   UNL     1       5.614   9.119   2.105  1.00  0.00     0.127 S 
ATOM     81  O   UNL     1       7.018   9.051   2.509  1.00  0.00    -0.237 OA
ATOM     82  O   UNL     1       4.841  10.177   2.749  1.00  0.00    -0.237 OA
ATOM     83  O   UNL     1       4.954   7.823   2.011  1.00  0.00    -0.744 OA
ENDBRANCH  77  80
ENDBRANCH  49  73
BRANCH  61  84
ATOM     84  C   UNL     1       2.357   9.603  -7.554  1.00  0.00     0.023 A 
ATOM     85  C   UNL     1       2.979   8.372  -7.255  1.00  0.00     0.012 A 
ATOM     86  C   UNL     1       2.380  10.070  -8.878  1.00  0.00     0.148 A 
ATOM     87  C   UNL     1       3.631   7.639  -8.253  1.00  0.00     0.002 A 
ATOM     88  C   UNL     1       2.985   9.316  -9.875  1.00  0.00     0.091 A 
ATOM     89  F   UNL     1       1.786  11.243  -9.146  1.00  0.00    -0.205 F 
ATOM     90  C   UNL     1       3.622   8.105  -9.566  1.00  0.00     0.022 A 
BRANCH  88  91
ATOM     91  S   UNL     1       2.894   9.811 -11.596  1.00  0.00     0.127 S 
ATOM     92  O   UNL     1       4.236  10.339 -11.833  1.00  0.00    -0.237 OA
ATOM     93  O   UNL     1       2.605   8.545 -12.273  1.00  0.00    -0.237 OA
ATOM     94  O   UNL     1       1.812  10.785 -11.675  1.00  0.00    -0.744 OA
ENDBRANCH  88  91
ENDBRANCH  61  84
ENDBRANCH  35  36
ENDBRANCH  28  30
ENDBRANCH  27  28
ENDBRANCH  26  27
ENDBRANCH   1  26
TORSDOF 19
