REMARK SMILES Cc1c(NCc2ccccn2)cccc1C(=O)N1CCOC[C@@H]1CC(=O)OCCOCCOC(=O)c1ccc(-c2c3nc(c(-c4cccc(S(=O)(=O)[O-])c4F)c4ccc([nH]4)c(-c4cccc(S(=O)(=O)[O-])c4F)c4nc(c(-c5cccc(S(=O)(=O)[O-])c5F)c5ccc2[nH]5)C=C4)C=C3)cc1
REMARK SMILES IDX 28 1 27 2 25 3 26 4 24 5 23 6 18 7 19 8 20 9 22 10 21 11
REMARK SMILES IDX 16 12 17 13 15 14 1 15 2 16 3 17 12 18 14 19 13 20 4 21 5 23
REMARK SMILES IDX 6 24 7 25 11 26 8 27 10 28 9 29 29 30 30 31 31 32 32 33
REMARK SMILES IDX 33 34 34 35 35 36 36 37 37 38 98 39 38 40 97 41 39 42 40 43
REMARK SMILES IDX 41 44 91 45 42 46 96 47 90 48 92 49 43 50 95 51 89 52 88 53
REMARK SMILES IDX 44 55 76 56 56 57 75 58 57 59 60 60 74 61 93 62 58 63 59 64
REMARK SMILES IDX 73 66 94 67 61 68 45 69 46 70 54 71 47 72 49 73 55 74 48 75
REMARK SMILES IDX 50 76 51 77 52 78 53 79 77 80 78 81 86 82 79 83 81 84 87 85
REMARK SMILES IDX 80 86 82 87 83 88 84 89 85 90 62 91 63 92 71 93 64 94 66 95
REMARK SMILES IDX 72 96 65 97 67 98 68 99 69 100 70 101
REMARK H PARENT 4 22 92 54 60 65
REMARK Flexibility Score: inf
ROOT
ATOM      1  C   UNL     1       0.916   1.192   1.800  1.00  0.00     0.261 C 
ENDROOT
BRANCH   1   2
ATOM      2  O   UNL     1       1.064   2.478   1.203  1.00  0.00    -0.463 OA
BRANCH   2   3
ATOM      3  C   UNL     1       1.844   3.390   1.830  1.00  0.00     0.308 C 
ATOM      4  O   UNL     1       2.034   3.533   3.018  1.00  0.00    -0.252 OA
BRANCH   3   5
ATOM      5  C   UNL     1       2.550   4.182   0.778  1.00  0.00     0.150 C 
BRANCH   5   6
ATOM      6  C   UNL     1       3.527   3.378  -0.106  1.00  0.00     0.122 C 
ATOM      7  N   UNL     1       3.105   2.178  -0.920  1.00  0.00    -0.330 N 
ATOM      8  C   UNL     1       4.182   1.751  -1.806  1.00  0.00     0.148 C 
ATOM      9  C   UNL     1       5.487   1.497  -1.047  1.00  0.00     0.181 C 
ATOM     10  C   UNL     1       4.788   2.957   0.693  1.00  0.00     0.185 C 
ATOM     11  O   UNL     1       5.854   2.603  -0.212  1.00  0.00    -0.377 OA
BRANCH   7  12
ATOM     12  C   UNL     1       1.818   1.964  -1.415  1.00  0.00     0.254 C 
ATOM     13  O   UNL     1       1.086   2.926  -1.657  1.00  0.00    -0.269 OA
BRANCH  12  14
ATOM     14  C   UNL     1       1.265   0.533  -1.613  1.00  0.00     0.045 A 
ATOM     15  C   UNL     1       3.080  -0.981  -0.612  1.00  0.00     0.047 C 
ATOM     16  C   UNL     1       1.648  -0.661  -0.935  1.00  0.00    -0.015 A 
ATOM     17  C   UNL     1       0.700  -1.714  -0.743  1.00  0.00     0.038 A 
ATOM     18  C   UNL     1      -0.527  -1.634  -1.404  1.00  0.00     0.026 A 
ATOM     19  C   UNL     1       0.090   0.478  -2.379  1.00  0.00     0.014 A 
ATOM     20  C   UNL     1      -0.789  -0.601  -2.295  1.00  0.00     0.003 A 
BRANCH  17  21
ATOM     21  N   UNL     1       1.050  -2.851  -0.019  1.00  0.00    -0.379 N 
ATOM     22  H   UNL     1       1.813  -2.779   0.600  1.00  0.00     0.160 HD
BRANCH  21  23
ATOM     23  C   UNL     1       0.370  -4.147  -0.106  1.00  0.00     0.169 C 
BRANCH  23  24
ATOM     24  C   UNL     1       0.628  -4.913  -1.403  1.00  0.00     0.059 A 
ATOM     25  C   UNL     1       1.009  -4.281  -2.589  1.00  0.00     0.026 A 
ATOM     26  N   UNL     1       0.411  -6.256  -1.374  1.00  0.00    -0.259 NA
ATOM     27  C   UNL     1       1.140  -5.009  -3.765  1.00  0.00     0.004 A 
ATOM     28  C   UNL     1       0.560  -6.945  -2.528  1.00  0.00     0.111 A 
ATOM     29  C   UNL     1       0.912  -6.372  -3.738  1.00  0.00     0.020 A 
ENDBRANCH  23  24
ENDBRANCH  21  23
ENDBRANCH  17  21
ENDBRANCH  12  14
ENDBRANCH   7  12
ENDBRANCH   5   6
ENDBRANCH   3   5
ENDBRANCH   2   3
ENDBRANCH   1   2
BRANCH   1  30
ATOM     30  C   UNL     1       2.244   0.547   2.135  1.00  0.00     0.202 C 
BRANCH  30  31
ATOM     31  O   UNL     1       2.698   1.023   3.383  1.00  0.00    -0.374 OA
BRANCH  31  32
ATOM     32  C   UNL     1       3.959   0.608   3.853  1.00  0.00     0.202 C 
BRANCH  32  33
ATOM     33  C   UNL     1       4.322  -0.860   3.615  1.00  0.00     0.261 C 
BRANCH  33  34
ATOM     34  O   UNL     1       3.591  -1.928   4.308  1.00  0.00    -0.460 OA
BRANCH  34  35
ATOM     35  C   UNL     1       2.301  -2.339   4.125  1.00  0.00     0.338 C 
ATOM     36  O   UNL     1       2.025  -3.460   3.714  1.00  0.00    -0.246 OA
BRANCH  35  37
ATOM     37  C   UNL     1       1.239  -1.413   4.593  1.00  0.00     0.060 A 
ATOM     38  C   UNL     1      -0.067  -1.486   4.075  1.00  0.00     0.016 A 
ATOM     39  C   UNL     1       1.572  -0.378   5.446  1.00  0.00     0.016 A 
ATOM     40  C   UNL     1      -0.953  -0.408   4.230  1.00  0.00     0.010 A 
ATOM     41  C   UNL     1       0.765   0.748   5.447  1.00  0.00     0.010 A 
ATOM     42  C   UNL     1      -0.496   0.763   4.811  1.00  0.00    -0.014 A 
BRANCH  42  43
ATOM     43  C   UNL     1      -1.215   2.049   4.878  1.00  0.00     0.031 A 
ATOM     44  C   UNL     1      -1.450   2.550   6.260  1.00  0.00     0.074 A 
ATOM     45  C   UNL     1      -1.291   2.963   3.869  1.00  0.00     0.049 A 
ATOM     46  N   UNL     1      -1.900   3.720   6.546  1.00  0.00    -0.248 NA
ATOM     47  C   UNL     1      -1.219   1.728   7.451  1.00  0.00     0.031 C 
ATOM     48  C   UNL     1      -1.013   4.393   4.034  1.00  0.00     0.029 A 
ATOM     49  N   UNL     1      -1.730   2.882   2.539  1.00  0.00    -0.354 N 
ATOM     50  C   UNL     1      -1.688   3.923   7.887  1.00  0.00     0.074 A 
ATOM     51  C   UNL     1      -1.397   2.622   8.425  1.00  0.00     0.031 C 
ATOM     52  C   UNL     1      -1.449   5.072   2.970  1.00  0.00     0.029 A 
ATOM     53  C   UNL     1      -2.173   4.155   2.126  1.00  0.00     0.049 A 
ATOM     54  H   UNL     1      -1.728   2.069   1.984  1.00  0.00     0.167 HD
ATOM     55  C   UNL     1      -1.657   5.203   8.340  1.00  0.00     0.034 A 
ATOM     56  C   UNL     1      -3.334   4.428   1.464  1.00  0.00     0.034 A 
ATOM     57  C   UNL     1      -2.112   6.138   7.297  1.00  0.00     0.049 A 
ATOM     58  C   UNL     1      -4.174   5.493   2.069  1.00  0.00     0.074 A 
ATOM     59  C   UNL     1      -1.473   7.037   6.463  1.00  0.00     0.029 A 
ATOM     60  N   UNL     1      -3.417   6.030   6.828  1.00  0.00    -0.354 N 
ATOM     61  N   UNL     1      -3.796   6.221   3.075  1.00  0.00    -0.248 NA
ATOM     62  C   UNL     1      -5.561   5.739   1.683  1.00  0.00     0.031 C 
ATOM     63  C   UNL     1      -2.408   7.453   5.474  1.00  0.00     0.029 A 
ATOM     64  C   UNL     1      -3.625   6.835   5.719  1.00  0.00     0.049 A 
ATOM     65  H   UNL     1      -4.106   5.455   7.233  1.00  0.00     0.167 HD
ATOM     66  C   UNL     1      -4.929   6.639   3.713  1.00  0.00     0.074 A 
ATOM     67  C   UNL     1      -5.964   6.513   2.702  1.00  0.00     0.031 C 
ATOM     68  C   UNL     1      -4.937   6.855   5.063  1.00  0.00     0.034 A 
BRANCH  55  69
ATOM     69  C   UNL     1      -1.108   5.680   9.671  1.00  0.00     0.023 A 
ATOM     70  C   UNL     1      -1.177   7.071   9.912  1.00  0.00     0.012 A 
ATOM     71  C   UNL     1      -0.469   4.911  10.675  1.00  0.00     0.148 A 
ATOM     72  C   UNL     1      -0.652   7.665  11.064  1.00  0.00     0.002 A 
ATOM     73  C   UNL     1       0.005   5.495  11.854  1.00  0.00     0.091 A 
ATOM     74  F   UNL     1      -0.235   3.613  10.487  1.00  0.00    -0.205 F 
ATOM     75  C   UNL     1      -0.075   6.875  12.045  1.00  0.00     0.022 A 
BRANCH  73  76
ATOM     76  S   UNL     1       0.747   4.535  13.190  1.00  0.00     0.127 S 
ATOM     77  O   UNL     1       2.091   5.108  13.271  1.00  0.00    -0.237 OA
ATOM     78  O   UNL     1      -0.118   4.856  14.324  1.00  0.00    -0.237 OA
ATOM     79  O   UNL     1       0.707   3.138  12.773  1.00  0.00    -0.744 OA
ENDBRANCH  73  76
ENDBRANCH  55  69
BRANCH  56  80
ATOM     80  C   UNL     1      -3.843   3.369   0.560  1.00  0.00     0.023 A 
ATOM     81  C   UNL     1      -3.108   3.361  -0.632  1.00  0.00     0.012 A 
ATOM     82  C   UNL     1      -4.287   2.164   1.139  1.00  0.00     0.148 A 
ATOM     83  C   UNL     1      -2.425   2.206  -0.945  1.00  0.00     0.002 A 
ATOM     84  C   UNL     1      -3.653   0.995   0.767  1.00  0.00     0.091 A 
ATOM     85  F   UNL     1      -5.188   2.216   2.128  1.00  0.00    -0.205 F 
ATOM     86  C   UNL     1      -2.641   1.055  -0.192  1.00  0.00     0.022 A 
BRANCH  84  87
ATOM     87  S   UNL     1      -3.908  -0.566   1.608  1.00  0.00     0.127 S 
ATOM     88  O   UNL     1      -4.913  -1.198   0.758  1.00  0.00    -0.237 OA
ATOM     89  O   UNL     1      -2.587  -1.197   1.542  1.00  0.00    -0.237 OA
ATOM     90  O   UNL     1      -4.335  -0.215   2.954  1.00  0.00    -0.744 OA
ENDBRANCH  84  87
ENDBRANCH  56  80
BRANCH  68  91
ATOM     91  C   UNL     1      -6.204   7.032   5.876  1.00  0.00     0.023 A 
ATOM     92  C   UNL     1      -7.469   6.605   5.425  1.00  0.00     0.012 A 
ATOM     93  C   UNL     1      -6.148   7.560   7.187  1.00  0.00     0.148 A 
ATOM     94  C   UNL     1      -8.634   6.809   6.169  1.00  0.00     0.002 A 
ATOM     95  C   UNL     1      -7.290   7.631   7.978  1.00  0.00     0.091 A 
ATOM     96  F   UNL     1      -4.989   8.027   7.672  1.00  0.00    -0.205 F 
ATOM     97  C   UNL     1      -8.543   7.309   7.456  1.00  0.00     0.022 A 
BRANCH  95  98
ATOM     98  S   UNL     1      -7.171   7.995   9.732  1.00  0.00     0.127 S 
ATOM     99  O   UNL     1      -7.417   9.434   9.757  1.00  0.00    -0.237 OA
ATOM    100  O   UNL     1      -8.252   7.181  10.292  1.00  0.00    -0.237 OA
ATOM    101  O   UNL     1      -5.836   7.559  10.117  1.00  0.00    -0.744 OA
ENDBRANCH  95  98
ENDBRANCH  68  91
ENDBRANCH  42  43
ENDBRANCH  35  37
ENDBRANCH  34  35
ENDBRANCH  33  34
ENDBRANCH  32  33
ENDBRANCH  31  32
ENDBRANCH  30  31
ENDBRANCH   1  30
TORSDOF 23
