REMARK SMILES CC(=O)c1nnn(-c2ccc(C(=O)OCCOCCOC(=O)c3ccc(-c4c5nc(c(-c6cccc(S(=O)(=O)[O-])c6F)c6ccc([nH]6)c(-c6cccc(S(=O)(=O)[O-])c6F)c6nc(c(-c7cccc(S(=O)(=O)[O-])c7F)c7ccc4[nH]7)C=C6)C=C5)cc3)cc2)c1C
REMARK SMILES IDX 18 1 17 2 16 3 15 4 14 5 12 6 13 7 11 8 8 9 9 10 87 11 10 12
REMARK SMILES IDX 86 13 7 14 4 15 5 16 88 17 6 18 89 19 2 20 1 21 3 22 19 23
REMARK SMILES IDX 20 24 21 25 22 26 23 27 24 28 85 29 25 30 84 31 26 32 27 33
REMARK SMILES IDX 28 34 78 35 29 36 83 37 77 38 79 39 30 40 82 41 76 42 75 43
REMARK SMILES IDX 31 45 63 46 43 47 62 48 44 49 47 50 61 51 80 52 45 53 46 54
REMARK SMILES IDX 60 56 81 57 48 58 32 59 33 60 41 61 34 62 36 63 42 64 35 65
REMARK SMILES IDX 37 66 38 67 39 68 40 69 64 70 65 71 73 72 66 73 68 74 74 75
REMARK SMILES IDX 67 76 69 77 70 78 71 79 72 80 49 81 50 82 58 83 51 84 53 85
REMARK SMILES IDX 59 86 52 87 54 88 55 89 56 90 57 91
REMARK H PARENT 79 44 47 55
REMARK Flexibility Score: inf
ROOT
ATOM      1  C   UNL     1       6.945   1.961   9.388  1.00  0.00     0.202 C 
ENDROOT
BRANCH   1   2
ATOM      2  O   UNL     1       8.324   1.620   9.496  1.00  0.00    -0.374 OA
BRANCH   2   3
ATOM      3  C   UNL     1       9.269   2.127   8.554  1.00  0.00     0.202 C 
BRANCH   3   4
ATOM      4  C   UNL     1       9.204   1.625   7.112  1.00  0.00     0.261 C 
BRANCH   4   5
ATOM      5  O   UNL     1       7.979   1.989   6.462  1.00  0.00    -0.460 OA
BRANCH   5   6
ATOM      6  C   UNL     1       7.129   0.956   6.257  1.00  0.00     0.338 C 
ATOM      7  O   UNL     1       7.325  -0.222   6.508  1.00  0.00    -0.246 OA
BRANCH   6   8
ATOM      8  C   UNL     1       5.820   1.450   5.787  1.00  0.00     0.060 A 
ATOM      9  C   UNL     1       3.374   1.941   4.597  1.00  0.00     0.067 A 
ATOM     10  C   UNL     1       3.431   1.052   5.673  1.00  0.00     0.029 A 
ATOM     11  C   UNL     1       4.490   2.709   4.236  1.00  0.00     0.029 A 
ATOM     12  C   UNL     1       4.671   0.786   6.247  1.00  0.00     0.018 A 
ATOM     13  C   UNL     1       5.722   2.469   4.839  1.00  0.00     0.018 A 
BRANCH   9  14
ATOM     14  N   UNL     1       2.249   1.896   3.744  1.00  0.00    -0.217 N 
ATOM     15  C   UNL     1       0.921   1.583   2.041  1.00  0.00     0.151 A 
ATOM     16  N   UNL     1       0.169   1.720   3.179  1.00  0.00    -0.126 NA
ATOM     17  C   UNL     1       2.265   1.633   2.377  1.00  0.00     0.073 A 
ATOM     18  N   UNL     1       0.991   1.785   4.217  1.00  0.00    -0.061 NA
ATOM     19  C   UNL     1       3.503   1.363   1.604  1.00  0.00     0.069 C 
BRANCH  15  20
ATOM     20  C   UNL     1       0.302   1.321   0.749  1.00  0.00     0.181 C 
ATOM     21  C   UNL     1       0.704   0.066   0.012  1.00  0.00     0.095 C 
ATOM     22  O   UNL     1      -0.570   2.054   0.285  1.00  0.00    -0.293 OA
ENDBRANCH  15  20
ENDBRANCH   9  14
ENDBRANCH   6   8
ENDBRANCH   5   6
ENDBRANCH   4   5
ENDBRANCH   3   4
ENDBRANCH   2   3
ENDBRANCH   1   2
BRANCH   1  23
ATOM     23  C   UNL     1       6.513   3.394   9.657  1.00  0.00     0.261 C 
BRANCH  23  24
ATOM     24  O   UNL     1       7.170   4.316   8.807  1.00  0.00    -0.460 OA
BRANCH  24  25
ATOM     25  C   UNL     1       8.192   4.967   9.410  1.00  0.00     0.338 C 
ATOM     26  O   UNL     1       8.758   4.654  10.442  1.00  0.00    -0.246 OA
BRANCH  25  27
ATOM     27  C   UNL     1       8.416   6.228   8.701  1.00  0.00     0.060 A 
ATOM     28  C   UNL     1       9.313   7.103   9.314  1.00  0.00     0.016 A 
ATOM     29  C   UNL     1       7.490   6.647   7.734  1.00  0.00     0.016 A 
ATOM     30  C   UNL     1       9.087   8.448   9.171  1.00  0.00     0.010 A 
ATOM     31  C   UNL     1       7.249   7.990   7.612  1.00  0.00     0.010 A 
ATOM     32  C   UNL     1       7.987   8.857   8.410  1.00  0.00    -0.014 A 
BRANCH  32  33
ATOM     33  C   UNL     1       7.671  10.260   8.403  1.00  0.00     0.031 A 
ATOM     34  C   UNL     1       8.555  11.015   7.500  1.00  0.00     0.074 A 
ATOM     35  C   UNL     1       6.645  10.777   9.099  1.00  0.00     0.049 A 
ATOM     36  N   UNL     1       9.573  11.732   7.835  1.00  0.00    -0.248 NA
ATOM     37  C   UNL     1       8.445  10.744   6.060  1.00  0.00     0.031 C 
ATOM     38  C   UNL     1       5.548  10.073   9.766  1.00  0.00     0.029 A 
ATOM     39  N   UNL     1       6.303  12.082   9.231  1.00  0.00    -0.354 N 
ATOM     40  C   UNL     1      10.070  12.216   6.633  1.00  0.00     0.074 A 
ATOM     41  C   UNL     1       9.527  11.373   5.602  1.00  0.00     0.031 C 
ATOM     42  C   UNL     1       4.544  10.952   9.997  1.00  0.00     0.029 A 
ATOM     43  C   UNL     1       4.985  12.284   9.614  1.00  0.00     0.049 A 
ATOM     44  H   UNL     1       6.934  12.821   9.069  1.00  0.00     0.167 HD
ATOM     45  C   UNL     1      10.624  13.454   6.557  1.00  0.00     0.034 A 
ATOM     46  C   UNL     1       4.303  13.451   9.505  1.00  0.00     0.034 A 
ATOM     47  C   UNL     1      10.913  13.984   7.866  1.00  0.00     0.049 A 
ATOM     48  C   UNL     1       5.308  14.538   9.376  1.00  0.00     0.074 A 
ATOM     49  C   UNL     1      11.685  13.580   8.937  1.00  0.00     0.029 A 
ATOM     50  N   UNL     1      10.027  14.913   8.360  1.00  0.00    -0.354 N 
ATOM     51  N   UNL     1       6.120  14.882  10.336  1.00  0.00    -0.248 NA
ATOM     52  C   UNL     1       5.720  14.936   8.038  1.00  0.00     0.031 C 
ATOM     53  C   UNL     1      10.933  13.944  10.092  1.00  0.00     0.029 A 
ATOM     54  C   UNL     1       9.775  14.600   9.668  1.00  0.00     0.049 A 
ATOM     55  H   UNL     1       9.642  15.669   7.861  1.00  0.00     0.167 HD
ATOM     56  C   UNL     1       7.333  15.110   9.697  1.00  0.00     0.074 A 
ATOM     57  C   UNL     1       6.998  15.240   8.280  1.00  0.00     0.031 C 
ATOM     58  C   UNL     1       8.518  14.869  10.333  1.00  0.00     0.034 A 
BRANCH  45  59
ATOM     59  C   UNL     1      10.533  14.353   5.349  1.00  0.00     0.023 A 
ATOM     60  C   UNL     1      11.312  15.529   5.369  1.00  0.00     0.012 A 
ATOM     61  C   UNL     1       9.546  14.254   4.340  1.00  0.00     0.148 A 
ATOM     62  C   UNL     1      11.084  16.572   4.468  1.00  0.00     0.002 A 
ATOM     63  C   UNL     1       9.385  15.253   3.391  1.00  0.00     0.091 A 
ATOM     64  F   UNL     1       8.651  13.264   4.365  1.00  0.00    -0.205 F 
ATOM     65  C   UNL     1      10.127  16.431   3.471  1.00  0.00     0.022 A 
BRANCH  63  66
ATOM     66  S   UNL     1       8.198  15.090   2.051  1.00  0.00     0.127 S 
ATOM     67  O   UNL     1       7.161  16.031   2.463  1.00  0.00    -0.237 OA
ATOM     68  O   UNL     1       8.994  15.505   0.897  1.00  0.00    -0.237 OA
ATOM     69  O   UNL     1       7.816  13.683   2.034  1.00  0.00    -0.744 OA
ENDBRANCH  63  66
ENDBRANCH  45  59
BRANCH  46  70
ATOM     70  C   UNL     1       2.873  13.674   9.192  1.00  0.00     0.023 A 
ATOM     71  C   UNL     1       2.288  14.926   9.468  1.00  0.00     0.012 A 
ATOM     72  C   UNL     1       2.160  12.773   8.370  1.00  0.00     0.148 A 
ATOM     73  C   UNL     1       1.051  15.282   8.916  1.00  0.00     0.002 A 
ATOM     74  C   UNL     1       0.928  13.128   7.829  1.00  0.00     0.091 A 
ATOM     75  F   UNL     1       2.733  11.609   8.038  1.00  0.00    -0.205 F 
ATOM     76  C   UNL     1       0.375  14.387   8.090  1.00  0.00     0.022 A 
BRANCH  74  77
ATOM     77  S   UNL     1       0.017  12.036   6.729  1.00  0.00     0.127 S 
ATOM     78  O   UNL     1      -1.322  12.062   7.319  1.00  0.00    -0.237 OA
ATOM     79  O   UNL     1       0.138  12.730   5.449  1.00  0.00    -0.237 OA
ATOM     80  O   UNL     1       0.683  10.742   6.811  1.00  0.00    -0.744 OA
ENDBRANCH  74  77
ENDBRANCH  46  70
BRANCH  58  81
ATOM     81  C   UNL     1       8.486  14.613  11.818  1.00  0.00     0.023 A 
ATOM     82  C   UNL     1       7.836  13.494  12.382  1.00  0.00     0.012 A 
ATOM     83  C   UNL     1       9.281  15.424  12.644  1.00  0.00     0.148 A 
ATOM     84  C   UNL     1       7.961  13.205  13.743  1.00  0.00     0.002 A 
ATOM     85  C   UNL     1       9.442  15.106  13.987  1.00  0.00     0.091 A 
ATOM     86  F   UNL     1       9.895  16.481  12.092  1.00  0.00    -0.205 F 
ATOM     87  C   UNL     1       8.775  14.003  14.543  1.00  0.00     0.022 A 
BRANCH  85  88
ATOM     88  S   UNL     1      10.579  16.017  15.031  1.00  0.00     0.127 S 
ATOM     89  O   UNL     1       9.670  16.829  15.838  1.00  0.00    -0.237 OA
ATOM     90  O   UNL     1      11.259  14.948  15.765  1.00  0.00    -0.237 OA
ATOM     91  O   UNL     1      11.448  16.759  14.125  1.00  0.00    -0.744 OA
ENDBRANCH  85  88
ENDBRANCH  58  81
ENDBRANCH  32  33
ENDBRANCH  25  27
ENDBRANCH  24  25
ENDBRANCH  23  24
ENDBRANCH   1  23
TORSDOF 19
