REMARK SMILES O=C(OCCOCCOC(=O)[C@@H]1CCCN1S(=O)(=O)c1ccc2c3c(cccc13)C(=O)N2)c1ccc(-c2c3nc(c(-c4cccc(S(=O)(=O)[O-])c4F)c4ccc([nH]4)c(-c4cccc(S(=O)(=O)[O-])c4F)c4nc(c(-c5cccc(S(=O)(=O)[O-])c5F)c5ccc2[nH]5)C=C4)C=C3)cc1
REMARK SMILES IDX 5 1 4 2 3 3 2 4 1 5 33 6 34 7 95 8 35 9 94 10 36 11 37 12
REMARK SMILES IDX 38 13 88 14 39 15 93 16 87 17 89 18 40 19 92 20 86 21 85 22
REMARK SMILES IDX 41 24 73 25 53 26 72 27 54 28 57 29 71 30 90 31 55 32 56 33
REMARK SMILES IDX 70 35 91 36 58 37 42 38 43 39 51 40 44 41 46 42 52 43 45 44
REMARK SMILES IDX 47 45 48 46 49 47 50 48 74 49 75 50 83 51 76 52 78 53 84 54
REMARK SMILES IDX 77 55 79 56 80 57 81 58 82 59 59 60 60 61 68 62 61 63 63 64
REMARK SMILES IDX 69 65 62 66 64 67 65 68 66 69 67 70 6 71 7 72 8 73 9 74
REMARK SMILES IDX 10 75 11 76 12 77 13 78 16 79 14 80 15 81 17 82 18 83 19 84
REMARK SMILES IDX 20 85 21 86 29 87 22 88 24 89 28 90 23 91 25 92 27 93 32 94
REMARK SMILES IDX 26 95 30 96 31 98
REMARK H PARENT 89 23 57 34 32 97
REMARK Flexibility Score: inf
ROOT
ATOM      1  C   UNL     1       5.495  -1.940   0.036  1.00  0.00     0.202 C 
ENDROOT
BRANCH   1   2
ATOM      2  C   UNL     1       5.574  -0.758   1.026  1.00  0.00     0.261 C 
BRANCH   2   3
ATOM      3  O   UNL     1       4.456   0.145   0.949  1.00  0.00    -0.460 OA
BRANCH   3   4
ATOM      4  C   UNL     1       4.622   1.367   0.385  1.00  0.00     0.338 C 
ATOM      5  O   UNL     1       4.482   2.418   0.987  1.00  0.00    -0.246 OA
BRANCH   4   6
ATOM      6  C   UNL     1       4.648   1.286  -1.088  1.00  0.00     0.060 A 
ATOM      7  C   UNL     1       5.661   0.586  -1.733  1.00  0.00     0.016 A 
ATOM      8  C   UNL     1       3.673   1.949  -1.838  1.00  0.00     0.016 A 
ATOM      9  C   UNL     1       5.630   0.410  -3.100  1.00  0.00     0.010 A 
ATOM     10  C   UNL     1       3.662   1.837  -3.230  1.00  0.00     0.010 A 
ATOM     11  C   UNL     1       4.667   1.088  -3.855  1.00  0.00    -0.014 A 
BRANCH  11  12
ATOM     12  C   UNL     1       5.083   1.353  -5.242  1.00  0.00     0.031 A 
ATOM     13  C   UNL     1       6.016   2.522  -5.417  1.00  0.00     0.074 A 
ATOM     14  C   UNL     1       4.868   0.445  -6.207  1.00  0.00     0.049 A 
ATOM     15  N   UNL     1       6.777   2.825  -6.429  1.00  0.00    -0.248 NA
ATOM     16  C   UNL     1       6.164   3.435  -4.262  1.00  0.00     0.031 C 
ATOM     17  C   UNL     1       4.055  -0.765  -6.072  1.00  0.00     0.029 A 
ATOM     18  N   UNL     1       5.366   0.376  -7.479  1.00  0.00    -0.354 N 
ATOM     19  C   UNL     1       7.492   3.947  -6.027  1.00  0.00     0.074 A 
ATOM     20  C   UNL     1       7.082   4.283  -4.689  1.00  0.00     0.031 C 
ATOM     21  C   UNL     1       4.123  -1.467  -7.219  1.00  0.00     0.029 A 
ATOM     22  C   UNL     1       4.984  -0.755  -8.160  1.00  0.00     0.049 A 
ATOM     23  H   UNL     1       5.943   1.071  -7.870  1.00  0.00     0.167 HD
ATOM     24  C   UNL     1       8.436   4.625  -6.710  1.00  0.00     0.034 A 
ATOM     25  C   UNL     1       5.320  -1.163  -9.400  1.00  0.00     0.034 A 
ATOM     26  C   UNL     1       8.830   4.280  -8.038  1.00  0.00     0.049 A 
ATOM     27  C   UNL     1       6.298  -0.323 -10.181  1.00  0.00     0.074 A 
ATOM     28  C   UNL     1       9.722   4.929  -8.865  1.00  0.00     0.029 A 
ATOM     29  N   UNL     1       8.340   3.184  -8.730  1.00  0.00    -0.354 N 
ATOM     30  N   UNL     1       6.977   0.729  -9.787  1.00  0.00    -0.248 NA
ATOM     31  C   UNL     1       6.574  -0.733 -11.565  1.00  0.00     0.031 C 
ATOM     32  C   UNL     1       9.768   4.223 -10.069  1.00  0.00     0.029 A 
ATOM     33  C   UNL     1       8.915   3.131  -9.980  1.00  0.00     0.049 A 
ATOM     34  H   UNL     1       7.681   2.542  -8.381  1.00  0.00     0.167 HD
ATOM     35  C   UNL     1       7.776   1.094 -10.863  1.00  0.00     0.074 A 
ATOM     36  C   UNL     1       7.506   0.142 -11.922  1.00  0.00     0.031 C 
ATOM     37  C   UNL     1       8.645   2.128 -10.977  1.00  0.00     0.034 A 
BRANCH  24  38
ATOM     38  C   UNL     1       9.091   5.782  -6.019  1.00  0.00     0.023 A 
ATOM     39  C   UNL     1      10.129   5.538  -5.099  1.00  0.00     0.012 A 
ATOM     40  C   UNL     1       8.683   7.102  -6.281  1.00  0.00     0.148 A 
ATOM     41  C   UNL     1      10.750   6.597  -4.440  1.00  0.00     0.002 A 
ATOM     42  C   UNL     1       9.324   8.154  -5.640  1.00  0.00     0.091 A 
ATOM     43  F   UNL     1       7.675   7.298  -7.143  1.00  0.00    -0.205 F 
ATOM     44  C   UNL     1      10.352   7.904  -4.715  1.00  0.00     0.022 A 
BRANCH  42  45
ATOM     45  S   UNL     1       8.907   9.873  -5.941  1.00  0.00     0.127 S 
ATOM     46  O   UNL     1       8.596  10.346  -4.592  1.00  0.00    -0.237 OA
ATOM     47  O   UNL     1      10.155  10.392  -6.498  1.00  0.00    -0.237 OA
ATOM     48  O   UNL     1       7.775   9.860  -6.858  1.00  0.00    -0.744 OA
ENDBRANCH  42  45
ENDBRANCH  24  38
BRANCH  25  49
ATOM     49  C   UNL     1       4.775  -2.433  -9.954  1.00  0.00     0.023 A 
ATOM     50  C   UNL     1       5.625  -3.542 -10.125  1.00  0.00     0.012 A 
ATOM     51  C   UNL     1       3.414  -2.551 -10.300  1.00  0.00     0.148 A 
ATOM     52  C   UNL     1       5.134  -4.741 -10.648  1.00  0.00     0.002 A 
ATOM     53  C   UNL     1       2.924  -3.757 -10.788  1.00  0.00     0.091 A 
ATOM     54  F   UNL     1       2.625  -1.479 -10.139  1.00  0.00    -0.205 F 
ATOM     55  C   UNL     1       3.784  -4.851 -10.973  1.00  0.00     0.022 A 
BRANCH  53  56
ATOM     56  S   UNL     1       1.185  -4.020 -11.158  1.00  0.00     0.127 S 
ATOM     57  O   UNL     1       1.212  -4.198 -12.608  1.00  0.00    -0.237 OA
ATOM     58  O   UNL     1       0.897  -5.233 -10.393  1.00  0.00    -0.237 OA
ATOM     59  O   UNL     1       0.496  -2.829 -10.683  1.00  0.00    -0.744 OA
ENDBRANCH  53  56
ENDBRANCH  25  49
BRANCH  37  60
ATOM     60  C   UNL     1       9.383   2.288 -12.272  1.00  0.00     0.023 A 
ATOM     61  C   UNL     1       8.742   2.922 -13.351  1.00  0.00     0.012 A 
ATOM     62  C   UNL     1      10.757   1.989 -12.343  1.00  0.00     0.148 A 
ATOM     63  C   UNL     1       9.464   3.262 -14.491  1.00  0.00     0.002 A 
ATOM     64  C   UNL     1      11.478   2.367 -13.466  1.00  0.00     0.091 A 
ATOM     65  F   UNL     1      11.333   1.381 -11.296  1.00  0.00    -0.205 F 
ATOM     66  C   UNL     1      10.833   3.001 -14.542  1.00  0.00     0.022 A 
BRANCH  64  67
ATOM     67  S   UNL     1      13.258   2.165 -13.577  1.00  0.00     0.127 S 
ATOM     68  O   UNL     1      13.374   1.134 -14.607  1.00  0.00    -0.237 OA
ATOM     69  O   UNL     1      13.695   3.497 -13.993  1.00  0.00    -0.237 OA
ATOM     70  O   UNL     1      13.704   1.768 -12.248  1.00  0.00    -0.744 OA
ENDBRANCH  64  67
ENDBRANCH  37  60
ENDBRANCH  11  12
ENDBRANCH   4   6
ENDBRANCH   3   4
ENDBRANCH   2   3
ENDBRANCH   1   2
BRANCH   1  71
ATOM     71  O   UNL     1       4.157  -2.179  -0.392  1.00  0.00    -0.374 OA
BRANCH  71  72
ATOM     72  C   UNL     1       4.026  -3.310  -1.263  1.00  0.00     0.202 C 
BRANCH  72  73
ATOM     73  C   UNL     1       2.914  -4.244  -0.748  1.00  0.00     0.261 C 
BRANCH  73  74
ATOM     74  O   UNL     1       2.678  -4.062   0.665  1.00  0.00    -0.462 OA
BRANCH  74  75
ATOM     75  C   UNL     1       3.744  -4.308   1.435  1.00  0.00     0.324 C 
ATOM     76  O   UNL     1       4.641  -5.084   1.098  1.00  0.00    -0.250 OA
BRANCH  75  77
ATOM     77  C   UNL     1       3.833  -3.522   2.704  1.00  0.00     0.183 C 
ATOM     78  C   UNL     1       3.738  -4.515   3.862  1.00  0.00     0.034 C 
ATOM     79  N   UNL     1       3.273  -2.244   3.278  1.00  0.00    -0.184 NA
ATOM     80  C   UNL     1       4.253  -3.684   5.012  1.00  0.00     0.019 C 
ATOM     81  C   UNL     1       3.668  -2.298   4.749  1.00  0.00     0.103 C 
BRANCH  79  82
ATOM     82  S   UNL     1       1.634  -1.754   3.062  1.00  0.00     0.244 S 
ATOM     83  O   UNL     1       0.868  -2.966   2.852  1.00  0.00    -0.207 OA
ATOM     84  O   UNL     1       1.308  -0.911   4.197  1.00  0.00    -0.207 OA
BRANCH  82  85
ATOM     85  C   UNL     1       1.441  -0.709   1.604  1.00  0.00     0.090 A 
ATOM     86  C   UNL     1       1.304  -1.388   0.373  1.00  0.00     0.024 A 
ATOM     87  C   UNL     1       1.142   0.705   1.653  1.00  0.00     0.005 A 
ATOM     88  C   UNL     1       1.045  -0.755  -0.852  1.00  0.00     0.028 A 
ATOM     89  C   UNL     1       0.818   1.260   0.438  1.00  0.00     0.019 A 
ATOM     90  C   UNL     1       1.069   1.655   2.716  1.00  0.00     0.010 A 
ATOM     91  C   UNL     1       0.781   0.588  -0.763  1.00  0.00     0.050 A 
ATOM     92  C   UNL     1       0.437   2.574   0.183  1.00  0.00     0.050 A 
ATOM     93  C   UNL     1       0.678   3.002   2.499  1.00  0.00     0.002 A 
ATOM     94  N   UNL     1       0.411   1.482  -1.749  1.00  0.00    -0.321 N 
ATOM     95  C   UNL     1       0.355   3.487   1.224  1.00  0.00     0.014 A 
ATOM     96  C   UNL     1       0.172   2.756  -1.232  1.00  0.00     0.256 C 
ATOM     97  H   UNL     1       0.326   1.249  -2.701  1.00  0.00     0.170 HD
ATOM     98  O   UNL     1      -0.166   3.728  -1.895  1.00  0.00    -0.269 OA
ENDBRANCH  82  85
ENDBRANCH  79  82
ENDBRANCH  75  77
ENDBRANCH  74  75
ENDBRANCH  73  74
ENDBRANCH  72  73
ENDBRANCH  71  72
ENDBRANCH   1  71
TORSDOF 19
