REMARK SMILES O=C(OCCOCCOC(=O)c1cccc(S(=O)(=O)NC[C@@H]2CCOC2)c1)c1ccc(-c2c3nc(c(-c4cccc(S(=O)(=O)[O-])c4F)c4ccc([nH]4)c(-c4cccc(S(=O)(=O)[O-])c4F)c4nc(c(-c5cccc(S(=O)(=O)[O-])c5F)c5ccc2[nH]5)C=C4)C=C3)cc1
REMARK SMILES IDX 7 1 6 2 5 3 4 4 3 5 2 6 1 7 28 8 29 9 90 10 30 11 89 12
REMARK SMILES IDX 31 13 32 14 33 15 83 16 34 17 88 18 82 19 84 20 35 21 87 22
REMARK SMILES IDX 81 23 80 24 36 26 68 27 48 28 67 29 49 30 52 31 66 32 85 33
REMARK SMILES IDX 50 34 51 35 65 37 86 38 53 39 37 40 38 41 46 42 39 43 41 44
REMARK SMILES IDX 47 45 40 46 42 47 43 48 44 49 45 50 69 51 70 52 78 53 71 54
REMARK SMILES IDX 73 55 79 56 72 57 74 58 75 59 76 60 77 61 54 62 55 63 63 64
REMARK SMILES IDX 56 65 58 66 64 67 57 68 59 69 60 70 61 71 62 72 8 73 9 74
REMARK SMILES IDX 10 75 11 76 12 77 13 78 27 79 14 80 16 81 15 82 17 83 18 84
REMARK SMILES IDX 19 85 20 86 21 88 22 89 23 90 26 91 24 92 25 93
REMARK H PARENT 84 25 52 36 20 87
REMARK Flexibility Score: inf
ROOT
ATOM      1  C   UNL     1       2.550  -0.556   1.919  1.00  0.00     0.202 C 
ENDROOT
BRANCH   1   2
ATOM      2  O   UNL     1       3.847  -0.061   1.568  1.00  0.00    -0.374 OA
BRANCH   2   3
ATOM      3  C   UNL     1       3.951   1.334   1.316  1.00  0.00     0.202 C 
BRANCH   3   4
ATOM      4  C   UNL     1       3.804   1.671  -0.165  1.00  0.00     0.261 C 
BRANCH   4   5
ATOM      5  O   UNL     1       2.469   1.358  -0.593  1.00  0.00    -0.460 OA
BRANCH   5   6
ATOM      6  C   UNL     1       2.030   0.330  -1.354  1.00  0.00     0.338 C 
ATOM      7  O   UNL     1       0.834   0.306  -1.642  1.00  0.00    -0.246 OA
BRANCH   6   8
ATOM      8  C   UNL     1       2.895  -0.782  -1.867  1.00  0.00     0.060 A 
ATOM      9  C   UNL     1       4.079  -1.238  -1.279  1.00  0.00     0.016 A 
ATOM     10  C   UNL     1       2.398  -1.496  -2.972  1.00  0.00     0.016 A 
ATOM     11  C   UNL     1       4.764  -2.345  -1.782  1.00  0.00     0.010 A 
ATOM     12  C   UNL     1       3.063  -2.623  -3.465  1.00  0.00     0.010 A 
ATOM     13  C   UNL     1       4.254  -3.048  -2.871  1.00  0.00    -0.014 A 
BRANCH  13  14
ATOM     14  C   UNL     1       4.980  -4.228  -3.378  1.00  0.00     0.031 A 
ATOM     15  C   UNL     1       5.820  -4.097  -4.609  1.00  0.00     0.074 A 
ATOM     16  C   UNL     1       4.887  -5.394  -2.714  1.00  0.00     0.049 A 
ATOM     17  N   UNL     1       6.513  -5.011  -5.231  1.00  0.00    -0.248 NA
ATOM     18  C   UNL     1       5.901  -2.757  -5.216  1.00  0.00     0.031 C 
ATOM     19  C   UNL     1       4.115  -5.604  -1.487  1.00  0.00     0.029 A 
ATOM     20  N   UNL     1       5.432  -6.623  -2.980  1.00  0.00    -0.354 N 
ATOM     21  C   UNL     1       7.082  -4.371  -6.323  1.00  0.00     0.074 A 
ATOM     22  C   UNL     1       6.670  -2.985  -6.272  1.00  0.00     0.031 C 
ATOM     23  C   UNL     1       4.224  -6.889  -1.115  1.00  0.00     0.029 A 
ATOM     24  C   UNL     1       5.041  -7.600  -2.094  1.00  0.00     0.049 A 
ATOM     25  H   UNL     1       6.045  -6.790  -3.732  1.00  0.00     0.167 HD
ATOM     26  C   UNL     1       7.880  -4.897  -7.279  1.00  0.00     0.034 A 
ATOM     27  C   UNL     1       5.295  -8.923  -2.095  1.00  0.00     0.034 A 
ATOM     28  C   UNL     1       8.295  -6.271  -7.306  1.00  0.00     0.049 A 
ATOM     29  C   UNL     1       6.156  -9.484  -3.195  1.00  0.00     0.074 A 
ATOM     30  C   UNL     1       9.127  -6.903  -8.211  1.00  0.00     0.029 A 
ATOM     31  N   UNL     1       7.892  -7.231  -6.389  1.00  0.00    -0.354 N 
ATOM     32  N   UNL     1       6.779  -8.848  -4.159  1.00  0.00    -0.248 NA
ATOM     33  C   UNL     1       6.355 -10.940  -3.208  1.00  0.00     0.031 C 
ATOM     34  C   UNL     1       9.211  -8.253  -7.852  1.00  0.00     0.029 A 
ATOM     35  C   UNL     1       8.435  -8.458  -6.721  1.00  0.00     0.049 A 
ATOM     36  H   UNL     1       7.305  -7.063  -5.617  1.00  0.00     0.167 HD
ATOM     37  C   UNL     1       7.446  -9.822  -4.891  1.00  0.00     0.074 A 
ATOM     38  C   UNL     1       7.183 -11.088  -4.234  1.00  0.00     0.031 C 
ATOM     39  C   UNL     1       8.184  -9.692  -6.020  1.00  0.00     0.034 A 
BRANCH  26  40
ATOM     40  C   UNL     1       8.355  -3.976  -8.364  1.00  0.00     0.023 A 
ATOM     41  C   UNL     1       9.448  -3.122  -8.121  1.00  0.00     0.012 A 
ATOM     42  C   UNL     1       7.734  -3.971  -9.628  1.00  0.00     0.148 A 
ATOM     43  C   UNL     1       9.908  -2.261  -9.117  1.00  0.00     0.002 A 
ATOM     44  C   UNL     1       8.212  -3.127 -10.623  1.00  0.00     0.091 A 
ATOM     45  F   UNL     1       6.680  -4.776  -9.823  1.00  0.00    -0.205 F 
ATOM     46  C   UNL     1       9.294  -2.269 -10.368  1.00  0.00     0.022 A 
BRANCH  44  47
ATOM     47  S   UNL     1       7.510  -3.078 -12.275  1.00  0.00     0.127 S 
ATOM     48  O   UNL     1       6.912  -1.743 -12.300  1.00  0.00    -0.237 OA
ATOM     49  O   UNL     1       8.696  -3.231 -13.116  1.00  0.00    -0.237 OA
ATOM     50  O   UNL     1       6.563  -4.182 -12.344  1.00  0.00    -0.744 OA
ENDBRANCH  44  47
ENDBRANCH  26  40
BRANCH  27  51
ATOM     51  C   UNL     1       4.740  -9.796  -1.020  1.00  0.00     0.023 A 
ATOM     52  C   UNL     1       5.612 -10.402  -0.097  1.00  0.00     0.012 A 
ATOM     53  C   UNL     1       3.354 -10.006  -0.887  1.00  0.00     0.148 A 
ATOM     54  C   UNL     1       5.116 -11.216   0.925  1.00  0.00     0.002 A 
ATOM     55  C   UNL     1       2.862 -10.770   0.167  1.00  0.00     0.091 A 
ATOM     56  F   UNL     1       2.529  -9.453  -1.788  1.00  0.00    -0.205 F 
ATOM     57  C   UNL     1       3.741 -11.389   1.066  1.00  0.00     0.022 A 
BRANCH  55  58
ATOM     58  S   UNL     1       1.095 -10.892   0.470  1.00  0.00     0.127 S 
ATOM     59  O   UNL     1       0.724 -12.045  -0.343  1.00  0.00    -0.237 OA
ATOM     60  O   UNL     1       1.030 -11.112   1.915  1.00  0.00    -0.237 OA
ATOM     61  O   UNL     1       0.566  -9.600   0.047  1.00  0.00    -0.744 OA
ENDBRANCH  55  58
ENDBRANCH  27  51
BRANCH  39  62
ATOM     62  C   UNL     1       8.737 -10.949  -6.631  1.00  0.00     0.023 A 
ATOM     63  C   UNL     1       7.877 -11.782  -7.372  1.00  0.00     0.012 A 
ATOM     64  C   UNL     1      10.109 -11.251  -6.559  1.00  0.00     0.148 A 
ATOM     65  C   UNL     1       8.373 -12.910  -8.022  1.00  0.00     0.002 A 
ATOM     66  C   UNL     1      10.604 -12.355  -7.243  1.00  0.00     0.091 A 
ATOM     67  F   UNL     1      10.904 -10.456  -5.828  1.00  0.00    -0.205 F 
ATOM     68  C   UNL     1       9.738 -13.188  -7.970  1.00  0.00     0.022 A 
BRANCH  66  69
ATOM     69  S   UNL     1      12.360 -12.727  -7.302  1.00  0.00     0.127 S 
ATOM     70  O   UNL     1      12.471 -13.803  -6.320  1.00  0.00    -0.237 OA
ATOM     71  O   UNL     1      12.548 -13.147  -8.692  1.00  0.00    -0.237 OA
ATOM     72  O   UNL     1      13.038 -11.484  -6.957  1.00  0.00    -0.744 OA
ENDBRANCH  66  69
ENDBRANCH  39  62
ENDBRANCH  13  14
ENDBRANCH   6   8
ENDBRANCH   5   6
ENDBRANCH   4   5
ENDBRANCH   3   4
ENDBRANCH   2   3
ENDBRANCH   1   2
BRANCH   1  73
ATOM     73  C   UNL     1       2.736  -1.647   2.978  1.00  0.00     0.261 C 
BRANCH  73  74
ATOM     74  O   UNL     1       3.357  -1.032   4.119  1.00  0.00    -0.460 OA
BRANCH  74  75
ATOM     75  C   UNL     1       4.708  -0.907   4.029  1.00  0.00     0.338 C 
ATOM     76  O   UNL     1       5.471  -1.598   3.379  1.00  0.00    -0.246 OA
BRANCH  75  77
ATOM     77  C   UNL     1       5.141   0.268   4.824  1.00  0.00     0.061 A 
ATOM     78  C   UNL     1       6.454   0.736   4.704  1.00  0.00     0.016 A 
ATOM     79  C   UNL     1       4.277   0.865   5.741  1.00  0.00     0.037 A 
ATOM     80  C   UNL     1       6.916   1.744   5.552  1.00  0.00     0.002 A 
ATOM     81  C   UNL     1       4.785   1.744   6.688  1.00  0.00     0.083 A 
ATOM     82  C   UNL     1       6.097   2.215   6.581  1.00  0.00     0.022 A 
BRANCH  81  83
ATOM     83  S   UNL     1       3.853   2.084   8.158  1.00  0.00     0.240 S 
ATOM     84  O   UNL     1       4.735   1.893   9.286  1.00  0.00    -0.207 OA
ATOM     85  O   UNL     1       3.167   3.338   7.936  1.00  0.00    -0.207 OA
BRANCH  83  86
ATOM     86  N   UNL     1       2.651   0.918   8.241  1.00  0.00    -0.211 NA
ATOM     87  H   UNL     1       2.014   1.149   7.478  1.00  0.00     0.141 HD
BRANCH  86  88
ATOM     88  C   UNL     1       2.803  -0.546   8.170  1.00  0.00     0.105 C 
BRANCH  88  89
ATOM     89  C   UNL     1       3.997  -1.148   8.911  1.00  0.00     0.032 C 
ATOM     90  C   UNL     1       4.276  -2.568   8.434  1.00  0.00     0.036 C 
ATOM     91  C   UNL     1       3.641  -1.418  10.362  1.00  0.00     0.165 C 
ATOM     92  C   UNL     1       3.232  -3.385   9.168  1.00  0.00     0.160 C 
ATOM     93  O   UNL     1       2.931  -2.671  10.378  1.00  0.00    -0.381 OA
ENDBRANCH  88  89
ENDBRANCH  86  88
ENDBRANCH  83  86
ENDBRANCH  81  83
ENDBRANCH  75  77
ENDBRANCH  74  75
ENDBRANCH  73  74
ENDBRANCH   1  73
TORSDOF 21
