REMARK SMILES CN(Cc1ccncc1)C(=O)c1cccn1CC(=O)OCCOCCOC(=O)c1ccc(-c2c3nc(c(-c4cccc(S(=O)(=O)[O-])c4F)c4ccc([nH]4)c(-c4cccc(S(=O)(=O)[O-])c4F)c4nc(c(-c5cccc(S(=O)(=O)[O-])c5F)c5ccc2[nH]5)C=C4)C=C3)cc1
REMARK SMILES IDX 22 1 21 2 20 3 18 4 19 5 17 6 16 7 12 8 13 9 14 10 15 11
REMARK SMILES IDX 10 12 11 13 2 14 1 15 3 16 4 17 5 18 9 19 6 20 8 21 7 22
REMARK SMILES IDX 23 23 24 24 25 25 26 26 27 27 28 28 29 29 30 30 91 31 31 32
REMARK SMILES IDX 90 33 32 34 33 35 34 36 84 37 35 38 89 39 83 40 85 41 36 42
REMARK SMILES IDX 88 43 82 44 81 45 37 47 69 48 49 49 68 50 50 51 53 52 67 53
REMARK SMILES IDX 86 54 51 55 52 56 66 58 87 59 54 60 38 61 39 62 47 63 40 64
REMARK SMILES IDX 42 65 48 66 41 67 43 68 44 69 45 70 46 71 70 72 71 73 79 74
REMARK SMILES IDX 72 75 74 76 80 77 73 78 75 79 76 80 77 81 78 82 55 83 56 84
REMARK SMILES IDX 64 85 57 86 59 87 65 88 58 89 60 90 61 91 62 92 63 93
REMARK H PARENT 85 46 53 57
REMARK Flexibility Score: inf
ROOT
ATOM      1  C   UNL     1       4.117   0.470   7.259  1.00  0.00     0.202 C 
ENDROOT
BRANCH   1   2
ATOM      2  C   UNL     1       4.458   0.265   5.782  1.00  0.00     0.261 C 
BRANCH   2   3
ATOM      3  O   UNL     1       3.473  -0.529   5.097  1.00  0.00    -0.462 OA
BRANCH   3   4
ATOM      4  C   UNL     1       3.889  -1.745   4.651  1.00  0.00     0.326 C 
ATOM      5  O   UNL     1       5.054  -2.137   4.704  1.00  0.00    -0.250 OA
BRANCH   4   6
ATOM      6  C   UNL     1       2.786  -2.644   4.142  1.00  0.00     0.244 C 
BRANCH   6   7
ATOM      7  N   UNL     1       1.419  -2.168   4.343  1.00  0.00    -0.332 N 
ATOM      8  C   UNL     1       0.704  -1.255   3.563  1.00  0.00     0.107 A 
ATOM      9  C   UNL     1      -0.394  -0.937   4.358  1.00  0.00     0.033 A 
ATOM     10  C   UNL     1      -0.499  -1.868   5.415  1.00  0.00     0.020 A 
ATOM     11  C   UNL     1       0.615  -2.658   5.349  1.00  0.00     0.087 A 
BRANCH   8  12
ATOM     12  C   UNL     1       1.119  -0.857   2.210  1.00  0.00     0.270 C 
ATOM     13  O   UNL     1       2.084  -1.427   1.687  1.00  0.00    -0.267 OA
BRANCH  12  14
ATOM     14  N   UNL     1       0.423   0.079   1.429  1.00  0.00    -0.336 N 
ATOM     15  C   UNL     1       0.808   0.171   0.025  1.00  0.00     0.147 C 
BRANCH  14  16
ATOM     16  C   UNL     1      -0.650   0.976   1.862  1.00  0.00     0.155 C 
BRANCH  16  17
ATOM     17  C   UNL     1      -2.037   0.381   1.949  1.00  0.00    -0.026 A 
ATOM     18  C   UNL     1      -3.066   1.176   2.480  1.00  0.00     0.025 A 
ATOM     19  C   UNL     1      -2.321  -0.961   1.678  1.00  0.00     0.025 A 
ATOM     20  C   UNL     1      -4.286   0.588   2.782  1.00  0.00     0.111 A 
ATOM     21  C   UNL     1      -3.567  -1.459   2.023  1.00  0.00     0.111 A 
ATOM     22  N   UNL     1      -4.552  -0.719   2.567  1.00  0.00    -0.265 NA
ENDBRANCH  16  17
ENDBRANCH  14  16
ENDBRANCH  12  14
ENDBRANCH   8  12
ENDBRANCH   6   7
ENDBRANCH   4   6
ENDBRANCH   3   4
ENDBRANCH   2   3
ENDBRANCH   1   2
BRANCH   1  23
ATOM     23  O   UNL     1       3.988  -0.700   8.068  1.00  0.00    -0.374 OA
BRANCH  23  24
ATOM     24  C   UNL     1       2.825  -1.504   7.908  1.00  0.00     0.202 C 
BRANCH  24  25
ATOM     25  C   UNL     1       1.487  -0.975   8.412  1.00  0.00     0.261 C 
BRANCH  25  26
ATOM     26  O   UNL     1       1.069   0.240   7.804  1.00  0.00    -0.460 OA
BRANCH  26  27
ATOM     27  C   UNL     1       1.305   1.305   8.605  1.00  0.00     0.338 C 
ATOM     28  O   UNL     1       2.183   1.405   9.444  1.00  0.00    -0.246 OA
BRANCH  27  29
ATOM     29  C   UNL     1       0.223   2.281   8.488  1.00  0.00     0.060 A 
ATOM     30  C   UNL     1       0.417   3.481   9.175  1.00  0.00     0.016 A 
ATOM     31  C   UNL     1      -1.030   1.895   7.998  1.00  0.00     0.016 A 
ATOM     32  C   UNL     1      -0.683   4.237   9.505  1.00  0.00     0.010 A 
ATOM     33  C   UNL     1      -2.136   2.635   8.363  1.00  0.00     0.010 A 
ATOM     34  C   UNL     1      -1.958   3.787   9.134  1.00  0.00    -0.014 A 
BRANCH  34  35
ATOM     35  C   UNL     1      -3.065   4.726   9.353  1.00  0.00     0.031 A 
ATOM     36  C   UNL     1      -3.040   5.750   8.178  1.00  0.00     0.074 A 
ATOM     37  C   UNL     1      -3.751   4.588  10.540  1.00  0.00     0.049 A 
ATOM     38  N   UNL     1      -3.176   7.040   8.196  1.00  0.00    -0.248 NA
ATOM     39  C   UNL     1      -2.627   5.308   6.805  1.00  0.00     0.031 C 
ATOM     40  C   UNL     1      -3.626   3.449  11.490  1.00  0.00     0.029 A 
ATOM     41  N   UNL     1      -4.692   5.351  11.206  1.00  0.00    -0.354 N 
ATOM     42  C   UNL     1      -3.187   7.483   6.846  1.00  0.00     0.074 A 
ATOM     43  C   UNL     1      -2.635   6.424   6.072  1.00  0.00     0.031 C 
ATOM     44  C   UNL     1      -4.360   3.651  12.615  1.00  0.00     0.029 A 
ATOM     45  C   UNL     1      -5.062   4.920  12.519  1.00  0.00     0.049 A 
ATOM     46  H   UNL     1      -5.088   6.154  10.796  1.00  0.00     0.167 HD
ATOM     47  C   UNL     1      -3.871   8.598   6.446  1.00  0.00     0.034 A 
ATOM     48  C   UNL     1      -5.846   5.573  13.450  1.00  0.00     0.034 A 
ATOM     49  C   UNL     1      -4.524   9.145   7.590  1.00  0.00     0.049 A 
ATOM     50  C   UNL     1      -6.408   6.697  12.696  1.00  0.00     0.074 A 
ATOM     51  C   UNL     1      -4.041   9.768   8.710  1.00  0.00     0.029 A 
ATOM     52  N   UNL     1      -5.775   8.623   7.835  1.00  0.00    -0.354 N 
ATOM     53  N   UNL     1      -7.334   6.584  11.790  1.00  0.00    -0.248 NA
ATOM     54  C   UNL     1      -5.800   8.022  12.863  1.00  0.00     0.031 C 
ATOM     55  C   UNL     1      -4.780   9.142   9.730  1.00  0.00     0.029 A 
ATOM     56  C   UNL     1      -5.884   8.469   9.186  1.00  0.00     0.049 A 
ATOM     57  H   UNL     1      -6.460   8.403   7.162  1.00  0.00     0.167 HD
ATOM     58  C   UNL     1      -7.118   7.712  11.045  1.00  0.00     0.074 A 
ATOM     59  C   UNL     1      -6.481   8.673  11.926  1.00  0.00     0.031 C 
ATOM     60  C   UNL     1      -6.902   7.595   9.706  1.00  0.00     0.034 A 
BRANCH  47  61
ATOM     61  C   UNL     1      -4.347   9.146   5.120  1.00  0.00     0.023 A 
ATOM     62  C   UNL     1      -4.883  10.468   5.182  1.00  0.00     0.012 A 
ATOM     63  C   UNL     1      -4.616   8.399   3.964  1.00  0.00     0.148 A 
ATOM     64  C   UNL     1      -5.780  10.958   4.238  1.00  0.00     0.002 A 
ATOM     65  C   UNL     1      -5.468   8.922   2.985  1.00  0.00     0.091 A 
ATOM     66  F   UNL     1      -4.115   7.165   3.844  1.00  0.00    -0.205 F 
ATOM     67  C   UNL     1      -6.088  10.173   3.145  1.00  0.00     0.022 A 
BRANCH  65  68
ATOM     68  S   UNL     1      -5.866   8.054   1.463  1.00  0.00     0.127 S 
ATOM     69  O   UNL     1      -7.286   7.761   1.643  1.00  0.00    -0.237 OA
ATOM     70  O   UNL     1      -5.581   9.080   0.457  1.00  0.00    -0.237 OA
ATOM     71  O   UNL     1      -4.973   6.906   1.415  1.00  0.00    -0.744 OA
ENDBRANCH  65  68
ENDBRANCH  47  61
BRANCH  48  72
ATOM     72  C   UNL     1      -6.234   5.543  14.932  1.00  0.00     0.023 A 
ATOM     73  C   UNL     1      -6.076   4.449  15.791  1.00  0.00     0.012 A 
ATOM     74  C   UNL     1      -6.748   6.733  15.562  1.00  0.00     0.148 A 
ATOM     75  C   UNL     1      -6.324   4.568  17.185  1.00  0.00     0.002 A 
ATOM     76  C   UNL     1      -6.854   6.890  16.941  1.00  0.00     0.091 A 
ATOM     77  F   UNL     1      -7.216   7.736  14.814  1.00  0.00    -0.205 F 
ATOM     78  C   UNL     1      -6.658   5.795  17.767  1.00  0.00     0.022 A 
BRANCH  76  79
ATOM     79  S   UNL     1      -7.103   8.514  17.704  1.00  0.00     0.127 S 
ATOM     80  O   UNL     1      -8.270   8.290  18.554  1.00  0.00    -0.237 OA
ATOM     81  O   UNL     1      -5.843   8.693  18.427  1.00  0.00    -0.237 OA
ATOM     82  O   UNL     1      -7.306   9.457  16.611  1.00  0.00    -0.744 OA
ENDBRANCH  76  79
ENDBRANCH  48  72
BRANCH  60  83
ATOM     83  C   UNL     1      -7.543   6.382   9.022  1.00  0.00     0.023 A 
ATOM     84  C   UNL     1      -8.937   6.234   9.173  1.00  0.00     0.012 A 
ATOM     85  C   UNL     1      -6.870   5.348   8.322  1.00  0.00     0.148 A 
ATOM     86  C   UNL     1      -9.627   5.123   8.676  1.00  0.00     0.002 A 
ATOM     87  C   UNL     1      -7.554   4.218   7.848  1.00  0.00     0.091 A 
ATOM     88  F   UNL     1      -5.564   5.470   8.103  1.00  0.00    -0.205 F 
ATOM     89  C   UNL     1      -8.938   4.112   8.019  1.00  0.00     0.022 A 
BRANCH  87  90
ATOM     90  S   UNL     1      -6.747   2.796   7.071  1.00  0.00     0.127 S 
ATOM     91  O   UNL     1      -7.313   1.665   7.812  1.00  0.00    -0.237 OA
ATOM     92  O   UNL     1      -7.200   2.892   5.686  1.00  0.00    -0.237 OA
ATOM     93  O   UNL     1      -5.315   2.977   7.269  1.00  0.00    -0.744 OA
ENDBRANCH  87  90
ENDBRANCH  60  83
ENDBRANCH  34  35
ENDBRANCH  27  29
ENDBRANCH  26  27
ENDBRANCH  25  26
ENDBRANCH  24  25
ENDBRANCH  23  24
ENDBRANCH   1  23
TORSDOF 22
