REMARK SMILES CC(C)CN(C)c1cc2c(cc1Cl)C=C(C(=O)OCCOCCOC(=O)c1ccc(-c3c4nc(c(-c5cccc(S(=O)(=O)[O-])c5F)c5ccc([nH]5)c(-c5cccc(S(=O)(=O)[O-])c5F)c5nc(c(-c6cccc(S(=O)(=O)[O-])c6F)c6ccc3[nH]6)C=C5)C=C4)cc1)[C@H](C(F)(F)F)O2
REMARK SMILES IDX 21 1 20 2 19 3 18 4 16 5 17 6 15 7 7 8 8 9 12 10 9 11 11 12
REMARK SMILES IDX 13 13 10 14 95 15 14 16 90 17 5 18 6 19 4 20 2 21 1 22 3 23
REMARK SMILES IDX 91 24 92 25 93 26 94 27 22 28 23 29 24 30 25 31 26 32 27 33
REMARK SMILES IDX 28 34 89 35 29 36 88 37 30 38 31 39 32 40 82 41 33 42 87 43
REMARK SMILES IDX 81 44 83 45 34 46 86 47 80 48 79 49 35 51 67 52 47 53 66 54
REMARK SMILES IDX 48 55 51 56 65 57 84 58 49 59 50 60 64 62 85 63 52 64 36 65
REMARK SMILES IDX 37 66 45 67 38 68 40 69 46 70 39 71 41 72 42 73 43 74 44 75
REMARK SMILES IDX 68 76 69 77 77 78 70 79 72 80 78 81 71 82 73 83 74 84 75 85
REMARK SMILES IDX 76 86 53 87 54 88 62 89 55 90 57 91 63 92 56 93 58 94 59 95
REMARK SMILES IDX 60 96 61 97
REMARK H PARENT 83 50 51 61
REMARK Flexibility Score: inf
ROOT
ATOM      1  O   UNL     1       0.529   2.425  -9.104  1.00  0.00    -0.374 OA
ENDROOT
BRANCH   1   2
ATOM      2  C   UNL     1      -0.353   1.872 -10.078  1.00  0.00     0.202 C 
BRANCH   2   3
ATOM      3  C   UNL     1      -0.829   0.434  -9.854  1.00  0.00     0.261 C 
BRANCH   3   4
ATOM      4  O   UNL     1      -1.429   0.269  -8.559  1.00  0.00    -0.460 OA
BRANCH   4   5
ATOM      5  C   UNL     1      -0.748  -0.545  -7.731  1.00  0.00     0.338 C 
ATOM      6  O   UNL     1       0.202  -1.253  -8.037  1.00  0.00    -0.246 OA
BRANCH   5   7
ATOM      7  C   UNL     1      -1.189  -0.388  -6.332  1.00  0.00     0.087 C 
ATOM      8  C   UNL     1      -0.957  -1.402  -1.409  1.00  0.00     0.059 A 
ATOM      9  C   UNL     1      -1.999  -1.027  -2.287  1.00  0.00     0.074 A 
ATOM     10  C   UNL     1       0.345  -1.456  -1.951  1.00  0.00     0.065 A 
ATOM     11  C   UNL     1      -1.749  -0.717  -3.631  1.00  0.00     0.130 A 
ATOM     12  C   UNL     1       0.609  -1.013  -3.246  1.00  0.00     0.034 A 
ATOM     13  Cl  UNL     1       1.679  -2.206  -1.140  1.00  0.00    -0.082 Cl
ATOM     14  C   UNL     1      -0.440  -0.660  -4.088  1.00  0.00     0.019 A 
ATOM     15  O   UNL     1      -2.829  -0.523  -4.445  1.00  0.00    -0.475 OA
ATOM     16  C   UNL     1      -0.157  -0.407  -5.479  1.00  0.00     0.027 C 
ATOM     17  C   UNL     1      -2.632  -0.417  -5.899  1.00  0.00     0.316 C 
BRANCH   8  18
ATOM     18  N   UNL     1      -1.224  -1.744  -0.074  1.00  0.00    -0.373 N 
ATOM     19  C   UNL     1      -2.281  -2.733   0.127  1.00  0.00     0.143 C 
BRANCH  18  20
ATOM     20  C   UNL     1      -1.103  -0.686   0.957  1.00  0.00     0.119 C 
BRANCH  20  21
ATOM     21  C   UNL     1       0.358  -0.370   1.341  1.00  0.00     0.002 C 
ATOM     22  C   UNL     1       0.913   0.823   0.555  1.00  0.00     0.009 C 
ATOM     23  C   UNL     1       0.519  -0.091   2.838  1.00  0.00     0.009 C 
ENDBRANCH  20  21
ENDBRANCH  18  20
ENDBRANCH   8  18
BRANCH  17  24
ATOM     24  C   UNL     1      -3.465   0.793  -6.365  1.00  0.00     0.430 C 
ATOM     25  F   UNL     1      -2.851   1.966  -6.079  1.00  0.00    -0.167 F 
ATOM     26  F   UNL     1      -3.725   0.769  -7.689  1.00  0.00    -0.167 F 
ATOM     27  F   UNL     1      -4.673   0.819  -5.745  1.00  0.00    -0.167 F 
ENDBRANCH  17  24
ENDBRANCH   5   7
ENDBRANCH   4   5
ENDBRANCH   3   4
ENDBRANCH   2   3
ENDBRANCH   1   2
BRANCH   1  28
ATOM     28  C   UNL     1      -0.019   2.845  -7.853  1.00  0.00     0.202 C 
BRANCH  28  29
ATOM     29  C   UNL     1      -0.976   4.044  -7.844  1.00  0.00     0.261 C 
BRANCH  29  30
ATOM     30  O   UNL     1      -2.234   3.745  -8.472  1.00  0.00    -0.460 OA
BRANCH  30  31
ATOM     31  C   UNL     1      -2.498   4.447  -9.601  1.00  0.00     0.338 C 
ATOM     32  O   UNL     1      -1.808   5.327 -10.098  1.00  0.00    -0.246 OA
BRANCH  31  33
ATOM     33  C   UNL     1      -3.651   3.840 -10.293  1.00  0.00     0.060 A 
ATOM     34  C   UNL     1      -4.885   3.694  -9.658  1.00  0.00     0.016 A 
ATOM     35  C   UNL     1      -3.485   3.443 -11.626  1.00  0.00     0.016 A 
ATOM     36  C   UNL     1      -5.965   3.174 -10.377  1.00  0.00     0.010 A 
ATOM     37  C   UNL     1      -4.562   2.919 -12.339  1.00  0.00     0.010 A 
ATOM     38  C   UNL     1      -5.816   2.798 -11.726  1.00  0.00    -0.014 A 
BRANCH  38  39
ATOM     39  C   UNL     1      -6.999   2.408 -12.532  1.00  0.00     0.031 A 
ATOM     40  C   UNL     1      -7.231   0.986 -12.952  1.00  0.00     0.074 A 
ATOM     41  C   UNL     1      -7.852   3.373 -12.926  1.00  0.00     0.049 A 
ATOM     42  N   UNL     1      -8.241   0.486 -13.616  1.00  0.00    -0.248 NA
ATOM     43  C   UNL     1      -6.201   0.000 -12.591  1.00  0.00     0.031 C 
ATOM     44  C   UNL     1      -7.696   4.800 -12.638  1.00  0.00     0.029 A 
ATOM     45  N   UNL     1      -9.011   3.305 -13.658  1.00  0.00    -0.354 N 
ATOM     46  C   UNL     1      -7.974  -0.869 -13.755  1.00  0.00     0.074 A 
ATOM     47  C   UNL     1      -6.692  -1.111 -13.127  1.00  0.00     0.031 C 
ATOM     48  C   UNL     1      -8.730   5.470 -13.169  1.00  0.00     0.029 A 
ATOM     49  C   UNL     1      -9.611   4.526 -13.851  1.00  0.00     0.049 A 
ATOM     50  H   UNL     1      -9.377   2.462 -14.010  1.00  0.00     0.167 HD
ATOM     51  C   UNL     1      -8.741  -1.825 -14.331  1.00  0.00     0.034 A 
ATOM     52  C   UNL     1     -10.746   4.854 -14.498  1.00  0.00     0.034 A 
ATOM     53  C   UNL     1     -10.021  -1.585 -14.943  1.00  0.00     0.049 A 
ATOM     54  C   UNL     1     -11.578   3.773 -15.125  1.00  0.00     0.074 A 
ATOM     55  C   UNL     1     -10.893  -2.508 -15.495  1.00  0.00     0.029 A 
ATOM     56  N   UNL     1     -10.608  -0.339 -15.096  1.00  0.00    -0.354 N 
ATOM     57  N   UNL     1     -11.374   2.479 -15.127  1.00  0.00    -0.248 NA
ATOM     58  C   UNL     1     -12.808   4.191 -15.815  1.00  0.00     0.031 C 
ATOM     59  C   UNL     1     -11.999  -1.819 -15.999  1.00  0.00     0.029 A 
ATOM     60  C   UNL     1     -11.826  -0.469 -15.742  1.00  0.00     0.049 A 
ATOM     61  H   UNL     1     -10.218   0.511 -14.791  1.00  0.00     0.167 HD
ATOM     62  C   UNL     1     -12.459   1.925 -15.797  1.00  0.00     0.074 A 
ATOM     63  C   UNL     1     -13.325   3.022 -16.175  1.00  0.00     0.031 C 
ATOM     64  C   UNL     1     -12.703   0.623 -16.080  1.00  0.00     0.034 A 
BRANCH  51  65
ATOM     65  C   UNL     1      -8.261  -3.250 -14.272  1.00  0.00     0.023 A 
ATOM     66  C   UNL     1      -8.413  -3.970 -13.070  1.00  0.00     0.012 A 
ATOM     67  C   UNL     1      -7.785  -3.908 -15.422  1.00  0.00     0.148 A 
ATOM     68  C   UNL     1      -8.091  -5.324 -13.011  1.00  0.00     0.002 A 
ATOM     69  C   UNL     1      -7.492  -5.266 -15.362  1.00  0.00     0.091 A 
ATOM     70  F   UNL     1      -7.645  -3.199 -16.551  1.00  0.00    -0.205 F 
ATOM     71  C   UNL     1      -7.641  -5.973 -14.157  1.00  0.00     0.022 A 
BRANCH  69  72
ATOM     72  S   UNL     1      -6.953  -6.212 -16.791  1.00  0.00     0.127 S 
ATOM     73  O   UNL     1      -5.600  -6.598 -16.392  1.00  0.00    -0.237 OA
ATOM     74  O   UNL     1      -7.919  -7.310 -16.813  1.00  0.00    -0.237 OA
ATOM     75  O   UNL     1      -7.027  -5.306 -17.928  1.00  0.00    -0.744 OA
ENDBRANCH  69  72
ENDBRANCH  51  65
BRANCH  52  76
ATOM     76  C   UNL     1     -11.193   6.272 -14.507  1.00  0.00     0.023 A 
ATOM     77  C   UNL     1     -12.252   6.662 -13.666  1.00  0.00     0.012 A 
ATOM     78  C   UNL     1     -10.533   7.241 -15.286  1.00  0.00     0.148 A 
ATOM     79  C   UNL     1     -12.653   7.996 -13.605  1.00  0.00     0.002 A 
ATOM     80  C   UNL     1     -10.913   8.574 -15.194  1.00  0.00     0.091 A 
ATOM     81  F   UNL     1      -9.527   6.839 -16.076  1.00  0.00    -0.205 F 
ATOM     82  C   UNL     1     -11.979   8.952 -14.361  1.00  0.00     0.022 A 
BRANCH  80  83
ATOM     83  S   UNL     1     -10.051   9.891 -16.057  1.00  0.00     0.127 S 
ATOM     84  O   UNL     1     -11.100  10.409 -16.933  1.00  0.00    -0.237 OA
ATOM     85  O   UNL     1      -9.678  10.775 -14.953  1.00  0.00    -0.237 OA
ATOM     86  O   UNL     1      -8.930   9.256 -16.735  1.00  0.00    -0.744 OA
ENDBRANCH  80  83
ENDBRANCH  52  76
BRANCH  64  87
ATOM     87  C   UNL     1     -13.962   0.284 -16.829  1.00  0.00     0.023 A 
ATOM     88  C   UNL     1     -14.017   0.492 -18.221  1.00  0.00     0.012 A 
ATOM     89  C   UNL     1     -15.036  -0.356 -16.179  1.00  0.00     0.148 A 
ATOM     90  C   UNL     1     -15.126   0.075 -18.955  1.00  0.00     0.002 A 
ATOM     91  C   UNL     1     -16.124  -0.799 -16.922  1.00  0.00     0.091 A 
ATOM     92  F   UNL     1     -14.961  -0.536 -14.852  1.00  0.00    -0.205 F 
ATOM     93  C   UNL     1     -16.172  -0.581 -18.309  1.00  0.00     0.022 A 
BRANCH  91  94
ATOM     94  S   UNL     1     -17.487  -1.716 -16.195  1.00  0.00     0.127 S 
ATOM     95  O   UNL     1     -18.602  -0.787 -16.380  1.00  0.00    -0.237 OA
ATOM     96  O   UNL     1     -17.541  -2.910 -17.038  1.00  0.00    -0.237 OA
ATOM     97  O   UNL     1     -17.116  -1.964 -14.808  1.00  0.00    -0.744 OA
ENDBRANCH  91  94
ENDBRANCH  64  87
ENDBRANCH  38  39
ENDBRANCH  31  33
ENDBRANCH  30  31
ENDBRANCH  29  30
ENDBRANCH  28  29
ENDBRANCH   1  28
TORSDOF 21
