REMARK SMILES O=C(CCCc1nc(-c2ccc(Cl)c(Cl)c2)c(-c2ccccc2)o1)OCCOCCOC(=O)c1ccc(-c2c3nc(c(-c4cccc(S(=O)(=O)[O-])c4F)c4ccc([nH]4)c(-c4cccc(S(=O)(=O)[O-])c4F)c4nc(c(-c5cccc(S(=O)(=O)[O-])c5F)c5ccc2[nH]5)C=C4)C=C3)cc1
REMARK SMILES IDX 27 1 26 2 25 3 2 4 1 5 3 6 4 7 5 8 6 9 7 10 24 11 8 12 17 13
REMARK SMILES IDX 9 14 10 15 16 16 11 17 14 18 12 19 15 20 13 21 18 22 19 23
REMARK SMILES IDX 23 24 20 25 22 26 21 27 28 28 29 29 30 30 31 31 32 32 33 33
REMARK SMILES IDX 34 34 35 35 96 36 36 37 95 38 37 39 38 40 39 41 89 42 40 43
REMARK SMILES IDX 94 44 88 45 90 46 41 47 93 48 87 49 86 50 42 52 74 53 54 54
REMARK SMILES IDX 73 55 55 56 58 57 72 58 91 59 56 60 57 61 71 63 92 64 59 65
REMARK SMILES IDX 43 66 44 67 52 68 45 69 47 70 53 71 46 72 48 73 49 74 50 75
REMARK SMILES IDX 51 76 75 77 76 78 84 79 77 80 79 81 85 82 78 83 80 84 81 85
REMARK SMILES IDX 82 86 83 87 60 88 61 89 69 90 62 91 64 92 70 93 63 94 65 95
REMARK SMILES IDX 66 96 67 97 68 98
REMARK H PARENT 90 51 58 62
REMARK Flexibility Score: inf
ROOT
ATOM      1  C   UNL     1       3.410  -0.388  -1.339  1.00  0.00     0.202 C 
ENDROOT
BRANCH   1   2
ATOM      2  C   UNL     1       3.822  -1.406  -0.279  1.00  0.00     0.261 C 
BRANCH   2   3
ATOM      3  O   UNL     1       3.162  -1.402   0.995  1.00  0.00    -0.463 OA
BRANCH   3   4
ATOM      4  C   UNL     1       2.573  -0.268   1.419  1.00  0.00     0.305 C 
ATOM      5  O   UNL     1       1.356  -0.114   1.360  1.00  0.00    -0.252 OA
BRANCH   4   6
ATOM      6  C   UNL     1       3.494   0.771   2.028  1.00  0.00     0.123 C 
BRANCH   6   7
ATOM      7  C   UNL     1       4.707   0.306   2.831  1.00  0.00     0.021 C 
BRANCH   7   8
ATOM      8  C   UNL     1       5.932  -0.264   2.111  1.00  0.00     0.098 C 
BRANCH   8   9
ATOM      9  C   UNL     1       6.542   0.502   0.979  1.00  0.00     0.195 A 
ATOM     10  N   UNL     1       7.406   0.039   0.089  1.00  0.00    -0.213 NA
ATOM     11  O   UNL     1       6.263   1.839   0.850  1.00  0.00    -0.440 OA
ATOM     12  C   UNL     1       7.743   1.143  -0.657  1.00  0.00     0.117 A 
ATOM     13  C   UNL     1       7.002   2.232  -0.240  1.00  0.00     0.162 A 
BRANCH  12  14
ATOM     14  C   UNL     1       8.744   1.166  -1.710  1.00  0.00     0.006 A 
ATOM     15  C   UNL     1       8.551   0.448  -2.889  1.00  0.00     0.012 A 
ATOM     16  C   UNL     1       9.889   1.959  -1.597  1.00  0.00     0.032 A 
ATOM     17  C   UNL     1       9.418   0.576  -3.977  1.00  0.00     0.023 A 
ATOM     18  C   UNL     1      10.791   2.063  -2.667  1.00  0.00     0.060 A 
ATOM     19  C   UNL     1      10.542   1.390  -3.869  1.00  0.00     0.059 A 
ATOM     20  Cl  UNL     1      12.191   3.051  -2.440  1.00  0.00    -0.083 Cl
ATOM     21  Cl  UNL     1      11.576   1.521  -5.245  1.00  0.00    -0.083 Cl
ENDBRANCH  12  14
BRANCH  13  22
ATOM     22  C   UNL     1       6.861   3.604  -0.696  1.00  0.00     0.020 A 
ATOM     23  C   UNL     1       6.936   4.676   0.199  1.00  0.00     0.012 A 
ATOM     24  C   UNL     1       6.712   3.877  -2.064  1.00  0.00     0.012 A 
ATOM     25  C   UNL     1       6.888   5.993  -0.272  1.00  0.00     0.001 A 
ATOM     26  C   UNL     1       6.653   5.189  -2.533  1.00  0.00     0.001 A 
ATOM     27  C   UNL     1       6.750   6.248  -1.636  1.00  0.00     0.000 A 
ENDBRANCH  13  22
ENDBRANCH   8   9
ENDBRANCH   7   8
ENDBRANCH   6   7
ENDBRANCH   4   6
ENDBRANCH   3   4
ENDBRANCH   2   3
ENDBRANCH   1   2
BRANCH   1  28
ATOM     28  O   UNL     1       3.229   0.949  -0.892  1.00  0.00    -0.374 OA
BRANCH  28  29
ATOM     29  C   UNL     1       2.166   1.621  -1.580  1.00  0.00     0.202 C 
BRANCH  29  30
ATOM     30  C   UNL     1       2.534   2.094  -2.993  1.00  0.00     0.261 C 
BRANCH  30  31
ATOM     31  O   UNL     1       2.868   0.982  -3.850  1.00  0.00    -0.460 OA
BRANCH  31  32
ATOM     32  C   UNL     1       4.137   0.970  -4.311  1.00  0.00     0.338 C 
ATOM     33  O   UNL     1       4.983   1.853  -4.188  1.00  0.00    -0.246 OA
BRANCH  32  34
ATOM     34  C   UNL     1       4.490  -0.369  -4.803  1.00  0.00     0.060 A 
ATOM     35  C   UNL     1       5.486  -1.054  -4.101  1.00  0.00     0.016 A 
ATOM     36  C   UNL     1       3.938  -0.923  -5.951  1.00  0.00     0.016 A 
ATOM     37  C   UNL     1       5.997  -2.256  -4.562  1.00  0.00     0.010 A 
ATOM     38  C   UNL     1       4.428  -2.152  -6.406  1.00  0.00     0.010 A 
ATOM     39  C   UNL     1       5.476  -2.810  -5.730  1.00  0.00    -0.014 A 
BRANCH  39  40
ATOM     40  C   UNL     1       6.069  -4.050  -6.276  1.00  0.00     0.031 A 
ATOM     41  C   UNL     1       6.827  -3.984  -7.568  1.00  0.00     0.074 A 
ATOM     42  C   UNL     1       5.913  -5.216  -5.623  1.00  0.00     0.049 A 
ATOM     43  N   UNL     1       7.225  -4.957  -8.339  1.00  0.00    -0.248 NA
ATOM     44  C   UNL     1       7.181  -2.640  -8.059  1.00  0.00     0.031 C 
ATOM     45  C   UNL     1       5.257  -5.378  -4.323  1.00  0.00     0.029 A 
ATOM     46  N   UNL     1       6.257  -6.494  -5.984  1.00  0.00    -0.354 N 
ATOM     47  C   UNL     1       7.804  -4.347  -9.445  1.00  0.00     0.074 A 
ATOM     48  C   UNL     1       7.742  -2.919  -9.228  1.00  0.00     0.031 C 
ATOM     49  C   UNL     1       5.201  -6.683  -4.019  1.00  0.00     0.029 A 
ATOM     50  C   UNL     1       5.748  -7.449  -5.133  1.00  0.00     0.049 A 
ATOM     51  H   UNL     1       6.811  -6.706  -6.770  1.00  0.00     0.167 HD
ATOM     52  C   UNL     1       8.326  -4.937 -10.544  1.00  0.00     0.034 A 
ATOM     53  C   UNL     1       5.660  -8.785  -5.277  1.00  0.00     0.034 A 
ATOM     54  C   UNL     1       8.423  -6.361 -10.711  1.00  0.00     0.049 A 
ATOM     55  C   UNL     1       6.212  -9.410  -6.529  1.00  0.00     0.074 A 
ATOM     56  C   UNL     1       8.987  -7.067 -11.758  1.00  0.00     0.029 A 
ATOM     57  N   UNL     1       7.933  -7.295  -9.812  1.00  0.00    -0.354 N 
ATOM     58  N   UNL     1       6.819  -8.834  -7.539  1.00  0.00    -0.248 NA
ATOM     59  C   UNL     1       6.075 -10.867  -6.661  1.00  0.00     0.031 C 
ATOM     60  C   UNL     1       8.811  -8.431 -11.505  1.00  0.00     0.029 A 
ATOM     61  C   UNL     1       8.159  -8.573 -10.290  1.00  0.00     0.049 A 
ATOM     62  H   UNL     1       7.490  -7.081  -8.960  1.00  0.00     0.167 HD
ATOM     63  C   UNL     1       7.151  -9.858  -8.418  1.00  0.00     0.074 A 
ATOM     64  C   UNL     1       6.706 -11.093  -7.805  1.00  0.00     0.031 C 
ATOM     65  C   UNL     1       7.746  -9.786  -9.634  1.00  0.00     0.034 A 
BRANCH  52  66
ATOM     66  C   UNL     1       8.822  -4.058 -11.657  1.00  0.00     0.023 A 
ATOM     67  C   UNL     1      10.058  -3.393 -11.538  1.00  0.00     0.012 A 
ATOM     68  C   UNL     1       8.096  -3.964 -12.861  1.00  0.00     0.148 A 
ATOM     69  C   UNL     1      10.558  -2.637 -12.599  1.00  0.00     0.002 A 
ATOM     70  C   UNL     1       8.618  -3.242 -13.926  1.00  0.00     0.091 A 
ATOM     71  F   UNL     1       6.910  -4.585 -12.940  1.00  0.00    -0.205 F 
ATOM     72  C   UNL     1       9.846  -2.572 -13.795  1.00  0.00     0.022 A 
BRANCH  70  73
ATOM     73  S   UNL     1       7.813  -3.155 -15.529  1.00  0.00     0.127 S 
ATOM     74  O   UNL     1       7.465  -1.737 -15.608  1.00  0.00    -0.237 OA
ATOM     75  O   UNL     1       8.885  -3.572 -16.433  1.00  0.00    -0.237 OA
ATOM     76  O   UNL     1       6.679  -4.067 -15.462  1.00  0.00    -0.744 OA
ENDBRANCH  70  73
ENDBRANCH  52  66
BRANCH  53  77
ATOM     77  C   UNL     1       4.981  -9.609  -4.237  1.00  0.00     0.023 A 
ATOM     78  C   UNL     1       5.727 -10.529  -3.477  1.00  0.00     0.012 A 
ATOM     79  C   UNL     1       3.601  -9.474  -3.986  1.00  0.00     0.148 A 
ATOM     80  C   UNL     1       5.106 -11.319  -2.508  1.00  0.00     0.002 A 
ATOM     81  C   UNL     1       3.001 -10.218  -2.977  1.00  0.00     0.091 A 
ATOM     82  F   UNL     1       2.897  -8.614  -4.737  1.00  0.00    -0.205 F 
ATOM     83  C   UNL     1       3.747 -11.155  -2.249  1.00  0.00     0.022 A 
BRANCH  81  84
ATOM     84  S   UNL     1       1.292  -9.952  -2.491  1.00  0.00     0.127 S 
ATOM     85  O   UNL     1       0.617 -11.072  -3.139  1.00  0.00    -0.237 OA
ATOM     86  O   UNL     1       1.369 -10.038  -1.032  1.00  0.00    -0.237 OA
ATOM     87  O   UNL     1       0.955  -8.624  -2.989  1.00  0.00    -0.744 OA
ENDBRANCH  81  84
ENDBRANCH  53  77
BRANCH  65  88
ATOM     88  C   UNL     1       7.968 -11.077 -10.371  1.00  0.00     0.023 A 
ATOM     89  C   UNL     1       6.874 -11.727 -10.977  1.00  0.00     0.012 A 
ATOM     90  C   UNL     1       9.265 -11.600 -10.532  1.00  0.00     0.148 A 
ATOM     91  C   UNL     1       7.066 -12.896 -11.711  1.00  0.00     0.002 A 
ATOM     92  C   UNL     1       9.455 -12.737 -11.306  1.00  0.00     0.091 A 
ATOM     93  F   UNL     1      10.286 -10.972  -9.932  1.00  0.00    -0.205 F 
ATOM     94  C   UNL     1       8.356 -13.393 -11.886  1.00  0.00     0.022 A 
BRANCH  92  95
ATOM     95  S   UNL     1      11.086 -13.395 -11.666  1.00  0.00     0.127 S 
ATOM     96  O   UNL     1      11.090 -14.628 -10.881  1.00  0.00    -0.237 OA
ATOM     97  O   UNL     1      11.028 -13.593 -13.115  1.00  0.00    -0.237 OA
ATOM     98  O   UNL     1      12.035 -12.377 -11.233  1.00  0.00    -0.744 OA
ENDBRANCH  92  95
ENDBRANCH  65  88
ENDBRANCH  39  40
ENDBRANCH  32  34
ENDBRANCH  31  32
ENDBRANCH  30  31
ENDBRANCH  29  30
ENDBRANCH  28  29
ENDBRANCH   1  28
TORSDOF 22
