REMARK SMILES CC(C)Cc1ccc([C@H](C)C(=O)OCCOCCOC(=O)c2ccc(-c3c4nc(c(-c5cccc(S(=O)(=O)[O-])c5F)c5ccc([nH]5)c(-c5cccc(S(=O)(=O)[O-])c5F)c5nc(c(-c6cccc(S(=O)(=O)[O-])c6F)c6ccc3[nH]6)C=C5)C=C4)cc2)cc1
REMARK SMILES IDX 16 1 15 2 14 3 13 4 11 5 12 6 9 7 10 8 8 9 5 10 6 11 86 12
REMARK SMILES IDX 7 13 85 14 4 15 2 16 1 17 3 18 17 19 18 20 19 21 20 22 21 23
REMARK SMILES IDX 22 24 23 25 84 26 24 27 83 28 25 29 26 30 27 31 77 32 28 33
REMARK SMILES IDX 82 34 76 35 78 36 29 37 81 38 75 39 74 40 30 42 62 43 42 44
REMARK SMILES IDX 61 45 43 46 46 47 60 48 79 49 44 50 45 51 59 53 80 54 47 55
REMARK SMILES IDX 31 56 32 57 40 58 33 59 35 60 41 61 34 62 36 63 37 64 38 65
REMARK SMILES IDX 39 66 63 67 64 68 72 69 65 70 67 71 73 72 66 73 68 74 69 75
REMARK SMILES IDX 70 76 71 77 48 78 49 79 57 80 50 81 52 82 58 83 51 84 53 85
REMARK SMILES IDX 54 86 55 87 56 88
REMARK H PARENT 78 41 46 52
REMARK Flexibility Score: inf
ROOT
ATOM      1  O   UNL     1       0.361  -2.731  -5.863  1.00  0.00    -0.374 OA
ENDROOT
BRANCH   1   2
ATOM      2  C   UNL     1      -0.753  -1.941  -6.277  1.00  0.00     0.202 C 
BRANCH   2   3
ATOM      3  C   UNL     1      -2.143  -2.573  -6.166  1.00  0.00     0.261 C 
BRANCH   3   4
ATOM      4  O   UNL     1      -2.534  -2.817  -4.804  1.00  0.00    -0.463 OA
BRANCH   4   5
ATOM      5  C   UNL     1      -2.551  -4.123  -4.419  1.00  0.00     0.313 C 
ATOM      6  O   UNL     1      -2.233  -5.070  -5.133  1.00  0.00    -0.252 OA
BRANCH   5   7
ATOM      7  C   UNL     1      -3.047  -4.304  -2.984  1.00  0.00     0.126 C 
ATOM      8  C   UNL     1      -2.395  -3.341  -1.978  1.00  0.00     0.025 C 
BRANCH   7   9
ATOM      9  C   UNL     1      -4.562  -4.373  -2.997  1.00  0.00    -0.034 A 
ATOM     10  C   UNL     1      -7.339  -4.468  -3.452  1.00  0.00    -0.048 A 
ATOM     11  C   UNL     1      -6.540  -5.569  -3.765  1.00  0.00     0.004 A 
ATOM     12  C   UNL     1      -6.754  -3.357  -2.832  1.00  0.00     0.004 A 
ATOM     13  C   UNL     1      -5.167  -5.524  -3.534  1.00  0.00     0.005 A 
ATOM     14  C   UNL     1      -5.377  -3.299  -2.631  1.00  0.00     0.005 A 
BRANCH  10  15
ATOM     15  C   UNL     1      -8.792  -4.432  -3.858  1.00  0.00     0.038 C 
BRANCH  15  16
ATOM     16  C   UNL     1      -9.119  -3.262  -4.813  1.00  0.00    -0.013 C 
ATOM     17  C   UNL     1      -8.352  -3.360  -6.136  1.00  0.00     0.008 C 
ATOM     18  C   UNL     1     -10.622  -3.210  -5.083  1.00  0.00     0.008 C 
ENDBRANCH  15  16
ENDBRANCH  10  15
ENDBRANCH   7   9
ENDBRANCH   5   7
ENDBRANCH   4   5
ENDBRANCH   3   4
ENDBRANCH   2   3
ENDBRANCH   1   2
BRANCH   1  19
ATOM     19  C   UNL     1       0.564  -2.913  -4.464  1.00  0.00     0.202 C 
BRANCH  19  20
ATOM     20  C   UNL     1       1.098  -1.715  -3.668  1.00  0.00     0.261 C 
BRANCH  20  21
ATOM     21  O   UNL     1       0.207  -0.586  -3.685  1.00  0.00    -0.460 OA
BRANCH  21  22
ATOM     22  C   UNL     1       0.696   0.505  -4.320  1.00  0.00     0.338 C 
ATOM     23  O   UNL     1       1.821   0.638  -4.795  1.00  0.00    -0.246 OA
BRANCH  22  24
ATOM     24  C   UNL     1      -0.363   1.505  -4.543  1.00  0.00     0.060 A 
ATOM     25  C   UNL     1      -0.571   1.938  -5.859  1.00  0.00     0.016 A 
ATOM     26  C   UNL     1      -1.066   2.087  -3.486  1.00  0.00     0.016 A 
ATOM     27  C   UNL     1      -1.438   2.996  -6.118  1.00  0.00     0.010 A 
ATOM     28  C   UNL     1      -1.933   3.155  -3.749  1.00  0.00     0.010 A 
ATOM     29  C   UNL     1      -2.091   3.641  -5.060  1.00  0.00    -0.014 A 
BRANCH  29  30
ATOM     30  C   UNL     1      -2.824   4.905  -5.321  1.00  0.00     0.031 A 
ATOM     31  C   UNL     1      -2.159   6.219  -5.010  1.00  0.00     0.074 A 
ATOM     32  C   UNL     1      -4.061   4.885  -5.848  1.00  0.00     0.049 A 
ATOM     33  N   UNL     1      -2.613   7.434  -5.173  1.00  0.00    -0.248 NA
ATOM     34  C   UNL     1      -0.803   6.155  -4.439  1.00  0.00     0.031 C 
ATOM     35  C   UNL     1      -4.812   3.679  -6.191  1.00  0.00     0.029 A 
ATOM     36  N   UNL     1      -4.911   5.915  -6.166  1.00  0.00    -0.354 N 
ATOM     37  C   UNL     1      -1.614   8.279  -4.704  1.00  0.00     0.074 A 
ATOM     38  C   UNL     1      -0.534   7.437  -4.238  1.00  0.00     0.031 C 
ATOM     39  C   UNL     1      -6.025   4.037  -6.646  1.00  0.00     0.029 A 
ATOM     40  C   UNL     1      -6.142   5.494  -6.610  1.00  0.00     0.049 A 
ATOM     41  H   UNL     1      -4.662   6.864  -6.084  1.00  0.00     0.167 HD
ATOM     42  C   UNL     1      -1.589   9.633  -4.679  1.00  0.00     0.034 A 
ATOM     43  C   UNL     1      -7.242   6.202  -6.934  1.00  0.00     0.034 A 
ATOM     44  C   UNL     1      -2.651  10.471  -5.167  1.00  0.00     0.049 A 
ATOM     45  C   UNL     1      -7.194   7.707  -6.887  1.00  0.00     0.074 A 
ATOM     46  C   UNL     1      -2.690  11.852  -5.241  1.00  0.00     0.029 A 
ATOM     47  N   UNL     1      -3.865  10.010  -5.651  1.00  0.00    -0.354 N 
ATOM     48  N   UNL     1      -6.192   8.492  -6.572  1.00  0.00    -0.248 NA
ATOM     49  C   UNL     1      -8.418   8.426  -7.273  1.00  0.00     0.031 C 
ATOM     50  C   UNL     1      -3.939  12.227  -5.748  1.00  0.00     0.029 A 
ATOM     51  C   UNL     1      -4.669  11.079  -6.010  1.00  0.00     0.049 A 
ATOM     52  H   UNL     1      -4.119   9.062  -5.727  1.00  0.00     0.167 HD
ATOM     53  C   UNL     1      -6.652   9.792  -6.751  1.00  0.00     0.074 A 
ATOM     54  C   UNL     1      -8.017   9.690  -7.223  1.00  0.00     0.031 C 
ATOM     55  C   UNL     1      -6.008  10.965  -6.529  1.00  0.00     0.034 A 
BRANCH  42  56
ATOM     56  C   UNL     1      -0.355  10.298  -4.132  1.00  0.00     0.023 A 
ATOM     57  C   UNL     1       0.826  10.314  -4.902  1.00  0.00     0.012 A 
ATOM     58  C   UNL     1      -0.379  10.956  -2.887  1.00  0.00     0.148 A 
ATOM     59  C   UNL     1       1.973  10.951  -4.429  1.00  0.00     0.002 A 
ATOM     60  C   UNL     1       0.757  11.622  -2.440  1.00  0.00     0.091 A 
ATOM     61  F   UNL     1      -1.503  10.908  -2.159  1.00  0.00    -0.205 F 
ATOM     62  C   UNL     1       1.935  11.613  -3.204  1.00  0.00     0.022 A 
BRANCH  60  63
ATOM     63  S   UNL     1       0.782  12.563  -0.910  1.00  0.00     0.127 S 
ATOM     64  O   UNL     1       1.571  11.692  -0.041  1.00  0.00    -0.237 OA
ATOM     65  O   UNL     1       1.460  13.795  -1.315  1.00  0.00    -0.237 OA
ATOM     66  O   UNL     1      -0.611  12.739  -0.526  1.00  0.00    -0.744 OA
ENDBRANCH  60  63
ENDBRANCH  42  56
BRANCH  43  67
ATOM     67  C   UNL     1      -8.477   5.490  -7.369  1.00  0.00     0.023 A 
ATOM     68  C   UNL     1      -8.896   5.576  -8.710  1.00  0.00     0.012 A 
ATOM     69  C   UNL     1      -9.219   4.703  -6.466  1.00  0.00     0.148 A 
ATOM     70  C   UNL     1     -10.046   4.912  -9.139  1.00  0.00     0.002 A 
ATOM     71  C   UNL     1     -10.331   4.000  -6.912  1.00  0.00     0.091 A 
ATOM     72  F   UNL     1      -8.816   4.652  -5.189  1.00  0.00    -0.205 F 
ATOM     73  C   UNL     1     -10.756   4.115  -8.245  1.00  0.00     0.022 A 
BRANCH  71  74
ATOM     74  S   UNL     1     -11.223   2.848  -5.862  1.00  0.00     0.127 S 
ATOM     75  O   UNL     1     -12.469   3.570  -5.615  1.00  0.00    -0.237 OA
ATOM     76  O   UNL     1     -11.351   1.678  -6.732  1.00  0.00    -0.237 OA
ATOM     77  O   UNL     1     -10.371   2.636  -4.699  1.00  0.00    -0.744 OA
ENDBRANCH  71  74
ENDBRANCH  43  67
BRANCH  55  78
ATOM     78  C   UNL     1      -6.756  12.242  -6.813  1.00  0.00     0.023 A 
ATOM     79  C   UNL     1      -7.780  12.660  -5.939  1.00  0.00     0.012 A 
ATOM     80  C   UNL     1      -6.392  13.068  -7.895  1.00  0.00     0.148 A 
ATOM     81  C   UNL     1      -8.449  13.864  -6.155  1.00  0.00     0.002 A 
ATOM     82  C   UNL     1      -7.032  14.289  -8.077  1.00  0.00     0.091 A 
ATOM     83  F   UNL     1      -5.428  12.646  -8.726  1.00  0.00    -0.205 F 
ATOM     84  C   UNL     1      -8.068  14.683  -7.215  1.00  0.00     0.022 A 
BRANCH  82  85
ATOM     85  S   UNL     1      -6.543  15.449  -9.360  1.00  0.00     0.127 S 
ATOM     86  O   UNL     1      -7.625  15.294 -10.330  1.00  0.00    -0.237 OA
ATOM     87  O   UNL     1      -6.543  16.725  -8.644  1.00  0.00    -0.237 OA
ATOM     88  O   UNL     1      -5.228  15.013  -9.811  1.00  0.00    -0.744 OA
ENDBRANCH  82  85
ENDBRANCH  55  78
ENDBRANCH  29  30
ENDBRANCH  22  24
ENDBRANCH  21  22
ENDBRANCH  20  21
ENDBRANCH  19  20
ENDBRANCH   1  19
TORSDOF 20
