REMARK SMILES Cc1coc2cc3oc(=O)c(CC(=O)N[C@H](Cc4c[nH]c5ccc(O)cc45)C(=O)OCCOCCOC(=O)c4ccc(-c5c6nc(c(-c7cccc(S(=O)(=O)[O-])c7F)c7ccc([nH]7)c(-c7cccc(S(=O)(=O)[O-])c7F)c7nc(c(-c8cccc(S(=O)(=O)[O-])c8F)c8ccc5[nH]8)C=C7)C=C6)cc4)c(C)c3cc12
REMARK SMILES IDX 33 1 32 2 31 3 30 4 28 5 29 6 16 7 15 8 13 9 14 10 12 12
REMARK SMILES IDX 11 13 1 14 2 15 3 16 106 17 4 18 5 19 105 20 6 21 104 22
REMARK SMILES IDX 7 23 102 24 8 25 103 26 9 27 10 28 17 29 18 30 19 31 27 32
REMARK SMILES IDX 20 33 21 34 26 35 22 37 24 38 23 39 25 40 34 42 35 43 36 44
REMARK SMILES IDX 37 45 38 46 39 47 40 48 101 49 41 50 100 51 42 52 43 53
REMARK SMILES IDX 44 54 94 55 45 56 99 57 93 58 95 59 46 60 98 61 92 62 91 63
REMARK SMILES IDX 47 65 79 66 59 67 78 68 60 69 63 70 77 71 96 72 61 73 62 74
REMARK SMILES IDX 76 76 97 77 64 78 48 79 49 80 57 81 50 82 52 83 58 84 51 85
REMARK SMILES IDX 53 86 54 87 55 88 56 89 80 90 81 91 89 92 82 93 84 94 90 95
REMARK SMILES IDX 83 96 85 97 86 98 87 99 88 100 65 101 66 102 74 103 67 104
REMARK SMILES IDX 69 105 75 106 68 107 70 108 71 109 72 110 73 111
REMARK H PARENT 15 11 20 36 25 41 95 64 63 75
REMARK Flexibility Score: inf
ROOT
ATOM      1  O   UNL     1       1.636  -7.997  -9.991  1.00  0.00    -0.374 OA
ENDROOT
BRANCH   1   2
ATOM      2  C   UNL     1       2.960  -7.463 -10.043  1.00  0.00     0.202 C 
BRANCH   2   3
ATOM      3  C   UNL     1       3.121  -5.948  -9.889  1.00  0.00     0.261 C 
BRANCH   3   4
ATOM      4  O   UNL     1       3.128  -5.526  -8.509  1.00  0.00    -0.462 OA
BRANCH   4   5
ATOM      5  C   UNL     1       1.909  -5.283  -7.979  1.00  0.00     0.329 C 
ATOM      6  O   UNL     1       0.865  -5.415  -8.606  1.00  0.00    -0.250 OA
BRANCH   5   7
ATOM      7  C   UNL     1       1.954  -4.767  -6.530  1.00  0.00     0.196 C 
BRANCH   7   8
ATOM      8  N   UNL     1       3.209  -4.074  -6.109  1.00  0.00    -0.342 N 
ATOM      9  C   UNL     1       4.474  -4.418  -5.766  1.00  0.00     0.225 C 
ATOM     10  O   UNL     1       5.132  -3.522  -5.221  1.00  0.00    -0.275 OA
ATOM     11  H   UNL     1       3.082  -3.099  -6.072  1.00  0.00     0.164 HD
BRANCH   9  12
ATOM     12  C   UNL     1       5.121  -5.776  -6.000  1.00  0.00     0.143 C 
BRANCH  12  13
ATOM     13  C   UNL     1       4.692  -6.828  -5.008  1.00  0.00     0.051 A 
ATOM     14  C   UNL     1       3.326  -8.032   1.753  1.00  0.00     0.048 C 
ATOM     15  C   UNL     1       2.896  -8.837   0.587  1.00  0.00    -0.005 A 
ATOM     16  C   UNL     1       2.003  -9.890   0.583  1.00  0.00     0.199 A 
ATOM     17  C   UNL     1       3.300  -8.670  -0.771  1.00  0.00     0.024 A 
ATOM     18  O   UNL     1       1.870 -10.412  -0.663  1.00  0.00    -0.464 OA
ATOM     19  C   UNL     1       2.665  -9.677  -1.485  1.00  0.00     0.137 A 
ATOM     20  C   UNL     1       4.125  -7.761  -1.467  1.00  0.00     0.024 A 
ATOM     21  C   UNL     1       2.813  -9.872  -2.849  1.00  0.00     0.095 A 
ATOM     22  C   UNL     1       4.244  -7.859  -2.862  1.00  0.00     0.022 A 
ATOM     23  C   UNL     1       3.600  -8.918  -3.506  1.00  0.00     0.142 A 
ATOM     24  C   UNL     1       4.934  -6.840  -3.681  1.00  0.00    -0.029 A 
ATOM     25  O   UNL     1       3.631  -9.039  -4.899  1.00  0.00    -0.422 OA
ATOM     26  C   UNL     1       5.776  -5.809  -2.983  1.00  0.00     0.046 C 
ATOM     27  C   UNL     1       3.885  -7.899  -5.622  1.00  0.00     0.340 A 
ATOM     28  O   UNL     1       3.457  -7.763  -6.757  1.00  0.00    -0.246 OA
ENDBRANCH  12  13
ENDBRANCH   9  12
ENDBRANCH   7   8
BRANCH   7  29
ATOM     29  C   UNL     1       1.389  -5.622  -5.381  1.00  0.00     0.074 C 
BRANCH  29  30
ATOM     30  C   UNL     1       0.255  -6.599  -5.540  1.00  0.00    -0.020 A 
ATOM     31  C   UNL     1       0.186  -7.793  -4.837  1.00  0.00     0.087 A 
ATOM     32  C   UNL     1      -0.977  -6.512  -6.274  1.00  0.00     0.006 A 
ATOM     33  N   UNL     1      -0.965  -8.447  -5.164  1.00  0.00    -0.361 N 
ATOM     34  C   UNL     1      -1.692  -7.695  -6.050  1.00  0.00     0.046 A 
ATOM     35  C   UNL     1      -1.567  -5.548  -7.115  1.00  0.00     0.056 A 
ATOM     36  H   UNL     1      -1.233  -9.328  -4.816  1.00  0.00     0.166 HD
ATOM     37  C   UNL     1      -2.925  -7.977  -6.653  1.00  0.00     0.030 A 
ATOM     38  C   UNL     1      -2.772  -5.838  -7.754  1.00  0.00     0.116 A 
ATOM     39  C   UNL     1      -3.449  -7.029  -7.532  1.00  0.00     0.048 A 
BRANCH  38  40
ATOM     40  O   UNL     1      -3.271  -4.906  -8.619  1.00  0.00    -0.508 OA
ATOM     41  H   UNL     1      -4.078  -5.066  -9.066  1.00  0.00     0.293 HD
ENDBRANCH  38  40
ENDBRANCH  29  30
ENDBRANCH   7  29
ENDBRANCH   5   7
ENDBRANCH   4   5
ENDBRANCH   3   4
ENDBRANCH   2   3
ENDBRANCH   1   2
BRANCH   1  42
ATOM     42  C   UNL     1       1.237  -8.538  -8.725  1.00  0.00     0.202 C 
BRANCH  42  43
ATOM     43  C   UNL     1       1.776  -9.947  -8.395  1.00  0.00     0.261 C 
BRANCH  43  44
ATOM     44  O   UNL     1       3.201  -9.927  -8.201  1.00  0.00    -0.460 OA
BRANCH  44  45
ATOM     45  C   UNL     1       3.926 -10.823  -8.913  1.00  0.00     0.338 C 
ATOM     46  O   UNL     1       3.597 -11.925  -9.249  1.00  0.00    -0.246 OA
BRANCH  45  47
ATOM     47  C   UNL     1       5.061 -10.042  -9.488  1.00  0.00     0.060 A 
ATOM     48  C   UNL     1       5.770  -9.094  -8.739  1.00  0.00     0.016 A 
ATOM     49  C   UNL     1       5.192 -10.099 -10.877  1.00  0.00     0.016 A 
ATOM     50  C   UNL     1       6.532  -8.132  -9.399  1.00  0.00     0.010 A 
ATOM     51  C   UNL     1       5.958  -9.143 -11.533  1.00  0.00     0.010 A 
ATOM     52  C   UNL     1       6.596  -8.136 -10.801  1.00  0.00    -0.014 A 
BRANCH  52  53
ATOM     53  C   UNL     1       7.506  -7.202 -11.473  1.00  0.00     0.031 A 
ATOM     54  C   UNL     1       8.953  -7.474 -11.217  1.00  0.00     0.074 A 
ATOM     55  C   UNL     1       7.138  -6.329 -12.437  1.00  0.00     0.049 A 
ATOM     56  N   UNL     1       9.867  -6.664 -10.788  1.00  0.00    -0.248 NA
ATOM     57  C   UNL     1       9.411  -8.864 -11.377  1.00  0.00     0.031 C 
ATOM     58  C   UNL     1       5.813  -6.178 -13.044  1.00  0.00     0.029 A 
ATOM     59  N   UNL     1       7.922  -5.505 -13.201  1.00  0.00    -0.354 N 
ATOM     60  C   UNL     1      11.056  -7.396 -10.803  1.00  0.00     0.074 A 
ATOM     61  C   UNL     1      10.692  -8.769 -11.026  1.00  0.00     0.031 C 
ATOM     62  C   UNL     1       5.939  -5.533 -14.226  1.00  0.00     0.029 A 
ATOM     63  C   UNL     1       7.324  -5.133 -14.405  1.00  0.00     0.049 A 
ATOM     64  H   UNL     1       8.819  -5.205 -12.927  1.00  0.00     0.167 HD
ATOM     65  C   UNL     1      12.283  -6.806 -10.822  1.00  0.00     0.034 A 
ATOM     66  C   UNL     1       7.942  -4.634 -15.505  1.00  0.00     0.034 A 
ATOM     67  C   UNL     1      12.224  -5.422 -10.451  1.00  0.00     0.049 A 
ATOM     68  C   UNL     1       9.264  -4.120 -15.087  1.00  0.00     0.074 A 
ATOM     69  C   UNL     1      11.811  -4.723  -9.335  1.00  0.00     0.029 A 
ATOM     70  N   UNL     1      12.355  -4.493 -11.452  1.00  0.00    -0.354 N 
ATOM     71  N   UNL     1       9.437  -3.067 -14.340  1.00  0.00    -0.248 NA
ATOM     72  C   UNL     1      10.412  -5.004 -15.208  1.00  0.00     0.031 C 
ATOM     73  C   UNL     1      11.252  -3.518  -9.847  1.00  0.00     0.029 A 
ATOM     74  C   UNL     1      11.394  -3.545 -11.236  1.00  0.00     0.049 A 
ATOM     75  H   UNL     1      13.013  -4.507 -12.184  1.00  0.00     0.167 HD
ATOM     76  C   UNL     1      10.535  -3.383 -13.554  1.00  0.00     0.074 A 
ATOM     77  C   UNL     1      11.161  -4.527 -14.212  1.00  0.00     0.031 C 
ATOM     78  C   UNL     1      10.666  -2.881 -12.292  1.00  0.00     0.034 A 
BRANCH  65  79
ATOM     79  C   UNL     1      13.518  -7.390 -11.466  1.00  0.00     0.023 A 
ATOM     80  C   UNL     1      14.752  -6.749 -11.212  1.00  0.00     0.012 A 
ATOM     81  C   UNL     1      13.497  -8.352 -12.501  1.00  0.00     0.148 A 
ATOM     82  C   UNL     1      15.892  -7.018 -11.976  1.00  0.00     0.002 A 
ATOM     83  C   UNL     1      14.655  -8.681 -13.198  1.00  0.00     0.091 A 
ATOM     84  F   UNL     1      12.333  -8.864 -12.914  1.00  0.00    -0.205 F 
ATOM     85  C   UNL     1      15.847  -7.993 -12.962  1.00  0.00     0.022 A 
BRANCH  83  86
ATOM     86  S   UNL     1      14.669  -9.986 -14.432  1.00  0.00     0.127 S 
ATOM     87  O   UNL     1      14.690  -9.217 -15.673  1.00  0.00    -0.237 OA
ATOM     88  O   UNL     1      15.914 -10.686 -14.115  1.00  0.00    -0.237 OA
ATOM     89  O   UNL     1      13.466 -10.769 -14.177  1.00  0.00    -0.744 OA
ENDBRANCH  83  86
ENDBRANCH  65  79
BRANCH  66  90
ATOM     90  C   UNL     1       7.608  -4.788 -16.945  1.00  0.00     0.023 A 
ATOM     91  C   UNL     1       8.163  -3.896 -17.887  1.00  0.00     0.012 A 
ATOM     92  C   UNL     1       6.992  -5.963 -17.429  1.00  0.00     0.148 A 
ATOM     93  C   UNL     1       8.139  -4.182 -19.258  1.00  0.00     0.002 A 
ATOM     94  C   UNL     1       6.965  -6.240 -18.794  1.00  0.00     0.091 A 
ATOM     95  F   UNL     1       6.522  -6.856 -16.550  1.00  0.00    -0.205 F 
ATOM     96  C   UNL     1       7.548  -5.357 -19.711  1.00  0.00     0.022 A 
BRANCH  94  97
ATOM     97  S   UNL     1       6.252  -7.756 -19.447  1.00  0.00     0.127 S 
ATOM     98  O   UNL     1       5.415  -7.253 -20.537  1.00  0.00    -0.237 OA
ATOM     99  O   UNL     1       7.441  -8.487 -19.876  1.00  0.00    -0.237 OA
ATOM    100  O   UNL     1       5.507  -8.351 -18.345  1.00  0.00    -0.744 OA
ENDBRANCH  94  97
ENDBRANCH  66  90
BRANCH  78 101
ATOM    101  C   UNL     1       9.753  -1.767 -11.849  1.00  0.00     0.023 A 
ATOM    102  C   UNL     1       8.354  -1.934 -11.776  1.00  0.00     0.012 A 
ATOM    103  C   UNL     1      10.336  -0.631 -11.261  1.00  0.00     0.148 A 
ATOM    104  C   UNL     1       7.556  -0.987 -11.132  1.00  0.00     0.002 A 
ATOM    105  C   UNL     1       9.546   0.276 -10.569  1.00  0.00     0.091 A 
ATOM    106  F   UNL     1      11.668  -0.488 -11.344  1.00  0.00    -0.205 F 
ATOM    107  C   UNL     1       8.153   0.106 -10.509  1.00  0.00     0.022 A 
BRANCH 105 108
ATOM    108  S   UNL     1      10.268   1.608  -9.606  1.00  0.00     0.127 S 
ATOM    109  O   UNL     1       9.933   2.782 -10.409  1.00  0.00    -0.237 OA
ATOM    110  O   UNL     1       9.544   1.506  -8.338  1.00  0.00    -0.237 OA
ATOM    111  O   UNL     1      11.690   1.305  -9.504  1.00  0.00    -0.744 OA
ENDBRANCH 105 108
ENDBRANCH  78 101
ENDBRANCH  52  53
ENDBRANCH  45  47
ENDBRANCH  44  45
ENDBRANCH  43  44
ENDBRANCH  42  43
ENDBRANCH   1  42
TORSDOF 23
