REMARK SMILES O=C(OCCOCCOC(=O)c1ccc(-c2c3nc(c(-c4cccc(S(=O)(=O)[O-])c4F)c4ccc([nH]4)c(-c4cccc(S(=O)(=O)[O-])c4F)c4nc(c(-c5cccc(S(=O)(=O)[O-])c5F)c5ccc2[nH]5)C=C4)C=C3)cc1)C1=Cc2cc(Cl)ccc2O[C@@H]1C(F)(F)F
REMARK SMILES IDX 7 1 6 2 5 3 4 4 3 5 2 6 1 7 75 8 76 9 85 10 77 11 84 12
REMARK SMILES IDX 78 13 83 14 79 15 82 16 80 17 81 18 86 19 87 20 88 21 89 22
REMARK SMILES IDX 8 23 9 24 10 25 11 26 12 27 13 28 74 29 14 30 73 31 15 32
REMARK SMILES IDX 16 33 17 34 67 35 18 36 72 37 66 38 68 39 19 40 71 41 65 42
REMARK SMILES IDX 64 43 20 45 52 46 32 47 51 48 33 49 36 50 50 51 69 52 34 53
REMARK SMILES IDX 35 54 49 56 70 57 37 58 21 59 22 60 30 61 23 62 25 63 31 64
REMARK SMILES IDX 24 65 26 66 27 67 28 68 29 69 53 70 54 71 62 72 55 73 57 74
REMARK SMILES IDX 63 75 56 76 58 77 59 78 60 79 61 80 38 81 39 82 47 83 40 84
REMARK SMILES IDX 42 85 48 86 41 87 43 88 44 89 45 90 46 91
REMARK H PARENT 68 44 36 55
REMARK Flexibility Score: inf
ROOT
ATOM      1  C   UNL     1       2.889   1.869   2.433  1.00  0.00     0.202 C 
ENDROOT
BRANCH   1   2
ATOM      2  O   UNL     1       4.047   1.040   2.232  1.00  0.00    -0.374 OA
BRANCH   2   3
ATOM      3  C   UNL     1       4.436  -0.095   1.165  1.00  0.00     0.202 C 
BRANCH   3   4
ATOM      4  C   UNL     1       3.507  -0.736  -0.705  1.00  0.00     0.261 C 
BRANCH   4   5
ATOM      5  O   UNL     1       2.537  -1.916  -0.884  1.00  0.00    -0.460 OA
BRANCH   5   6
ATOM      6  C   UNL     1       2.732  -2.886   0.011  1.00  0.00     0.338 C 
ATOM      7  O   UNL     1       2.111  -3.901   0.199  1.00  0.00    -0.246 OA
BRANCH   6   8
ATOM      8  C   UNL     1       3.642  -2.136   0.848  1.00  0.00     0.087 C 
ATOM      9  C   UNL     1       5.011  -2.108   0.272  1.00  0.00     0.027 C 
ATOM     10  C   UNL     1       2.500  -0.584   1.053  1.00  0.00     0.316 C 
ATOM     11  C   UNL     1       5.730  -0.651  -0.535  1.00  0.00     0.019 A 
ATOM     12  O   UNL     1       3.227   0.965   0.158  1.00  0.00    -0.475 OA
ATOM     13  C   UNL     1       6.903  -0.776  -1.227  1.00  0.00     0.032 A 
ATOM     14  C   UNL     1       4.841   0.834  -0.683  1.00  0.00     0.128 A 
ATOM     15  C   UNL     1       7.229   0.322  -2.045  1.00  0.00     0.041 A 
ATOM     16  C   UNL     1       5.180   1.797  -1.583  1.00  0.00     0.048 A 
ATOM     17  Cl  UNL     1       8.717   0.218  -2.932  1.00  0.00    -0.084 Cl
ATOM     18  C   UNL     1       6.406   1.510  -2.239  1.00  0.00     0.024 A 
BRANCH  10  19
ATOM     19  C   UNL     1       2.079  -0.817   2.566  1.00  0.00     0.430 C 
ATOM     20  F   UNL     1       1.211   0.071   3.082  1.00  0.00    -0.167 F 
ATOM     21  F   UNL     1       1.415  -2.014   2.616  1.00  0.00    -0.167 F 
ATOM     22  F   UNL     1       3.110  -0.972   3.427  1.00  0.00    -0.167 F 
ENDBRANCH  10  19
ENDBRANCH   6   8
ENDBRANCH   5   6
ENDBRANCH   4   5
ENDBRANCH   3   4
ENDBRANCH   2   3
ENDBRANCH   1   2
BRANCH   1  23
ATOM     23  C   UNL     1       3.063   3.378   2.378  1.00  0.00     0.261 C 
BRANCH  23  24
ATOM     24  O   UNL     1       3.542   3.822   1.125  1.00  0.00    -0.460 OA
BRANCH  24  25
ATOM     25  C   UNL     1       4.862   4.105   1.103  1.00  0.00     0.338 C 
ATOM     26  O   UNL     1       5.699   3.853   1.950  1.00  0.00    -0.246 OA
BRANCH  25  27
ATOM     27  C   UNL     1       5.131   4.785  -0.172  1.00  0.00     0.060 A 
ATOM     28  C   UNL     1       6.373   4.583  -0.779  1.00  0.00     0.016 A 
ATOM     29  C   UNL     1       4.139   5.562  -0.786  1.00  0.00     0.016 A 
ATOM     30  C   UNL     1       6.608   5.113  -2.041  1.00  0.00     0.010 A 
ATOM     31  C   UNL     1       4.383   6.114  -2.033  1.00  0.00     0.010 A 
ATOM     32  C   UNL     1       5.620   5.892  -2.655  1.00  0.00    -0.014 A 
BRANCH  32  33
ATOM     33  C   UNL     1       5.954   6.700  -3.834  1.00  0.00     0.031 A 
ATOM     34  C   UNL     1       6.460   8.082  -3.579  1.00  0.00     0.074 A 
ATOM     35  C   UNL     1       5.728   6.241  -5.073  1.00  0.00     0.049 A 
ATOM     36  N   UNL     1       6.718   9.035  -4.427  1.00  0.00    -0.248 NA
ATOM     37  C   UNL     1       6.688   8.440  -2.167  1.00  0.00     0.031 C 
ATOM     38  C   UNL     1       5.229   4.908  -5.404  1.00  0.00     0.029 A 
ATOM     39  N   UNL     1       5.846   6.875  -6.281  1.00  0.00    -0.354 N 
ATOM     40  C   UNL     1       7.105  10.119  -3.653  1.00  0.00     0.074 A 
ATOM     41  C   UNL     1       7.044   9.708  -2.269  1.00  0.00     0.031 C 
ATOM     42  C   UNL     1       5.039   4.837  -6.733  1.00  0.00     0.029 A 
ATOM     43  C   UNL     1       5.363   6.132  -7.330  1.00  0.00     0.049 A 
ATOM     44  H   UNL     1       6.237   7.772  -6.387  1.00  0.00     0.167 HD
ATOM     45  C   UNL     1       7.466  11.353  -4.064  1.00  0.00     0.034 A 
ATOM     46  C   UNL     1       5.159   6.486  -8.614  1.00  0.00     0.034 A 
ATOM     47  C   UNL     1       7.466  11.753  -5.441  1.00  0.00     0.049 A 
ATOM     48  C   UNL     1       5.526   7.880  -9.050  1.00  0.00     0.074 A 
ATOM     49  C   UNL     1       7.848  12.964  -5.983  1.00  0.00     0.029 A 
ATOM     50  N   UNL     1       7.016  10.962  -6.488  1.00  0.00    -0.354 N 
ATOM     51  N   UNL     1       5.999   8.870  -8.330  1.00  0.00    -0.248 NA
ATOM     52  C   UNL     1       5.359   8.200 -10.474  1.00  0.00     0.031 C 
ATOM     53  C   UNL     1       7.561  12.930  -7.351  1.00  0.00     0.029 A 
ATOM     54  C   UNL     1       7.081  11.669  -7.673  1.00  0.00     0.049 A 
ATOM     55  H   UNL     1       6.697  10.035  -6.400  1.00  0.00     0.167 HD
ATOM     56  C   UNL     1       6.226   9.916  -9.217  1.00  0.00     0.074 A 
ATOM     57  C   UNL     1       5.836   9.438 -10.529  1.00  0.00     0.031 C 
ATOM     58  C   UNL     1       6.718  11.156  -8.972  1.00  0.00     0.034 A 
BRANCH  45  59
ATOM     59  C   UNL     1       7.821  12.351  -2.997  1.00  0.00     0.023 A 
ATOM     60  C   UNL     1       8.969  12.165  -2.197  1.00  0.00     0.012 A 
ATOM     61  C   UNL     1       6.988  13.460  -2.764  1.00  0.00     0.148 A 
ATOM     62  C   UNL     1       9.245  13.034  -1.142  1.00  0.00     0.002 A 
ATOM     63  C   UNL     1       7.304  14.355  -1.751  1.00  0.00     0.091 A 
ATOM     64  F   UNL     1       5.886  13.602  -3.513  1.00  0.00    -0.205 F 
ATOM     65  C   UNL     1       8.418  14.133  -0.925  1.00  0.00     0.022 A 
BRANCH  63  66
ATOM     66  S   UNL     1       6.346  15.842  -1.450  1.00  0.00     0.127 S 
ATOM     67  O   UNL     1       5.717  15.532  -0.168  1.00  0.00    -0.237 OA
ATOM     68  O   UNL     1       7.389  16.866  -1.387  1.00  0.00    -0.237 OA
ATOM     69  O   UNL     1       5.435  15.970  -2.579  1.00  0.00    -0.744 OA
ENDBRANCH  63  66
ENDBRANCH  45  59
BRANCH  46  70
ATOM     70  C   UNL     1       4.568   5.503  -9.561  1.00  0.00     0.023 A 
ATOM     71  C   UNL     1       5.360   4.935 -10.576  1.00  0.00     0.012 A 
ATOM     72  C   UNL     1       3.230   5.086  -9.416  1.00  0.00     0.148 A 
ATOM     73  C   UNL     1       4.824   3.981 -11.443  1.00  0.00     0.002 A 
ATOM     74  C   UNL     1       2.720   4.096 -10.245  1.00  0.00     0.091 A 
ATOM     75  F   UNL     1       2.496   5.646  -8.444  1.00  0.00    -0.205 F 
ATOM     76  C   UNL     1       3.509   3.553 -11.270  1.00  0.00     0.022 A 
BRANCH  74  77
ATOM     77  S   UNL     1       1.083   3.394 -10.014  1.00  0.00     0.127 S 
ATOM     78  O   UNL     1       0.428   3.743 -11.273  1.00  0.00    -0.237 OA
ATOM     79  O   UNL     1       1.392   1.974  -9.851  1.00  0.00    -0.237 OA
ATOM     80  O   UNL     1       0.537   4.037  -8.827  1.00  0.00    -0.744 OA
ENDBRANCH  74  77
ENDBRANCH  46  70
BRANCH  58  81
ATOM     81  C   UNL     1       6.941  12.074 -10.144  1.00  0.00     0.023 A 
ATOM     82  C   UNL     1       5.854  12.674 -10.806  1.00  0.00     0.012 A 
ATOM     83  C   UNL     1       8.257  12.431 -10.503  1.00  0.00     0.148 A 
ATOM     84  C   UNL     1       6.076  13.603 -11.824  1.00  0.00     0.002 A 
ATOM     85  C   UNL     1       8.469  13.399 -11.473  1.00  0.00     0.091 A 
ATOM     86  F   UNL     1       9.276  11.834  -9.866  1.00  0.00    -0.205 F 
ATOM     87  C   UNL     1       7.380  13.977 -12.145  1.00  0.00     0.022 A 
BRANCH  85  88
ATOM     88  S   UNL     1      10.106  14.020 -11.871  1.00  0.00     0.127 S 
ATOM     89  O   UNL     1      10.276  13.549 -13.245  1.00  0.00    -0.237 OA
ATOM     90  O   UNL     1       9.926  15.466 -11.739  1.00  0.00    -0.237 OA
ATOM     91  O   UNL     1      11.014  13.429 -10.898  1.00  0.00    -0.744 OA
ENDBRANCH  85  88
ENDBRANCH  58  81
ENDBRANCH  32  33
ENDBRANCH  25  27
ENDBRANCH  24  25
ENDBRANCH  23  24
ENDBRANCH   1  23
TORSDOF 18
