REMARK SMILES CC1(C)S[C@H](c2ccc(-c3ccccc3)o2)[NH2+][C@H]1C(=O)OCCOCCOC(=O)c1ccc(-c2c3nc(c(-c4cccc(S(=O)(=O)[O-])c4F)c4ccc([nH]4)c(-c4cccc(S(=O)(=O)[O-])c4F)c4nc(c(-c5cccc(S(=O)(=O)[O-])c5F)c5ccc2[nH]5)C=C4)C=C3)cc1
REMARK SMILES IDX 25 1 24 2 23 3 22 4 21 5 19 6 20 7 18 8 1 9 2 10 3 11 4 12
REMARK SMILES IDX 5 13 17 14 6 17 7 18 16 19 8 20 9 21 10 22 11 23 15 24 12 25
REMARK SMILES IDX 14 26 13 27 26 28 27 29 28 30 29 31 30 32 31 33 92 34 32 35
REMARK SMILES IDX 91 36 33 37 34 38 35 39 85 40 36 41 90 42 84 43 86 44 37 45
REMARK SMILES IDX 89 46 83 47 82 48 38 50 70 51 50 52 69 53 51 54 54 55 68 56
REMARK SMILES IDX 87 57 52 58 53 59 67 61 88 62 55 63 39 64 40 65 48 66 41 67
REMARK SMILES IDX 43 68 49 69 42 70 44 71 45 72 46 73 47 74 71 75 72 76 80 77
REMARK SMILES IDX 73 78 75 79 81 80 74 81 76 82 77 83 78 84 79 85 56 86 57 87
REMARK SMILES IDX 65 88 58 89 60 90 66 91 59 92 61 93 62 94 63 95 64 96
REMARK H PARENT 17 15 17 16 86 49 54 60
REMARK Flexibility Score: inf
ROOT
ATOM      1  C   UNL     1       2.870   3.269  -0.855  1.00  0.00     0.202 C 
ENDROOT
BRANCH   1   2
ATOM      2  O   UNL     1       2.576   4.604  -0.455  1.00  0.00    -0.374 OA
BRANCH   2   3
ATOM      3  C   UNL     1       1.913   4.757   0.803  1.00  0.00     0.202 C 
BRANCH   3   4
ATOM      4  C   UNL     1       0.392   4.555   0.806  1.00  0.00     0.261 C 
BRANCH   4   5
ATOM      5  O   UNL     1       0.020   3.163   0.712  1.00  0.00    -0.459 OA
BRANCH   5   6
ATOM      6  C   UNL     1      -0.336   2.721  -0.525  1.00  0.00     0.366 C 
ATOM      7  O   UNL     1      -0.367   3.427  -1.528  1.00  0.00    -0.245 OA
BRANCH   6   8
ATOM      8  C   UNL     1      -0.683   1.226  -0.548  1.00  0.00     0.310 C 
ATOM      9  C   UNL     1       1.038   0.533   1.319  1.00  0.00     0.030 C 
ATOM     10  C   UNL     1       0.369   0.216  -0.024  1.00  0.00     0.079 C 
ATOM     11  C   UNL     1       1.407  -0.149  -1.091  1.00  0.00     0.030 C 
ATOM     12  S   UNL     1      -0.645  -1.291   0.278  1.00  0.00    -0.078 SA
ATOM     13  C   UNL     1      -2.236  -0.438   0.046  1.00  0.00     0.311 C 
ATOM     14  N   UNL     1      -1.968   0.997   0.162  1.00  0.00    -0.316 N 
ATOM     15  H   UNL     1      -1.884   1.265   1.143  1.00  0.00     0.348 HD
ATOM     16  H   UNL     1      -2.723   1.554  -0.238  1.00  0.00     0.348 HD
BRANCH  13  17
ATOM     17  C   UNL     1      -2.862  -0.867  -1.253  1.00  0.00     0.172 A 
ATOM     18  C   UNL     1      -3.339  -2.097  -1.671  1.00  0.00     0.054 A 
ATOM     19  O   UNL     1      -3.040   0.054  -2.258  1.00  0.00    -0.454 OA
ATOM     20  C   UNL     1      -3.852  -1.916  -2.973  1.00  0.00     0.051 A 
ATOM     21  C   UNL     1      -3.656  -0.589  -3.291  1.00  0.00     0.134 A 
BRANCH  21  22
ATOM     22  C   UNL     1      -4.019   0.204  -4.452  1.00  0.00     0.017 A 
ATOM     23  C   UNL     1      -3.053   0.861  -5.222  1.00  0.00     0.012 A 
ATOM     24  C   UNL     1      -5.360   0.253  -4.859  1.00  0.00     0.012 A 
ATOM     25  C   UNL     1      -3.420   1.527  -6.397  1.00  0.00     0.001 A 
ATOM     26  C   UNL     1      -5.729   0.929  -6.024  1.00  0.00     0.001 A 
ATOM     27  C   UNL     1      -4.756   1.557  -6.799  1.00  0.00     0.000 A 
ENDBRANCH  21  22
ENDBRANCH  13  17
ENDBRANCH   6   8
ENDBRANCH   5   6
ENDBRANCH   4   5
ENDBRANCH   3   4
ENDBRANCH   2   3
ENDBRANCH   1   2
BRANCH   1  28
ATOM     28  C   UNL     1       4.177   2.666  -0.327  1.00  0.00     0.261 C 
BRANCH  28  29
ATOM     29  O   UNL     1       4.159   2.539   1.104  1.00  0.00    -0.460 OA
BRANCH  29  30
ATOM     30  C   UNL     1       4.840   3.511   1.755  1.00  0.00     0.338 C 
ATOM     31  O   UNL     1       5.544   4.375   1.250  1.00  0.00    -0.246 OA
BRANCH  30  32
ATOM     32  C   UNL     1       4.475   3.520   3.184  1.00  0.00     0.060 A 
ATOM     33  C   UNL     1       4.221   4.770   3.763  1.00  0.00     0.016 A 
ATOM     34  C   UNL     1       4.429   2.358   3.958  1.00  0.00     0.016 A 
ATOM     35  C   UNL     1       4.006   4.873   5.132  1.00  0.00     0.010 A 
ATOM     36  C   UNL     1       4.209   2.464   5.336  1.00  0.00     0.010 A 
ATOM     37  C   UNL     1       4.051   3.727   5.935  1.00  0.00    -0.014 A 
BRANCH  37  38
ATOM     38  C   UNL     1       4.098   3.887   7.409  1.00  0.00     0.031 A 
ATOM     39  C   UNL     1       5.417   3.731   8.118  1.00  0.00     0.074 A 
ATOM     40  C   UNL     1       2.993   4.218   8.100  1.00  0.00     0.049 A 
ATOM     41  N   UNL     1       5.695   3.865   9.388  1.00  0.00    -0.248 NA
ATOM     42  C   UNL     1       6.578   3.375   7.285  1.00  0.00     0.031 C 
ATOM     43  C   UNL     1       1.661   4.403   7.524  1.00  0.00     0.029 A 
ATOM     44  N   UNL     1       2.815   4.446   9.441  1.00  0.00    -0.354 N 
ATOM     45  C   UNL     1       7.051   3.584   9.512  1.00  0.00     0.074 A 
ATOM     46  C   UNL     1       7.537   3.253   8.191  1.00  0.00     0.031 C 
ATOM     47  C   UNL     1       0.798   4.699   8.510  1.00  0.00     0.029 A 
ATOM     48  C   UNL     1       1.510   4.702   9.787  1.00  0.00     0.049 A 
ATOM     49  H   UNL     1       3.552   4.427  10.093  1.00  0.00     0.167 HD
ATOM     50  C   UNL     1       7.826   3.615  10.622  1.00  0.00     0.034 A 
ATOM     51  C   UNL     1       0.952   4.898  10.998  1.00  0.00     0.034 A 
ATOM     52  C   UNL     1       7.344   3.963  11.931  1.00  0.00     0.049 A 
ATOM     53  C   UNL     1       1.833   4.909  12.219  1.00  0.00     0.074 A 
ATOM     54  C   UNL     1       8.059   4.072  13.110  1.00  0.00     0.029 A 
ATOM     55  N   UNL     1       6.022   4.244  12.238  1.00  0.00    -0.354 N 
ATOM     56  N   UNL     1       3.133   4.755  12.303  1.00  0.00    -0.248 NA
ATOM     57  C   UNL     1       1.175   5.157  13.511  1.00  0.00     0.031 C 
ATOM     58  C   UNL     1       7.162   4.380  14.138  1.00  0.00     0.029 A 
ATOM     59  C   UNL     1       5.895   4.509  13.591  1.00  0.00     0.049 A 
ATOM     60  H   UNL     1       5.281   4.254  11.589  1.00  0.00     0.167 HD
ATOM     61  C   UNL     1       3.453   4.926  13.646  1.00  0.00     0.074 A 
ATOM     62  C   UNL     1       2.212   5.215  14.335  1.00  0.00     0.031 C 
ATOM     63  C   UNL     1       4.661   4.841  14.256  1.00  0.00     0.034 A 
BRANCH  50  64
ATOM     64  C   UNL     1       9.286   3.275  10.466  1.00  0.00     0.023 A 
ATOM     65  C   UNL     1      10.152   4.173   9.808  1.00  0.00     0.012 A 
ATOM     66  C   UNL     1       9.811   2.090  11.018  1.00  0.00     0.148 A 
ATOM     67  C   UNL     1      11.509   3.881   9.672  1.00  0.00     0.002 A 
ATOM     68  C   UNL     1      11.173   1.829  10.921  1.00  0.00     0.091 A 
ATOM     69  F   UNL     1       8.969   1.238  11.620  1.00  0.00    -0.205 F 
ATOM     70  C   UNL     1      12.020   2.716  10.237  1.00  0.00     0.022 A 
BRANCH  68  71
ATOM     71  S   UNL     1      11.942   0.397  11.684  1.00  0.00     0.127 S 
ATOM     72  O   UNL     1      12.319  -0.394  10.513  1.00  0.00    -0.237 OA
ATOM     73  O   UNL     1      13.066   0.999  12.402  1.00  0.00    -0.237 OA
ATOM     74  O   UNL     1      10.924  -0.200  12.537  1.00  0.00    -0.744 OA
ENDBRANCH  68  71
ENDBRANCH  50  64
BRANCH  51  75
ATOM     75  C   UNL     1      -0.516   5.130  11.112  1.00  0.00     0.023 A 
ATOM     76  C   UNL     1      -0.998   6.391  11.514  1.00  0.00     0.012 A 
ATOM     77  C   UNL     1      -1.436   4.106  10.813  1.00  0.00     0.148 A 
ATOM     78  C   UNL     1      -2.368   6.617  11.648  1.00  0.00     0.002 A 
ATOM     79  C   UNL     1      -2.800   4.356  10.891  1.00  0.00     0.091 A 
ATOM     80  F   UNL     1      -0.956   2.909  10.447  1.00  0.00    -0.205 F 
ATOM     81  C   UNL     1      -3.269   5.605  11.327  1.00  0.00     0.022 A 
BRANCH  79  82
ATOM     82  S   UNL     1      -4.029   3.155  10.371  1.00  0.00     0.127 S 
ATOM     83  O   UNL     1      -4.651   2.794  11.642  1.00  0.00    -0.237 OA
ATOM     84  O   UNL     1      -4.869   3.954   9.477  1.00  0.00    -0.237 OA
ATOM     85  O   UNL     1      -3.287   2.093   9.707  1.00  0.00    -0.744 OA
ENDBRANCH  79  82
ENDBRANCH  51  75
BRANCH  63  86
ATOM     86  C   UNL     1       4.716   5.108  15.739  1.00  0.00     0.023 A 
ATOM     87  C   UNL     1       4.167   4.180  16.646  1.00  0.00     0.012 A 
ATOM     88  C   UNL     1       5.371   6.253  16.235  1.00  0.00     0.148 A 
ATOM     89  C   UNL     1       4.230   4.410  18.020  1.00  0.00     0.002 A 
ATOM     90  C   UNL     1       5.478   6.448  17.607  1.00  0.00     0.091 A 
ATOM     91  F   UNL     1       5.875   7.133  15.357  1.00  0.00    -0.205 F 
ATOM     92  C   UNL     1       4.895   5.535  18.501  1.00  0.00     0.022 A 
BRANCH  90  93
ATOM     93  S   UNL     1       6.402   7.815  18.317  1.00  0.00     0.127 S 
ATOM     94  O   UNL     1       5.329   8.660  18.838  1.00  0.00    -0.237 OA
ATOM     95  O   UNL     1       7.205   7.147  19.342  1.00  0.00    -0.237 OA
ATOM     96  O   UNL     1       7.175   8.389  17.223  1.00  0.00    -0.744 OA
ENDBRANCH  90  93
ENDBRANCH  63  86
ENDBRANCH  37  38
ENDBRANCH  30  32
ENDBRANCH  29  30
ENDBRANCH  28  29
ENDBRANCH   1  28
TORSDOF 19
