REMARK SMILES NS(=O)(=O)c1ccc(-n2nc(NC(=O)NCCCCCCCCCCC(=O)OCCOCCOC(=O)c3ccc(-c4c5nc(c(-c6cccc(S(=O)(=O)[O-])c6F)c6ccc([nH]6)c(-c6cccc(S(=O)(=O)[O-])c6F)c6nc(c(-c7cccc(S(=O)(=O)[O-])c7F)c7ccc4[nH]7)C=C6)C=C5)cc3)cc2-c2ccccc2)cc1
REMARK SMILES IDX 24 1 23 2 22 3 21 4 20 5 19 6 18 7 17 8 16 9 15 10 12 11
REMARK SMILES IDX 13 12 14 14 11 16 9 17 10 18 101 19 100 20 8 21 5 22 6 23
REMARK SMILES IDX 109 24 7 25 108 26 2 27 3 28 4 29 1 30 102 33 103 34 107 35
REMARK SMILES IDX 104 36 106 37 105 38 25 39 26 40 27 41 28 42 29 43 30 44
REMARK SMILES IDX 31 45 32 46 33 47 34 48 35 49 36 50 37 51 38 52 99 53 39 54
REMARK SMILES IDX 98 55 40 56 41 57 42 58 92 59 43 60 97 61 91 62 93 63 44 64
REMARK SMILES IDX 96 65 90 66 89 67 45 69 77 70 57 71 76 72 58 73 61 74 75 75
REMARK SMILES IDX 94 76 59 77 60 78 74 80 95 81 62 82 46 83 47 84 55 85 48 86
REMARK SMILES IDX 50 87 56 88 49 89 51 90 52 91 53 92 54 93 78 94 79 95 87 96
REMARK SMILES IDX 80 97 82 98 88 99 81 100 83 101 84 102 85 103 86 104 63 105
REMARK SMILES IDX 64 106 72 107 65 108 67 109 73 110 66 111 68 112 69 113
REMARK SMILES IDX 70 114 71 115
REMARK H PARENT 12 13 15 15 1 31 1 32 93 68 61 79
REMARK Flexibility Score: inf
ROOT
ATOM      1  C   UNL     1       5.458  -2.213   2.517  1.00  0.00     0.012 C 
ENDROOT
BRANCH   1   2
ATOM      2  C   UNL     1       6.534  -2.814   1.608  1.00  0.00     0.001 C 
BRANCH   2   3
ATOM      3  C   UNL     1       6.356  -4.309   1.366  1.00  0.00     0.000 C 
BRANCH   3   4
ATOM      4  C   UNL     1       5.120  -4.619   0.523  1.00  0.00     0.000 C 
BRANCH   4   5
ATOM      5  C   UNL     1       5.207  -4.072  -0.905  1.00  0.00     0.000 C 
BRANCH   5   6
ATOM      6  C   UNL     1       6.459  -4.510  -1.677  1.00  0.00     0.000 C 
BRANCH   6   7
ATOM      7  C   UNL     1       6.670  -6.028  -1.751  1.00  0.00     0.002 C 
BRANCH   7   8
ATOM      8  C   UNL     1       5.465  -6.821  -2.244  1.00  0.00     0.021 C 
BRANCH   8   9
ATOM      9  C   UNL     1       4.890  -6.345  -3.567  1.00  0.00     0.117 C 
BRANCH   9  10
ATOM     10  N   UNL     1       5.653  -6.715  -4.735  1.00  0.00    -0.338 N 
ATOM     11  N   UNL     1       3.916  -7.030  -6.334  1.00  0.00    -0.291 N 
ATOM     12  C   UNL     1       5.215  -7.074  -5.962  1.00  0.00     0.320 C 
ATOM     13  H   UNL     1       3.702  -7.593  -7.113  1.00  0.00     0.173 HD
ATOM     14  O   UNL     1       6.021  -7.598  -6.737  1.00  0.00    -0.248 OA
ATOM     15  H   UNL     1       6.631  -6.704  -4.621  1.00  0.00     0.165 HD
BRANCH  11  16
ATOM     16  C   UNL     1       2.838  -6.344  -5.824  1.00  0.00     0.157 A 
ATOM     17  N   UNL     1       1.692  -5.141  -4.510  1.00  0.00    -0.231 N 
ATOM     18  N   UNL     1       2.897  -5.228  -5.099  1.00  0.00    -0.149 NA
ATOM     19  C   UNL     1       0.750  -5.923  -5.170  1.00  0.00     0.076 A 
ATOM     20  C   UNL     1       1.492  -6.734  -6.012  1.00  0.00     0.078 A 
BRANCH  17  21
ATOM     21  C   UNL     1       1.533  -4.393  -3.311  1.00  0.00     0.065 A 
ATOM     22  C   UNL     1       1.034  -2.819  -1.068  1.00  0.00     0.082 A 
ATOM     23  C   UNL     1       0.458  -4.089  -1.159  1.00  0.00     0.024 A 
ATOM     24  C   UNL     1       1.900  -2.355  -2.064  1.00  0.00     0.024 A 
ATOM     25  C   UNL     1       0.707  -4.877  -2.283  1.00  0.00     0.030 A 
ATOM     26  C   UNL     1       2.174  -3.157  -3.178  1.00  0.00     0.030 A 
BRANCH  22  27
ATOM     27  S   UNL     1       0.591  -1.815   0.317  1.00  0.00     0.238 S 
ATOM     28  O   UNL     1       1.349  -2.248   1.459  1.00  0.00    -0.207 OA
ATOM     29  O   UNL     1      -0.858  -1.704   0.347  1.00  0.00    -0.207 OA
BRANCH  27  30
ATOM     30  N   UNL     1       1.144  -0.285  -0.068  1.00  0.00    -0.225 NA
ATOM     31  H   UNL     1       0.922   0.358   0.693  1.00  0.00     0.137 HD
ATOM     32  H   UNL     1       0.692   0.034  -0.925  1.00  0.00     0.137 HD
ENDBRANCH  27  30
ENDBRANCH  22  27
ENDBRANCH  17  21
BRANCH  19  33
ATOM     33  C   UNL     1      -0.691  -5.808  -4.959  1.00  0.00     0.000 A 
ATOM     34  C   UNL     1      -1.278  -4.534  -4.895  1.00  0.00     0.010 A 
ATOM     35  C   UNL     1      -1.488  -6.936  -4.750  1.00  0.00     0.010 A 
ATOM     36  C   UNL     1      -2.623  -4.384  -4.568  1.00  0.00     0.001 A 
ATOM     37  C   UNL     1      -2.842  -6.785  -4.439  1.00  0.00     0.001 A 
ATOM     38  C   UNL     1      -3.404  -5.512  -4.336  1.00  0.00     0.000 A 
ENDBRANCH  19  33
ENDBRANCH  11  16
ENDBRANCH   9  10
ENDBRANCH   8   9
ENDBRANCH   7   8
ENDBRANCH   6   7
ENDBRANCH   5   6
ENDBRANCH   4   5
ENDBRANCH   3   4
ENDBRANCH   2   3
ENDBRANCH   1   2
BRANCH   1  39
ATOM     39  C   UNL     1       5.175  -2.957   3.831  1.00  0.00     0.123 C 
BRANCH  39  40
ATOM     40  C   UNL     1       6.300  -3.110   4.839  1.00  0.00     0.305 C 
ATOM     41  O   UNL     1       6.094  -3.296   6.033  1.00  0.00    -0.252 OA
BRANCH  40  42
ATOM     42  O   UNL     1       7.524  -3.005   4.275  1.00  0.00    -0.463 OA
BRANCH  42  43
ATOM     43  C   UNL     1       8.654  -2.879   5.153  1.00  0.00     0.261 C 
BRANCH  43  44
ATOM     44  C   UNL     1       9.244  -1.472   5.059  1.00  0.00     0.202 C 
BRANCH  44  45
ATOM     45  O   UNL     1       8.452  -0.413   5.605  1.00  0.00    -0.374 OA
BRANCH  45  46
ATOM     46  C   UNL     1       7.338   0.056   4.851  1.00  0.00     0.202 C 
BRANCH  46  47
ATOM     47  C   UNL     1       7.626   0.951   3.655  1.00  0.00     0.261 C 
BRANCH  47  48
ATOM     48  O   UNL     1       8.313   0.255   2.625  1.00  0.00    -0.460 OA
BRANCH  48  49
ATOM     49  C   UNL     1       9.640   0.508   2.569  1.00  0.00     0.338 C 
ATOM     50  O   UNL     1      10.327   1.026   3.434  1.00  0.00    -0.246 OA
BRANCH  49  51
ATOM     51  C   UNL     1      10.111   0.213   1.213  1.00  0.00     0.060 A 
ATOM     52  C   UNL     1      11.411   0.621   0.914  1.00  0.00     0.016 A 
ATOM     53  C   UNL     1       9.198  -0.161   0.215  1.00  0.00     0.016 A 
ATOM     54  C   UNL     1      11.714   0.894  -0.398  1.00  0.00     0.010 A 
ATOM     55  C   UNL     1       9.499   0.120  -1.094  1.00  0.00     0.010 A 
ATOM     56  C   UNL     1      10.716   0.733  -1.366  1.00  0.00    -0.014 A 
BRANCH  56  57
ATOM     57  C   UNL     1      11.042   1.081  -2.730  1.00  0.00     0.031 A 
ATOM     58  C   UNL     1      11.961   0.082  -3.316  1.00  0.00     0.074 A 
ATOM     59  C   UNL     1      10.503   2.145  -3.355  1.00  0.00     0.049 A 
ATOM     60  N   UNL     1      13.228   0.223  -3.520  1.00  0.00    -0.248 NA
ATOM     61  C   UNL     1      11.488  -1.308  -3.426  1.00  0.00     0.031 C 
ATOM     62  C   UNL     1       9.398   2.995  -2.901  1.00  0.00     0.029 A 
ATOM     63  N   UNL     1      10.748   2.617  -4.606  1.00  0.00    -0.354 N 
ATOM     64  C   UNL     1      13.632  -0.987  -4.073  1.00  0.00     0.074 A 
ATOM     65  C   UNL     1      12.623  -1.944  -3.717  1.00  0.00     0.031 C 
ATOM     66  C   UNL     1       8.903   3.679  -3.960  1.00  0.00     0.029 A 
ATOM     67  C   UNL     1       9.727   3.409  -5.126  1.00  0.00     0.049 A 
ATOM     68  H   UNL     1      11.574   2.416  -5.102  1.00  0.00     0.167 HD
ATOM     69  C   UNL     1      14.554  -1.004  -5.073  1.00  0.00     0.034 A 
ATOM     70  C   UNL     1       9.537   3.723  -6.436  1.00  0.00     0.034 A 
ATOM     71  C   UNL     1      15.282   0.242  -5.116  1.00  0.00     0.049 A 
ATOM     72  C   UNL     1      10.821   3.479  -7.136  1.00  0.00     0.074 A 
ATOM     73  C   UNL     1      16.053   0.957  -4.221  1.00  0.00     0.029 A 
ATOM     74  N   UNL     1      14.909   1.129  -6.097  1.00  0.00    -0.354 N 
ATOM     75  N   UNL     1      11.896   4.182  -6.922  1.00  0.00    -0.248 NA
ATOM     76  C   UNL     1      11.035   2.160  -7.710  1.00  0.00     0.031 C 
ATOM     77  C   UNL     1      15.730   2.324  -4.467  1.00  0.00     0.029 A 
ATOM     78  C   UNL     1      14.853   2.380  -5.552  1.00  0.00     0.049 A 
ATOM     79  H   UNL     1      14.714   0.900  -7.035  1.00  0.00     0.167 HD
ATOM     80  C   UNL     1      12.909   3.235  -6.861  1.00  0.00     0.074 A 
ATOM     81  C   UNL     1      12.339   2.025  -7.455  1.00  0.00     0.031 C 
ATOM     82  C   UNL     1      13.994   3.428  -6.055  1.00  0.00     0.034 A 
BRANCH  69  83
ATOM     83  C   UNL     1      14.479  -1.912  -6.287  1.00  0.00     0.023 A 
ATOM     84  C   UNL     1      15.540  -1.809  -7.214  1.00  0.00     0.012 A 
ATOM     85  C   UNL     1      13.327  -2.613  -6.717  1.00  0.00     0.148 A 
ATOM     86  C   UNL     1      15.425  -2.294  -8.521  1.00  0.00     0.002 A 
ATOM     87  C   UNL     1      13.245  -3.156  -7.992  1.00  0.00     0.091 A 
ATOM     88  F   UNL     1      12.237  -2.665  -5.954  1.00  0.00    -0.205 F 
ATOM     89  C   UNL     1      14.276  -2.968  -8.912  1.00  0.00     0.022 A 
BRANCH  87  90
ATOM     90  S   UNL     1      11.792  -4.067  -8.537  1.00  0.00     0.127 S 
ATOM     91  O   UNL     1      11.236  -3.154  -9.532  1.00  0.00    -0.237 OA
ATOM     92  O   UNL     1      12.398  -5.284  -9.076  1.00  0.00    -0.237 OA
ATOM     93  O   UNL     1      10.984  -4.277  -7.342  1.00  0.00    -0.744 OA
ENDBRANCH  87  90
ENDBRANCH  69  83
BRANCH  70  94
ATOM     94  C   UNL     1       8.274   3.895  -7.202  1.00  0.00     0.023 A 
ATOM     95  C   UNL     1       8.308   4.495  -8.480  1.00  0.00     0.012 A 
ATOM     96  C   UNL     1       7.100   3.205  -6.829  1.00  0.00     0.148 A 
ATOM     97  C   UNL     1       7.229   4.375  -9.368  1.00  0.00     0.002 A 
ATOM     98  C   UNL     1       6.028   3.093  -7.711  1.00  0.00     0.091 A 
ATOM     99  F   UNL     1       7.069   2.575  -5.649  1.00  0.00    -0.205 F 
ATOM    100  C   UNL     1       6.094   3.665  -8.988  1.00  0.00     0.022 A 
BRANCH  98 101
ATOM    101  S   UNL     1       4.546   2.163  -7.297  1.00  0.00     0.127 S 
ATOM    102  O   UNL     1       3.487   3.114  -7.637  1.00  0.00    -0.237 OA
ATOM    103  O   UNL     1       4.648   1.015  -8.193  1.00  0.00    -0.237 OA
ATOM    104  O   UNL     1       4.644   1.864  -5.873  1.00  0.00    -0.744 OA
ENDBRANCH  98 101
ENDBRANCH  70  94
BRANCH  82 105
ATOM    105  C   UNL     1      14.214   4.802  -5.481  1.00  0.00     0.023 A 
ATOM    106  C   UNL     1      13.330   5.415  -4.568  1.00  0.00     0.012 A 
ATOM    107  C   UNL     1      15.442   5.420  -5.761  1.00  0.00     0.148 A 
ATOM    108  C   UNL     1      13.663   6.633  -3.965  1.00  0.00     0.002 A 
ATOM    109  C   UNL     1      15.790   6.601  -5.123  1.00  0.00     0.091 A 
ATOM    110  F   UNL     1      16.266   4.821  -6.634  1.00  0.00    -0.205 F 
ATOM    111  C   UNL     1      14.900   7.218  -4.232  1.00  0.00     0.022 A 
BRANCH 109 112
ATOM    112  S   UNL     1      17.417   7.322  -5.342  1.00  0.00     0.127 S 
ATOM    113  O   UNL     1      17.135   8.441  -6.237  1.00  0.00    -0.237 OA
ATOM    114  O   UNL     1      17.777   7.703  -3.975  1.00  0.00    -0.237 OA
ATOM    115  O   UNL     1      18.251   6.264  -5.901  1.00  0.00    -0.744 OA
ENDBRANCH 109 112
ENDBRANCH  82 105
ENDBRANCH  56  57
ENDBRANCH  49  51
ENDBRANCH  48  49
ENDBRANCH  47  48
ENDBRANCH  46  47
ENDBRANCH  45  46
ENDBRANCH  44  45
ENDBRANCH  43  44
ENDBRANCH  42  43
ENDBRANCH  40  42
ENDBRANCH  39  40
ENDBRANCH   1  39
TORSDOF 32
