REMARK SMILES O=C(OCCOCCOC(=O)c1cc(NC(=S)NC(=O)c2ccccc2F)ccc1Cl)c1ccc(-c2c3nc(c(-c4cccc(S(=O)(=O)[O-])c4F)c4ccc([nH]4)c(-c4cccc(S(=O)(=O)[O-])c4F)c4nc(c(-c5cccc(S(=O)(=O)[O-])c5F)c5ccc2[nH]5)C=C4)C=C3)cc1
REMARK SMILES IDX 7 1 6 2 5 3 4 4 3 5 2 6 1 7 32 8 33 9 94 10 34 11 93 12
REMARK SMILES IDX 35 13 36 14 37 15 87 16 38 17 92 18 86 19 88 20 39 21 91 22
REMARK SMILES IDX 85 23 84 24 40 26 72 27 52 28 71 29 53 30 56 31 70 32 89 33
REMARK SMILES IDX 54 34 55 35 69 37 90 38 57 39 41 40 42 41 50 42 43 43 45 44
REMARK SMILES IDX 51 45 44 46 46 47 47 48 48 49 49 50 73 51 74 52 82 53 75 54
REMARK SMILES IDX 77 55 83 56 76 57 78 58 79 59 80 60 81 61 58 62 59 63 67 64
REMARK SMILES IDX 60 65 62 66 68 67 61 68 63 69 64 70 65 71 66 72 8 73 9 74
REMARK SMILES IDX 10 75 11 76 12 77 13 78 30 79 14 80 29 81 31 82 28 83 15 84
REMARK SMILES IDX 16 86 17 87 18 88 19 89 20 91 21 92 22 93 26 94 23 95 25 96
REMARK SMILES IDX 27 97 24 98
REMARK H PARENT 88 25 56 36 15 85 18 90
REMARK Flexibility Score: inf
ROOT
ATOM      1  C   UNL     1       2.295   1.460   1.616  1.00  0.00     0.202 C 
ENDROOT
BRANCH   1   2
ATOM      2  O   UNL     1       3.655   1.017   1.618  1.00  0.00    -0.374 OA
BRANCH   2   3
ATOM      3  C   UNL     1       4.267   0.843   0.350  1.00  0.00     0.202 C 
BRANCH   3   4
ATOM      4  C   UNL     1       3.958  -0.311  -0.621  1.00  0.00     0.261 C 
BRANCH   4   5
ATOM      5  O   UNL     1       2.536  -0.494  -0.826  1.00  0.00    -0.460 OA
BRANCH   5   6
ATOM      6  C   UNL     1       1.762  -1.416  -0.176  1.00  0.00     0.338 C 
ATOM      7  O   UNL     1       0.570  -1.538  -0.420  1.00  0.00    -0.246 OA
BRANCH   6   8
ATOM      8  C   UNL     1       2.441  -2.297   0.794  1.00  0.00     0.060 A 
ATOM      9  C   UNL     1       3.310  -1.728   1.686  1.00  0.00     0.016 A 
ATOM     10  C   UNL     1       2.318  -3.670   0.827  1.00  0.00     0.016 A 
ATOM     11  C   UNL     1       4.456  -2.363   2.020  1.00  0.00     0.010 A 
ATOM     12  C   UNL     1       3.203  -4.376   1.650  1.00  0.00     0.010 A 
ATOM     13  C   UNL     1       4.322  -3.712   2.195  1.00  0.00    -0.014 A 
BRANCH  13  14
ATOM     14  C   UNL     1       5.400  -4.331   2.967  1.00  0.00     0.031 A 
ATOM     15  C   UNL     1       6.186  -5.398   2.305  1.00  0.00     0.074 A 
ATOM     16  C   UNL     1       5.733  -3.818   4.172  1.00  0.00     0.049 A 
ATOM     17  N   UNL     1       7.091  -6.171   2.821  1.00  0.00    -0.248 NA
ATOM     18  C   UNL     1       5.916  -5.634   0.875  1.00  0.00     0.031 C 
ATOM     19  C   UNL     1       5.115  -2.640   4.810  1.00  0.00     0.029 A 
ATOM     20  N   UNL     1       6.698  -4.187   5.067  1.00  0.00    -0.354 N 
ATOM     21  C   UNL     1       7.424  -7.054   1.811  1.00  0.00     0.074 A 
ATOM     22  C   UNL     1       6.647  -6.711   0.645  1.00  0.00     0.031 C 
ATOM     23  C   UNL     1       5.740  -2.368   5.960  1.00  0.00     0.029 A 
ATOM     24  C   UNL     1       6.693  -3.430   6.216  1.00  0.00     0.049 A 
ATOM     25  H   UNL     1       7.334  -4.921   4.905  1.00  0.00     0.167 HD
ATOM     26  C   UNL     1       8.297  -8.076   1.887  1.00  0.00     0.034 A 
ATOM     27  C   UNL     1       7.333  -3.621   7.382  1.00  0.00     0.034 A 
ATOM     28  C   UNL     1       9.052  -8.355   3.072  1.00  0.00     0.049 A 
ATOM     29  C   UNL     1       8.228  -4.817   7.470  1.00  0.00     0.074 A 
ATOM     30  C   UNL     1       9.949  -9.377   3.293  1.00  0.00     0.029 A 
ATOM     31  N   UNL     1       8.982  -7.609   4.243  1.00  0.00    -0.354 N 
ATOM     32  N   UNL     1       8.512  -5.690   6.532  1.00  0.00    -0.248 NA
ATOM     33  C   UNL     1       8.893  -5.062   8.751  1.00  0.00     0.031 C 
ATOM     34  C   UNL     1      10.372  -9.289   4.620  1.00  0.00     0.029 A 
ATOM     35  C   UNL     1       9.802  -8.163   5.203  1.00  0.00     0.049 A 
ATOM     36  H   UNL     1       8.428  -6.804   4.369  1.00  0.00     0.167 HD
ATOM     37  C   UNL     1       9.417  -6.573   7.095  1.00  0.00     0.074 A 
ATOM     38  C   UNL     1       9.634  -6.125   8.459  1.00  0.00     0.031 C 
ATOM     39  C   UNL     1      10.014  -7.653   6.537  1.00  0.00     0.034 A 
BRANCH  26  40
ATOM     40  C   UNL     1       8.385  -8.986   0.702  1.00  0.00     0.023 A 
ATOM     41  C   UNL     1       8.943  -8.544  -0.514  1.00  0.00     0.012 A 
ATOM     42  C   UNL     1       7.878 -10.295   0.801  1.00  0.00     0.148 A 
ATOM     43  C   UNL     1       8.961  -9.384  -1.626  1.00  0.00     0.002 A 
ATOM     44  C   UNL     1       7.960 -11.145  -0.290  1.00  0.00     0.091 A 
ATOM     45  F   UNL     1       7.303 -10.672   1.951  1.00  0.00    -0.205 F 
ATOM     46  C   UNL     1       8.484 -10.688  -1.509  1.00  0.00     0.022 A 
BRANCH  44  47
ATOM     47  S   UNL     1       7.453 -12.863  -0.205  1.00  0.00     0.127 S 
ATOM     48  O   UNL     1       6.323 -12.885  -1.133  1.00  0.00    -0.237 OA
ATOM     49  O   UNL     1       8.651 -13.553  -0.684  1.00  0.00    -0.237 OA
ATOM     50  O   UNL     1       7.116 -13.120   1.188  1.00  0.00    -0.744 OA
ENDBRANCH  44  47
ENDBRANCH  26  40
BRANCH  27  51
ATOM     51  C   UNL     1       7.105  -2.683   8.516  1.00  0.00     0.023 A 
ATOM     52  C   UNL     1       8.142  -1.829   8.932  1.00  0.00     0.012 A 
ATOM     53  C   UNL     1       5.833  -2.561   9.118  1.00  0.00     0.148 A 
ATOM     54  C   UNL     1       7.921  -0.879   9.932  1.00  0.00     0.002 A 
ATOM     55  C   UNL     1       5.605  -1.577  10.072  1.00  0.00     0.091 A 
ATOM     56  F   UNL     1       4.857  -3.384   8.708  1.00  0.00    -0.205 F 
ATOM     57  C   UNL     1       6.652  -0.744  10.491  1.00  0.00     0.022 A 
BRANCH  55  58
ATOM     58  S   UNL     1       3.976  -1.243  10.755  1.00  0.00     0.127 S 
ATOM     59  O   UNL     1       4.183  -1.527  12.173  1.00  0.00    -0.237 OA
ATOM     60  O   UNL     1       3.800   0.172  10.429  1.00  0.00    -0.237 OA
ATOM     61  O   UNL     1       3.061  -2.143  10.066  1.00  0.00    -0.744 OA
ENDBRANCH  55  58
ENDBRANCH  27  51
BRANCH  39  62
ATOM     62  C   UNL     1      11.010  -8.406   7.370  1.00  0.00     0.023 A 
ATOM     63  C   UNL     1      10.569  -9.262   8.394  1.00  0.00     0.012 A 
ATOM     64  C   UNL     1      12.368  -8.393   6.996  1.00  0.00     0.148 A 
ATOM     65  C   UNL     1      11.474 -10.102   9.038  1.00  0.00     0.002 A 
ATOM     66  C   UNL     1      13.248  -9.278   7.596  1.00  0.00     0.091 A 
ATOM     67  F   UNL     1      12.754  -7.553   6.025  1.00  0.00    -0.205 F 
ATOM     68  C   UNL     1      12.806 -10.126   8.624  1.00  0.00     0.022 A 
BRANCH  66  69
ATOM     69  S   UNL     1      14.942  -9.471   7.037  1.00  0.00     0.127 S 
ATOM     70  O   UNL     1      15.693  -9.012   8.204  1.00  0.00    -0.237 OA
ATOM     71  O   UNL     1      15.019 -10.910   6.786  1.00  0.00    -0.237 OA
ATOM     72  O   UNL     1      15.078  -8.638   5.849  1.00  0.00    -0.744 OA
ENDBRANCH  66  69
ENDBRANCH  39  62
ENDBRANCH  13  14
ENDBRANCH   6   8
ENDBRANCH   5   6
ENDBRANCH   4   5
ENDBRANCH   3   4
ENDBRANCH   2   3
ENDBRANCH   1   2
BRANCH   1  73
ATOM     73  C   UNL     1       2.193   2.958   1.854  1.00  0.00     0.261 C 
BRANCH  73  74
ATOM     74  O   UNL     1       2.697   3.688   0.712  1.00  0.00    -0.460 OA
BRANCH  74  75
ATOM     75  C   UNL     1       4.019   3.970   0.796  1.00  0.00     0.339 C 
ATOM     76  O   UNL     1       4.755   3.702   1.734  1.00  0.00    -0.246 OA
BRANCH  75  77
ATOM     77  C   UNL     1       4.482   4.851  -0.352  1.00  0.00     0.080 A 
ATOM     78  C   UNL     1       5.707   4.710  -1.947  1.00  0.00     0.043 A 
ATOM     79  C   UNL     1       4.144   6.544   0.202  1.00  0.00     0.055 A 
ATOM     80  C   UNL     1       6.510   6.011  -2.638  1.00  0.00     0.041 A 
ATOM     81  C   UNL     1       4.948   7.880  -0.674  1.00  0.00     0.023 A 
ATOM     82  Cl  UNL     1       3.075   6.911   1.497  1.00  0.00    -0.083 Cl
ATOM     83  C   UNL     1       6.103   7.604  -2.035  1.00  0.00     0.028 A 
BRANCH  80  84
ATOM     84  N   UNL     1       7.650   5.526  -3.315  1.00  0.00    -0.332 N 
ATOM     85  H   UNL     1       8.146   6.209  -3.822  1.00  0.00     0.169 HD
BRANCH  84  86
ATOM     86  C   UNL     1       8.189   4.245  -3.388  1.00  0.00     0.177 C 
ATOM     87  S   UNL     1       9.400   4.019  -4.535  1.00  0.00    -0.040 S 
BRANCH  86  88
ATOM     88  N   UNL     1       7.866   3.074  -2.611  1.00  0.00    -0.299 N 
ATOM     89  C   UNL     1       7.086   2.311  -1.592  1.00  0.00     0.260 C 
ATOM     90  H   UNL     1       8.522   2.412  -2.927  1.00  0.00     0.172 HD
ATOM     91  O   UNL     1       7.330   1.125  -1.387  1.00  0.00    -0.269 OA
BRANCH  89  92
ATOM     92  C   UNL     1       5.957   2.963  -0.836  1.00  0.00     0.075 A 
ATOM     93  C   UNL     1       6.678   4.374  -0.103  1.00  0.00     0.017 A 
ATOM     94  C   UNL     1       4.436   3.012  -1.822  1.00  0.00     0.135 A 
ATOM     95  C   UNL     1       6.017   5.953  -0.562  1.00  0.00     0.001 A 
ATOM     96  C   UNL     1       3.659   4.515  -2.342  1.00  0.00     0.040 A 
ATOM     97  F   UNL     1       4.188   1.951  -2.612  1.00  0.00    -0.206 F 
ATOM     98  C   UNL     1       4.436   6.060  -1.824  1.00  0.00     0.003 A 
ENDBRANCH  89  92
ENDBRANCH  86  88
ENDBRANCH  84  86
ENDBRANCH  80  84
ENDBRANCH  75  77
ENDBRANCH  74  75
ENDBRANCH  73  74
ENDBRANCH   1  73
TORSDOF 21
