REMARK SMILES CCCCCCNC(=O)Oc1cccc(-c2ccc([C@@H](C)C(=O)OCCOCCOC(=O)c3ccc(-c4c5nc(c(-c6cccc(S(=O)(=O)[O-])c6F)c6ccc([nH]6)c(-c6cccc(S(=O)(=O)[O-])c6F)c6nc(c(-c7cccc(S(=O)(=O)[O-])c7F)c7ccc4[nH]7)C=C6)C=C5)cc3)cc2C(F)(F)F)c1
REMARK SMILES IDX 24 1 22 2 23 3 20 4 21 5 19 6 16 7 17 8 97 9 18 10 96 11
REMARK SMILES IDX 15 12 11 13 12 14 102 15 13 16 14 17 10 18 8 19 7 20 9 22
REMARK SMILES IDX 6 23 5 24 4 25 3 26 2 27 1 28 98 29 99 30 100 31 101 32
REMARK SMILES IDX 25 33 26 34 27 35 28 36 29 37 30 38 31 39 32 40 33 41 34 42
REMARK SMILES IDX 95 43 35 44 94 45 36 46 37 47 38 48 88 49 39 50 93 51 87 52
REMARK SMILES IDX 89 53 40 54 92 55 86 56 85 57 41 59 73 60 53 61 72 62 54 63
REMARK SMILES IDX 57 64 71 65 90 66 55 67 56 68 70 70 91 71 58 72 42 73 43 74
REMARK SMILES IDX 51 75 44 76 46 77 52 78 45 79 47 80 48 81 49 82 50 83 74 84
REMARK SMILES IDX 75 85 83 86 76 87 78 88 84 89 77 90 79 91 80 92 81 93 82 94
REMARK SMILES IDX 59 95 60 96 68 97 61 98 63 99 69 100 62 101 64 102 65 103
REMARK SMILES IDX 66 104 67 105
REMARK H PARENT 7 21 89 58 57 69
REMARK Flexibility Score: inf
ROOT
ATOM      1  O   UNL     1      -3.892   1.369  15.114  1.00  0.00    -0.463 OA
ENDROOT
BRANCH   1   2
ATOM      2  C   UNL     1      -4.466   2.577  14.884  1.00  0.00     0.313 C 
ATOM      3  O   UNL     1      -4.245   3.590  15.544  1.00  0.00    -0.252 OA
BRANCH   2   4
ATOM      4  C   UNL     1      -5.449   2.582  13.726  1.00  0.00     0.126 C 
ATOM      5  C   UNL     1      -6.868   2.438  14.269  1.00  0.00     0.025 C 
BRANCH   4   6
ATOM      6  C   UNL     1      -5.193   1.641  12.552  1.00  0.00    -0.033 A 
ATOM      7  C   UNL     1      -4.985  -0.025  10.229  1.00  0.00    -0.006 A 
ATOM      8  C   UNL     1      -5.145  -0.561  11.525  1.00  0.00     0.009 A 
ATOM      9  C   UNL     1      -4.888   1.377  10.108  1.00  0.00     0.064 A 
ATOM     10  C   UNL     1      -5.258   0.252  12.662  1.00  0.00     0.005 A 
ATOM     11  C   UNL     1      -4.972   2.180  11.274  1.00  0.00     0.018 A 
BRANCH   7  12
ATOM     12  C   UNL     1      -5.029  -0.946   9.073  1.00  0.00    -0.014 A 
ATOM     13  C   UNL     1      -4.128  -1.846   7.005  1.00  0.00     0.133 A 
ATOM     14  C   UNL     1      -5.275  -2.612   6.803  1.00  0.00     0.047 A 
ATOM     15  C   UNL     1      -3.989  -1.029   8.133  1.00  0.00     0.056 A 
ATOM     16  C   UNL     1      -6.295  -2.572   7.745  1.00  0.00     0.004 A 
ATOM     17  C   UNL     1      -6.175  -1.741   8.863  1.00  0.00     0.009 A 
BRANCH  13  18
ATOM     18  O   UNL     1      -3.208  -1.823   5.939  1.00  0.00    -0.410 OA
BRANCH  18  19
ATOM     19  C   UNL     1      -1.849  -1.913   6.187  1.00  0.00     0.412 C 
ATOM     20  N   UNL     1      -1.087  -1.796   5.059  1.00  0.00    -0.321 N 
ATOM     21  H   UNL     1      -0.113  -1.885   5.177  1.00  0.00     0.167 HD
ATOM     22  O   UNL     1      -1.327  -2.081   7.287  1.00  0.00    -0.224 OA
BRANCH  20  23
ATOM     23  C   UNL     1      -1.555  -1.556   3.708  1.00  0.00     0.119 C 
BRANCH  23  24
ATOM     24  C   UNL     1      -0.979  -0.263   3.124  1.00  0.00     0.021 C 
BRANCH  24  25
ATOM     25  C   UNL     1       0.548  -0.243   2.981  1.00  0.00     0.002 C 
BRANCH  25  26
ATOM     26  C   UNL     1       1.141  -1.329   2.076  1.00  0.00    -0.000 C 
BRANCH  26  27
ATOM     27  C   UNL     1       0.668  -1.302   0.621  1.00  0.00    -0.003 C 
ATOM     28  C   UNL     1       1.061  -0.031  -0.117  1.00  0.00     0.004 C 
ENDBRANCH  26  27
ENDBRANCH  25  26
ENDBRANCH  24  25
ENDBRANCH  23  24
ENDBRANCH  20  23
ENDBRANCH  18  19
ENDBRANCH  13  18
ENDBRANCH   7  12
BRANCH   9  29
ATOM     29  C   UNL     1      -4.705   2.108   8.794  1.00  0.00     0.417 C 
ATOM     30  F   UNL     1      -5.367   3.306   8.777  1.00  0.00    -0.166 F 
ATOM     31  F   UNL     1      -3.397   2.424   8.567  1.00  0.00    -0.166 F 
ATOM     32  F   UNL     1      -5.137   1.464   7.678  1.00  0.00    -0.166 F 
ENDBRANCH   9  29
ENDBRANCH   4   6
ENDBRANCH   2   4
ENDBRANCH   1   2
BRANCH   1  33
ATOM     33  C   UNL     1      -2.859   1.340  16.114  1.00  0.00     0.261 C 
BRANCH  33  34
ATOM     34  C   UNL     1      -1.497   1.009  15.499  1.00  0.00     0.202 C 
BRANCH  34  35
ATOM     35  O   UNL     1      -0.948   1.977  14.605  1.00  0.00    -0.374 OA
BRANCH  35  36
ATOM     36  C   UNL     1      -1.500   2.052  13.291  1.00  0.00     0.202 C 
BRANCH  36  37
ATOM     37  C   UNL     1      -1.112   0.948  12.299  1.00  0.00     0.261 C 
BRANCH  37  38
ATOM     38  O   UNL     1      -1.573  -0.352  12.703  1.00  0.00    -0.460 OA
BRANCH  38  39
ATOM     39  C   UNL     1      -0.587  -1.199  13.087  1.00  0.00     0.338 C 
ATOM     40  O   UNL     1       0.614  -0.985  13.067  1.00  0.00    -0.246 OA
BRANCH  39  41
ATOM     41  C   UNL     1      -1.157  -2.393  13.741  1.00  0.00     0.060 A 
ATOM     42  C   UNL     1      -0.634  -2.739  14.994  1.00  0.00     0.016 A 
ATOM     43  C   UNL     1      -2.101  -3.211  13.116  1.00  0.00     0.016 A 
ATOM     44  C   UNL     1      -0.993  -3.943  15.592  1.00  0.00     0.010 A 
ATOM     45  C   UNL     1      -2.459  -4.424  13.720  1.00  0.00     0.010 A 
ATOM     46  C   UNL     1      -1.867  -4.818  14.935  1.00  0.00    -0.014 A 
BRANCH  46  47
ATOM     47  C   UNL     1      -2.010  -6.203  15.450  1.00  0.00     0.031 A 
ATOM     48  C   UNL     1      -1.254  -7.317  14.771  1.00  0.00     0.074 A 
ATOM     49  C   UNL     1      -2.750  -6.462  16.543  1.00  0.00     0.049 A 
ATOM     50  N   UNL     1      -1.189  -8.585  15.085  1.00  0.00    -0.248 NA
ATOM     51  C   UNL     1      -0.463  -6.953  13.584  1.00  0.00     0.031 C 
ATOM     52  C   UNL     1      -3.520  -5.472  17.295  1.00  0.00     0.029 A 
ATOM     53  N   UNL     1      -2.980  -7.642  17.206  1.00  0.00    -0.354 N 
ATOM     54  C   UNL     1      -0.372  -9.173  14.127  1.00  0.00     0.074 A 
ATOM     55  C   UNL     1       0.020  -8.128  13.207  1.00  0.00     0.031 C 
ATOM     56  C   UNL     1      -4.153  -6.090  18.308  1.00  0.00     0.029 A 
ATOM     57  C   UNL     1      -3.847  -7.519  18.266  1.00  0.00     0.049 A 
ATOM     58  H   UNL     1      -2.564  -8.496  16.946  1.00  0.00     0.167 HD
ATOM     59  C   UNL     1       0.036 -10.460  14.031  1.00  0.00     0.034 A 
ATOM     60  C   UNL     1      -4.344  -8.455  19.100  1.00  0.00     0.034 A 
ATOM     61  C   UNL     1      -0.330 -11.495  14.960  1.00  0.00     0.049 A 
ATOM     62  C   UNL     1      -3.892  -9.886  18.957  1.00  0.00     0.074 A 
ATOM     63  C   UNL     1       0.069 -12.820  14.972  1.00  0.00     0.029 A 
ATOM     64  N   UNL     1      -1.187 -11.326  16.036  1.00  0.00    -0.354 N 
ATOM     65  N   UNL     1      -3.021 -10.399  18.120  1.00  0.00    -0.248 NA
ATOM     66  C   UNL     1      -4.463 -10.862  19.897  1.00  0.00     0.031 C 
ATOM     67  C   UNL     1      -0.567 -13.459  16.041  1.00  0.00     0.029 A 
ATOM     68  C   UNL     1      -1.340 -12.525  16.711  1.00  0.00     0.049 A 
ATOM     69  H   UNL     1      -1.622 -10.479  16.283  1.00  0.00     0.167 HD
ATOM     70  C   UNL     1      -2.915 -11.745  18.456  1.00  0.00     0.074 A 
ATOM     71  C   UNL     1      -3.792 -11.963  19.588  1.00  0.00     0.031 C 
ATOM     72  C   UNL     1      -2.172 -12.717  17.871  1.00  0.00     0.034 A 
BRANCH  59  73
ATOM     73  C   UNL     1       0.958 -10.821  12.896  1.00  0.00     0.023 A 
ATOM     74  C   UNL     1       2.305 -10.406  12.936  1.00  0.00     0.012 A 
ATOM     75  C   UNL     1       0.512 -11.621  11.826  1.00  0.00     0.148 A 
ATOM     76  C   UNL     1       3.187 -10.759  11.916  1.00  0.00     0.002 A 
ATOM     77  C   UNL     1       1.407 -12.004  10.834  1.00  0.00     0.091 A 
ATOM     78  F   UNL     1      -0.777 -11.987  11.796  1.00  0.00    -0.205 F 
ATOM     79  C   UNL     1       2.742 -11.566  10.872  1.00  0.00     0.022 A 
BRANCH  77  80
ATOM     80  S   UNL     1       0.952 -13.104   9.489  1.00  0.00     0.127 S 
ATOM     81  O   UNL     1       0.990 -12.199   8.341  1.00  0.00    -0.237 OA
ATOM     82  O   UNL     1       2.031 -14.092   9.521  1.00  0.00    -0.237 OA
ATOM     83  O   UNL     1      -0.363 -13.630   9.826  1.00  0.00    -0.744 OA
ENDBRANCH  77  80
ENDBRANCH  59  73
BRANCH  60  84
ATOM     84  C   UNL     1      -5.303  -8.067  20.174  1.00  0.00     0.023 A 
ATOM     85  C   UNL     1      -4.911  -8.150  21.524  1.00  0.00     0.012 A 
ATOM     86  C   UNL     1      -6.601  -7.618  19.863  1.00  0.00     0.148 A 
ATOM     87  C   UNL     1      -5.805  -7.828  22.546  1.00  0.00     0.002 A 
ATOM     88  C   UNL     1      -7.468  -7.244  20.883  1.00  0.00     0.091 A 
ATOM     89  F   UNL     1      -6.964  -7.565  18.574  1.00  0.00    -0.205 F 
ATOM     90  C   UNL     1      -7.079  -7.365  22.226  1.00  0.00     0.022 A 
BRANCH  88  91
ATOM     91  S   UNL     1      -9.077  -6.517  20.555  1.00  0.00     0.127 S 
ATOM     92  O   UNL     1      -9.978  -7.608  20.916  1.00  0.00    -0.237 OA
ATOM     93  O   UNL     1      -9.089  -5.378  21.473  1.00  0.00    -0.237 OA
ATOM     94  O   UNL     1      -9.059  -6.148  19.146  1.00  0.00    -0.744 OA
ENDBRANCH  88  91
ENDBRANCH  60  84
BRANCH  72  95
ATOM     95  C   UNL     1      -2.242 -14.103  18.458  1.00  0.00     0.023 A 
ATOM     96  C   UNL     1      -3.403 -14.881  18.280  1.00  0.00     0.012 A 
ATOM     97  C   UNL     1      -1.131 -14.662  19.122  1.00  0.00     0.148 A 
ATOM     98  C   UNL     1      -3.470 -16.180  18.782  1.00  0.00     0.002 A 
ATOM     99  C   UNL     1      -1.188 -15.975  19.576  1.00  0.00     0.091 A 
ATOM    100  F   UNL     1      -0.041 -13.902  19.297  1.00  0.00    -0.205 F 
ATOM    101  C   UNL     1      -2.361 -16.731  19.419  1.00  0.00     0.022 A 
BRANCH  99 102
ATOM    102  S   UNL     1       0.224 -16.798  20.322  1.00  0.00     0.127 S 
ATOM    103  O   UNL     1      -0.170 -16.850  21.729  1.00  0.00    -0.237 OA
ATOM    104  O   UNL     1       0.225 -18.093  19.641  1.00  0.00    -0.237 OA
ATOM    105  O   UNL     1       1.379 -15.960  20.026  1.00  0.00    -0.744 OA
ENDBRANCH  99 102
ENDBRANCH  72  95
ENDBRANCH  46  47
ENDBRANCH  39  41
ENDBRANCH  38  39
ENDBRANCH  37  38
ENDBRANCH  36  37
ENDBRANCH  35  36
ENDBRANCH  34  35
ENDBRANCH  33  34
ENDBRANCH   1  33
TORSDOF 27
