REMARK SMILES C[C@@H]1[C@H](C(=O)OCCOCCOC(=O)c2ccc(-c3c4nc(c(-c5cccc(S(=O)(=O)[O-])c5F)c5ccc([nH]5)c(-c5cccc(S(=O)(=O)[O-])c5F)c5nc(c(-c6cccc(S(=O)(=O)[O-])c6F)c6ccc3[nH]6)C=C5)C=C4)cc2)CC[N@@H+]1Cc1cnn(-c2ccccc2)c1
REMARK SMILES IDX 9 1 8 2 7 3 6 4 4 5 5 6 3 7 1 8 2 9 80 10 78 11 79 12 81 14
REMARK SMILES IDX 82 15 83 16 92 17 84 18 85 19 86 20 87 21 91 22 88 23 90 24
REMARK SMILES IDX 89 25 10 26 11 27 12 28 13 29 14 30 15 31 16 32 77 33 17 34
REMARK SMILES IDX 76 35 18 36 19 37 20 38 70 39 21 40 75 41 69 42 71 43 22 44
REMARK SMILES IDX 74 45 68 46 67 47 23 49 55 50 35 51 54 52 36 53 39 54 53 55
REMARK SMILES IDX 72 56 37 57 38 58 52 60 73 61 40 62 24 63 25 64 33 65 26 66
REMARK SMILES IDX 28 67 34 68 27 69 29 70 30 71 31 72 32 73 56 74 57 75 65 76
REMARK SMILES IDX 58 77 60 78 66 79 59 80 61 81 62 82 63 83 64 84 41 85 42 86
REMARK SMILES IDX 50 87 43 88 45 89 51 90 44 91 46 92 47 93 48 94 49 95
REMARK H PARENT 80 13 71 48 39 59
REMARK Flexibility Score: inf
ROOT
ATOM      1  O   UNL     1       2.622   4.293  -1.046  1.00  0.00    -0.374 OA
ENDROOT
BRANCH   1   2
ATOM      2  C   UNL     1       2.557   4.297   0.383  1.00  0.00     0.202 C 
BRANCH   2   3
ATOM      3  C   UNL     1       1.154   4.221   0.988  1.00  0.00     0.261 C 
BRANCH   3   4
ATOM      4  O   UNL     1       0.639   2.884   0.860  1.00  0.00    -0.463 OA
BRANCH   4   5
ATOM      5  C   UNL     1      -0.270   2.678  -0.115  1.00  0.00     0.315 C 
ATOM      6  O   UNL     1      -0.820   3.569  -0.755  1.00  0.00    -0.252 OA
BRANCH   5   7
ATOM      7  C   UNL     1      -0.574   1.219  -0.359  1.00  0.00     0.162 C 
ATOM      8  C   UNL     1       1.677   0.337   0.672  1.00  0.00     0.076 C 
ATOM      9  C   UNL     1       0.486   0.102  -0.254  1.00  0.00     0.195 C 
ATOM     10  N   UNL     1      -0.324  -1.109   0.009  1.00  0.00    -0.328 N 
ATOM     11  C   UNL     1      -1.712   0.728   0.512  1.00  0.00     0.083 C 
ATOM     12  C   UNL     1      -1.728  -0.751   0.191  1.00  0.00     0.263 C 
ATOM     13  H   UNL     1      -0.199  -1.634  -0.856  1.00  0.00     0.348 HD
BRANCH  10  14
ATOM     14  C   UNL     1       0.170  -2.205   0.834  1.00  0.00     0.302 C 
BRANCH  14  15
ATOM     15  C   UNL     1       0.357  -1.859   2.272  1.00  0.00     0.045 A 
ATOM     16  C   UNL     1      -0.599  -1.542   3.258  1.00  0.00     0.145 A 
ATOM     17  C   UNL     1       1.550  -1.808   2.967  1.00  0.00     0.124 A 
ATOM     18  N   UNL     1      -0.060  -1.300   4.452  1.00  0.00    -0.176 NA
ATOM     19  N   UNL     1       1.276  -1.375   4.246  1.00  0.00    -0.240 N 
BRANCH  19  20
ATOM     20  C   UNL     1       2.218  -1.061   5.254  1.00  0.00     0.065 A 
ATOM     21  C   UNL     1       1.819  -1.074   6.593  1.00  0.00     0.028 A 
ATOM     22  C   UNL     1       3.547  -0.757   4.923  1.00  0.00     0.028 A 
ATOM     23  C   UNL     1       2.759  -0.847   7.595  1.00  0.00     0.002 A 
ATOM     24  C   UNL     1       4.472  -0.507   5.938  1.00  0.00     0.002 A 
ATOM     25  C   UNL     1       4.082  -0.560   7.271  1.00  0.00     0.000 A 
ENDBRANCH  19  20
ENDBRANCH  14  15
ENDBRANCH  10  14
ENDBRANCH   5   7
ENDBRANCH   4   5
ENDBRANCH   3   4
ENDBRANCH   2   3
ENDBRANCH   1   2
BRANCH   1  26
ATOM     26  C   UNL     1       2.688   3.022  -1.690  1.00  0.00     0.202 C 
BRANCH  26  27
ATOM     27  C   UNL     1       4.060   2.322  -1.706  1.00  0.00     0.261 C 
BRANCH  27  28
ATOM     28  O   UNL     1       4.576   2.046  -0.392  1.00  0.00    -0.460 OA
BRANCH  28  29
ATOM     29  C   UNL     1       5.491   2.938   0.060  1.00  0.00     0.338 C 
ATOM     30  O   UNL     1       5.977   3.869  -0.569  1.00  0.00    -0.246 OA
BRANCH  29  31
ATOM     31  C   UNL     1       5.706   2.760   1.512  1.00  0.00     0.060 A 
ATOM     32  C   UNL     1       5.653   3.900   2.325  1.00  0.00     0.016 A 
ATOM     33  C   UNL     1       6.004   1.517   2.070  1.00  0.00     0.016 A 
ATOM     34  C   UNL     1       5.945   3.813   3.689  1.00  0.00     0.010 A 
ATOM     35  C   UNL     1       6.305   1.437   3.435  1.00  0.00     0.010 A 
ATOM     36  C   UNL     1       6.310   2.585   4.255  1.00  0.00    -0.014 A 
BRANCH  36  37
ATOM     37  C   UNL     1       6.826   2.523   5.655  1.00  0.00     0.031 A 
ATOM     38  C   UNL     1       8.277   2.174   5.889  1.00  0.00     0.074 A 
ATOM     39  C   UNL     1       6.026   2.747   6.719  1.00  0.00     0.049 A 
ATOM     40  N   UNL     1       8.919   2.001   7.016  1.00  0.00    -0.248 NA
ATOM     41  C   UNL     1       9.110   1.974   4.691  1.00  0.00     0.031 C 
ATOM     42  C   UNL     1       4.599   3.062   6.658  1.00  0.00     0.029 A 
ATOM     43  N   UNL     1       6.295   2.693   8.068  1.00  0.00    -0.354 N 
ATOM     44  C   UNL     1      10.217   1.646   6.665  1.00  0.00     0.074 A 
ATOM     45  C   UNL     1      10.259   1.582   5.221  1.00  0.00     0.031 C 
ATOM     46  C   UNL     1       4.111   3.136   7.910  1.00  0.00     0.029 A 
ATOM     47  C   UNL     1       5.183   2.860   8.863  1.00  0.00     0.049 A 
ATOM     48  H   UNL     1       7.199   2.549   8.431  1.00  0.00     0.167 HD
ATOM     49  C   UNL     1      11.291   1.426   7.461  1.00  0.00     0.034 A 
ATOM     50  C   UNL     1       5.036   2.774  10.202  1.00  0.00     0.034 A 
ATOM     51  C   UNL     1      11.271   1.526   8.895  1.00  0.00     0.049 A 
ATOM     52  C   UNL     1       6.239   2.497  11.069  1.00  0.00     0.074 A 
ATOM     53  C   UNL     1      12.330   1.407   9.779  1.00  0.00     0.029 A 
ATOM     54  N   UNL     1      10.139   1.755   9.658  1.00  0.00    -0.354 N 
ATOM     55  N   UNL     1       7.485   2.302  10.716  1.00  0.00    -0.248 NA
ATOM     56  C   UNL     1       6.018   2.469  12.523  1.00  0.00     0.031 C 
ATOM     57  C   UNL     1      11.830   1.527  11.079  1.00  0.00     0.029 A 
ATOM     58  C   UNL     1      10.468   1.765  11.003  1.00  0.00     0.049 A 
ATOM     59  H   UNL     1       9.232   1.891   9.298  1.00  0.00     0.167 HD
ATOM     60  C   UNL     1       8.204   2.186  11.902  1.00  0.00     0.074 A 
ATOM     61  C   UNL     1       7.254   2.335  12.984  1.00  0.00     0.031 C 
ATOM     62  C   UNL     1       9.532   1.973  12.077  1.00  0.00     0.034 A 
BRANCH  49  63
ATOM     63  C   UNL     1      12.601   1.098   6.792  1.00  0.00     0.023 A 
ATOM     64  C   UNL     1      13.281   2.094   6.061  1.00  0.00     0.012 A 
ATOM     65  C   UNL     1      13.187  -0.175   6.933  1.00  0.00     0.148 A 
ATOM     66  C   UNL     1      14.501   1.817   5.445  1.00  0.00     0.002 A 
ATOM     67  C   UNL     1      14.427  -0.429   6.359  1.00  0.00     0.091 A 
ATOM     68  F   UNL     1      12.519  -1.115   7.618  1.00  0.00    -0.205 F 
ATOM     69  C   UNL     1      15.078   0.560   5.603  1.00  0.00     0.022 A 
BRANCH  67  70
ATOM     70  S   UNL     1      15.295  -1.987   6.573  1.00  0.00     0.127 S 
ATOM     71  O   UNL     1      15.232  -2.547   5.223  1.00  0.00    -0.237 OA
ATOM     72  O   UNL     1      16.626  -1.541   6.986  1.00  0.00    -0.237 OA
ATOM     73  O   UNL     1      14.557  -2.724   7.589  1.00  0.00    -0.744 OA
ENDBRANCH  67  70
ENDBRANCH  49  63
BRANCH  50  74
ATOM     74  C   UNL     1       3.698   2.977  10.832  1.00  0.00     0.023 A 
ATOM     75  C   UNL     1       3.447   4.136  11.591  1.00  0.00     0.012 A 
ATOM     76  C   UNL     1       2.685   2.009  10.707  1.00  0.00     0.148 A 
ATOM     77  C   UNL     1       2.220   4.311  12.235  1.00  0.00     0.002 A 
ATOM     78  C   UNL     1       1.445   2.215  11.301  1.00  0.00     0.091 A 
ATOM     79  F   UNL     1       2.966   0.894  10.026  1.00  0.00    -0.205 F 
ATOM     80  C   UNL     1       1.217   3.358  12.081  1.00  0.00     0.022 A 
BRANCH  78  81
ATOM     81  S   UNL     1       0.063   1.089  11.082  1.00  0.00     0.127 S 
ATOM     82  O   UNL     1      -0.146   0.604  12.444  1.00  0.00    -0.237 OA
ATOM     83  O   UNL     1      -0.976   1.990  10.582  1.00  0.00    -0.237 OA
ATOM     84  O   UNL     1       0.514   0.088  10.127  1.00  0.00    -0.744 OA
ENDBRANCH  78  81
ENDBRANCH  50  74
BRANCH  62  85
ATOM     85  C   UNL     1      10.068   1.956  13.486  1.00  0.00     0.023 A 
ATOM     86  C   UNL     1       9.783   0.875  14.344  1.00  0.00     0.012 A 
ATOM     87  C   UNL     1      10.924   2.984  13.934  1.00  0.00     0.148 A 
ATOM     88  C   UNL     1      10.311   0.835  15.635  1.00  0.00     0.002 A 
ATOM     89  C   UNL     1      11.490   2.910  15.201  1.00  0.00     0.091 A 
ATOM     90  F   UNL     1      11.171   4.013  13.111  1.00  0.00    -0.205 F 
ATOM     91  C   UNL     1      11.174   1.845  16.058  1.00  0.00     0.022 A 
BRANCH  89  92
ATOM     92  S   UNL     1      12.689   4.110  15.793  1.00  0.00     0.127 S 
ATOM     93  O   UNL     1      11.920   4.820  16.815  1.00  0.00    -0.237 OA
ATOM     94  O   UNL     1      13.752   3.252  16.316  1.00  0.00    -0.237 OA
ATOM     95  O   UNL     1      13.069   4.907  14.634  1.00  0.00    -0.744 OA
ENDBRANCH  89  92
ENDBRANCH  62  85
ENDBRANCH  36  37
ENDBRANCH  29  31
ENDBRANCH  28  29
ENDBRANCH  27  28
ENDBRANCH  26  27
ENDBRANCH   1  26
TORSDOF 20
