REMARK SMILES COc1ccc2c(c1)c(Cc1nc(-c3ccc(C(=O)OCCOCCOC(=O)c4ccc(-c5c6nc(c(-c7cccc(S(=O)(=O)[O-])c7F)c7ccc([nH]7)c(-c7cccc(S(=O)(=O)[O-])c7F)c7nc(c(-c8cccc(S(=O)(=O)[O-])c8F)c8ccc5[nH]8)C=C7)C=C6)cc4)cc3)cs1)c(C)n2C(=O)c1ccc(Cl)cc1
REMARK SMILES IDX 22 1 21 2 20 3 18 4 19 5 17 6 14 7 15 8 93 9 16 10 92 11
REMARK SMILES IDX 13 12 11 13 12 14 95 15 94 16 10 17 9 18 3 19 4 20 8 21 5 22
REMARK SMILES IDX 7 23 6 24 98 25 96 26 97 27 2 28 1 29 99 30 100 31 101 32
REMARK SMILES IDX 102 33 107 34 103 35 106 36 104 37 105 38 23 39 24 40 25 41
REMARK SMILES IDX 26 42 27 43 28 44 29 45 30 46 91 47 31 48 90 49 32 50 33 51
REMARK SMILES IDX 34 52 84 53 35 54 89 55 83 56 85 57 36 58 88 59 82 60 81 61
REMARK SMILES IDX 37 63 69 64 49 65 68 66 50 67 53 68 67 69 86 70 51 71 52 72
REMARK SMILES IDX 66 74 87 75 54 76 38 77 39 78 47 79 40 80 42 81 48 82 41 83
REMARK SMILES IDX 43 84 44 85 45 86 46 87 70 88 71 89 79 90 72 91 74 92 80 93
REMARK SMILES IDX 73 94 75 95 76 96 77 97 78 98 55 99 56 100 64 101 57 102
REMARK SMILES IDX 59 103 65 104 58 105 60 106 61 107 62 108 63 109
REMARK H PARENT 85 62 53 73
REMARK Flexibility Score: inf
ROOT
ATOM      1  C   UNL     1      -2.718   7.847  -5.934  1.00  0.00     0.202 C 
ENDROOT
BRANCH   1   2
ATOM      2  C   UNL     1      -2.150   6.436  -5.716  1.00  0.00     0.261 C 
BRANCH   2   3
ATOM      3  O   UNL     1      -2.360   5.937  -4.391  1.00  0.00    -0.460 OA
BRANCH   3   4
ATOM      4  C   UNL     1      -1.235   5.923  -3.634  1.00  0.00     0.338 C 
ATOM      5  O   UNL     1      -0.096   6.166  -3.999  1.00  0.00    -0.246 OA
BRANCH   4   6
ATOM      6  C   UNL     1      -1.590   5.813  -2.204  1.00  0.00     0.060 A 
ATOM      7  C   UNL     1      -2.152   5.781   0.538  1.00  0.00     0.001 A 
ATOM      8  C   UNL     1      -1.165   6.635   0.030  1.00  0.00     0.011 A 
ATOM      9  C   UNL     1      -2.858   4.942  -0.337  1.00  0.00     0.011 A 
ATOM     10  C   UNL     1      -0.880   6.645  -1.331  1.00  0.00     0.016 A 
ATOM     11  C   UNL     1      -2.593   4.970  -1.715  1.00  0.00     0.016 A 
BRANCH   7  12
ATOM     12  C   UNL     1      -2.351   5.716   1.974  1.00  0.00     0.081 A 
ATOM     13  C   UNL     1      -2.187   4.729   3.942  1.00  0.00     0.098 A 
ATOM     14  N   UNL     1      -2.285   4.516   2.645  1.00  0.00    -0.241 NA
ATOM     15  S   UNL     1      -2.427   6.362   4.430  1.00  0.00    -0.126 S 
ATOM     16  C   UNL     1      -2.508   6.827   2.780  1.00  0.00     0.095 A 
BRANCH  13  17
ATOM     17  C   UNL     1      -1.875   3.660   4.949  1.00  0.00     0.105 C 
BRANCH  17  18
ATOM     18  C   UNL     1      -0.407   3.296   4.979  1.00  0.00    -0.012 A 
ATOM     19  C   UNL     1       0.780   1.453   1.844  1.00  0.00     0.119 A 
ATOM     20  C   UNL     1       2.048   1.163   2.311  1.00  0.00     0.048 A 
ATOM     21  C   UNL     1      -0.101   2.159   2.661  1.00  0.00     0.057 A 
ATOM     22  C   UNL     1       2.452   1.581   3.587  1.00  0.00     0.031 A 
ATOM     23  C   UNL     1       0.289   2.615   3.942  1.00  0.00     0.008 A 
ATOM     24  C   UNL     1       1.589   2.364   4.386  1.00  0.00     0.057 A 
ATOM     25  N   UNL     1       1.755   3.000   5.633  1.00  0.00    -0.280 N 
ATOM     26  C   UNL     1       0.500   3.517   6.011  1.00  0.00     0.028 A 
ATOM     27  C   UNL     1       0.190   4.206   7.303  1.00  0.00     0.065 C 
BRANCH  19  28
ATOM     28  O   UNL     1       0.289   1.128   0.612  1.00  0.00    -0.497 OA
ATOM     29  C   UNL     1       0.885   0.007  -0.031  1.00  0.00     0.278 C 
ENDBRANCH  19  28
BRANCH  25  30
ATOM     30  C   UNL     1       2.974   3.081   6.375  1.00  0.00     0.262 C 
ATOM     31  O   UNL     1       2.957   3.530   7.520  1.00  0.00    -0.268 OA
BRANCH  30  32
ATOM     32  C   UNL     1       4.295   2.624   5.904  1.00  0.00     0.040 A 
ATOM     33  C   UNL     1       4.913   3.212   4.794  1.00  0.00     0.015 A 
ATOM     34  C   UNL     1       4.898   1.553   6.573  1.00  0.00     0.015 A 
ATOM     35  C   UNL     1       6.095   2.655   4.295  1.00  0.00     0.021 A 
ATOM     36  C   UNL     1       6.083   1.008   6.077  1.00  0.00     0.021 A 
ATOM     37  C   UNL     1       6.664   1.548   4.928  1.00  0.00     0.041 A 
ATOM     38  Cl  UNL     1       8.081   0.824   4.276  1.00  0.00    -0.084 Cl
ENDBRANCH  30  32
ENDBRANCH  25  30
ENDBRANCH  17  18
ENDBRANCH  13  17
ENDBRANCH   7  12
ENDBRANCH   4   6
ENDBRANCH   3   4
ENDBRANCH   2   3
ENDBRANCH   1   2
BRANCH   1  39
ATOM     39  O   UNL     1      -2.519   8.844  -4.935  1.00  0.00    -0.374 OA
BRANCH  39  40
ATOM     40  C   UNL     1      -3.252   8.739  -3.712  1.00  0.00     0.202 C 
BRANCH  40  41
ATOM     41  C   UNL     1      -4.790   8.785  -3.743  1.00  0.00     0.261 C 
BRANCH  41  42
ATOM     42  O   UNL     1      -5.335   7.655  -4.433  1.00  0.00    -0.460 OA
BRANCH  42  43
ATOM     43  C   UNL     1      -6.329   7.936  -5.318  1.00  0.00     0.338 C 
ATOM     44  O   UNL     1      -7.064   8.910  -5.319  1.00  0.00    -0.246 OA
BRANCH  43  45
ATOM     45  C   UNL     1      -6.094   7.046  -6.472  1.00  0.00     0.060 A 
ATOM     46  C   UNL     1      -5.810   5.693  -6.268  1.00  0.00     0.016 A 
ATOM     47  C   UNL     1      -5.832   7.666  -7.706  1.00  0.00     0.016 A 
ATOM     48  C   UNL     1      -5.176   4.986  -7.279  1.00  0.00     0.010 A 
ATOM     49  C   UNL     1      -5.168   6.960  -8.704  1.00  0.00     0.010 A 
ATOM     50  C   UNL     1      -4.808   5.632  -8.474  1.00  0.00    -0.014 A 
BRANCH  50  51
ATOM     51  C   UNL     1      -4.226   4.805  -9.529  1.00  0.00     0.031 A 
ATOM     52  C   UNL     1      -5.178   3.783 -10.037  1.00  0.00     0.074 A 
ATOM     53  C   UNL     1      -3.008   4.934 -10.093  1.00  0.00     0.049 A 
ATOM     54  N   UNL     1      -5.102   2.503  -9.879  1.00  0.00    -0.248 NA
ATOM     55  C   UNL     1      -6.433   4.247 -10.643  1.00  0.00     0.031 C 
ATOM     56  C   UNL     1      -2.025   6.003  -9.923  1.00  0.00     0.029 A 
ATOM     57  N   UNL     1      -2.441   4.146 -11.056  1.00  0.00    -0.354 N 
ATOM     58  C   UNL     1      -6.209   1.978 -10.536  1.00  0.00     0.074 A 
ATOM     59  C   UNL     1      -7.065   3.092 -10.854  1.00  0.00     0.031 C 
ATOM     60  C   UNL     1      -1.110   5.924 -10.920  1.00  0.00     0.029 A 
ATOM     61  C   UNL     1      -1.374   4.741 -11.723  1.00  0.00     0.049 A 
ATOM     62  H   UNL     1      -2.759   3.237 -11.260  1.00  0.00     0.167 HD
ATOM     63  C   UNL     1      -6.253   0.680 -10.941  1.00  0.00     0.034 A 
ATOM     64  C   UNL     1      -0.819   4.325 -12.892  1.00  0.00     0.034 A 
ATOM     65  C   UNL     1      -5.211  -0.109 -10.345  1.00  0.00     0.049 A 
ATOM     66  C   UNL     1      -1.119   2.879 -13.024  1.00  0.00     0.074 A 
ATOM     67  C   UNL     1      -4.856  -0.443  -9.053  1.00  0.00     0.029 A 
ATOM     68  N   UNL     1      -4.117  -0.391 -11.126  1.00  0.00    -0.354 N 
ATOM     69  N   UNL     1      -0.616   1.970 -12.238  1.00  0.00    -0.248 NA
ATOM     70  C   UNL     1      -2.303   2.481 -13.769  1.00  0.00     0.031 C 
ATOM     71  C   UNL     1      -3.432  -0.441  -9.055  1.00  0.00     0.029 A 
ATOM     72  C   UNL     1      -3.011  -0.153 -10.355  1.00  0.00     0.049 A 
ATOM     73  H   UNL     1      -4.126  -0.703 -12.059  1.00  0.00     0.167 HD
ATOM     74  C   UNL     1      -1.659   1.078 -12.037  1.00  0.00     0.074 A 
ATOM     75  C   UNL     1      -2.632   1.382 -13.084  1.00  0.00     0.031 C 
ATOM     76  C   UNL     1      -1.773   0.381 -10.870  1.00  0.00     0.034 A 
BRANCH  63  77
ATOM     77  C   UNL     1      -7.018   0.178 -12.133  1.00  0.00     0.023 A 
ATOM     78  C   UNL     1      -7.177  -1.219 -12.265  1.00  0.00     0.012 A 
ATOM     79  C   UNL     1      -7.319   0.976 -13.258  1.00  0.00     0.148 A 
ATOM     80  C   UNL     1      -7.573  -1.797 -13.474  1.00  0.00     0.002 A 
ATOM     81  C   UNL     1      -7.772   0.402 -14.438  1.00  0.00     0.091 A 
ATOM     82  F   UNL     1      -7.039   2.284 -13.238  1.00  0.00    -0.205 F 
ATOM     83  C   UNL     1      -7.876  -0.986 -14.561  1.00  0.00     0.022 A 
BRANCH  81  84
ATOM     84  S   UNL     1      -8.183   1.404 -15.871  1.00  0.00     0.127 S 
ATOM     85  O   UNL     1      -7.032   1.160 -16.736  1.00  0.00    -0.237 OA
ATOM     86  O   UNL     1      -9.435   0.792 -16.316  1.00  0.00    -0.237 OA
ATOM     87  O   UNL     1      -8.329   2.762 -15.365  1.00  0.00    -0.744 OA
ENDBRANCH  81  84
ENDBRANCH  63  77
BRANCH  64  88
ATOM     88  C   UNL     1      -0.261   5.113 -14.024  1.00  0.00     0.023 A 
ATOM     89  C   UNL     1       0.447   4.457 -15.056  1.00  0.00     0.012 A 
ATOM     90  C   UNL     1      -0.657   6.449 -14.251  1.00  0.00     0.148 A 
ATOM     91  C   UNL     1       0.710   5.093 -16.278  1.00  0.00     0.002 A 
ATOM     92  C   UNL     1      -0.379   7.083 -15.460  1.00  0.00     0.091 A 
ATOM     93  F   UNL     1      -1.397   7.074 -13.327  1.00  0.00    -0.205 F 
ATOM     94  C   UNL     1       0.291   6.404 -16.483  1.00  0.00     0.022 A 
BRANCH  92  95
ATOM     95  S   UNL     1      -0.904   8.773 -15.780  1.00  0.00     0.127 S 
ATOM     96  O   UNL     1       0.276   9.344 -16.432  1.00  0.00    -0.237 OA
ATOM     97  O   UNL     1      -2.053   8.572 -16.659  1.00  0.00    -0.237 OA
ATOM     98  O   UNL     1      -1.197   9.347 -14.473  1.00  0.00    -0.744 OA
ENDBRANCH  92  95
ENDBRANCH  64  88
BRANCH  76  99
ATOM     99  C   UNL     1      -0.626   0.417  -9.896  1.00  0.00     0.023 A 
ATOM    100  C   UNL     1      -0.272   1.599  -9.211  1.00  0.00     0.012 A 
ATOM    101  C   UNL     1      -0.063  -0.804  -9.493  1.00  0.00     0.148 A 
ATOM    102  C   UNL     1       0.624   1.560  -8.140  1.00  0.00     0.002 A 
ATOM    103  C   UNL     1       0.795  -0.845  -8.402  1.00  0.00     0.091 A 
ATOM    104  F   UNL     1      -0.427  -1.915 -10.152  1.00  0.00    -0.205 F 
ATOM    105  C   UNL     1       1.144   0.335  -7.725  1.00  0.00     0.022 A 
BRANCH 103 106
ATOM    106  S   UNL     1       1.404  -2.395  -7.735  1.00  0.00     0.127 S 
ATOM    107  O   UNL     1       2.837  -2.304  -8.008  1.00  0.00    -0.237 OA
ATOM    108  O   UNL     1       1.043  -2.286  -6.320  1.00  0.00    -0.237 OA
ATOM    109  O   UNL     1       0.703  -3.452  -8.453  1.00  0.00    -0.744 OA
ENDBRANCH 103 106
ENDBRANCH  76  99
ENDBRANCH  50  51
ENDBRANCH  43  45
ENDBRANCH  42  43
ENDBRANCH  41  42
ENDBRANCH  40  41
ENDBRANCH  39  40
ENDBRANCH   1  39
TORSDOF 23
