REMARK SMILES O=C(OCCOCCOC(=O)[C@@H](Cc1ccccc1Br)CC(F)(F)F)c1ccc(-c2c3nc(c(-c4cccc(S(=O)(=O)[O-])c4F)c4ccc([nH]4)c(-c4cccc(S(=O)(=O)[O-])c4F)c4nc(c(-c5cccc(S(=O)(=O)[O-])c5F)c5ccc2[nH]5)C=C4)C=C3)cc1
REMARK SMILES IDX 5 1 4 2 3 3 2 4 1 5 26 6 27 7 88 8 28 9 87 10 29 11 30 12
REMARK SMILES IDX 31 13 81 14 32 15 86 16 80 17 82 18 33 19 85 20 79 21 78 22
REMARK SMILES IDX 34 24 66 25 46 26 65 27 47 28 50 29 64 30 83 31 48 32 49 33
REMARK SMILES IDX 63 35 84 36 51 37 35 38 36 39 44 40 37 41 39 42 45 43 38 44
REMARK SMILES IDX 40 45 41 46 42 47 43 48 67 49 68 50 76 51 69 52 71 53 77 54
REMARK SMILES IDX 70 55 72 56 73 57 74 58 75 59 52 60 53 61 61 62 54 63 56 64
REMARK SMILES IDX 62 65 55 66 57 67 58 68 59 69 60 70 6 71 7 72 8 73 9 74
REMARK SMILES IDX 10 75 11 76 12 77 13 78 14 79 15 80 19 81 16 82 18 83 20 84
REMARK SMILES IDX 17 85 21 86 22 87 23 88 24 89 25 90
REMARK H PARENT 82 23 50 34
REMARK Flexibility Score: inf
ROOT
ATOM      1  C   UNL     1       4.647   0.703   1.009  1.00  0.00     0.202 C 
ENDROOT
BRANCH   1   2
ATOM      2  C   UNL     1       4.250   1.027  -0.441  1.00  0.00     0.261 C 
BRANCH   2   3
ATOM      3  O   UNL     1       2.851   0.776  -0.663  1.00  0.00    -0.460 OA
BRANCH   3   4
ATOM      4  C   UNL     1       2.289  -0.275  -1.310  1.00  0.00     0.338 C 
ATOM      5  O   UNL     1       1.088  -0.235  -1.570  1.00  0.00    -0.246 OA
BRANCH   4   6
ATOM      6  C   UNL     1       3.057  -1.505  -1.664  1.00  0.00     0.060 A 
ATOM      7  C   UNL     1       4.281  -1.832  -1.094  1.00  0.00     0.016 A 
ATOM      8  C   UNL     1       2.484  -2.437  -2.542  1.00  0.00     0.016 A 
ATOM      9  C   UNL     1       4.912  -3.025  -1.307  1.00  0.00     0.010 A 
ATOM     10  C   UNL     1       3.117  -3.664  -2.784  1.00  0.00     0.010 A 
ATOM     11  C   UNL     1       4.319  -3.955  -2.134  1.00  0.00    -0.014 A 
BRANCH  11  12
ATOM     12  C   UNL     1       5.123  -5.156  -2.328  1.00  0.00     0.031 A 
ATOM     13  C   UNL     1       6.010  -5.197  -3.523  1.00  0.00     0.074 A 
ATOM     14  C   UNL     1       5.235  -6.016  -1.300  1.00  0.00     0.049 A 
ATOM     15  N   UNL     1       6.820  -6.137  -3.904  1.00  0.00    -0.248 NA
ATOM     16  C   UNL     1       6.013  -4.000  -4.388  1.00  0.00     0.031 C 
ATOM     17  C   UNL     1       4.554  -5.879  -0.005  1.00  0.00     0.029 A 
ATOM     18  N   UNL     1       5.987  -7.146  -1.161  1.00  0.00    -0.354 N 
ATOM     19  C   UNL     1       7.366  -5.688  -5.095  1.00  0.00     0.074 A 
ATOM     20  C   UNL     1       6.852  -4.363  -5.346  1.00  0.00     0.031 C 
ATOM     21  C   UNL     1       4.905  -6.904   0.787  1.00  0.00     0.029 A 
ATOM     22  C   UNL     1       5.759  -7.803   0.025  1.00  0.00     0.049 A 
ATOM     23  H   UNL     1       6.627  -7.459  -1.840  1.00  0.00     0.167 HD
ATOM     24  C   UNL     1       8.197  -6.364  -5.915  1.00  0.00     0.034 A 
ATOM     25  C   UNL     1       6.149  -9.033   0.401  1.00  0.00     0.034 A 
ATOM     26  C   UNL     1       8.675  -7.680  -5.607  1.00  0.00     0.049 A 
ATOM     27  C   UNL     1       6.992  -9.802  -0.580  1.00  0.00     0.074 A 
ATOM     28  C   UNL     1       9.464  -8.512  -6.373  1.00  0.00     0.029 A 
ATOM     29  N   UNL     1       8.386  -8.358  -4.430  1.00  0.00    -0.354 N 
ATOM     30  N   UNL     1       7.481  -9.403  -1.733  1.00  0.00    -0.248 NA
ATOM     31  C   UNL     1       7.339 -11.179  -0.221  1.00  0.00     0.031 C 
ATOM     32  C   UNL     1       9.617  -9.713  -5.673  1.00  0.00     0.029 A 
ATOM     33  C   UNL     1       8.964  -9.610  -4.452  1.00  0.00     0.049 A 
ATOM     34  H   UNL     1       7.847  -7.998  -3.688  1.00  0.00     0.167 HD
ATOM     35  C   UNL     1       8.213 -10.471  -2.227  1.00  0.00     0.074 A 
ATOM     36  C   UNL     1       8.128 -11.523  -1.229  1.00  0.00     0.031 C 
ATOM     37  C   UNL     1       8.880 -10.593  -3.401  1.00  0.00     0.034 A 
BRANCH  24  38
ATOM     38  C   UNL     1       8.528  -5.734  -7.234  1.00  0.00     0.023 A 
ATOM     39  C   UNL     1       9.432  -4.658  -7.316  1.00  0.00     0.012 A 
ATOM     40  C   UNL     1       7.916  -6.221  -8.405  1.00  0.00     0.148 A 
ATOM     41  C   UNL     1       9.708  -4.063  -8.548  1.00  0.00     0.002 A 
ATOM     42  C   UNL     1       8.229  -5.653  -9.632  1.00  0.00     0.091 A 
ATOM     43  F   UNL     1       7.027  -7.217  -8.292  1.00  0.00    -0.205 F 
ATOM     44  C   UNL     1       9.116  -4.567  -9.705  1.00  0.00     0.022 A 
BRANCH  42  45
ATOM     45  S   UNL     1       7.562  -6.269 -11.180  1.00  0.00     0.127 S 
ATOM     46  O   UNL     1       6.823  -5.105 -11.669  1.00  0.00    -0.237 OA
ATOM     47  O   UNL     1       8.780  -6.579 -11.929  1.00  0.00    -0.237 OA
ATOM     48  O   UNL     1       6.739  -7.421 -10.839  1.00  0.00    -0.744 OA
ENDBRANCH  42  45
ENDBRANCH  24  38
BRANCH  25  49
ATOM     49  C   UNL     1       5.690  -9.630   1.688  1.00  0.00     0.023 A 
ATOM     50  C   UNL     1       6.628 -10.007   2.666  1.00  0.00     0.012 A 
ATOM     51  C   UNL     1       4.319  -9.853   1.939  1.00  0.00     0.148 A 
ATOM     52  C   UNL     1       6.217 -10.636   3.844  1.00  0.00     0.002 A 
ATOM     53  C   UNL     1       3.911 -10.425   3.138  1.00  0.00     0.091 A 
ATOM     54  F   UNL     1       3.433  -9.511   0.992  1.00  0.00    -0.205 F 
ATOM     55  C   UNL     1       4.860 -10.838   4.083  1.00  0.00     0.022 A 
BRANCH  53  56
ATOM     56  S   UNL     1       2.177 -10.608   3.571  1.00  0.00     0.127 S 
ATOM     57  O   UNL     1       1.974 -12.043   3.393  1.00  0.00    -0.237 OA
ATOM     58  O   UNL     1       2.159 -10.151   4.961  1.00  0.00    -0.237 OA
ATOM     59  O   UNL     1       1.451  -9.742   2.651  1.00  0.00    -0.744 OA
ENDBRANCH  53  56
ENDBRANCH  25  49
BRANCH  37  60
ATOM     60  C   UNL     1       9.600 -11.888  -3.638  1.00  0.00     0.023 A 
ATOM     61  C   UNL     1       8.870 -13.053  -3.941  1.00  0.00     0.012 A 
ATOM     62  C   UNL     1      11.006 -11.916  -3.651  1.00  0.00     0.148 A 
ATOM     63  C   UNL     1       9.535 -14.242  -4.224  1.00  0.00     0.002 A 
ATOM     64  C   UNL     1      11.661 -13.088  -3.994  1.00  0.00     0.091 A 
ATOM     65  F   UNL     1      11.672 -10.794  -3.340  1.00  0.00    -0.205 F 
ATOM     66  C   UNL     1      10.928 -14.256  -4.266  1.00  0.00     0.022 A 
BRANCH  64  67
ATOM     67  S   UNL     1      13.442 -13.163  -4.191  1.00  0.00     0.127 S 
ATOM     68  O   UNL     1      13.835 -13.960  -3.030  1.00  0.00    -0.237 OA
ATOM     69  O   UNL     1      13.582 -13.845  -5.477  1.00  0.00    -0.237 OA
ATOM     70  O   UNL     1      13.907 -11.782  -4.185  1.00  0.00    -0.744 OA
ENDBRANCH  64  67
ENDBRANCH  37  60
ENDBRANCH  11  12
ENDBRANCH   4   6
ENDBRANCH   3   4
ENDBRANCH   2   3
ENDBRANCH   1   2
BRANCH   1  71
ATOM     71  O   UNL     1       4.473  -0.634   1.483  1.00  0.00    -0.374 OA
BRANCH  71  72
ATOM     72  C   UNL     1       3.192  -1.011   1.991  1.00  0.00     0.202 C 
BRANCH  72  73
ATOM     73  C   UNL     1       3.179  -1.074   3.528  1.00  0.00     0.261 C 
BRANCH  73  74
ATOM     74  O   UNL     1       3.406   0.224   4.113  1.00  0.00    -0.463 OA
BRANCH  74  75
ATOM     75  C   UNL     1       4.685   0.668   4.113  1.00  0.00     0.309 C 
ATOM     76  O   UNL     1       5.673  -0.015   3.911  1.00  0.00    -0.252 OA
BRANCH  75  77
ATOM     77  C   UNL     1       4.776   2.146   4.459  1.00  0.00     0.112 C 
BRANCH  77  78
ATOM     78  C   UNL     1       4.227   3.208   3.459  1.00  0.00     0.052 C 
BRANCH  78  79
ATOM     79  C   UNL     1       2.743   3.436   3.180  1.00  0.00    -0.033 A 
ATOM     80  C   UNL     1       1.900   2.370   2.837  1.00  0.00     0.005 A 
ATOM     81  C   UNL     1       2.156   4.711   3.087  1.00  0.00     0.021 A 
ATOM     82  C   UNL     1       0.546   2.511   2.525  1.00  0.00     0.000 A 
ATOM     83  C   UNL     1       0.790   4.869   2.776  1.00  0.00     0.016 A 
ATOM     84  Br  UNL     1       3.147   6.323   3.289  1.00  0.00    -0.051 Br
ATOM     85  C   UNL     1      -0.019   3.768   2.515  1.00  0.00     0.001 A 
ENDBRANCH  78  79
ENDBRANCH  77  78
BRANCH  77  86
ATOM     86  C   UNL     1       4.361   2.396   5.908  1.00  0.00     0.131 C 
BRANCH  86  87
ATOM     87  C   UNL     1       5.019   1.426   6.876  1.00  0.00     0.389 C 
ATOM     88  F   UNL     1       6.353   1.372   6.684  1.00  0.00    -0.171 F 
ATOM     89  F   UNL     1       4.810   1.831   8.149  1.00  0.00    -0.171 F 
ATOM     90  F   UNL     1       4.520   0.181   6.761  1.00  0.00    -0.171 F 
ENDBRANCH  86  87
ENDBRANCH  77  86
ENDBRANCH  75  77
ENDBRANCH  74  75
ENDBRANCH  73  74
ENDBRANCH  72  73
ENDBRANCH  71  72
ENDBRANCH   1  71
TORSDOF 21
