REMARK SMILES Cc1c(CC(=O)N[C@H](CO)C(=O)OCCOCCOC(=O)c2ccc(-c3c4nc(c(-c5cccc(S(=O)(=O)[O-])c5F)c5ccc([nH]5)c(-c5cccc(S(=O)(=O)[O-])c5F)c5nc(c(-c6cccc(S(=O)(=O)[O-])c6F)c6ccc3[nH]6)C=C5)C=C4)cc2)cc(-c2ccc(S(C)(=O)=O)cc2)n1-c1ccc(F)cc1
REMARK SMILES IDX 15 1 14 2 13 3 11 4 12 5 8 6 7 7 5 8 6 9 4 11 3 12 1 13 2 14
REMARK SMILES IDX 97 15 85 16 86 17 98 18 99 19 104 20 100 21 103 22 101 23
REMARK SMILES IDX 102 24 87 25 88 26 96 27 89 28 95 29 90 30 91 31 92 32 93 33
REMARK SMILES IDX 94 34 9 35 10 36 16 38 17 39 18 40 19 41 20 42 21 43 22 44
REMARK SMILES IDX 23 45 84 46 24 47 83 48 25 49 26 50 27 51 77 52 28 53 82 54
REMARK SMILES IDX 76 55 78 56 29 57 81 58 75 59 74 60 30 62 62 63 42 64 61 65
REMARK SMILES IDX 43 66 46 67 60 68 79 69 44 70 45 71 59 73 80 74 47 75 31 76
REMARK SMILES IDX 32 77 40 78 33 79 35 80 41 81 34 82 36 83 37 84 38 85 39 86
REMARK SMILES IDX 63 87 64 88 72 89 65 90 67 91 73 92 66 93 68 94 69 95 70 96
REMARK SMILES IDX 71 97 48 98 49 99 57 100 50 101 52 102 58 103 51 104 53 105
REMARK SMILES IDX 54 106 55 107 56 108
REMARK H PARENT 7 10 10 37 78 61 46 72
REMARK Flexibility Score: inf
ROOT
ATOM      1  C   UNL     1       6.543  -6.960  -2.136  1.00  0.00     0.202 C 
ENDROOT
BRANCH   1   2
ATOM      2  C   UNL     1       5.503  -6.276  -3.040  1.00  0.00     0.261 C 
BRANCH   2   3
ATOM      3  O   UNL     1       4.797  -5.188  -2.396  1.00  0.00    -0.462 OA
BRANCH   3   4
ATOM      4  C   UNL     1       3.552  -4.905  -2.867  1.00  0.00     0.331 C 
ATOM      5  O   UNL     1       2.955  -5.615  -3.671  1.00  0.00    -0.250 OA
BRANCH   4   6
ATOM      6  C   UNL     1       3.063  -3.488  -2.503  1.00  0.00     0.218 C 
BRANCH   6   7
ATOM      7  N   UNL     1       3.537  -2.480  -3.459  1.00  0.00    -0.341 N 
ATOM      8  C   UNL     1       4.784  -1.986  -3.689  1.00  0.00     0.225 C 
ATOM      9  O   UNL     1       4.872  -1.064  -4.507  1.00  0.00    -0.275 OA
ATOM     10  H   UNL     1       2.833  -2.095  -4.030  1.00  0.00     0.164 HD
BRANCH   8  11
ATOM     11  C   UNL     1       6.029  -2.586  -3.043  1.00  0.00     0.137 C 
BRANCH  11  12
ATOM     12  C   UNL     1       6.231  -2.223  -1.592  1.00  0.00    -0.017 A 
ATOM     13  C   UNL     1       7.007   0.145  -2.109  1.00  0.00     0.065 C 
ATOM     14  C   UNL     1       6.704  -1.010  -1.181  1.00  0.00     0.024 A 
ATOM     15  N   UNL     1       6.921  -1.042   0.209  1.00  0.00    -0.314 N 
ATOM     16  C   UNL     1       6.059  -2.949  -0.375  1.00  0.00     0.033 A 
ATOM     17  C   UNL     1       6.368  -2.228   0.799  1.00  0.00     0.053 A 
BRANCH  15  18
ATOM     18  C   UNL     1       7.662   0.015   0.760  1.00  0.00     0.046 A 
ATOM     19  C   UNL     1       8.909   0.303   0.154  1.00  0.00     0.029 A 
ATOM     20  C   UNL     1       7.039   0.933   1.591  1.00  0.00     0.029 A 
ATOM     21  C   UNL     1       9.558   1.500   0.416  1.00  0.00     0.041 A 
ATOM     22  C   UNL     1       7.698   2.139   1.840  1.00  0.00     0.041 A 
ATOM     23  C   UNL     1       8.947   2.404   1.266  1.00  0.00     0.123 A 
ATOM     24  F   UNL     1       9.573   3.553   1.542  1.00  0.00    -0.207 F 
ENDBRANCH  15  18
BRANCH  17  25
ATOM     25  C   UNL     1       6.384  -2.806   2.283  1.00  0.00    -0.001 A 
ATOM     26  C   UNL     1       5.559  -2.467   3.353  1.00  0.00     0.011 A 
ATOM     27  C   UNL     1       7.273  -3.829   2.713  1.00  0.00     0.011 A 
ATOM     28  C   UNL     1       5.681  -3.103   4.675  1.00  0.00     0.021 A 
ATOM     29  C   UNL     1       7.389  -4.528   3.917  1.00  0.00     0.021 A 
ATOM     30  C   UNL     1       6.608  -4.130   4.940  1.00  0.00     0.067 A 
BRANCH  30  31
ATOM     31  S   UNL     1       6.934  -4.961   6.485  1.00  0.00     0.175 S 
ATOM     32  C   UNL     1       8.546  -4.348   6.952  1.00  0.00     0.163 C 
ATOM     33  O   UNL     1       5.936  -4.573   7.414  1.00  0.00    -0.224 OA
ATOM     34  O   UNL     1       7.107  -6.388   6.130  1.00  0.00    -0.224 OA
ENDBRANCH  30  31
ENDBRANCH  17  25
ENDBRANCH  11  12
ENDBRANCH   8  11
ENDBRANCH   6   7
BRANCH   6  35
ATOM     35  C   UNL     1       3.107  -3.015  -1.047  1.00  0.00     0.193 C 
BRANCH  35  36
ATOM     36  O   UNL     1       1.795  -2.638  -0.605  1.00  0.00    -0.394 OA
ATOM     37  H   UNL     1       1.464  -1.913  -1.158  1.00  0.00     0.210 HD
ENDBRANCH  35  36
ENDBRANCH   6  35
ENDBRANCH   4   6
ENDBRANCH   3   4
ENDBRANCH   2   3
ENDBRANCH   1   2
BRANCH   1  38
ATOM     38  O   UNL     1       6.055  -7.420  -0.890  1.00  0.00    -0.374 OA
BRANCH  38  39
ATOM     39  C   UNL     1       5.916  -6.393   0.074  1.00  0.00     0.202 C 
BRANCH  39  40
ATOM     40  C   UNL     1       7.211  -5.797   0.773  1.00  0.00     0.261 C 
BRANCH  40  41
ATOM     41  O   UNL     1       8.202  -4.646   0.207  1.00  0.00    -0.460 OA
BRANCH  41  42
ATOM     42  C   UNL     1       9.246  -3.639   0.532  1.00  0.00     0.338 C 
ATOM     43  O   UNL     1      10.062  -3.585  -0.410  1.00  0.00    -0.246 OA
BRANCH  42  44
ATOM     44  C   UNL     1       9.668  -2.403   1.744  1.00  0.00     0.060 A 
ATOM     45  C   UNL     1      10.843  -1.722   1.446  1.00  0.00     0.016 A 
ATOM     46  C   UNL     1       9.136  -1.721   2.923  1.00  0.00     0.016 A 
ATOM     47  C   UNL     1      11.263  -0.454   2.083  1.00  0.00     0.010 A 
ATOM     48  C   UNL     1       9.589  -0.432   3.620  1.00  0.00     0.010 A 
ATOM     49  C   UNL     1      10.661   0.311   3.173  1.00  0.00    -0.014 A 
BRANCH  49  50
ATOM     50  C   UNL     1      11.480   1.643   3.803  1.00  0.00     0.031 A 
ATOM     51  C   UNL     1      12.861   1.175   3.603  1.00  0.00     0.074 A 
ATOM     52  C   UNL     1      11.512   2.877   4.504  1.00  0.00     0.049 A 
ATOM     53  N   UNL     1      13.166   0.010   4.091  1.00  0.00    -0.248 NA
ATOM     54  C   UNL     1      13.733   1.654   2.533  1.00  0.00     0.031 C 
ATOM     55  C   UNL     1      10.433   3.626   5.186  1.00  0.00     0.029 A 
ATOM     56  N   UNL     1      12.604   3.807   4.779  1.00  0.00    -0.354 N 
ATOM     57  C   UNL     1      14.411  -0.275   3.639  1.00  0.00     0.074 A 
ATOM     58  C   UNL     1      14.599   0.632   2.510  1.00  0.00     0.031 C 
ATOM     59  C   UNL     1      10.842   4.860   5.629  1.00  0.00     0.029 A 
ATOM     60  C   UNL     1      12.262   5.097   5.358  1.00  0.00     0.049 A 
ATOM     61  H   UNL     1      13.539   3.569   4.580  1.00  0.00     0.167 HD
ATOM     62  C   UNL     1      15.270  -0.686   4.609  1.00  0.00     0.034 A 
ATOM     63  C   UNL     1      13.045   6.222   5.673  1.00  0.00     0.034 A 
ATOM     64  C   UNL     1      16.257   0.320   4.870  1.00  0.00     0.049 A 
ATOM     65  C   UNL     1      14.410   5.705   5.851  1.00  0.00     0.074 A 
ATOM     66  C   UNL     1      16.989   1.146   4.038  1.00  0.00     0.029 A 
ATOM     67  N   UNL     1      16.180   0.953   6.091  1.00  0.00    -0.354 N 
ATOM     68  N   UNL     1      14.774   5.171   6.977  1.00  0.00    -0.248 NA
ATOM     69  C   UNL     1      15.482   5.920   4.886  1.00  0.00     0.031 C 
ATOM     70  C   UNL     1      16.832   2.435   4.597  1.00  0.00     0.029 A 
ATOM     71  C   UNL     1      16.404   2.305   5.910  1.00  0.00     0.049 A 
ATOM     72  H   UNL     1      15.995   0.514   6.952  1.00  0.00     0.167 HD
ATOM     73  C   UNL     1      15.921   4.521   6.650  1.00  0.00     0.074 A 
ATOM     74  C   UNL     1      16.446   5.228   5.499  1.00  0.00     0.031 C 
ATOM     75  C   UNL     1      15.974   3.203   6.955  1.00  0.00     0.034 A 
BRANCH  62  76
ATOM     76  C   UNL     1      14.602  -1.594   5.633  1.00  0.00     0.023 A 
ATOM     77  C   UNL     1      14.777  -2.978   5.460  1.00  0.00     0.012 A 
ATOM     78  C   UNL     1      13.626  -1.150   6.569  1.00  0.00     0.148 A 
ATOM     79  C   UNL     1      14.006  -3.894   6.184  1.00  0.00     0.002 A 
ATOM     80  C   UNL     1      12.806  -2.067   7.224  1.00  0.00     0.091 A 
ATOM     81  F   UNL     1      13.461   0.168   6.771  1.00  0.00    -0.205 F 
ATOM     82  C   UNL     1      13.010  -3.442   7.049  1.00  0.00     0.022 A 
BRANCH  80  83
ATOM     83  S   UNL     1      11.353  -1.515   8.139  1.00  0.00     0.127 S 
ATOM     84  O   UNL     1      10.602  -2.759   8.342  1.00  0.00    -0.237 OA
ATOM     85  O   UNL     1      11.905  -0.944   9.357  1.00  0.00    -0.237 OA
ATOM     86  O   UNL     1      10.675  -0.594   7.229  1.00  0.00    -0.744 OA
ENDBRANCH  80  83
ENDBRANCH  62  76
BRANCH  63  87
ATOM     87  C   UNL     1      13.088   7.744   6.141  1.00  0.00     0.023 A 
ATOM     88  C   UNL     1      14.162   8.156   7.024  1.00  0.00     0.012 A 
ATOM     89  C   UNL     1      12.460   8.821   5.478  1.00  0.00     0.148 A 
ATOM     90  C   UNL     1      14.664   9.469   7.129  1.00  0.00     0.002 A 
ATOM     91  C   UNL     1      12.945  10.157   5.618  1.00  0.00     0.091 A 
ATOM     92  F   UNL     1      11.454   8.547   4.638  1.00  0.00    -0.205 F 
ATOM     93  C   UNL     1      14.062  10.473   6.409  1.00  0.00     0.022 A 
BRANCH  91  94
ATOM     94  S   UNL     1      12.245  11.576   4.738  1.00  0.00     0.127 S 
ATOM     95  O   UNL     1      12.334  12.652   5.730  1.00  0.00    -0.237 OA
ATOM     96  O   UNL     1      13.169  11.719   3.614  1.00  0.00    -0.237 OA
ATOM     97  O   UNL     1      10.885  11.181   4.404  1.00  0.00    -0.744 OA
ENDBRANCH  91  94
ENDBRANCH  63  87
BRANCH  75  98
ATOM     98  C   UNL     1      15.371   2.756   8.279  1.00  0.00     0.023 A 
ATOM     99  C   UNL     1      14.115   3.159   8.789  1.00  0.00     0.012 A 
ATOM    100  C   UNL     1      16.135   1.888   9.074  1.00  0.00     0.148 A 
ATOM    101  C   UNL     1      13.666   2.750  10.052  1.00  0.00     0.002 A 
ATOM    102  C   UNL     1      15.663   1.431  10.301  1.00  0.00     0.091 A 
ATOM    103  F   UNL     1      17.347   1.524   8.626  1.00  0.00    -0.205 F 
ATOM    104  C   UNL     1      14.434   1.869  10.803  1.00  0.00     0.022 A 
BRANCH 102 105
ATOM    105  S   UNL     1      16.640   0.254  11.233  1.00  0.00     0.127 S 
ATOM    106  O   UNL     1      17.498   1.135  12.025  1.00  0.00    -0.237 OA
ATOM    107  O   UNL     1      15.651  -0.486  12.014  1.00  0.00    -0.237 OA
ATOM    108  O   UNL     1      17.326  -0.545  10.221  1.00  0.00    -0.744 OA
ENDBRANCH 102 105
ENDBRANCH  75  98
ENDBRANCH  49  50
ENDBRANCH  42  44
ENDBRANCH  41  42
ENDBRANCH  40  41
ENDBRANCH  39  40
ENDBRANCH  38  39
ENDBRANCH   1  38
TORSDOF 25
