REMARK SMILES Nn1c(Cc2ccc(F)c(F)c2)nnc1SCC(=O)OCCOCCOC(=O)c1ccc(-c2c3nc(c(-c4cccc(S(=O)(=O)[O-])c4F)c4ccc([nH]4)c(-c4cccc(S(=O)(=O)[O-])c4F)c4nc(c(-c5cccc(S(=O)(=O)[O-])c5F)c5ccc2[nH]5)C=C4)C=C3)cc1
REMARK SMILES IDX 22 1 21 2 20 3 18 4 19 5 17 6 16 7 15 8 2 9 3 10 13 11 14 12
REMARK SMILES IDX 1 13 4 16 5 17 6 18 12 19 7 20 10 21 8 22 11 23 9 24 23 25
REMARK SMILES IDX 24 26 25 27 26 28 27 29 28 30 29 31 30 32 91 33 31 34 90 35
REMARK SMILES IDX 32 36 33 37 34 38 84 39 35 40 89 41 83 42 85 43 36 44 88 45
REMARK SMILES IDX 82 46 81 47 37 49 69 50 49 51 68 52 50 53 53 54 67 55 86 56
REMARK SMILES IDX 51 57 52 58 66 60 87 61 54 62 38 63 39 64 47 65 40 66 42 67
REMARK SMILES IDX 48 68 41 69 43 70 44 71 45 72 46 73 70 74 71 75 79 76 72 77
REMARK SMILES IDX 74 78 80 79 73 80 75 81 76 82 77 83 78 84 55 85 56 86 64 87
REMARK SMILES IDX 57 88 59 89 65 90 58 91 60 92 61 93 62 94 63 95
REMARK H PARENT 1 14 1 15 85 48 53 59
REMARK Flexibility Score: inf
ROOT
ATOM      1  C   UNL     1       3.289  -1.251  -3.976  1.00  0.00     0.202 C 
ENDROOT
BRANCH   1   2
ATOM      2  C   UNL     1       3.549  -2.510  -3.134  1.00  0.00     0.261 C 
BRANCH   2   3
ATOM      3  O   UNL     1       2.604  -2.736  -2.063  1.00  0.00    -0.463 OA
BRANCH   3   4
ATOM      4  C   UNL     1       3.087  -2.645  -0.794  1.00  0.00     0.316 C 
ATOM      5  O   UNL     1       4.213  -2.242  -0.511  1.00  0.00    -0.251 OA
BRANCH   4   6
ATOM      6  C   UNL     1       2.129  -3.090   0.287  1.00  0.00     0.200 C 
BRANCH   6   7
ATOM      7  S   UNL     1       0.404  -2.730   0.004  1.00  0.00    -0.073 SA
BRANCH   7   8
ATOM      8  C   UNL     1      -0.020  -1.136   0.530  1.00  0.00     0.210 A 
ATOM      9  N   UNL     1       0.766  -0.031   0.807  1.00  0.00    -0.221 N 
ATOM     10  C   UNL     1      -0.097   1.055   0.696  1.00  0.00     0.157 A 
ATOM     11  N   UNL     1      -1.333   0.598   0.675  1.00  0.00    -0.132 NA
ATOM     12  N   UNL     1      -1.283  -0.762   0.548  1.00  0.00    -0.121 NA
BRANCH   9  13
ATOM     13  N   UNL     1       2.148   0.025   1.183  1.00  0.00    -0.336 N 
ATOM     14  H   UNL     1       2.578   0.895   1.351  1.00  0.00     0.178 HD
ATOM     15  H   UNL     1       2.668  -0.806   1.275  1.00  0.00     0.178 HD
ENDBRANCH   9  13
BRANCH  10  16
ATOM     16  C   UNL     1       0.290   2.498   0.558  1.00  0.00     0.115 C 
BRANCH  16  17
ATOM     17  C   UNL     1      -0.270   3.200  -0.682  1.00  0.00    -0.037 A 
ATOM     18  C   UNL     1      -1.651   3.224  -0.957  1.00  0.00     0.007 A 
ATOM     19  C   UNL     1       0.585   3.889  -1.563  1.00  0.00     0.046 A 
ATOM     20  C   UNL     1      -2.158   3.890  -2.082  1.00  0.00     0.043 A 
ATOM     21  C   UNL     1       0.071   4.550  -2.684  1.00  0.00     0.159 A 
ATOM     22  C   UNL     1      -1.292   4.551  -2.941  1.00  0.00     0.158 A 
ATOM     23  F   UNL     1       0.913   5.198  -3.502  1.00  0.00    -0.204 F 
ATOM     24  F   UNL     1      -1.782   5.209  -4.001  1.00  0.00    -0.204 F 
ENDBRANCH  16  17
ENDBRANCH  10  16
ENDBRANCH   7   8
ENDBRANCH   6   7
ENDBRANCH   4   6
ENDBRANCH   3   4
ENDBRANCH   2   3
ENDBRANCH   1   2
BRANCH   1  25
ATOM     25  O   UNL     1       3.435   0.020  -3.342  1.00  0.00    -0.374 OA
BRANCH  25  26
ATOM     26  C   UNL     1       2.531   0.333  -2.296  1.00  0.00     0.202 C 
BRANCH  26  27
ATOM     27  C   UNL     1       1.069   0.591  -2.650  1.00  0.00     0.261 C 
BRANCH  27  28
ATOM     28  O   UNL     1       0.491  -0.377  -3.505  1.00  0.00    -0.460 OA
BRANCH  28  29
ATOM     29  C   UNL     1       0.097   0.133  -4.689  1.00  0.00     0.338 C 
ATOM     30  O   UNL     1       0.181   1.290  -5.084  1.00  0.00    -0.246 OA
BRANCH  29  31
ATOM     31  C   UNL     1      -0.325  -0.975  -5.530  1.00  0.00     0.060 A 
ATOM     32  C   UNL     1       0.405  -1.207  -6.699  1.00  0.00     0.016 A 
ATOM     33  C   UNL     1      -1.444  -1.734  -5.187  1.00  0.00     0.016 A 
ATOM     34  C   UNL     1      -0.026  -2.186  -7.578  1.00  0.00     0.010 A 
ATOM     35  C   UNL     1      -1.875  -2.712  -6.071  1.00  0.00     0.010 A 
ATOM     36  C   UNL     1      -1.191  -2.905  -7.283  1.00  0.00    -0.014 A 
BRANCH  36  37
ATOM     37  C   UNL     1      -1.805  -3.741  -8.327  1.00  0.00     0.031 A 
ATOM     38  C   UNL     1      -2.962  -3.172  -9.092  1.00  0.00     0.074 A 
ATOM     39  C   UNL     1      -1.341  -4.979  -8.552  1.00  0.00     0.049 A 
ATOM     40  N   UNL     1      -3.715  -3.742  -9.991  1.00  0.00    -0.248 NA
ATOM     41  C   UNL     1      -3.326  -1.773  -8.797  1.00  0.00     0.031 C 
ATOM     42  C   UNL     1      -0.213  -5.597  -7.853  1.00  0.00     0.029 A 
ATOM     43  N   UNL     1      -1.783  -5.949  -9.409  1.00  0.00    -0.354 N 
ATOM     44  C   UNL     1      -4.662  -2.788 -10.344  1.00  0.00     0.074 A 
ATOM     45  C   UNL     1      -4.397  -1.605  -9.557  1.00  0.00     0.031 C 
ATOM     46  C   UNL     1      -0.073  -6.860  -8.288  1.00  0.00     0.029 A 
ATOM     47  C   UNL     1      -1.119  -7.143  -9.267  1.00  0.00     0.049 A 
ATOM     48  H   UNL     1      -2.505  -5.805 -10.062  1.00  0.00     0.167 HD
ATOM     49  C   UNL     1      -5.655  -2.894 -11.254  1.00  0.00     0.034 A 
ATOM     50  C   UNL     1      -1.359  -8.334  -9.846  1.00  0.00     0.034 A 
ATOM     51  C   UNL     1      -5.887  -4.078 -12.031  1.00  0.00     0.049 A 
ATOM     52  C   UNL     1      -2.486  -8.431 -10.840  1.00  0.00     0.074 A 
ATOM     53  C   UNL     1      -6.840  -4.295 -13.008  1.00  0.00     0.029 A 
ATOM     54  N   UNL     1      -5.159  -5.253 -11.907  1.00  0.00    -0.354 N 
ATOM     55  N   UNL     1      -3.314  -7.494 -11.242  1.00  0.00    -0.248 NA
ATOM     56  C   UNL     1      -2.696  -9.733 -11.485  1.00  0.00     0.031 C 
ATOM     57  C   UNL     1      -6.703  -5.612 -13.458  1.00  0.00     0.029 A 
ATOM     58  C   UNL     1      -5.642  -6.202 -12.786  1.00  0.00     0.049 A 
ATOM     59  H   UNL     1      -4.408  -5.389 -11.285  1.00  0.00     0.167 HD
ATOM     60  C   UNL     1      -4.110  -8.080 -12.218  1.00  0.00     0.074 A 
ATOM     61  C   UNL     1      -3.662  -9.452 -12.350  1.00  0.00     0.031 C 
ATOM     62  C   UNL     1      -5.125  -7.539 -12.937  1.00  0.00     0.034 A 
BRANCH  49  63
ATOM     63  C   UNL     1      -6.544  -1.698 -11.464  1.00  0.00     0.023 A 
ATOM     64  C   UNL     1      -6.038  -0.555 -12.117  1.00  0.00     0.012 A 
ATOM     65  C   UNL     1      -7.890  -1.718 -11.051  1.00  0.00     0.148 A 
ATOM     66  C   UNL     1      -6.847   0.560 -12.327  1.00  0.00     0.002 A 
ATOM     67  C   UNL     1      -8.704  -0.620 -11.304  1.00  0.00     0.091 A 
ATOM     68  F   UNL     1      -8.345  -2.802 -10.408  1.00  0.00    -0.205 F 
ATOM     69  C   UNL     1      -8.181   0.524 -11.931  1.00  0.00     0.022 A 
BRANCH  67  70
ATOM     70  S   UNL     1     -10.454  -0.599 -10.903  1.00  0.00     0.127 S 
ATOM     71  O   UNL     1     -10.495   0.372  -9.809  1.00  0.00    -0.237 OA
ATOM     72  O   UNL     1     -11.050  -0.132 -12.155  1.00  0.00    -0.237 OA
ATOM     73  O   UNL     1     -10.800  -1.965 -10.538  1.00  0.00    -0.744 OA
ENDBRANCH  67  70
ENDBRANCH  49  63
BRANCH  50  74
ATOM     74  C   UNL     1      -0.497  -9.505  -9.528  1.00  0.00     0.023 A 
ATOM     75  C   UNL     1       0.372 -10.013 -10.513  1.00  0.00     0.012 A 
ATOM     76  C   UNL     1      -0.506 -10.096  -8.249  1.00  0.00     0.148 A 
ATOM     77  C   UNL     1       1.193 -11.108 -10.240  1.00  0.00     0.002 A 
ATOM     78  C   UNL     1       0.353 -11.152  -7.968  1.00  0.00     0.091 A 
ATOM     79  F   UNL     1      -1.347  -9.604  -7.328  1.00  0.00    -0.205 F 
ATOM     80  C   UNL     1       1.190 -11.671  -8.967  1.00  0.00     0.022 A 
BRANCH  78  81
ATOM     81  S   UNL     1       0.512 -11.852  -6.321  1.00  0.00     0.127 S 
ATOM     82  O   UNL     1      -0.113 -13.162  -6.491  1.00  0.00    -0.237 OA
ATOM     83  O   UNL     1       1.964 -11.880  -6.143  1.00  0.00    -0.237 OA
ATOM     84  O   UNL     1      -0.182 -10.930  -5.433  1.00  0.00    -0.744 OA
ENDBRANCH  78  81
ENDBRANCH  50  74
BRANCH  62  85
ATOM     85  C   UNL     1      -5.782  -8.401 -13.979  1.00  0.00     0.023 A 
ATOM     86  C   UNL     1      -6.679  -9.414 -13.592  1.00  0.00     0.012 A 
ATOM     87  C   UNL     1      -5.598  -8.116 -15.347  1.00  0.00     0.148 A 
ATOM     88  C   UNL     1      -7.372 -10.145 -14.554  1.00  0.00     0.002 A 
ATOM     89  C   UNL     1      -6.331  -8.814 -16.297  1.00  0.00     0.091 A 
ATOM     90  F   UNL     1      -4.726  -7.156 -15.688  1.00  0.00    -0.205 F 
ATOM     91  C   UNL     1      -7.210  -9.836 -15.904  1.00  0.00     0.022 A 
BRANCH  89  92
ATOM     92  S   UNL     1      -6.267  -8.414 -18.047  1.00  0.00     0.127 S 
ATOM     93  O   UNL     1      -5.596  -9.590 -18.596  1.00  0.00    -0.237 OA
ATOM     94  O   UNL     1      -7.685  -8.303 -18.389  1.00  0.00    -0.237 OA
ATOM     95  O   UNL     1      -5.520  -7.167 -18.150  1.00  0.00    -0.744 OA
ENDBRANCH  89  92
ENDBRANCH  62  85
ENDBRANCH  36  37
ENDBRANCH  29  31
ENDBRANCH  28  29
ENDBRANCH  27  28
ENDBRANCH  26  27
ENDBRANCH  25  26
ENDBRANCH   1  25
TORSDOF 22
