REMARK SMILES CC[C@@H]1CCCN(S(=O)(=O)c2cc(C(=O)OCCOCCOC(=O)c3ccc(-c4c5nc(c(-c6cccc(S(=O)(=O)[O-])c6F)c6ccc([nH]6)c(-c6cccc(S(=O)(=O)[O-])c6F)c6nc(c(-c7cccc(S(=O)(=O)[O-])c7F)c7ccc4[nH]7)C=C6)C=C5)cc3)ccc2F)C1
REMARK SMILES IDX 19 1 18 2 17 3 16 4 14 5 15 6 13 7 11 8 12 9 90 10 89 11
REMARK SMILES IDX 91 12 88 13 8 14 9 15 10 16 7 17 3 18 4 19 92 20 5 21 6 22
REMARK SMILES IDX 2 23 1 24 20 25 21 26 22 27 23 28 24 29 25 30 26 31 87 32
REMARK SMILES IDX 27 33 86 34 28 35 29 36 30 37 80 38 31 39 85 40 79 41 81 42
REMARK SMILES IDX 32 43 84 44 78 45 77 46 33 48 65 49 45 50 64 51 46 52 49 53
REMARK SMILES IDX 63 54 82 55 47 56 48 57 62 59 83 60 50 61 34 62 35 63 43 64
REMARK SMILES IDX 36 65 38 66 44 67 37 68 39 69 40 70 41 71 42 72 66 73 67 74
REMARK SMILES IDX 75 75 68 76 70 77 76 78 69 79 71 80 72 81 73 82 74 83 51 84
REMARK SMILES IDX 52 85 60 86 53 87 55 88 61 89 54 90 56 91 57 92 58 93 59 94
REMARK H PARENT 81 47 49 58
REMARK Flexibility Score: inf
ROOT
ATOM      1  O   UNL     1       6.555   0.688  -6.646  1.00  0.00    -0.374 OA
ENDROOT
BRANCH   1   2
ATOM      2  C   UNL     1       5.767   1.043  -7.784  1.00  0.00     0.202 C 
BRANCH   2   3
ATOM      3  C   UNL     1       4.246   0.924  -7.637  1.00  0.00     0.261 C 
BRANCH   3   4
ATOM      4  O   UNL     1       3.747   1.816  -6.629  1.00  0.00    -0.460 OA
BRANCH   4   5
ATOM      5  C   UNL     1       3.259   1.226  -5.512  1.00  0.00     0.338 C 
ATOM      6  O   UNL     1       3.091   0.033  -5.319  1.00  0.00    -0.246 OA
BRANCH   5   7
ATOM      7  C   UNL     1       3.138   2.241  -4.436  1.00  0.00     0.061 A 
ATOM      8  C   UNL     1       3.392   2.768  -2.085  1.00  0.00     0.119 A 
ATOM      9  C   UNL     1       3.399   1.829  -3.122  1.00  0.00     0.040 A 
ATOM     10  C   UNL     1       3.137   4.106  -2.362  1.00  0.00     0.143 A 
ATOM     11  C   UNL     1       2.849   4.516  -3.662  1.00  0.00     0.041 A 
ATOM     12  F   UNL     1       3.122   5.028  -1.391  1.00  0.00    -0.206 F 
ATOM     13  C   UNL     1       2.855   3.587  -4.705  1.00  0.00     0.019 A 
BRANCH   8  14
ATOM     14  S   UNL     1       3.831   2.270  -0.451  1.00  0.00     0.246 S 
ATOM     15  O   UNL     1       4.513   3.356   0.219  1.00  0.00    -0.207 OA
ATOM     16  O   UNL     1       4.479   0.977  -0.561  1.00  0.00    -0.207 OA
BRANCH  14  17
ATOM     17  N   UNL     1       2.326   2.016   0.340  1.00  0.00    -0.197 NA
ATOM     18  C   UNL     1       1.146   0.875   2.224  1.00  0.00     0.004 C 
ATOM     19  C   UNL     1       0.219   2.093   2.350  1.00  0.00     0.006 C 
ATOM     20  C   UNL     1       2.500   1.300   1.642  1.00  0.00     0.106 C 
ATOM     21  C   UNL     1       0.108   2.872   1.050  1.00  0.00     0.017 C 
ATOM     22  C   UNL     1       1.480   3.233   0.491  1.00  0.00     0.102 C 
BRANCH  18  23
ATOM     23  C   UNL     1       0.477  -0.331   1.519  1.00  0.00     0.001 C 
ATOM     24  C   UNL     1       0.681  -0.486   0.018  1.00  0.00     0.004 C 
ENDBRANCH  18  23
ENDBRANCH  14  17
ENDBRANCH   8  14
ENDBRANCH   5   7
ENDBRANCH   4   5
ENDBRANCH   3   4
ENDBRANCH   2   3
ENDBRANCH   1   2
BRANCH   1  25
ATOM     25  C   UNL     1       6.676   1.661  -5.608  1.00  0.00     0.202 C 
BRANCH  25  26
ATOM     26  C   UNL     1       7.644   2.829  -5.847  1.00  0.00     0.261 C 
BRANCH  26  27
ATOM     27  O   UNL     1       7.239   3.674  -6.937  1.00  0.00    -0.460 OA
BRANCH  27  28
ATOM     28  C   UNL     1       8.002   3.573  -8.054  1.00  0.00     0.338 C 
ATOM     29  O   UNL     1       9.003   2.893  -8.207  1.00  0.00    -0.246 OA
BRANCH  28  30
ATOM     30  C   UNL     1       7.339   4.279  -9.166  1.00  0.00     0.060 A 
ATOM     31  C   UNL     1       7.020   3.544 -10.315  1.00  0.00     0.016 A 
ATOM     32  C   UNL     1       7.071   5.647  -9.100  1.00  0.00     0.016 A 
ATOM     33  C   UNL     1       6.442   4.180 -11.413  1.00  0.00     0.010 A 
ATOM     34  C   UNL     1       6.503   6.284 -10.207  1.00  0.00     0.010 A 
ATOM     35  C   UNL     1       6.200   5.559 -11.374  1.00  0.00    -0.014 A 
BRANCH  35  36
ATOM     36  C   UNL     1       5.680   6.271 -12.565  1.00  0.00     0.031 A 
ATOM     37  C   UNL     1       6.610   7.111 -13.392  1.00  0.00     0.074 A 
ATOM     38  C   UNL     1       4.372   6.205 -12.872  1.00  0.00     0.049 A 
ATOM     39  N   UNL     1       6.334   7.913 -14.385  1.00  0.00    -0.248 NA
ATOM     40  C   UNL     1       8.041   7.040 -13.053  1.00  0.00     0.031 C 
ATOM     41  C   UNL     1       3.378   5.407 -12.156  1.00  0.00     0.029 A 
ATOM     42  N   UNL     1       3.650   6.851 -13.845  1.00  0.00    -0.354 N 
ATOM     43  C   UNL     1       7.547   8.470 -14.772  1.00  0.00     0.074 A 
ATOM     44  C   UNL     1       8.563   7.914 -13.904  1.00  0.00     0.031 C 
ATOM     45  C   UNL     1       2.168   5.637 -12.691  1.00  0.00     0.029 A 
ATOM     46  C   UNL     1       2.296   6.628 -13.758  1.00  0.00     0.049 A 
ATOM     47  H   UNL     1       4.061   7.417 -14.537  1.00  0.00     0.167 HD
ATOM     48  C   UNL     1       7.789   9.359 -15.764  1.00  0.00     0.034 A 
ATOM     49  C   UNL     1       1.272   7.185 -14.434  1.00  0.00     0.034 A 
ATOM     50  C   UNL     1       6.773   9.900 -16.628  1.00  0.00     0.049 A 
ATOM     51  C   UNL     1       1.564   8.196 -15.511  1.00  0.00     0.074 A 
ATOM     52  C   UNL     1       6.926  10.789 -17.679  1.00  0.00     0.029 A 
ATOM     53  N   UNL     1       5.420   9.616 -16.542  1.00  0.00    -0.354 N 
ATOM     54  N   UNL     1       2.721   8.663 -15.912  1.00  0.00    -0.248 NA
ATOM     55  C   UNL     1       0.413   8.732 -16.253  1.00  0.00     0.031 C 
ATOM     56  C   UNL     1       5.662  11.067 -18.204  1.00  0.00     0.029 A 
ATOM     57  C   UNL     1       4.725  10.313 -17.516  1.00  0.00     0.049 A 
ATOM     58  H   UNL     1       5.012   9.007 -15.884  1.00  0.00     0.167 HD
ATOM     59  C   UNL     1       2.445   9.508 -16.981  1.00  0.00     0.074 A 
ATOM     60  C   UNL     1       1.009   9.483 -17.169  1.00  0.00     0.031 C 
ATOM     61  C   UNL     1       3.303  10.240 -17.734  1.00  0.00     0.034 A 
BRANCH  48  62
ATOM     62  C   UNL     1       9.212   9.798 -15.992  1.00  0.00     0.023 A 
ATOM     63  C   UNL     1      10.134   8.906 -16.576  1.00  0.00     0.012 A 
ATOM     64  C   UNL     1       9.607  11.124 -15.724  1.00  0.00     0.148 A 
ATOM     65  C   UNL     1      11.432   9.322 -16.873  1.00  0.00     0.002 A 
ATOM     66  C   UNL     1      10.886  11.544 -16.068  1.00  0.00     0.091 A 
ATOM     67  F   UNL     1       8.722  11.950 -15.148  1.00  0.00    -0.205 F 
ATOM     68  C   UNL     1      11.802  10.643 -16.633  1.00  0.00     0.022 A 
BRANCH  66  69
ATOM     69  S   UNL     1      11.430  13.247 -15.884  1.00  0.00     0.127 S 
ATOM     70  O   UNL     1      12.445  13.121 -14.839  1.00  0.00    -0.237 OA
ATOM     71  O   UNL     1      11.959  13.544 -17.215  1.00  0.00    -0.237 OA
ATOM     72  O   UNL     1      10.247  14.011 -15.513  1.00  0.00    -0.744 OA
ENDBRANCH  66  69
ENDBRANCH  48  62
BRANCH  49  73
ATOM     73  C   UNL     1      -0.124   6.761 -14.132  1.00  0.00     0.023 A 
ATOM     74  C   UNL     1      -0.836   5.997 -15.076  1.00  0.00     0.012 A 
ATOM     75  C   UNL     1      -0.727   7.062 -12.895  1.00  0.00     0.148 A 
ATOM     76  C   UNL     1      -2.131   5.556 -14.801  1.00  0.00     0.002 A 
ATOM     77  C   UNL     1      -1.992   6.567 -12.603  1.00  0.00     0.091 A 
ATOM     78  F   UNL     1      -0.036   7.802 -12.016  1.00  0.00    -0.205 F 
ATOM     79  C   UNL     1      -2.703   5.829 -13.561  1.00  0.00     0.022 A 
BRANCH  77  80
ATOM     80  S   UNL     1      -2.747   6.741 -10.982  1.00  0.00     0.127 S 
ATOM     81  O   UNL     1      -3.894   7.596 -11.276  1.00  0.00    -0.237 OA
ATOM     82  O   UNL     1      -3.077   5.354 -10.656  1.00  0.00    -0.237 OA
ATOM     83  O   UNL     1      -1.724   7.332 -10.129  1.00  0.00    -0.744 OA
ENDBRANCH  77  80
ENDBRANCH  49  73
BRANCH  61  84
ATOM     84  C   UNL     1       2.737  11.036 -18.883  1.00  0.00     0.023 A 
ATOM     85  C   UNL     1       1.963  12.188 -18.639  1.00  0.00     0.012 A 
ATOM     86  C   UNL     1       3.053  10.687 -20.212  1.00  0.00     0.148 A 
ATOM     87  C   UNL     1       1.486  12.959 -19.699  1.00  0.00     0.002 A 
ATOM     88  C   UNL     1       2.622  11.491 -21.260  1.00  0.00     0.091 A 
ATOM     89  F   UNL     1       3.774   9.577 -20.428  1.00  0.00    -0.205 F 
ATOM     90  C   UNL     1       1.826  12.619 -21.007  1.00  0.00     0.022 A 
BRANCH  88  91
ATOM     91  S   UNL     1       3.106  11.190 -22.965  1.00  0.00     0.127 S 
ATOM     92  O   UNL     1       1.863  10.681 -23.541  1.00  0.00    -0.237 OA
ATOM     93  O   UNL     1       3.486  12.528 -23.421  1.00  0.00    -0.237 OA
ATOM     94  O   UNL     1       4.206  10.238 -22.907  1.00  0.00    -0.744 OA
ENDBRANCH  88  91
ENDBRANCH  61  84
ENDBRANCH  35  36
ENDBRANCH  28  30
ENDBRANCH  27  28
ENDBRANCH  26  27
ENDBRANCH  25  26
ENDBRANCH   1  25
TORSDOF 20
