REMARK SMILES Cc1ccc([C@@H](C)Nc2ccc(N)cc2C(=O)OCCOCCOC(=O)c2ccc(-c3c4nc(c(-c5cccc(S(=O)(=O)[O-])c5F)c5ccc([nH]5)c(-c5cccc(S(=O)(=O)[O-])c5F)c5nc(c(-c6cccc(S(=O)(=O)[O-])c6F)c6ccc3[nH]6)C=C5)C=C4)cc2)cc1F
REMARK SMILES IDX 21 1 20 2 19 3 18 4 16 5 17 6 15 7 9 8 10 9 11 10 14 11
REMARK SMILES IDX 12 12 8 13 6 15 7 16 5 17 1 18 2 19 3 20 91 21 4 22 90 23
REMARK SMILES IDX 92 24 13 25 22 28 23 29 24 30 25 31 26 32 27 33 28 34 89 35
REMARK SMILES IDX 29 36 88 37 30 38 31 39 32 40 82 41 33 42 87 43 81 44 83 45
REMARK SMILES IDX 34 46 86 47 80 48 79 49 35 51 67 52 47 53 66 54 48 55 51 56
REMARK SMILES IDX 65 57 84 58 49 59 50 60 64 62 85 63 52 64 36 65 37 66 45 67
REMARK SMILES IDX 38 68 40 69 46 70 39 71 41 72 42 73 43 74 44 75 68 76 69 77
REMARK SMILES IDX 77 78 70 79 72 80 78 81 71 82 73 83 74 84 75 85 76 86 53 87
REMARK SMILES IDX 54 88 62 89 55 90 57 91 63 92 56 93 58 94 59 95 60 96 61 97
REMARK H PARENT 8 14 13 26 13 27 83 50 51 61
REMARK Flexibility Score: inf
ROOT
ATOM      1  O   UNL     1      -2.067  -4.170  -4.468  1.00  0.00    -0.374 OA
ENDROOT
BRANCH   1   2
ATOM      2  C   UNL     1      -2.748  -2.971  -4.108  1.00  0.00     0.202 C 
BRANCH   2   3
ATOM      3  C   UNL     1      -3.885  -3.139  -3.114  1.00  0.00     0.261 C 
BRANCH   3   4
ATOM      4  O   UNL     1      -3.382  -3.507  -1.818  1.00  0.00    -0.460 OA
BRANCH   4   5
ATOM      5  C   UNL     1      -4.322  -4.053  -1.014  1.00  0.00     0.340 C 
ATOM      6  O   UNL     1      -5.517  -4.152  -1.252  1.00  0.00    -0.246 OA
BRANCH   5   7
ATOM      7  C   UNL     1      -3.681  -4.722   0.121  1.00  0.00     0.085 A 
ATOM      8  C   UNL     1      -3.499  -4.160   1.390  1.00  0.00     0.049 A 
ATOM      9  C   UNL     1      -3.086  -5.075   2.391  1.00  0.00     0.029 A 
ATOM     10  C   UNL     1      -2.891  -6.444   2.161  1.00  0.00     0.027 A 
ATOM     11  C   UNL     1      -3.470  -6.107  -0.116  1.00  0.00     0.043 A 
ATOM     12  C   UNL     1      -3.060  -6.973   0.893  1.00  0.00     0.032 A 
BRANCH   8  13
ATOM     13  N   UNL     1      -3.708  -2.877   1.843  1.00  0.00    -0.378 N 
ATOM     14  H   UNL     1      -3.917  -2.871   2.805  1.00  0.00     0.161 HD
BRANCH  13  15
ATOM     15  C   UNL     1      -3.705  -1.518   1.298  1.00  0.00     0.106 C 
ATOM     16  C   UNL     1      -4.548  -1.248   0.070  1.00  0.00     0.036 C 
BRANCH  15  17
ATOM     17  C   UNL     1      -2.335  -0.854   1.362  1.00  0.00    -0.023 A 
ATOM     18  C   UNL     1       1.312   1.144   2.585  1.00  0.00     0.047 C 
ATOM     19  C   UNL     1       0.067   0.474   2.082  1.00  0.00    -0.015 A 
ATOM     20  C   UNL     1      -1.062   1.208   1.710  1.00  0.00     0.007 A 
ATOM     21  C   UNL     1       0.013  -0.916   1.978  1.00  0.00     0.126 A 
ATOM     22  C   UNL     1      -2.247   0.552   1.353  1.00  0.00     0.006 A 
ATOM     23  C   UNL     1      -1.158  -1.576   1.605  1.00  0.00     0.045 A 
ATOM     24  F   UNL     1       1.103  -1.646   2.252  1.00  0.00    -0.207 F 
ENDBRANCH  15  17
ENDBRANCH  13  15
ENDBRANCH   8  13
BRANCH  12  25
ATOM     25  N   UNL     1      -3.002  -8.341   0.686  1.00  0.00    -0.399 N 
ATOM     26  H   UNL     1      -2.710  -8.937   1.413  1.00  0.00     0.156 HD
ATOM     27  H   UNL     1      -3.254  -8.718  -0.188  1.00  0.00     0.156 HD
ENDBRANCH  12  25
ENDBRANCH   5   7
ENDBRANCH   4   5
ENDBRANCH   3   4
ENDBRANCH   2   3
ENDBRANCH   1   2
BRANCH   1  28
ATOM     28  C   UNL     1      -1.321  -4.863  -3.470  1.00  0.00     0.202 C 
BRANCH  28  29
ATOM     29  C   UNL     1       0.005  -4.265  -2.994  1.00  0.00     0.261 C 
BRANCH  29  30
ATOM     30  O   UNL     1      -0.094  -2.917  -2.546  1.00  0.00    -0.460 OA
BRANCH  30  31
ATOM     31  C   UNL     1       0.150  -1.989  -3.497  1.00  0.00     0.338 C 
ATOM     32  O   UNL     1       0.168  -2.150  -4.718  1.00  0.00    -0.246 OA
BRANCH  31  33
ATOM     33  C   UNL     1       0.344  -0.673  -2.882  1.00  0.00     0.060 A 
ATOM     34  C   UNL     1       0.503   0.447  -3.713  1.00  0.00     0.016 A 
ATOM     35  C   UNL     1       0.606  -0.599  -1.520  1.00  0.00     0.016 A 
ATOM     36  C   UNL     1       1.169   1.570  -3.232  1.00  0.00     0.010 A 
ATOM     37  C   UNL     1       1.220   0.528  -1.038  1.00  0.00     0.010 A 
ATOM     38  C   UNL     1       1.623   1.541  -1.916  1.00  0.00    -0.014 A 
BRANCH  38  39
ATOM     39  C   UNL     1       2.881   2.139  -1.482  1.00  0.00     0.031 A 
ATOM     40  C   UNL     1       2.982   3.284  -0.575  1.00  0.00     0.074 A 
ATOM     41  C   UNL     1       3.951   1.321  -1.632  1.00  0.00     0.049 A 
ATOM     42  N   UNL     1       4.095   3.880  -0.319  1.00  0.00    -0.248 NA
ATOM     43  C   UNL     1       1.850   3.868   0.121  1.00  0.00     0.031 C 
ATOM     44  C   UNL     1       5.208   1.318  -0.898  1.00  0.00     0.029 A 
ATOM     45  N   UNL     1       4.119   0.331  -2.600  1.00  0.00    -0.354 N 
ATOM     46  C   UNL     1       3.917   4.646   0.806  1.00  0.00     0.074 A 
ATOM     47  C   UNL     1       2.475   4.717   0.949  1.00  0.00     0.031 C 
ATOM     48  C   UNL     1       6.101   0.587  -1.581  1.00  0.00     0.029 A 
ATOM     49  C   UNL     1       5.498   0.219  -2.849  1.00  0.00     0.049 A 
ATOM     50  H   UNL     1       3.405  -0.193  -3.030  1.00  0.00     0.167 HD
ATOM     51  C   UNL     1       5.022   5.010   1.532  1.00  0.00     0.034 A 
ATOM     52  C   UNL     1       5.961   0.586  -4.081  1.00  0.00     0.034 A 
ATOM     53  C   UNL     1       6.268   4.590   0.867  1.00  0.00     0.049 A 
ATOM     54  C   UNL     1       6.725   1.898  -4.069  1.00  0.00     0.074 A 
ATOM     55  C   UNL     1       7.282   3.684   1.137  1.00  0.00     0.029 A 
ATOM     56  N   UNL     1       6.484   4.994  -0.442  1.00  0.00    -0.354 N 
ATOM     57  N   UNL     1       7.117   2.526  -2.992  1.00  0.00    -0.248 NA
ATOM     58  C   UNL     1       7.011   2.659  -5.283  1.00  0.00     0.031 C 
ATOM     59  C   UNL     1       8.094   3.550  -0.035  1.00  0.00     0.029 A 
ATOM     60  C   UNL     1       7.590   4.392  -1.008  1.00  0.00     0.049 A 
ATOM     61  H   UNL     1       5.911   5.640  -0.916  1.00  0.00     0.167 HD
ATOM     62  C   UNL     1       7.580   3.773  -3.329  1.00  0.00     0.074 A 
ATOM     63  C   UNL     1       7.513   3.798  -4.780  1.00  0.00     0.031 C 
ATOM     64  C   UNL     1       7.910   4.719  -2.395  1.00  0.00     0.034 A 
BRANCH  51  65
ATOM     65  C   UNL     1       4.996   5.627   2.929  1.00  0.00     0.023 A 
ATOM     66  C   UNL     1       3.803   6.057   3.551  1.00  0.00     0.012 A 
ATOM     67  C   UNL     1       6.169   5.787   3.708  1.00  0.00     0.148 A 
ATOM     68  C   UNL     1       3.750   6.568   4.855  1.00  0.00     0.002 A 
ATOM     69  C   UNL     1       6.117   6.292   5.015  1.00  0.00     0.091 A 
ATOM     70  F   UNL     1       7.364   5.456   3.204  1.00  0.00    -0.205 F 
ATOM     71  C   UNL     1       4.910   6.681   5.595  1.00  0.00     0.022 A 
BRANCH  69  72
ATOM     72  S   UNL     1       7.628   6.429   5.979  1.00  0.00     0.127 S 
ATOM     73  O   UNL     1       8.067   5.042   6.090  1.00  0.00    -0.237 OA
ATOM     74  O   UNL     1       8.453   7.324   5.176  1.00  0.00    -0.237 OA
ATOM     75  O   UNL     1       7.168   7.012   7.241  1.00  0.00    -0.744 OA
ENDBRANCH  69  72
ENDBRANCH  51  65
BRANCH  52  76
ATOM     76  C   UNL     1       5.066   0.076  -5.168  1.00  0.00     0.023 A 
ATOM     77  C   UNL     1       4.030   0.864  -5.701  1.00  0.00     0.012 A 
ATOM     78  C   UNL     1       4.995  -1.327  -5.327  1.00  0.00     0.148 A 
ATOM     79  C   UNL     1       2.918   0.257  -6.304  1.00  0.00     0.002 A 
ATOM     80  C   UNL     1       3.860  -1.925  -5.870  1.00  0.00     0.091 A 
ATOM     81  F   UNL     1       5.992  -2.079  -4.833  1.00  0.00    -0.205 F 
ATOM     82  C   UNL     1       2.814  -1.137  -6.356  1.00  0.00     0.022 A 
BRANCH  80  83
ATOM     83  S   UNL     1       3.686  -3.711  -5.740  1.00  0.00     0.127 S 
ATOM     84  O   UNL     1       4.737  -4.202  -6.626  1.00  0.00    -0.237 OA
ATOM     85  O   UNL     1       3.869  -3.959  -4.312  1.00  0.00    -0.237 OA
ATOM     86  O   UNL     1       2.332  -3.978  -6.220  1.00  0.00    -0.744 OA
ENDBRANCH  80  83
ENDBRANCH  52  76
BRANCH  64  87
ATOM     87  C   UNL     1       8.429   6.105  -2.730  1.00  0.00     0.023 A 
ATOM     88  C   UNL     1       8.161   7.186  -1.852  1.00  0.00     0.012 A 
ATOM     89  C   UNL     1       9.232   6.398  -3.843  1.00  0.00     0.148 A 
ATOM     90  C   UNL     1       8.573   8.495  -2.114  1.00  0.00     0.002 A 
ATOM     91  C   UNL     1       9.593   7.715  -4.138  1.00  0.00     0.091 A 
ATOM     92  F   UNL     1       9.700   5.402  -4.609  1.00  0.00    -0.205 F 
ATOM     93  C   UNL     1       9.267   8.768  -3.280  1.00  0.00     0.022 A 
BRANCH  91  94
ATOM     94  S   UNL     1      10.402   8.060  -5.700  1.00  0.00     0.127 S 
ATOM     95  O   UNL     1      11.661   7.330  -5.598  1.00  0.00    -0.237 OA
ATOM     96  O   UNL     1       9.434   7.559  -6.674  1.00  0.00    -0.237 OA
ATOM     97  O   UNL     1      10.546   9.517  -5.696  1.00  0.00    -0.744 OA
ENDBRANCH  91  94
ENDBRANCH  64  87
ENDBRANCH  38  39
ENDBRANCH  31  33
ENDBRANCH  30  31
ENDBRANCH  29  30
ENDBRANCH  28  29
ENDBRANCH   1  28
TORSDOF 21
