REMARK SMILES CC(C)OCCS(=O)(=O)N1CCC[C@H](C(=O)OCCOCCOC(=O)c2ccc(-c3c4nc(c(-c5cccc(S(=O)(=O)[O-])c5F)c5ccc([nH]5)c(-c5cccc(S(=O)(=O)[O-])c5F)c5nc(c(-c6cccc(S(=O)(=O)[O-])c6F)c6ccc3[nH]6)C=C5)C=C4)cc2)C1
REMARK SMILES IDX 19 1 18 2 17 3 15 4 16 5 14 6 10 7 11 8 89 9 12 10 13 11
REMARK SMILES IDX 7 12 8 13 9 14 6 15 5 16 4 17 2 18 1 19 3 20 20 21 21 22
REMARK SMILES IDX 22 23 23 24 24 25 25 26 26 27 27 28 88 29 28 30 87 31 29 32
REMARK SMILES IDX 30 33 31 34 81 35 32 36 86 37 80 38 82 39 33 40 85 41 79 42
REMARK SMILES IDX 78 43 34 45 66 46 46 47 65 48 47 49 50 50 64 51 83 52 48 53
REMARK SMILES IDX 49 54 63 56 84 57 51 58 35 59 36 60 44 61 37 62 39 63 45 64
REMARK SMILES IDX 38 65 40 66 41 67 42 68 43 69 67 70 68 71 76 72 69 73 71 74
REMARK SMILES IDX 77 75 70 76 72 77 73 78 74 79 75 80 52 81 53 82 61 83 54 84
REMARK SMILES IDX 56 85 62 86 55 87 57 88 58 89 59 90 60 91
REMARK H PARENT 82 44 50 55
REMARK Flexibility Score: inf
ROOT
ATOM      1  C   UNL     1       5.929  -2.228  -3.016  1.00  0.00     0.202 C 
ENDROOT
BRANCH   1   2
ATOM      2  C   UNL     1       5.193  -2.008  -1.689  1.00  0.00     0.261 C 
BRANCH   2   3
ATOM      3  O   UNL     1       3.935  -2.704  -1.611  1.00  0.00    -0.463 OA
BRANCH   3   4
ATOM      4  C   UNL     1       2.843  -1.909  -1.681  1.00  0.00     0.310 C 
ATOM      5  O   UNL     1       2.869  -0.689  -1.831  1.00  0.00    -0.252 OA
BRANCH   4   6
ATOM      6  C   UNL     1       1.522  -2.640  -1.575  1.00  0.00     0.114 C 
ATOM      7  N   UNL     1       1.019  -3.438   0.796  1.00  0.00    -0.201 NA
ATOM      8  C   UNL     1       0.754  -4.795   0.281  1.00  0.00     0.102 C 
ATOM      9  C   UNL     1       0.947  -2.357  -0.201  1.00  0.00     0.117 C 
ATOM     10  C   UNL     1       1.657  -5.080  -0.914  1.00  0.00     0.018 C 
ATOM     11  C   UNL     1       1.411  -4.084  -2.033  1.00  0.00     0.018 C 
BRANCH   7  12
ATOM     12  S   UNL     1       0.375  -3.069   2.344  1.00  0.00     0.216 S 
ATOM     13  O   UNL     1       1.174  -2.028   2.934  1.00  0.00    -0.212 OA
ATOM     14  O   UNL     1       0.198  -4.332   3.038  1.00  0.00    -0.212 OA
BRANCH  12  15
ATOM     15  C   UNL     1      -1.274  -2.426   2.009  1.00  0.00     0.182 C 
BRANCH  15  16
ATOM     16  C   UNL     1      -1.465  -0.904   2.054  1.00  0.00     0.178 C 
BRANCH  16  17
ATOM     17  O   UNL     1      -1.499  -0.239   0.783  1.00  0.00    -0.378 OA
BRANCH  17  18
ATOM     18  C   UNL     1      -0.387   0.552   0.340  1.00  0.00     0.112 C 
ATOM     19  C   UNL     1      -0.846   1.944  -0.088  1.00  0.00     0.038 C 
ATOM     20  C   UNL     1       0.789   0.724   1.288  1.00  0.00     0.038 C 
ENDBRANCH  17  18
ENDBRANCH  16  17
ENDBRANCH  15  16
ENDBRANCH  12  15
ENDBRANCH   7  12
ENDBRANCH   4   6
ENDBRANCH   3   4
ENDBRANCH   2   3
ENDBRANCH   1   2
BRANCH   1  21
ATOM     21  O   UNL     1       5.291  -1.810  -4.219  1.00  0.00    -0.374 OA
BRANCH  21  22
ATOM     22  C   UNL     1       4.104  -2.477  -4.638  1.00  0.00     0.202 C 
BRANCH  22  23
ATOM     23  C   UNL     1       4.145  -3.997  -4.859  1.00  0.00     0.261 C 
BRANCH  23  24
ATOM     24  O   UNL     1       4.455  -4.743  -3.666  1.00  0.00    -0.460 OA
BRANCH  24  25
ATOM     25  C   UNL     1       5.540  -5.547  -3.775  1.00  0.00     0.338 C 
ATOM     26  O   UNL     1       6.210  -5.738  -4.777  1.00  0.00    -0.246 OA
BRANCH  25  27
ATOM     27  C   UNL     1       5.964  -6.057  -2.460  1.00  0.00     0.060 A 
ATOM     28  C   UNL     1       7.207  -5.625  -1.984  1.00  0.00     0.016 A 
ATOM     29  C   UNL     1       5.269  -7.078  -1.810  1.00  0.00     0.016 A 
ATOM     30  C   UNL     1       7.796  -6.264  -0.901  1.00  0.00     0.010 A 
ATOM     31  C   UNL     1       5.867  -7.722  -0.717  1.00  0.00     0.010 A 
ATOM     32  C   UNL     1       7.157  -7.353  -0.294  1.00  0.00    -0.014 A 
BRANCH  32  33
ATOM     33  C   UNL     1       7.935  -8.162   0.678  1.00  0.00     0.031 A 
ATOM     34  C   UNL     1       8.512  -9.488   0.255  1.00  0.00     0.074 A 
ATOM     35  C   UNL     1       8.217  -7.661   1.895  1.00  0.00     0.049 A 
ATOM     36  N   UNL     1       9.296 -10.298   0.920  1.00  0.00    -0.248 NA
ATOM     37  C   UNL     1       8.170  -9.963  -1.096  1.00  0.00     0.031 C 
ATOM     38  C   UNL     1       7.723  -6.386   2.414  1.00  0.00     0.029 A 
ATOM     39  N   UNL     1       8.986  -8.165   2.912  1.00  0.00    -0.354 N 
ATOM     40  C   UNL     1       9.531 -11.380   0.079  1.00  0.00     0.074 A 
ATOM     41  C   UNL     1       8.786 -11.136  -1.137  1.00  0.00     0.031 C 
ATOM     42  C   UNL     1       8.191  -6.213   3.661  1.00  0.00     0.029 A 
ATOM     43  C   UNL     1       8.996  -7.373   4.035  1.00  0.00     0.049 A 
ATOM     44  H   UNL     1       9.484  -9.011   2.844  1.00  0.00     0.167 HD
ATOM     45  C   UNL     1      10.313 -12.467   0.288  1.00  0.00     0.034 A 
ATOM     46  C   UNL     1       9.571  -7.572   5.237  1.00  0.00     0.034 A 
ATOM     47  C   UNL     1      11.064 -12.701   1.494  1.00  0.00     0.049 A 
ATOM     48  C   UNL     1      10.414  -8.801   5.452  1.00  0.00     0.074 A 
ATOM     49  C   UNL     1      11.900 -13.762   1.795  1.00  0.00     0.029 A 
ATOM     50  N   UNL     1      11.064 -11.868   2.603  1.00  0.00    -0.354 N 
ATOM     51  N   UNL     1      10.702  -9.764   4.611  1.00  0.00    -0.248 NA
ATOM     52  C   UNL     1      11.044  -8.948   6.772  1.00  0.00     0.031 C 
ATOM     53  C   UNL     1      12.383 -13.586   3.097  1.00  0.00     0.029 A 
ATOM     54  C   UNL     1      11.879 -12.394   3.592  1.00  0.00     0.049 A 
ATOM     55  H   UNL     1      10.559 -11.027   2.677  1.00  0.00     0.167 HD
ATOM     56  C   UNL     1      11.568 -10.616   5.288  1.00  0.00     0.074 A 
ATOM     57  C   UNL     1      11.785 -10.033   6.596  1.00  0.00     0.031 C 
ATOM     58  C   UNL     1      12.118 -11.785   4.875  1.00  0.00     0.034 A 
BRANCH  45  59
ATOM     59  C   UNL     1      10.426 -13.479  -0.825  1.00  0.00     0.023 A 
ATOM     60  C   UNL     1      11.162 -13.159  -1.985  1.00  0.00     0.012 A 
ATOM     61  C   UNL     1       9.871 -14.767  -0.693  1.00  0.00     0.148 A 
ATOM     62  C   UNL     1      11.320 -14.095  -3.007  1.00  0.00     0.002 A 
ATOM     63  C   UNL     1      10.070 -15.709  -1.696  1.00  0.00     0.091 A 
ATOM     64  F   UNL     1       9.161 -15.047   0.409  1.00  0.00    -0.205 F 
ATOM     65  C   UNL     1      10.784 -15.372  -2.857  1.00  0.00     0.022 A 
BRANCH  63  66
ATOM     66  S   UNL     1       9.489 -17.404  -1.569  1.00  0.00     0.127 S 
ATOM     67  O   UNL     1       8.477 -17.449  -2.625  1.00  0.00    -0.237 OA
ATOM     68  O   UNL     1      10.704 -18.167  -1.857  1.00  0.00    -0.237 OA
ATOM     69  O   UNL     1       8.979 -17.557  -0.214  1.00  0.00    -0.744 OA
ENDBRANCH  63  66
ENDBRANCH  45  59
BRANCH  46  70
ATOM     70  C   UNL     1       9.370  -6.582   6.333  1.00  0.00     0.023 A 
ATOM     71  C   UNL     1      10.455  -5.822   6.809  1.00  0.00     0.012 A 
ATOM     72  C   UNL     1       8.097  -6.400   6.908  1.00  0.00     0.148 A 
ATOM     73  C   UNL     1      10.283  -4.927   7.867  1.00  0.00     0.002 A 
ATOM     74  C   UNL     1       7.921  -5.464   7.918  1.00  0.00     0.091 A 
ATOM     75  F   UNL     1       7.082  -7.148   6.452  1.00  0.00    -0.205 F 
ATOM     76  C   UNL     1       9.016  -4.741   8.414  1.00  0.00     0.022 A 
BRANCH  74  77
ATOM     77  S   UNL     1       6.303  -5.073   8.591  1.00  0.00     0.127 S 
ATOM     78  O   UNL     1       6.386  -5.659   9.926  1.00  0.00    -0.237 OA
ATOM     79  O   UNL     1       6.311  -3.610   8.558  1.00  0.00    -0.237 OA
ATOM     80  O   UNL     1       5.344  -5.691   7.687  1.00  0.00    -0.744 OA
ENDBRANCH  74  77
ENDBRANCH  46  70
BRANCH  58  81
ATOM     81  C   UNL     1      13.036 -12.495   5.839  1.00  0.00     0.023 A 
ATOM     82  C   UNL     1      12.511 -13.088   7.005  1.00  0.00     0.012 A 
ATOM     83  C   UNL     1      14.416 -12.601   5.573  1.00  0.00     0.148 A 
ATOM     84  C   UNL     1      13.351 -13.725   7.918  1.00  0.00     0.002 A 
ATOM     85  C   UNL     1      15.239 -13.286   6.460  1.00  0.00     0.091 A 
ATOM     86  F   UNL     1      14.902 -12.019   4.467  1.00  0.00    -0.205 F 
ATOM     87  C   UNL     1      14.711 -13.832   7.641  1.00  0.00     0.022 A 
BRANCH  85  88
ATOM     88  S   UNL     1      16.985 -13.557   6.139  1.00  0.00     0.127 S 
ATOM     89  O   UNL     1      17.609 -12.643   7.095  1.00  0.00    -0.237 OA
ATOM     90  O   UNL     1      17.142 -14.976   6.461  1.00  0.00    -0.237 OA
ATOM     91  O   UNL     1      17.191 -13.231   4.735  1.00  0.00    -0.744 OA
ENDBRANCH  85  88
ENDBRANCH  58  81
ENDBRANCH  32  33
ENDBRANCH  25  27
ENDBRANCH  24  25
ENDBRANCH  23  24
ENDBRANCH  22  23
ENDBRANCH  21  22
ENDBRANCH   1  21
TORSDOF 22
