REMARK SMILES O=C(COc1ccccc1Br)Nc1cccc(C(=O)Nc2ccc(C(=O)OCCOCCOC(=O)c3ccc(-c4c5nc(c(-c6cccc(S(=O)(=O)[O-])c6F)c6ccc([nH]6)c(-c6cccc(S(=O)(=O)[O-])c6F)c6nc(c(-c7cccc(S(=O)(=O)[O-])c7F)c7ccc4[nH]7)C=C6)C=C5)cc3)cc2)c1
REMARK SMILES IDX 28 1 27 2 25 3 26 4 24 5 21 6 22 7 100 8 23 9 99 10 20 11
REMARK SMILES IDX 18 12 19 13 17 15 13 16 14 17 101 18 15 19 16 20 12 21 1 22
REMARK SMILES IDX 2 23 3 25 4 26 5 27 6 28 10 29 7 30 9 31 11 32 8 33 29 34
REMARK SMILES IDX 30 35 31 36 32 37 33 38 34 39 35 40 36 41 37 42 98 43 38 44
REMARK SMILES IDX 97 45 39 46 40 47 41 48 91 49 42 50 96 51 90 52 92 53 43 54
REMARK SMILES IDX 95 55 89 56 88 57 44 59 76 60 56 61 75 62 57 63 60 64 74 65
REMARK SMILES IDX 93 66 58 67 59 68 73 70 94 71 61 72 45 73 46 74 54 75 47 76
REMARK SMILES IDX 49 77 55 78 48 79 50 80 51 81 52 82 53 83 77 84 78 85 86 86
REMARK SMILES IDX 79 87 81 88 87 89 80 90 82 91 83 92 84 93 85 94 62 95 63 96
REMARK SMILES IDX 71 97 64 98 66 99 72 100 65 101 67 102 68 103 69 104 70 105
REMARK H PARENT 20 14 12 24 92 58 60 69
REMARK Flexibility Score: inf
ROOT
ATOM      1  C   UNL     1       2.983   0.992   4.074  1.00  0.00     0.261 C 
ENDROOT
BRANCH   1   2
ATOM      2  O   UNL     1       2.514   1.727   2.934  1.00  0.00    -0.460 OA
BRANCH   2   3
ATOM      3  C   UNL     1       1.189   1.576   2.684  1.00  0.00     0.338 C 
ATOM      4  O   UNL     1       0.425   0.841   3.295  1.00  0.00    -0.246 OA
BRANCH   3   5
ATOM      5  C   UNL     1       0.720   2.526   1.639  1.00  0.00     0.060 A 
ATOM      6  C   UNL     1      -0.337   3.762  -0.617  1.00  0.00     0.041 A 
ATOM      7  C   UNL     1      -1.197   3.311   0.384  1.00  0.00     0.027 A 
ATOM      8  C   UNL     1       1.042   3.810  -0.383  1.00  0.00     0.027 A 
ATOM      9  C   UNL     1      -0.666   2.666   1.497  1.00  0.00     0.018 A 
ATOM     10  C   UNL     1       1.578   3.184   0.750  1.00  0.00     0.018 A 
BRANCH   6  11
ATOM     11  N   UNL     1      -0.919   3.990  -1.873  1.00  0.00    -0.322 N 
ATOM     12  C   UNL     1      -0.527   3.567  -3.133  1.00  0.00     0.255 C 
ATOM     13  O   UNL     1      -1.196   3.938  -4.102  1.00  0.00    -0.269 OA
ATOM     14  H   UNL     1      -1.736   4.538  -1.857  1.00  0.00     0.170 HD
BRANCH  12  15
ATOM     15  C   UNL     1       0.613   2.631  -3.371  1.00  0.00     0.042 A 
ATOM     16  C   UNL     1       2.234   0.999  -2.596  1.00  0.00     0.042 A 
ATOM     17  C   UNL     1       2.918   1.111  -3.808  1.00  0.00     0.026 A 
ATOM     18  C   UNL     1       1.032   1.683  -2.432  1.00  0.00     0.040 A 
ATOM     19  C   UNL     1       2.409   1.912  -4.830  1.00  0.00     0.003 A 
ATOM     20  C   UNL     1       1.273   2.690  -4.604  1.00  0.00     0.014 A 
BRANCH  16  21
ATOM     21  N   UNL     1       2.812   0.199  -1.596  1.00  0.00    -0.323 N 
ATOM     22  O   UNL     1       1.141   0.086   0.037  1.00  0.00    -0.271 OA
ATOM     23  C   UNL     1       2.245  -0.218  -0.402  1.00  0.00     0.262 C 
ATOM     24  H   UNL     1       3.734  -0.103  -1.765  1.00  0.00     0.170 HD
BRANCH  23  25
ATOM     25  C   UNL     1       3.154  -1.172   0.357  1.00  0.00     0.329 C 
BRANCH  25  26
ATOM     26  O   UNL     1       3.770  -2.046  -0.594  1.00  0.00    -0.483 OA
BRANCH  26  27
ATOM     27  C   UNL     1       3.226  -3.301  -0.571  1.00  0.00     0.134 A 
ATOM     28  C   UNL     1       3.892  -4.250   0.208  1.00  0.00     0.047 A 
ATOM     29  C   UNL     1       2.151  -3.695  -1.379  1.00  0.00     0.060 A 
ATOM     30  C   UNL     1       3.474  -5.581   0.198  1.00  0.00     0.004 A 
ATOM     31  C   UNL     1       1.726  -5.025  -1.368  1.00  0.00     0.019 A 
ATOM     32  Br  UNL     1       1.241  -2.548  -2.580  1.00  0.00    -0.047 Br
ATOM     33  C   UNL     1       2.390  -5.967  -0.587  1.00  0.00     0.001 A 
ENDBRANCH  26  27
ENDBRANCH  25  26
ENDBRANCH  23  25
ENDBRANCH  16  21
ENDBRANCH  12  15
ENDBRANCH   6  11
ENDBRANCH   3   5
ENDBRANCH   2   3
ENDBRANCH   1   2
BRANCH   1  34
ATOM     34  C   UNL     1       3.238   1.892   5.288  1.00  0.00     0.202 C 
BRANCH  34  35
ATOM     35  O   UNL     1       2.148   2.628   5.840  1.00  0.00    -0.374 OA
BRANCH  35  36
ATOM     36  C   UNL     1       1.607   3.717   5.100  1.00  0.00     0.202 C 
BRANCH  36  37
ATOM     37  C   UNL     1       2.427   5.004   4.945  1.00  0.00     0.261 C 
BRANCH  37  38
ATOM     38  O   UNL     1       3.753   4.798   4.441  1.00  0.00    -0.460 OA
BRANCH  38  39
ATOM     39  C   UNL     1       4.721   4.910   5.381  1.00  0.00     0.338 C 
ATOM     40  O   UNL     1       4.572   5.191   6.565  1.00  0.00    -0.246 OA
BRANCH  39  41
ATOM     41  C   UNL     1       6.016   4.473   4.837  1.00  0.00     0.060 A 
ATOM     42  C   UNL     1       6.710   3.479   5.540  1.00  0.00     0.016 A 
ATOM     43  C   UNL     1       6.583   5.083   3.716  1.00  0.00     0.016 A 
ATOM     44  C   UNL     1       8.002   3.131   5.159  1.00  0.00     0.010 A 
ATOM     45  C   UNL     1       7.884   4.736   3.340  1.00  0.00     0.010 A 
ATOM     46  C   UNL     1       8.612   3.790   4.085  1.00  0.00    -0.014 A 
BRANCH  46  47
ATOM     47  C   UNL     1      10.058   3.590   3.836  1.00  0.00     0.031 A 
ATOM     48  C   UNL     1      11.034   4.628   4.314  1.00  0.00     0.074 A 
ATOM     49  C   UNL     1      10.495   2.495   3.192  1.00  0.00     0.049 A 
ATOM     50  N   UNL     1      12.334   4.661   4.189  1.00  0.00    -0.248 NA
ATOM     51  C   UNL     1      10.466   5.787   5.023  1.00  0.00     0.031 C 
ATOM     52  C   UNL     1       9.643   1.427   2.673  1.00  0.00     0.029 A 
ATOM     53  N   UNL     1      11.766   2.119   2.838  1.00  0.00    -0.354 N 
ATOM     54  C   UNL     1      12.740   5.852   4.778  1.00  0.00     0.074 A 
ATOM     55  C   UNL     1      11.546   6.522   5.245  1.00  0.00     0.031 C 
ATOM     56  C   UNL     1      10.412   0.535   2.027  1.00  0.00     0.029 A 
ATOM     57  C   UNL     1      11.805   0.979   2.074  1.00  0.00     0.049 A 
ATOM     58  H   UNL     1      12.572   2.617   3.107  1.00  0.00     0.167 HD
ATOM     59  C   UNL     1      13.995   6.336   4.936  1.00  0.00     0.034 A 
ATOM     60  C   UNL     1      12.841   0.377   1.457  1.00  0.00     0.034 A 
ATOM     61  C   UNL     1      15.181   5.661   4.482  1.00  0.00     0.049 A 
ATOM     62  C   UNL     1      14.228   0.934   1.635  1.00  0.00     0.074 A 
ATOM     63  C   UNL     1      16.502   6.040   4.642  1.00  0.00     0.029 A 
ATOM     64  N   UNL     1      15.190   4.475   3.763  1.00  0.00    -0.354 N 
ATOM     65  N   UNL     1      14.612   1.989   2.312  1.00  0.00    -0.248 NA
ATOM     66  C   UNL     1      15.329   0.198   0.997  1.00  0.00     0.031 C 
ATOM     67  C   UNL     1      17.308   5.095   3.995  1.00  0.00     0.029 A 
ATOM     68  C   UNL     1      16.491   4.114   3.457  1.00  0.00     0.049 A 
ATOM     69  H   UNL     1      14.388   3.965   3.508  1.00  0.00     0.167 HD
ATOM     70  C   UNL     1      15.999   2.029   2.207  1.00  0.00     0.074 A 
ATOM     71  C   UNL     1      16.388   0.878   1.417  1.00  0.00     0.031 C 
ATOM     72  C   UNL     1      16.869   2.943   2.706  1.00  0.00     0.034 A 
BRANCH  59  73
ATOM     73  C   UNL     1      14.143   7.653   5.652  1.00  0.00     0.023 A 
ATOM     74  C   UNL     1      13.909   7.721   7.041  1.00  0.00     0.012 A 
ATOM     75  C   UNL     1      14.533   8.815   4.960  1.00  0.00     0.148 A 
ATOM     76  C   UNL     1      14.018   8.933   7.722  1.00  0.00     0.002 A 
ATOM     77  C   UNL     1      14.683  10.011   5.654  1.00  0.00     0.091 A 
ATOM     78  F   UNL     1      14.725   8.739   3.636  1.00  0.00    -0.205 F 
ATOM     79  C   UNL     1      14.414  10.075   7.031  1.00  0.00     0.022 A 
BRANCH  77  80
ATOM     80  S   UNL     1      15.261  11.515   4.861  1.00  0.00     0.127 S 
ATOM     81  O   UNL     1      14.020  12.275   4.728  1.00  0.00    -0.237 OA
ATOM     82  O   UNL     1      16.199  12.048   5.850  1.00  0.00    -0.237 OA
ATOM     83  O   UNL     1      15.879  11.092   3.612  1.00  0.00    -0.744 OA
ENDBRANCH  77  80
ENDBRANCH  59  73
BRANCH  60  84
ATOM     84  C   UNL     1      12.593  -0.840   0.636  1.00  0.00     0.023 A 
ATOM     85  C   UNL     1      13.027  -2.097   1.096  1.00  0.00     0.012 A 
ATOM     86  C   UNL     1      11.868  -0.760  -0.570  1.00  0.00     0.148 A 
ATOM     87  C   UNL     1      12.761  -3.252   0.359  1.00  0.00     0.002 A 
ATOM     88  C   UNL     1      11.555  -1.919  -1.267  1.00  0.00     0.091 A 
ATOM     89  F   UNL     1      11.477   0.450  -0.995  1.00  0.00    -0.205 F 
ATOM     90  C   UNL     1      12.014  -3.165  -0.814  1.00  0.00     0.022 A 
BRANCH  88  91
ATOM     91  S   UNL     1      10.470  -1.916  -2.700  1.00  0.00     0.127 S 
ATOM     92  O   UNL     1      11.393  -2.267  -3.775  1.00  0.00    -0.237 OA
ATOM     93  O   UNL     1       9.507  -2.959  -2.347  1.00  0.00    -0.237 OA
ATOM     94  O   UNL     1       9.902  -0.576  -2.764  1.00  0.00    -0.744 OA
ENDBRANCH  88  91
ENDBRANCH  60  84
BRANCH  72  95
ATOM     95  C   UNL     1      18.337   2.731   2.438  1.00  0.00     0.023 A 
ATOM     96  C   UNL     1      18.853   2.961   1.147  1.00  0.00     0.012 A 
ATOM     97  C   UNL     1      19.217   2.381   3.481  1.00  0.00     0.148 A 
ATOM     98  C   UNL     1      20.216   2.817   0.892  1.00  0.00     0.002 A 
ATOM     99  C   UNL     1      20.581   2.286   3.230  1.00  0.00     0.091 A 
ATOM    100  F   UNL     1      18.706   2.148   4.699  1.00  0.00    -0.205 F 
ATOM    101  C   UNL     1      21.081   2.493   1.934  1.00  0.00     0.022 A 
BRANCH  99 102
ATOM    102  S   UNL     1      21.779   1.965   4.531  1.00  0.00     0.127 S 
ATOM    103  O   UNL     1      22.161   0.582   4.248  1.00  0.00    -0.237 OA
ATOM    104  O   UNL     1      22.818   2.955   4.248  1.00  0.00    -0.237 OA
ATOM    105  O   UNL     1      21.072   2.174   5.787  1.00  0.00    -0.744 OA
ENDBRANCH  99 102
ENDBRANCH  72  95
ENDBRANCH  46  47
ENDBRANCH  39  41
ENDBRANCH  38  39
ENDBRANCH  37  38
ENDBRANCH  36  37
ENDBRANCH  35  36
ENDBRANCH  34  35
ENDBRANCH   1  34
TORSDOF 23
