REMARK SMILES CCC(CC)NC(=O)N[C@@H]1C=C[C@@H](C(=O)OCCOCCOC(=O)c2ccc(-c3c4nc(c(-c5cccc(S(=O)(=O)[O-])c5F)c5ccc([nH]5)c(-c5cccc(S(=O)(=O)[O-])c5F)c5nc(c(-c6cccc(S(=O)(=O)[O-])c6F)c6ccc3[nH]6)C=C5)C=C4)cc2)C1
REMARK SMILES IDX 19 1 18 2 17 3 16 4 14 5 15 6 13 7 10 8 11 9 88 10 12 11
REMARK SMILES IDX 9 12 6 13 7 14 8 16 3 18 2 19 1 20 4 21 5 22 20 23 21 24
REMARK SMILES IDX 22 25 23 26 24 27 25 28 26 29 87 30 27 31 86 32 28 33 29 34
REMARK SMILES IDX 30 35 80 36 31 37 85 38 79 39 81 40 32 41 84 42 78 43 77 44
REMARK SMILES IDX 33 46 65 47 45 48 64 49 46 50 49 51 63 52 82 53 47 54 48 55
REMARK SMILES IDX 62 57 83 58 50 59 34 60 35 61 43 62 36 63 38 64 44 65 37 66
REMARK SMILES IDX 39 67 40 68 41 69 42 70 66 71 67 72 75 73 68 74 70 75 76 76
REMARK SMILES IDX 69 77 71 78 72 79 73 80 74 81 51 82 52 83 60 84 53 85 55 86
REMARK SMILES IDX 61 87 54 88 56 89 57 90 58 91 59 92
REMARK H PARENT 6 15 9 17 81 45 49 56
REMARK Flexibility Score: inf
ROOT
ATOM      1  O   UNL     1       1.150  -2.052   2.214  1.00  0.00    -0.374 OA
ENDROOT
BRANCH   1   2
ATOM      2  C   UNL     1       1.206  -1.158   3.329  1.00  0.00     0.202 C 
BRANCH   2   3
ATOM      3  C   UNL     1       2.567  -0.518   3.619  1.00  0.00     0.261 C 
BRANCH   3   4
ATOM      4  O   UNL     1       2.974   0.314   2.521  1.00  0.00    -0.463 OA
BRANCH   4   5
ATOM      5  C   UNL     1       4.171   0.015   1.956  1.00  0.00     0.312 C 
ATOM      6  O   UNL     1       4.997  -0.758   2.432  1.00  0.00    -0.252 OA
BRANCH   5   7
ATOM      7  C   UNL     1       4.394   0.722   0.623  1.00  0.00     0.124 C 
ATOM      8  C   UNL     1       3.643   2.946  -0.176  1.00  0.00     0.107 C 
ATOM      9  C   UNL     1       5.025   2.965   0.382  1.00  0.00    -0.006 C 
ATOM     10  C   UNL     1       3.213   1.478  -0.015  1.00  0.00     0.048 C 
ATOM     11  C   UNL     1       5.440   1.769   0.801  1.00  0.00    -0.014 C 
BRANCH   8  12
ATOM     12  N   UNL     1       3.713   3.369  -1.556  1.00  0.00    -0.332 N 
ATOM     13  N   UNL     1       3.802   5.738  -1.517  1.00  0.00    -0.335 N 
ATOM     14  C   UNL     1       3.783   4.563  -2.157  1.00  0.00     0.315 C 
ATOM     15  H   UNL     1       3.838   6.503  -2.137  1.00  0.00     0.165 HD
ATOM     16  O   UNL     1       3.846   4.577  -3.390  1.00  0.00    -0.249 OA
ATOM     17  H   UNL     1       3.708   2.617  -2.191  1.00  0.00     0.165 HD
BRANCH  13  18
ATOM     18  C   UNL     1       3.783   6.157  -0.116  1.00  0.00     0.083 C 
BRANCH  18  19
ATOM     19  C   UNL     1       5.149   6.738   0.282  1.00  0.00     0.021 C 
ATOM     20  C   UNL     1       5.329   6.796   1.793  1.00  0.00     0.006 C 
ENDBRANCH  18  19
BRANCH  18  21
ATOM     21  C   UNL     1       2.573   7.067   0.157  1.00  0.00     0.021 C 
ATOM     22  C   UNL     1       2.669   8.469  -0.424  1.00  0.00     0.006 C 
ENDBRANCH  18  21
ENDBRANCH  13  18
ENDBRANCH   8  12
ENDBRANCH   5   7
ENDBRANCH   4   5
ENDBRANCH   3   4
ENDBRANCH   2   3
ENDBRANCH   1   2
BRANCH   1  23
ATOM     23  C   UNL     1       1.149  -1.480   0.907  1.00  0.00     0.202 C 
BRANCH  23  24
ATOM     24  C   UNL     1      -0.158  -0.845   0.413  1.00  0.00     0.261 C 
BRANCH  24  25
ATOM     25  O   UNL     1      -0.646   0.195   1.277  1.00  0.00    -0.460 OA
BRANCH  25  26
ATOM     26  C   UNL     1      -1.773  -0.132   1.952  1.00  0.00     0.338 C 
ATOM     27  O   UNL     1      -2.436  -1.158   1.822  1.00  0.00    -0.246 OA
BRANCH  26  28
ATOM     28  C   UNL     1      -2.047   0.836   3.028  1.00  0.00     0.060 A 
ATOM     29  C   UNL     1      -2.234   0.317   4.315  1.00  0.00     0.016 A 
ATOM     30  C   UNL     1      -2.216   2.202   2.784  1.00  0.00     0.016 A 
ATOM     31  C   UNL     1      -2.654   1.148   5.348  1.00  0.00     0.010 A 
ATOM     32  C   UNL     1      -2.641   3.037   3.827  1.00  0.00     0.010 A 
ATOM     33  C   UNL     1      -2.905   2.505   5.103  1.00  0.00    -0.014 A 
BRANCH  33  34
ATOM     34  C   UNL     1      -3.560   3.309   6.164  1.00  0.00     0.031 A 
ATOM     35  C   UNL     1      -5.042   3.565   6.094  1.00  0.00     0.074 A 
ATOM     36  C   UNL     1      -2.852   3.752   7.219  1.00  0.00     0.049 A 
ATOM     37  N   UNL     1      -5.824   4.137   6.973  1.00  0.00    -0.248 NA
ATOM     38  C   UNL     1      -5.736   3.115   4.876  1.00  0.00     0.031 C 
ATOM     39  C   UNL     1      -1.411   3.583   7.398  1.00  0.00     0.029 A 
ATOM     40  N   UNL     1      -3.253   4.437   8.339  1.00  0.00    -0.354 N 
ATOM     41  C   UNL     1      -7.096   4.128   6.414  1.00  0.00     0.074 A 
ATOM     42  C   UNL     1      -6.978   3.515   5.108  1.00  0.00     0.031 C 
ATOM     43  C   UNL     1      -1.046   4.159   8.556  1.00  0.00     0.029 A 
ATOM     44  C   UNL     1      -2.224   4.740   9.197  1.00  0.00     0.049 A 
ATOM     45  H   UNL     1      -4.190   4.688   8.510  1.00  0.00     0.167 HD
ATOM     46  C   UNL     1      -8.263   4.565   6.947  1.00  0.00     0.034 A 
ATOM     47  C   UNL     1      -2.231   5.408  10.369  1.00  0.00     0.034 A 
ATOM     48  C   UNL     1      -8.387   5.154   8.253  1.00  0.00     0.049 A 
ATOM     49  C   UNL     1      -3.542   5.881  10.941  1.00  0.00     0.074 A 
ATOM     50  C   UNL     1      -9.534   5.580   8.900  1.00  0.00     0.029 A 
ATOM     51  N   UNL     1      -7.328   5.413   9.109  1.00  0.00    -0.354 N 
ATOM     52  N   UNL     1      -4.754   5.730  10.464  1.00  0.00    -0.248 NA
ATOM     53  C   UNL     1      -3.489   6.577  12.235  1.00  0.00     0.031 C 
ATOM     54  C   UNL     1      -9.165   6.114  10.140  1.00  0.00     0.029 A 
ATOM     55  C   UNL     1      -7.791   6.003  10.273  1.00  0.00     0.049 A 
ATOM     56  H   UNL     1      -6.384   5.207   8.917  1.00  0.00     0.167 HD
ATOM     57  C   UNL     1      -5.609   6.286  11.411  1.00  0.00     0.074 A 
ATOM     58  C   UNL     1      -4.777   6.749  12.502  1.00  0.00     0.031 C 
ATOM     59  C   UNL     1      -6.959   6.418  11.373  1.00  0.00     0.034 A 
BRANCH  46  60
ATOM     60  C   UNL     1      -9.514   4.383   6.128  1.00  0.00     0.023 A 
ATOM     61  C   UNL     1     -10.075   3.096   5.996  1.00  0.00     0.012 A 
ATOM     62  C   UNL     1     -10.166   5.485   5.542  1.00  0.00     0.148 A 
ATOM     63  C   UNL     1     -11.250   2.904   5.271  1.00  0.00     0.002 A 
ATOM     64  C   UNL     1     -11.358   5.291   4.853  1.00  0.00     0.091 A 
ATOM     65  F   UNL     1      -9.603   6.696   5.657  1.00  0.00    -0.205 F 
ATOM     66  C   UNL     1     -11.896   4.002   4.708  1.00  0.00     0.022 A 
BRANCH  64  67
ATOM     67  S   UNL     1     -12.301   6.651   4.154  1.00  0.00     0.127 S 
ATOM     68  O   UNL     1     -12.057   6.475   2.723  1.00  0.00    -0.237 OA
ATOM     69  O   UNL     1     -13.664   6.334   4.583  1.00  0.00    -0.237 OA
ATOM     70  O   UNL     1     -11.749   7.864   4.741  1.00  0.00    -0.744 OA
ENDBRANCH  64  67
ENDBRANCH  46  60
BRANCH  47  71
ATOM     71  C   UNL     1      -0.956   5.618  11.109  1.00  0.00     0.023 A 
ATOM     72  C   UNL     1      -0.731   4.936  12.320  1.00  0.00     0.012 A 
ATOM     73  C   UNL     1       0.044   6.472  10.606  1.00  0.00     0.148 A 
ATOM     74  C   UNL     1       0.455   5.123  13.031  1.00  0.00     0.002 A 
ATOM     75  C   UNL     1       1.246   6.610  11.290  1.00  0.00     0.091 A 
ATOM     76  F   UNL     1      -0.197   7.129   9.462  1.00  0.00    -0.205 F 
ATOM     77  C   UNL     1       1.448   5.950  12.511  1.00  0.00     0.022 A 
BRANCH  75  78
ATOM     78  S   UNL     1       2.625   7.545  10.619  1.00  0.00     0.127 S 
ATOM     79  O   UNL     1       2.607   8.745  11.451  1.00  0.00    -0.237 OA
ATOM     80  O   UNL     1       3.752   6.643  10.861  1.00  0.00    -0.237 OA
ATOM     81  O   UNL     1       2.313   7.743   9.209  1.00  0.00    -0.744 OA
ENDBRANCH  75  78
ENDBRANCH  47  71
BRANCH  59  82
ATOM     82  C   UNL     1      -7.626   7.079  12.552  1.00  0.00     0.023 A 
ATOM     83  C   UNL     1      -7.481   8.467  12.748  1.00  0.00     0.012 A 
ATOM     84  C   UNL     1      -8.438   6.339  13.436  1.00  0.00     0.148 A 
ATOM     85  C   UNL     1      -8.098   9.101  13.826  1.00  0.00     0.002 A 
ATOM     86  C   UNL     1      -9.088   6.987  14.481  1.00  0.00     0.091 A 
ATOM     87  F   UNL     1      -8.550   5.016  13.249  1.00  0.00    -0.205 F 
ATOM     88  C   UNL     1      -8.909   8.364  14.685  1.00  0.00     0.022 A 
BRANCH  86  89
ATOM     89  S   UNL     1     -10.222   6.126  15.577  1.00  0.00     0.127 S 
ATOM     90  O   UNL     1      -9.387   5.901  16.755  1.00  0.00    -0.237 OA
ATOM     91  O   UNL     1     -11.289   7.110  15.765  1.00  0.00    -0.237 OA
ATOM     92  O   UNL     1     -10.633   4.928  14.855  1.00  0.00    -0.744 OA
ENDBRANCH  86  89
ENDBRANCH  59  82
ENDBRANCH  33  34
ENDBRANCH  26  28
ENDBRANCH  25  26
ENDBRANCH  24  25
ENDBRANCH  23  24
ENDBRANCH   1  23
TORSDOF 21
