REMARK SMILES CCc1cc(Oc2cncc(C(=O)OCCOCCOC(=O)c3ccc(-c4c5nc(c(-c6cccc(S(=O)(=O)[O-])c6F)c6ccc([nH]6)c(-c6cccc(S(=O)(=O)[O-])c6F)c6nc(c(-c7cccc(S(=O)(=O)[O-])c7F)c7ccc4[nH]7)C=C6)C=C5)cc3)n2)ccc1Cl
REMARK SMILES IDX 17 1 16 2 15 3 14 4 12 5 13 6 11 7 7 8 8 9 86 10 9 11 10 12
REMARK SMILES IDX 6 13 5 14 3 15 4 16 89 17 88 18 90 19 87 20 2 21 1 22 18 23
REMARK SMILES IDX 19 24 20 25 21 26 22 27 23 28 24 29 85 30 25 31 84 32 26 33
REMARK SMILES IDX 27 34 28 35 78 36 29 37 83 38 77 39 79 40 30 41 82 42 76 43
REMARK SMILES IDX 75 44 31 46 63 47 43 48 62 49 44 50 47 51 61 52 80 53 45 54
REMARK SMILES IDX 46 55 60 57 81 58 48 59 32 60 33 61 41 62 34 63 36 64 42 65
REMARK SMILES IDX 35 66 37 67 38 68 39 69 40 70 64 71 65 72 73 73 66 74 68 75
REMARK SMILES IDX 74 76 67 77 69 78 70 79 71 80 72 81 49 82 50 83 58 84 51 85
REMARK SMILES IDX 53 86 59 87 52 88 54 89 55 90 56 91 57 92
REMARK H PARENT 79 45 47 56
REMARK Flexibility Score: inf
ROOT
ATOM      1  O   UNL     1       6.951   9.461  -2.535  1.00  0.00    -0.374 OA
ENDROOT
BRANCH   1   2
ATOM      2  C   UNL     1       7.685   8.399  -3.146  1.00  0.00     0.202 C 
BRANCH   2   3
ATOM      3  C   UNL     1       8.430   7.444  -2.207  1.00  0.00     0.261 C 
BRANCH   3   4
ATOM      4  O   UNL     1       7.540   6.807  -1.280  1.00  0.00    -0.458 OA
BRANCH   4   5
ATOM      5  C   UNL     1       7.606   7.266  -0.006  1.00  0.00     0.358 C 
ATOM      6  O   UNL     1       8.408   8.080   0.432  1.00  0.00    -0.244 OA
BRANCH   5   7
ATOM      7  C   UNL     1       6.458   6.782   0.798  1.00  0.00     0.170 A 
ATOM      8  C   UNL     1       4.772   5.290   1.253  1.00  0.00     0.238 A 
ATOM      9  C   UNL     1       4.424   6.049   2.369  1.00  0.00     0.179 A 
ATOM     10  N   UNL     1       5.805   5.643   0.450  1.00  0.00    -0.203 NA
ATOM     11  N   UNL     1       5.030   7.222   2.686  1.00  0.00    -0.257 NA
ATOM     12  C   UNL     1       6.061   7.564   1.875  1.00  0.00     0.147 A 
BRANCH   8  13
ATOM     13  O   UNL     1       4.191   4.083   0.950  1.00  0.00    -0.437 OA
BRANCH  13  14
ATOM     14  C   UNL     1       2.830   3.906   1.054  1.00  0.00     0.129 A 
ATOM     15  C   UNL     1       1.044   2.228   1.206  1.00  0.00    -0.026 A 
ATOM     16  C   UNL     1       2.410   2.574   1.163  1.00  0.00     0.052 A 
ATOM     17  C   UNL     1       0.100   3.265   1.173  1.00  0.00     0.044 A 
ATOM     18  C   UNL     1       0.515   4.597   1.056  1.00  0.00     0.024 A 
ATOM     19  Cl  UNL     1      -1.602   2.977   1.253  1.00  0.00    -0.084 Cl
ATOM     20  C   UNL     1       1.873   4.916   0.967  1.00  0.00     0.049 A 
BRANCH  15  21
ATOM     21  C   UNL     1       0.672   0.762   1.244  1.00  0.00     0.034 C 
ATOM     22  C   UNL     1       1.033   0.043  -0.052  1.00  0.00     0.009 C 
ENDBRANCH  15  21
ENDBRANCH  13  14
ENDBRANCH   8  13
ENDBRANCH   5   7
ENDBRANCH   4   5
ENDBRANCH   3   4
ENDBRANCH   2   3
ENDBRANCH   1   2
BRANCH   1  23
ATOM     23  C   UNL     1       5.651   9.144  -2.032  1.00  0.00     0.202 C 
BRANCH  23  24
ATOM     24  C   UNL     1       4.517   8.990  -3.054  1.00  0.00     0.261 C 
BRANCH  24  25
ATOM     25  O   UNL     1       4.695   7.844  -3.904  1.00  0.00    -0.460 OA
BRANCH  25  26
ATOM     26  C   UNL     1       4.994   8.124  -5.195  1.00  0.00     0.338 C 
ATOM     27  O   UNL     1       5.055   9.231  -5.715  1.00  0.00    -0.246 OA
BRANCH  26  28
ATOM     28  C   UNL     1       5.439   6.896  -5.876  1.00  0.00     0.060 A 
ATOM     29  C   UNL     1       6.707   6.901  -6.473  1.00  0.00     0.016 A 
ATOM     30  C   UNL     1       4.619   5.770  -5.962  1.00  0.00     0.016 A 
ATOM     31  C   UNL     1       7.153   5.783  -7.177  1.00  0.00     0.010 A 
ATOM     32  C   UNL     1       5.064   4.655  -6.679  1.00  0.00     0.010 A 
ATOM     33  C   UNL     1       6.323   4.662  -7.306  1.00  0.00    -0.014 A 
BRANCH  33  34
ATOM     34  C   UNL     1       6.730   3.518  -8.157  1.00  0.00     0.031 A 
ATOM     35  C   UNL     1       6.121   3.362  -9.522  1.00  0.00     0.074 A 
ATOM     36  C   UNL     1       7.606   2.607  -7.695  1.00  0.00     0.049 A 
ATOM     37  N   UNL     1       6.250   2.382 -10.377  1.00  0.00    -0.248 NA
ATOM     38  C   UNL     1       5.248   4.454  -9.983  1.00  0.00     0.031 C 
ATOM     39  C   UNL     1       8.273   2.659  -6.395  1.00  0.00     0.029 A 
ATOM     40  N   UNL     1       8.055   1.437  -8.257  1.00  0.00    -0.354 N 
ATOM     41  C   UNL     1       5.455   2.721 -11.465  1.00  0.00     0.074 A 
ATOM     42  C   UNL     1       4.842   3.997 -11.160  1.00  0.00     0.031 C 
ATOM     43  C   UNL     1       9.015   1.550  -6.240  1.00  0.00     0.029 A 
ATOM     44  C   UNL     1       8.846   0.694  -7.412  1.00  0.00     0.049 A 
ATOM     45  H   UNL     1       7.833   1.158  -9.175  1.00  0.00     0.167 HD
ATOM     46  C   UNL     1       5.261   2.037 -12.617  1.00  0.00     0.034 A 
ATOM     47  C   UNL     1       9.341  -0.552  -7.552  1.00  0.00     0.034 A 
ATOM     48  C   UNL     1       5.881   0.775 -12.920  1.00  0.00     0.049 A 
ATOM     49  C   UNL     1       9.060  -1.317  -8.821  1.00  0.00     0.074 A 
ATOM     50  C   UNL     1       5.782   0.025 -14.079  1.00  0.00     0.029 A 
ATOM     51  N   UNL     1       6.702   0.067 -12.056  1.00  0.00    -0.354 N 
ATOM     52  N   UNL     1       8.401  -0.935  -9.888  1.00  0.00    -0.248 NA
ATOM     53  C   UNL     1       9.611  -2.677  -8.913  1.00  0.00     0.031 C 
ATOM     54  C   UNL     1       6.515  -1.153 -13.902  1.00  0.00     0.029 A 
ATOM     55  C   UNL     1       7.098  -1.121 -12.646  1.00  0.00     0.049 A 
ATOM     56  H   UNL     1       6.964   0.366 -11.155  1.00  0.00     0.167 HD
ATOM     57  C   UNL     1       8.483  -1.994 -10.787  1.00  0.00     0.074 A 
ATOM     58  C   UNL     1       9.280  -3.021 -10.150  1.00  0.00     0.031 C 
ATOM     59  C   UNL     1       7.933  -2.114 -12.020  1.00  0.00     0.034 A 
BRANCH  46  60
ATOM     60  C   UNL     1       4.357   2.647 -13.656  1.00  0.00     0.023 A 
ATOM     61  C   UNL     1       4.805   3.755 -14.404  1.00  0.00     0.012 A 
ATOM     62  C   UNL     1       3.102   2.078 -13.945  1.00  0.00     0.148 A 
ATOM     63  C   UNL     1       4.007   4.301 -15.409  1.00  0.00     0.002 A 
ATOM     64  C   UNL     1       2.331   2.601 -14.976  1.00  0.00     0.091 A 
ATOM     65  F   UNL     1       2.688   1.036 -13.210  1.00  0.00    -0.205 F 
ATOM     66  C   UNL     1       2.777   3.718 -15.702  1.00  0.00     0.022 A 
BRANCH  64  67
ATOM     67  S   UNL     1       0.766   1.878 -15.484  1.00  0.00     0.127 S 
ATOM     68  O   UNL     1      -0.180   2.924 -15.099  1.00  0.00    -0.237 OA
ATOM     69  O   UNL     1       0.953   1.727 -16.927  1.00  0.00    -0.237 OA
ATOM     70  O   UNL     1       0.642   0.627 -14.750  1.00  0.00    -0.744 OA
ENDBRANCH  64  67
ENDBRANCH  46  60
BRANCH  47  71
ATOM     71  C   UNL     1      10.158  -1.164  -6.465  1.00  0.00     0.023 A 
ATOM     72  C   UNL     1      11.523  -1.426  -6.686  1.00  0.00     0.012 A 
ATOM     73  C   UNL     1       9.588  -1.496  -5.220  1.00  0.00     0.148 A 
ATOM     74  C   UNL     1      12.298  -2.042  -5.702  1.00  0.00     0.002 A 
ATOM     75  C   UNL     1      10.379  -2.057  -4.223  1.00  0.00     0.091 A 
ATOM     76  F   UNL     1       8.282  -1.258  -5.034  1.00  0.00    -0.205 F 
ATOM     77  C   UNL     1      11.729  -2.348  -4.469  1.00  0.00     0.022 A 
BRANCH  75  78
ATOM     78  S   UNL     1       9.761  -2.370  -2.566  1.00  0.00     0.127 S 
ATOM     79  O   UNL     1       9.699  -3.829  -2.541  1.00  0.00    -0.237 OA
ATOM     80  O   UNL     1      10.814  -1.784  -1.736  1.00  0.00    -0.237 OA
ATOM     81  O   UNL     1       8.481  -1.680  -2.486  1.00  0.00    -0.744 OA
ENDBRANCH  75  78
ENDBRANCH  47  71
BRANCH  59  82
ATOM     82  C   UNL     1       8.191  -3.389 -12.782  1.00  0.00     0.023 A 
ATOM     83  C   UNL     1       7.558  -4.583 -12.382  1.00  0.00     0.012 A 
ATOM     84  C   UNL     1       8.998  -3.388 -13.938  1.00  0.00     0.148 A 
ATOM     85  C   UNL     1       7.749  -5.762 -13.101  1.00  0.00     0.002 A 
ATOM     86  C   UNL     1       9.142  -4.556 -14.678  1.00  0.00     0.091 A 
ATOM     87  F   UNL     1       9.601  -2.245 -14.295  1.00  0.00    -0.205 F 
ATOM     88  C   UNL     1       8.530  -5.746 -14.254  1.00  0.00     0.022 A 
BRANCH  86  89
ATOM     89  S   UNL     1      10.051  -4.614 -16.227  1.00  0.00     0.127 S 
ATOM     90  O   UNL     1      11.204  -5.438 -15.866  1.00  0.00    -0.237 OA
ATOM     91  O   UNL     1       9.093  -5.265 -17.122  1.00  0.00    -0.237 OA
ATOM     92  O   UNL     1      10.358  -3.232 -16.568  1.00  0.00    -0.744 OA
ENDBRANCH  86  89
ENDBRANCH  59  82
ENDBRANCH  33  34
ENDBRANCH  26  28
ENDBRANCH  25  26
ENDBRANCH  24  25
ENDBRANCH  23  24
ENDBRANCH   1  23
TORSDOF 20
