REMARK SMILES O=C(CCCC[NH+]1CC2(CCOCC2)C1)OCCOCCOC(=O)c1ccc(-c2c3nc(c(-c4cccc(S(=O)(=O)[O-])c4F)c4ccc([nH]4)c(-c4cccc(S(=O)(=O)[O-])c4F)c4nc(c(-c5cccc(S(=O)(=O)[O-])c5F)c5ccc2[nH]5)C=C4)C=C3)cc1
REMARK SMILES IDX 18 1 17 2 16 3 2 4 1 5 3 6 4 7 5 8 6 9 7 10 8 11 15 12 9 14
REMARK SMILES IDX 10 15 14 16 11 17 13 18 12 19 19 20 20 21 21 22 22 23 23 24
REMARK SMILES IDX 24 25 25 26 26 27 87 28 27 29 86 30 28 31 29 32 30 33 80 34
REMARK SMILES IDX 31 35 85 36 79 37 81 38 32 39 84 40 78 41 77 42 33 44 65 45
REMARK SMILES IDX 45 46 64 47 46 48 49 49 63 50 82 51 47 52 48 53 62 55 83 56
REMARK SMILES IDX 50 57 34 58 35 59 43 60 36 61 38 62 44 63 37 64 39 65 40 66
REMARK SMILES IDX 41 67 42 68 66 69 67 70 75 71 68 72 70 73 76 74 69 75 71 76
REMARK SMILES IDX 72 77 73 78 74 79 51 80 52 81 60 82 53 83 55 84 61 85 54 86
REMARK SMILES IDX 56 87 57 88 58 89 59 90
REMARK H PARENT 7 13 81 43 49 54
REMARK Flexibility Score: inf
ROOT
ATOM      1  C   UNL     1       3.829   1.542   1.073  1.00  0.00     0.202 C 
ENDROOT
BRANCH   1   2
ATOM      2  C   UNL     1       3.753   1.731  -0.433  1.00  0.00     0.261 C 
BRANCH   2   3
ATOM      3  O   UNL     1       2.416   1.572  -0.930  1.00  0.00    -0.463 OA
BRANCH   3   4
ATOM      4  C   UNL     1       1.994   0.473  -1.591  1.00  0.00     0.305 C 
ATOM      5  O   UNL     1       0.948   0.499  -2.238  1.00  0.00    -0.252 OA
BRANCH   4   6
ATOM      6  C   UNL     1       2.764  -0.816  -1.440  1.00  0.00     0.123 C 
BRANCH   6   7
ATOM      7  C   UNL     1       3.765  -1.156  -2.544  1.00  0.00     0.017 C 
BRANCH   7   8
ATOM      8  C   UNL     1       5.272  -0.906  -2.288  1.00  0.00     0.062 C 
BRANCH   8   9
ATOM      9  C   UNL     1       5.870  -1.251  -0.900  1.00  0.00     0.262 C 
BRANCH   9  10
ATOM     10  N   UNL     1       6.524  -2.561  -0.763  1.00  0.00    -0.334 N 
ATOM     11  C   UNL     1       5.691  -3.694  -1.158  1.00  0.00     0.275 C 
ATOM     12  C   UNL     1       6.509  -3.032   0.651  1.00  0.00     0.275 C 
ATOM     13  H   UNL     1       7.397  -2.390  -1.262  1.00  0.00     0.348 HD
ATOM     14  C   UNL     1       5.316  -3.977   0.321  1.00  0.00     0.073 C 
ATOM     15  C   UNL     1       5.428  -5.473   0.634  1.00  0.00     0.047 C 
ATOM     16  C   UNL     1       3.966  -3.493   0.864  1.00  0.00     0.047 C 
ATOM     17  C   UNL     1       4.250  -6.178  -0.047  1.00  0.00     0.161 C 
ATOM     18  C   UNL     1       2.852  -4.269   0.177  1.00  0.00     0.161 C 
ATOM     19  O   UNL     1       3.001  -5.668   0.435  1.00  0.00    -0.381 OA
ENDBRANCH   9  10
ENDBRANCH   8   9
ENDBRANCH   7   8
ENDBRANCH   6   7
ENDBRANCH   4   6
ENDBRANCH   3   4
ENDBRANCH   2   3
ENDBRANCH   1   2
BRANCH   1  20
ATOM     20  O   UNL     1       3.496   0.216   1.493  1.00  0.00    -0.374 OA
BRANCH  20  21
ATOM     21  C   UNL     1       2.337   0.142   2.330  1.00  0.00     0.202 C 
BRANCH  21  22
ATOM     22  C   UNL     1       2.646   0.377   3.815  1.00  0.00     0.261 C 
BRANCH  22  23
ATOM     23  O   UNL     1       3.170   1.699   4.010  1.00  0.00    -0.460 OA
BRANCH  23  24
ATOM     24  C   UNL     1       4.521   1.778   4.147  1.00  0.00     0.338 C 
ATOM     25  O   UNL     1       5.285   0.865   4.380  1.00  0.00    -0.246 OA
BRANCH  24  26
ATOM     26  C   UNL     1       4.958   3.132   3.713  1.00  0.00     0.060 A 
ATOM     27  C   UNL     1       6.208   3.242   3.084  1.00  0.00     0.016 A 
ATOM     28  C   UNL     1       4.124   4.251   3.814  1.00  0.00     0.016 A 
ATOM     29  C   UNL     1       6.635   4.468   2.576  1.00  0.00     0.010 A 
ATOM     30  C   UNL     1       4.555   5.480   3.314  1.00  0.00     0.010 A 
ATOM     31  C   UNL     1       5.825   5.599   2.725  1.00  0.00    -0.014 A 
BRANCH  31  32
ATOM     32  C   UNL     1       6.393   6.947   2.499  1.00  0.00     0.031 A 
ATOM     33  C   UNL     1       6.935   7.676   3.697  1.00  0.00     0.074 A 
ATOM     34  C   UNL     1       6.399   7.522   1.284  1.00  0.00     0.049 A 
ATOM     35  N   UNL     1       7.427   8.882   3.783  1.00  0.00    -0.248 NA
ATOM     36  C   UNL     1       6.908   6.942   4.976  1.00  0.00     0.031 C 
ATOM     37  C   UNL     1       5.897   6.915   0.053  1.00  0.00     0.029 A 
ATOM     38  N   UNL     1       6.821   8.770   0.898  1.00  0.00    -0.354 N 
ATOM     39  C   UNL     1       7.738   9.063   5.125  1.00  0.00     0.074 A 
ATOM     40  C   UNL     1       7.368   7.851   5.820  1.00  0.00     0.031 C 
ATOM     41  C   UNL     1       6.010   7.807  -0.949  1.00  0.00     0.029 A 
ATOM     42  C   UNL     1       6.571   9.052  -0.424  1.00  0.00     0.049 A 
ATOM     43  H   UNL     1       7.260   9.404   1.510  1.00  0.00     0.167 HD
ATOM     44  C   UNL     1       8.298  10.137   5.725  1.00  0.00     0.034 A 
ATOM     45  C   UNL     1       6.757  10.193  -1.119  1.00  0.00     0.034 A 
ATOM     46  C   UNL     1       8.675  11.335   5.031  1.00  0.00     0.049 A 
ATOM     47  C   UNL     1       7.363  11.386  -0.422  1.00  0.00     0.074 A 
ATOM     48  C   UNL     1       9.291  12.464   5.537  1.00  0.00     0.029 A 
ATOM     49  N   UNL     1       8.457  11.564   3.682  1.00  0.00    -0.354 N 
ATOM     50  N   UNL     1       7.773  11.499   0.820  1.00  0.00    -0.248 NA
ATOM     51  C   UNL     1       7.562  12.599  -1.229  1.00  0.00     0.031 C 
ATOM     52  C   UNL     1       9.424  13.388   4.495  1.00  0.00     0.029 A 
ATOM     53  C   UNL     1       8.916  12.822   3.337  1.00  0.00     0.049 A 
ATOM     54  H   UNL     1       8.038  10.925   3.061  1.00  0.00     0.167 HD
ATOM     55  C   UNL     1       8.309  12.778   0.932  1.00  0.00     0.074 A 
ATOM     56  C   UNL     1       8.190  13.395  -0.373  1.00  0.00     0.031 C 
ATOM     57  C   UNL     1       8.839  13.395   2.017  1.00  0.00     0.034 A 
BRANCH  44  58
ATOM     58  C   UNL     1       8.552  10.047   7.205  1.00  0.00     0.023 A 
ATOM     59  C   UNL     1       9.588   9.220   7.685  1.00  0.00     0.012 A 
ATOM     60  C   UNL     1       7.785  10.797   8.116  1.00  0.00     0.148 A 
ATOM     61  C   UNL     1       9.836   9.116   9.052  1.00  0.00     0.002 A 
ATOM     62  C   UNL     1       8.067  10.722   9.474  1.00  0.00     0.091 A 
ATOM     63  F   UNL     1       6.784  11.551   7.640  1.00  0.00    -0.205 F 
ATOM     64  C   UNL     1       9.083   9.874   9.945  1.00  0.00     0.022 A 
BRANCH  62  65
ATOM     65  S   UNL     1       7.202  11.712  10.697  1.00  0.00     0.127 S 
ATOM     66  O   UNL     1       6.407  10.698  11.388  1.00  0.00    -0.237 OA
ATOM     67  O   UNL     1       8.306  12.262  11.483  1.00  0.00    -0.237 OA
ATOM     68  O   UNL     1       6.439  12.700   9.947  1.00  0.00    -0.744 OA
ENDBRANCH  62  65
ENDBRANCH  44  58
BRANCH  45  69
ATOM     69  C   UNL     1       6.398  10.259  -2.565  1.00  0.00     0.023 A 
ATOM     70  C   UNL     1       7.418  10.371  -3.530  1.00  0.00     0.012 A 
ATOM     71  C   UNL     1       5.056  10.210  -2.990  1.00  0.00     0.148 A 
ATOM     72  C   UNL     1       7.109  10.464  -4.887  1.00  0.00     0.002 A 
ATOM     73  C   UNL     1       4.757  10.250  -4.348  1.00  0.00     0.091 A 
ATOM     74  F   UNL     1       4.097  10.124  -2.057  1.00  0.00    -0.205 F 
ATOM     75  C   UNL     1       5.780  10.395  -5.297  1.00  0.00     0.022 A 
BRANCH  73  76
ATOM     76  S   UNL     1       3.086  10.044  -4.974  1.00  0.00     0.127 S 
ATOM     77  O   UNL     1       2.786  11.384  -5.473  1.00  0.00    -0.237 OA
ATOM     78  O   UNL     1       3.276   9.028  -6.010  1.00  0.00    -0.237 OA
ATOM     79  O   UNL     1       2.293   9.601  -3.836  1.00  0.00    -0.744 OA
ENDBRANCH  73  76
ENDBRANCH  45  69
BRANCH  57  80
ATOM     80  C   UNL     1       9.370  14.794   1.843  1.00  0.00     0.023 A 
ATOM     81  C   UNL     1       8.473  15.870   1.694  1.00  0.00     0.012 A 
ATOM     82  C   UNL     1      10.753  15.051   1.921  1.00  0.00     0.148 A 
ATOM     83  C   UNL     1       8.947  17.178   1.595  1.00  0.00     0.002 A 
ATOM     84  C   UNL     1      11.215  16.361   1.872  1.00  0.00     0.091 A 
ATOM     85  F   UNL     1      11.591  14.011   2.047  1.00  0.00    -0.205 F 
ATOM     86  C   UNL     1      10.315  17.424   1.697  1.00  0.00     0.022 A 
BRANCH  84  87
ATOM     87  S   UNL     1      12.948  16.778   2.095  1.00  0.00     0.127 S 
ATOM     88  O   UNL     1      13.344  17.142   0.736  1.00  0.00    -0.237 OA
ATOM     89  O   UNL     1      12.880  17.900   3.032  1.00  0.00    -0.237 OA
ATOM     90  O   UNL     1      13.582  15.582   2.633  1.00  0.00    -0.744 OA
ENDBRANCH  84  87
ENDBRANCH  57  80
ENDBRANCH  31  32
ENDBRANCH  24  26
ENDBRANCH  23  24
ENDBRANCH  22  23
ENDBRANCH  21  22
ENDBRANCH  20  21
ENDBRANCH   1  20
TORSDOF 21
