REMARK SMILES C[C@H]1CN(CCC(=O)OCCOCCOC(=O)c2ccc(-c3c4nc(c(-c5cccc(S(=O)(=O)[O-])c5F)c5ccc([nH]5)c(-c5cccc(S(=O)(=O)[O-])c5F)c5nc(c(-c6cccc(S(=O)(=O)[O-])c6F)c6ccc3[nH]6)C=C5)C=C4)cc2)S(=O)(=O)C1
REMARK SMILES IDX 13 1 12 2 11 3 10 4 9 5 7 6 8 7 6 8 5 9 4 10 1 11 2 12 3 13
REMARK SMILES IDX 84 14 81 15 82 16 83 17 14 18 15 19 16 20 17 21 18 22 19 23
REMARK SMILES IDX 80 24 20 25 79 26 21 27 22 28 23 29 73 30 24 31 78 32 72 33
REMARK SMILES IDX 74 34 25 35 77 36 71 37 70 38 26 40 58 41 38 42 57 43 39 44
REMARK SMILES IDX 42 45 56 46 75 47 40 48 41 49 55 51 76 52 43 53 27 54 28 55
REMARK SMILES IDX 36 56 29 57 31 58 37 59 30 60 32 61 33 62 34 63 35 64 59 65
REMARK SMILES IDX 60 66 68 67 61 68 63 69 69 70 62 71 64 72 65 73 66 74 67 75
REMARK SMILES IDX 44 76 45 77 53 78 46 79 48 80 54 81 47 82 49 83 50 84 51 85
REMARK SMILES IDX 52 86
REMARK H PARENT 74 39 42 50
REMARK Flexibility Score: inf
ROOT
ATOM      1  C   UNL     1      -0.034  -5.281  -4.420  1.00  0.00     0.202 C 
ENDROOT
BRANCH   1   2
ATOM      2  O   UNL     1       1.318  -5.166  -4.868  1.00  0.00    -0.374 OA
BRANCH   2   3
ATOM      3  C   UNL     1       2.189  -4.431  -4.006  1.00  0.00     0.202 C 
BRANCH   3   4
ATOM      4  C   UNL     1       2.197  -2.917  -4.245  1.00  0.00     0.261 C 
BRANCH   4   5
ATOM      5  O   UNL     1       0.987  -2.284  -3.781  1.00  0.00    -0.463 OA
BRANCH   5   6
ATOM      6  C   UNL     1       0.078  -1.910  -4.709  1.00  0.00     0.307 C 
ATOM      7  O   UNL     1       0.228  -2.014  -5.921  1.00  0.00    -0.252 OA
BRANCH   6   8
ATOM      8  C   UNL     1      -1.134  -1.233  -4.105  1.00  0.00     0.139 C 
BRANCH   8   9
ATOM      9  C   UNL     1      -1.770  -1.901  -2.889  1.00  0.00     0.114 C 
BRANCH   9  10
ATOM     10  N   UNL     1      -1.082  -1.606  -1.642  1.00  0.00    -0.201 NA
ATOM     11  C   UNL     1       1.406   0.297  -1.677  1.00  0.00     0.010 C 
ATOM     12  C   UNL     1       0.493  -0.224  -0.562  1.00  0.00     0.017 C 
ATOM     13  C   UNL     1      -0.975  -0.283  -1.040  1.00  0.00     0.106 C 
ATOM     14  C   UNL     1       0.900  -1.636  -0.081  1.00  0.00     0.158 C 
ATOM     15  S   UNL     1      -0.347  -2.761  -0.679  1.00  0.00     0.214 S 
ATOM     16  O   UNL     1      -1.264  -3.099   0.383  1.00  0.00    -0.212 OA
ATOM     17  O   UNL     1       0.239  -3.755  -1.537  1.00  0.00    -0.212 OA
ENDBRANCH   9  10
ENDBRANCH   8   9
ENDBRANCH   6   8
ENDBRANCH   5   6
ENDBRANCH   4   5
ENDBRANCH   3   4
ENDBRANCH   2   3
ENDBRANCH   1   2
BRANCH   1  18
ATOM     18  C   UNL     1      -0.341  -6.511  -3.550  1.00  0.00     0.261 C 
BRANCH  18  19
ATOM     19  O   UNL     1       0.157  -6.382  -2.206  1.00  0.00    -0.460 OA
BRANCH  19  20
ATOM     20  C   UNL     1       1.383  -6.902  -1.979  1.00  0.00     0.338 C 
ATOM     21  O   UNL     1       2.015  -7.615  -2.744  1.00  0.00    -0.246 OA
BRANCH  20  22
ATOM     22  C   UNL     1       1.973  -6.364  -0.724  1.00  0.00     0.060 A 
ATOM     23  C   UNL     1       3.357  -6.144  -0.718  1.00  0.00     0.016 A 
ATOM     24  C   UNL     1       1.229  -6.093   0.429  1.00  0.00     0.016 A 
ATOM     25  C   UNL     1       4.008  -5.736   0.448  1.00  0.00     0.010 A 
ATOM     26  C   UNL     1       1.883  -5.669   1.598  1.00  0.00     0.010 A 
ATOM     27  C   UNL     1       3.284  -5.540   1.631  1.00  0.00    -0.014 A 
BRANCH  27  28
ATOM     28  C   UNL     1       4.023  -5.362   2.914  1.00  0.00     0.031 A 
ATOM     29  C   UNL     1       4.076  -6.504   3.900  1.00  0.00     0.074 A 
ATOM     30  C   UNL     1       4.687  -4.224   3.196  1.00  0.00     0.049 A 
ATOM     31  N   UNL     1       4.699  -6.580   5.049  1.00  0.00    -0.248 NA
ATOM     32  C   UNL     1       3.328  -7.720   3.544  1.00  0.00     0.031 C 
ATOM     33  C   UNL     1       4.727  -3.036   2.346  1.00  0.00     0.029 A 
ATOM     34  N   UNL     1       5.446  -3.881   4.290  1.00  0.00    -0.354 N 
ATOM     35  C   UNL     1       4.392  -7.833   5.567  1.00  0.00     0.074 A 
ATOM     36  C   UNL     1       3.511  -8.476   4.616  1.00  0.00     0.031 C 
ATOM     37  C   UNL     1       5.454  -2.086   2.961  1.00  0.00     0.029 A 
ATOM     38  C   UNL     1       5.915  -2.589   4.255  1.00  0.00     0.049 A 
ATOM     39  H   UNL     1       5.636  -4.503   5.030  1.00  0.00     0.167 HD
ATOM     40  C   UNL     1       4.816  -8.412   6.716  1.00  0.00     0.034 A 
ATOM     41  C   UNL     1       6.619  -1.883   5.165  1.00  0.00     0.034 A 
ATOM     42  C   UNL     1       5.714  -7.798   7.656  1.00  0.00     0.049 A 
ATOM     43  C   UNL     1       7.071  -2.542   6.444  1.00  0.00     0.074 A 
ATOM     44  C   UNL     1       6.251  -8.342   8.811  1.00  0.00     0.029 A 
ATOM     45  N   UNL     1       6.194  -6.502   7.567  1.00  0.00    -0.354 N 
ATOM     46  N   UNL     1       6.887  -3.775   6.848  1.00  0.00    -0.248 NA
ATOM     47  C   UNL     1       7.861  -1.722   7.377  1.00  0.00     0.031 C 
ATOM     48  C   UNL     1       7.022  -7.360   9.441  1.00  0.00     0.029 A 
ATOM     49  C   UNL     1       7.002  -6.219   8.656  1.00  0.00     0.049 A 
ATOM     50  H   UNL     1       5.991  -5.874   6.837  1.00  0.00     0.167 HD
ATOM     51  C   UNL     1       7.564  -3.888   8.059  1.00  0.00     0.074 A 
ATOM     52  C   UNL     1       8.181  -2.604   8.314  1.00  0.00     0.031 C 
ATOM     53  C   UNL     1       7.657  -4.957   8.889  1.00  0.00     0.034 A 
BRANCH  40  54
ATOM     54  C   UNL     1       4.321  -9.804   7.018  1.00  0.00     0.023 A 
ATOM     55  C   UNL     1       4.793 -10.897   6.263  1.00  0.00     0.012 A 
ATOM     56  C   UNL     1       3.429 -10.034   8.085  1.00  0.00     0.148 A 
ATOM     57  C   UNL     1       4.353 -12.191   6.537  1.00  0.00     0.002 A 
ATOM     58  C   UNL     1       3.034 -11.332   8.383  1.00  0.00     0.091 A 
ATOM     59  F   UNL     1       2.978  -8.980   8.779  1.00  0.00    -0.205 F 
ATOM     60  C   UNL     1       3.483 -12.409   7.603  1.00  0.00     0.022 A 
BRANCH  58  61
ATOM     61  S   UNL     1       1.987 -11.724   9.789  1.00  0.00     0.127 S 
ATOM     62  O   UNL     1       0.734 -12.088   9.130  1.00  0.00    -0.237 OA
ATOM     63  O   UNL     1       2.701 -12.844  10.402  1.00  0.00    -0.237 OA
ATOM     64  O   UNL     1       1.939 -10.517  10.603  1.00  0.00    -0.744 OA
ENDBRANCH  58  61
ENDBRANCH  40  54
BRANCH  41  65
ATOM     65  C   UNL     1       6.961  -0.457   4.891  1.00  0.00     0.023 A 
ATOM     66  C   UNL     1       8.300  -0.083   4.669  1.00  0.00     0.012 A 
ATOM     67  C   UNL     1       5.955   0.528   4.840  1.00  0.00     0.148 A 
ATOM     68  C   UNL     1       8.635   1.252   4.433  1.00  0.00     0.002 A 
ATOM     69  C   UNL     1       6.287   1.844   4.543  1.00  0.00     0.091 A 
ATOM     70  F   UNL     1       4.689   0.155   5.073  1.00  0.00    -0.205 F 
ATOM     71  C   UNL     1       7.629   2.212   4.359  1.00  0.00     0.022 A 
BRANCH  69  72
ATOM     72  S   UNL     1       5.044   3.114   4.285  1.00  0.00     0.127 S 
ATOM     73  O   UNL     1       5.263   3.986   5.436  1.00  0.00    -0.237 OA
ATOM     74  O   UNL     1       5.453   3.675   2.997  1.00  0.00    -0.237 OA
ATOM     75  O   UNL     1       3.766   2.416   4.254  1.00  0.00    -0.744 OA
ENDBRANCH  69  72
ENDBRANCH  41  65
BRANCH  53  76
ATOM     76  C   UNL     1       8.486  -4.817  10.142  1.00  0.00     0.023 A 
ATOM     77  C   UNL     1       8.027  -4.018  11.208  1.00  0.00     0.012 A 
ATOM     78  C   UNL     1       9.687  -5.542  10.293  1.00  0.00     0.148 A 
ATOM     79  C   UNL     1       8.764  -3.916  12.389  1.00  0.00     0.002 A 
ATOM     80  C   UNL     1      10.389  -5.475  11.491  1.00  0.00     0.091 A 
ATOM     81  F   UNL     1      10.119  -6.285   9.264  1.00  0.00    -0.205 F 
ATOM     82  C   UNL     1       9.937  -4.653  12.535  1.00  0.00     0.022 A 
BRANCH  80  83
ATOM     83  S   UNL     1      11.858  -6.462  11.806  1.00  0.00     0.127 S 
ATOM     84  O   UNL     1      12.908  -5.444  11.794  1.00  0.00    -0.237 OA
ATOM     85  O   UNL     1      11.574  -7.029  13.125  1.00  0.00    -0.237 OA
ATOM     86  O   UNL     1      11.926  -7.439  10.729  1.00  0.00    -0.744 OA
ENDBRANCH  80  83
ENDBRANCH  53  76
ENDBRANCH  27  28
ENDBRANCH  20  22
ENDBRANCH  19  20
ENDBRANCH  18  19
ENDBRANCH   1  18
TORSDOF 19
