REMARK SMILES O=Cc1ccc2c(c1)C=C(C(=O)OCCOCCOC(=O)c1ccc(-c3c4nc(c(-c5cccc(S(=O)(=O)[O-])c5F)c5ccc([nH]5)c(-c5cccc(S(=O)(=O)[O-])c5F)c5nc(c(-c6cccc(S(=O)(=O)[O-])c6F)c6ccc3[nH]6)C=C5)C=C4)cc1)[C@H](C(F)(F)F)O2
REMARK SMILES IDX 17 1 16 2 15 3 14 4 13 5 11 6 12 7 10 8 3 9 4 10 8 11 5 12
REMARK SMILES IDX 7 13 6 14 9 15 90 16 85 17 2 18 1 19 86 20 87 21 88 22 89 23
REMARK SMILES IDX 18 24 19 25 20 26 21 27 22 28 23 29 84 30 24 31 83 32 25 33
REMARK SMILES IDX 26 34 27 35 77 36 28 37 82 38 76 39 78 40 29 41 81 42 75 43
REMARK SMILES IDX 74 44 30 46 62 47 42 48 61 49 43 50 46 51 60 52 79 53 44 54
REMARK SMILES IDX 45 55 59 57 80 58 47 59 31 60 32 61 40 62 33 63 35 64 41 65
REMARK SMILES IDX 34 66 36 67 37 68 38 69 39 70 63 71 64 72 72 73 65 74 67 75
REMARK SMILES IDX 73 76 66 77 68 78 69 79 70 80 71 81 48 82 49 83 57 84 50 85
REMARK SMILES IDX 52 86 58 87 51 88 53 89 54 90 55 91 56 92
REMARK H PARENT 78 45 46 56
REMARK Flexibility Score: inf
ROOT
ATOM      1  C   UNL     1       7.408  -6.577   2.877  1.00  0.00     0.202 C 
ENDROOT
BRANCH   1   2
ATOM      2  O   UNL     1       8.822  -6.676   3.016  1.00  0.00    -0.374 OA
BRANCH   2   3
ATOM      3  C   UNL     1       9.563  -5.511   3.366  1.00  0.00     0.202 C 
BRANCH   3   4
ATOM      4  C   UNL     1       9.718  -4.402   2.321  1.00  0.00     0.261 C 
BRANCH   4   5
ATOM      5  O   UNL     1       8.454  -3.954   1.810  1.00  0.00    -0.460 OA
BRANCH   5   6
ATOM      6  C   UNL     1       8.226  -4.264   0.512  1.00  0.00     0.338 C 
ATOM      7  O   UNL     1       9.017  -4.776  -0.264  1.00  0.00    -0.246 OA
BRANCH   6   8
ATOM      8  C   UNL     1       6.816  -4.024   0.159  1.00  0.00     0.087 C 
ATOM      9  C   UNL     1       2.931  -1.231  -0.336  1.00  0.00     0.015 A 
ATOM     10  C   UNL     1       2.471  -2.062  -1.363  1.00  0.00     0.015 A 
ATOM     11  C   UNL     1       4.136  -1.506   0.324  1.00  0.00     0.023 A 
ATOM     12  C   UNL     1       3.215  -3.179  -1.735  1.00  0.00     0.048 A 
ATOM     13  C   UNL     1       4.890  -2.620  -0.058  1.00  0.00     0.018 A 
ATOM     14  C   UNL     1       4.410  -3.458  -1.077  1.00  0.00     0.128 A 
ATOM     15  C   UNL     1       6.230  -2.859   0.479  1.00  0.00     0.027 C 
ATOM     16  O   UNL     1       5.116  -4.541  -1.534  1.00  0.00    -0.475 OA
ATOM     17  C   UNL     1       6.043  -5.103  -0.569  1.00  0.00     0.316 C 
BRANCH   9  18
ATOM     18  C   UNL     1       2.157  -0.027   0.028  1.00  0.00     0.260 C 
ATOM     19  O   UNL     1       1.073   0.221  -0.485  1.00  0.00    -0.298 OA
ENDBRANCH   9  18
BRANCH  17  20
ATOM     20  C   UNL     1       6.817  -6.246  -1.250  1.00  0.00     0.430 C 
ATOM     21  F   UNL     1       7.522  -6.971  -0.350  1.00  0.00    -0.167 F 
ATOM     22  F   UNL     1       5.941  -7.121  -1.818  1.00  0.00    -0.167 F 
ATOM     23  F   UNL     1       7.641  -5.830  -2.230  1.00  0.00    -0.167 F 
ENDBRANCH  17  20
ENDBRANCH   6   8
ENDBRANCH   5   6
ENDBRANCH   4   5
ENDBRANCH   3   4
ENDBRANCH   2   3
ENDBRANCH   1   2
BRANCH   1  24
ATOM     24  C   UNL     1       6.541  -6.332   4.120  1.00  0.00     0.261 C 
BRANCH  24  25
ATOM     25  O   UNL     1       6.882  -5.136   4.833  1.00  0.00    -0.460 OA
BRANCH  25  26
ATOM     26  C   UNL     1       7.510  -5.367   6.013  1.00  0.00     0.338 C 
ATOM     27  O   UNL     1       7.759  -6.453   6.512  1.00  0.00    -0.246 OA
BRANCH  26  28
ATOM     28  C   UNL     1       8.049  -4.113   6.565  1.00  0.00     0.060 A 
ATOM     29  C   UNL     1       9.416  -4.088   6.868  1.00  0.00     0.016 A 
ATOM     30  C   UNL     1       7.221  -3.039   6.895  1.00  0.00     0.016 A 
ATOM     31  C   UNL     1       9.947  -3.023   7.584  1.00  0.00     0.010 A 
ATOM     32  C   UNL     1       7.759  -1.968   7.617  1.00  0.00     0.010 A 
ATOM     33  C   UNL     1       9.108  -1.989   8.016  1.00  0.00    -0.014 A 
BRANCH  33  34
ATOM     34  C   UNL     1       9.621  -1.049   9.040  1.00  0.00     0.031 A 
ATOM     35  C   UNL     1       9.192  -1.222  10.473  1.00  0.00     0.074 A 
ATOM     36  C   UNL     1      10.505  -0.092   8.710  1.00  0.00     0.049 A 
ATOM     37  N   UNL     1       9.568  -0.560  11.535  1.00  0.00    -0.248 NA
ATOM     38  C   UNL     1       8.205  -2.281  10.743  1.00  0.00     0.031 C 
ATOM     39  C   UNL     1      10.992   0.174   7.358  1.00  0.00     0.029 A 
ATOM     40  N   UNL     1      11.140   0.839   9.491  1.00  0.00    -0.354 N 
ATOM     41  C   UNL     1       8.839  -1.093  12.592  1.00  0.00     0.074 A 
ATOM     42  C   UNL     1       7.986  -2.121  12.039  1.00  0.00     0.031 C 
ATOM     43  C   UNL     1      11.838   1.217   7.400  1.00  0.00     0.029 A 
ATOM     44  C   UNL     1      11.936   1.700   8.777  1.00  0.00     0.049 A 
ATOM     45  H   UNL     1      11.036   0.885  10.469  1.00  0.00     0.167 HD
ATOM     46  C   UNL     1       8.884  -0.766  13.905  1.00  0.00     0.034 A 
ATOM     47  C   UNL     1      12.649   2.767   9.184  1.00  0.00     0.034 A 
ATOM     48  C   UNL     1       9.748   0.245  14.453  1.00  0.00     0.049 A 
ATOM     49  C   UNL     1      12.695   3.105  10.649  1.00  0.00     0.074 A 
ATOM     50  C   UNL     1       9.916   0.609  15.777  1.00  0.00     0.029 A 
ATOM     51  N   UNL     1      10.574   1.070  13.705  1.00  0.00    -0.354 N 
ATOM     52  N   UNL     1      12.093   2.514  11.653  1.00  0.00    -0.248 NA
ATOM     53  C   UNL     1      13.556   4.229  11.043  1.00  0.00     0.031 C 
ATOM     54  C   UNL     1      10.809   1.686  15.824  1.00  0.00     0.029 A 
ATOM     55  C   UNL     1      11.241   1.955  14.535  1.00  0.00     0.049 A 
ATOM     56  H   UNL     1      10.671   1.033  12.726  1.00  0.00     0.167 HD
ATOM     57  C   UNL     1      12.532   3.167  12.800  1.00  0.00     0.074 A 
ATOM     58  C   UNL     1      13.465   4.187  12.365  1.00  0.00     0.031 C 
ATOM     59  C   UNL     1      12.193   2.944  14.095  1.00  0.00     0.034 A 
BRANCH  46  60
ATOM     60  C   UNL     1       7.963  -1.511  14.838  1.00  0.00     0.023 A 
ATOM     61  C   UNL     1       8.182  -2.878  15.113  1.00  0.00     0.012 A 
ATOM     62  C   UNL     1       6.889  -0.847  15.462  1.00  0.00     0.148 A 
ATOM     63  C   UNL     1       7.318  -3.581  15.953  1.00  0.00     0.002 A 
ATOM     64  C   UNL     1       6.064  -1.542  16.339  1.00  0.00     0.091 A 
ATOM     65  F   UNL     1       6.680   0.445  15.171  1.00  0.00    -0.205 F 
ATOM     66  C   UNL     1       6.266  -2.911  16.573  1.00  0.00     0.022 A 
BRANCH  64  67
ATOM     67  S   UNL     1       4.737  -0.745  17.249  1.00  0.00     0.127 S 
ATOM     68  O   UNL     1       3.555  -1.278  16.574  1.00  0.00    -0.237 OA
ATOM     69  O   UNL     1       4.946  -1.253  18.605  1.00  0.00    -0.237 OA
ATOM     70  O   UNL     1       4.952   0.688  17.100  1.00  0.00    -0.744 OA
ENDBRANCH  64  67
ENDBRANCH  46  60
BRANCH  47  71
ATOM     71  C   UNL     1      13.404   3.567   8.182  1.00  0.00     0.023 A 
ATOM     72  C   UNL     1      14.811   3.520   8.156  1.00  0.00     0.012 A 
ATOM     73  C   UNL     1      12.722   4.340   7.223  1.00  0.00     0.148 A 
ATOM     74  C   UNL     1      15.526   4.250   7.205  1.00  0.00     0.002 A 
ATOM     75  C   UNL     1      13.437   5.015   6.243  1.00  0.00     0.091 A 
ATOM     76  F   UNL     1      11.383   4.375   7.274  1.00  0.00    -0.205 F 
ATOM     77  C   UNL     1      14.840   4.987   6.243  1.00  0.00     0.022 A 
BRANCH  75  78
ATOM     78  S   UNL     1      12.635   5.872   4.884  1.00  0.00     0.127 S 
ATOM     79  O   UNL     1      13.011   7.260   5.141  1.00  0.00    -0.237 OA
ATOM     80  O   UNL     1      13.284   5.260   3.724  1.00  0.00    -0.237 OA
ATOM     81  O   UNL     1      11.215   5.572   5.007  1.00  0.00    -0.744 OA
ENDBRANCH  75  78
ENDBRANCH  47  71
BRANCH  59  82
ATOM     82  C   UNL     1      12.873   3.783  15.148  1.00  0.00     0.023 A 
ATOM     83  C   UNL     1      12.585   5.158  15.261  1.00  0.00     0.012 A 
ATOM     84  C   UNL     1      13.773   3.192  16.058  1.00  0.00     0.148 A 
ATOM     85  C   UNL     1      13.221   5.940  16.227  1.00  0.00     0.002 A 
ATOM     86  C   UNL     1      14.358   3.964  17.053  1.00  0.00     0.091 A 
ATOM     87  F   UNL     1      14.051   1.886  15.927  1.00  0.00    -0.205 F 
ATOM     88  C   UNL     1      14.099   5.341  17.128  1.00  0.00     0.022 A 
BRANCH  86  89
ATOM     89  S   UNL     1      15.419   3.253  18.317  1.00  0.00     0.127 S 
ATOM     90  O   UNL     1      16.742   3.692  17.877  1.00  0.00    -0.237 OA
ATOM     91  O   UNL     1      14.934   3.906  19.534  1.00  0.00    -0.237 OA
ATOM     92  O   UNL     1      15.186   1.816  18.272  1.00  0.00    -0.744 OA
ENDBRANCH  86  89
ENDBRANCH  59  82
ENDBRANCH  33  34
ENDBRANCH  26  28
ENDBRANCH  25  26
ENDBRANCH  24  25
ENDBRANCH   1  24
TORSDOF 19
