REMARK SMILES O=C(CS[C@@H]1CCS(=O)(=O)C1)Nc1nc(CC(=O)OCCOCCOC(=O)c2ccc(-c3c4nc(c(-c5cccc(S(=O)(=O)[O-])c5F)c5ccc([nH]5)c(-c5cccc(S(=O)(=O)[O-])c5F)c5nc(c(-c6cccc(S(=O)(=O)[O-])c6F)c6ccc3[nH]6)C=C5)C=C4)cc2)cs1
REMARK SMILES IDX 21 1 20 2 19 3 17 4 18 5 16 6 15 7 13 8 14 9 92 10 91 11
REMARK SMILES IDX 12 12 1 13 2 14 3 16 4 17 5 18 6 19 11 20 7 21 8 22 9 23
REMARK SMILES IDX 10 24 22 25 23 26 24 27 25 28 26 29 27 30 28 31 29 32 90 33
REMARK SMILES IDX 30 34 89 35 31 36 32 37 33 38 83 39 34 40 88 41 82 42 84 43
REMARK SMILES IDX 35 44 87 45 81 46 80 47 36 49 68 50 48 51 67 52 49 53 52 54
REMARK SMILES IDX 66 55 85 56 50 57 51 58 65 60 86 61 53 62 37 63 38 64 46 65
REMARK SMILES IDX 39 66 41 67 47 68 40 69 42 70 43 71 44 72 45 73 69 74 70 75
REMARK SMILES IDX 78 76 71 77 73 78 79 79 72 80 74 81 75 82 76 83 77 84 54 85
REMARK SMILES IDX 55 86 63 87 56 88 58 89 64 90 57 91 59 92 60 93 61 94 62 95
REMARK H PARENT 12 15 84 48 52 59
REMARK Flexibility Score: inf
ROOT
ATOM      1  C   UNL     1       1.434   0.074  -8.526  1.00  0.00     0.202 C 
ENDROOT
BRANCH   1   2
ATOM      2  C   UNL     1       0.650   1.028  -7.619  1.00  0.00     0.261 C 
BRANCH   2   3
ATOM      3  O   UNL     1       0.625   0.593  -6.248  1.00  0.00    -0.463 OA
BRANCH   3   4
ATOM      4  C   UNL     1      -0.597   0.270  -5.749  1.00  0.00     0.311 C 
ATOM      5  O   UNL     1      -1.646   0.335  -6.388  1.00  0.00    -0.252 OA
BRANCH   4   6
ATOM      6  C   UNL     1      -0.586  -0.207  -4.319  1.00  0.00     0.179 C 
BRANCH   6   7
ATOM      7  C   UNL     1       0.711  -0.719  -3.783  1.00  0.00     0.065 A 
ATOM      8  C   UNL     1       2.456  -0.536  -2.440  1.00  0.00     0.189 A 
ATOM      9  N   UNL     1       1.409   0.088  -2.905  1.00  0.00    -0.224 NA
ATOM     10  S   UNL     1       2.748  -2.090  -3.080  1.00  0.00    -0.105 S 
ATOM     11  C   UNL     1       1.251  -1.986  -3.922  1.00  0.00     0.093 A 
BRANCH   8  12
ATOM     12  N   UNL     1       3.246  -0.204  -1.377  1.00  0.00    -0.301 N 
ATOM     13  O   UNL     1       2.036   1.671  -0.736  1.00  0.00    -0.274 OA
ATOM     14  C   UNL     1       2.870   0.800  -0.511  1.00  0.00     0.236 C 
ATOM     15  H   UNL     1       4.091  -0.685  -1.228  1.00  0.00     0.172 HD
BRANCH  14  16
ATOM     16  C   UNL     1       3.575   0.772   0.837  1.00  0.00     0.170 C 
BRANCH  16  17
ATOM     17  S   UNL     1       4.279  -0.858   1.302  1.00  0.00    -0.148 SA
BRANCH  17  18
ATOM     18  C   UNL     1       2.933  -1.779   2.170  1.00  0.00     0.063 C 
ATOM     19  C   UNL     1       2.191  -2.750   1.242  1.00  0.00     0.031 C 
ATOM     20  C   UNL     1       1.889  -1.035   2.999  1.00  0.00     0.151 C 
ATOM     21  C   UNL     1       0.973  -2.028   0.694  1.00  0.00     0.138 C 
ATOM     22  S   UNL     1       0.384  -1.031   2.044  1.00  0.00     0.151 S 
ATOM     23  O   UNL     1       0.138   0.314   1.574  1.00  0.00    -0.229 OA
ATOM     24  O   UNL     1      -0.616  -1.792   2.761  1.00  0.00    -0.229 OA
ENDBRANCH  17  18
ENDBRANCH  16  17
ENDBRANCH  14  16
ENDBRANCH   8  12
ENDBRANCH   6   7
ENDBRANCH   4   6
ENDBRANCH   3   4
ENDBRANCH   2   3
ENDBRANCH   1   2
BRANCH   1  25
ATOM     25  O   UNL     1       0.958  -1.266  -8.645  1.00  0.00    -0.374 OA
BRANCH  25  26
ATOM     26  C   UNL     1       1.121  -2.129  -7.523  1.00  0.00     0.202 C 
BRANCH  26  27
ATOM     27  C   UNL     1       2.542  -2.607  -7.190  1.00  0.00     0.261 C 
BRANCH  27  28
ATOM     28  O   UNL     1       3.433  -1.536  -6.839  1.00  0.00    -0.460 OA
BRANCH  28  29
ATOM     29  C   UNL     1       4.443  -1.341  -7.724  1.00  0.00     0.338 C 
ATOM     30  O   UNL     1       4.699  -2.022  -8.704  1.00  0.00    -0.246 OA
BRANCH  29  31
ATOM     31  C   UNL     1       5.123  -0.058  -7.469  1.00  0.00     0.060 A 
ATOM     32  C   UNL     1       5.181   0.854  -8.530  1.00  0.00     0.016 A 
ATOM     33  C   UNL     1       5.785   0.204  -6.268  1.00  0.00     0.016 A 
ATOM     34  C   UNL     1       5.953   2.006  -8.419  1.00  0.00     0.010 A 
ATOM     35  C   UNL     1       6.564   1.362  -6.161  1.00  0.00     0.010 A 
ATOM     36  C   UNL     1       6.686   2.246  -7.250  1.00  0.00    -0.014 A 
BRANCH  36  37
ATOM     37  C   UNL     1       7.678   3.350  -7.230  1.00  0.00     0.031 A 
ATOM     38  C   UNL     1       9.142   3.029  -7.359  1.00  0.00     0.074 A 
ATOM     39  C   UNL     1       7.274   4.629  -7.127  1.00  0.00     0.049 A 
ATOM     40  N   UNL     1      10.171   3.836  -7.359  1.00  0.00    -0.248 NA
ATOM     41  C   UNL     1       9.497   1.607  -7.506  1.00  0.00     0.031 C 
ATOM     42  C   UNL     1       5.884   5.066  -7.007  1.00  0.00     0.029 A 
ATOM     43  N   UNL     1       7.999   5.793  -7.089  1.00  0.00    -0.354 N 
ATOM     44  C   UNL     1      11.293   3.024  -7.473  1.00  0.00     0.074 A 
ATOM     45  C   UNL     1      10.821   1.658  -7.526  1.00  0.00     0.031 C 
ATOM     46  C   UNL     1       5.857   6.404  -6.885  1.00  0.00     0.029 A 
ATOM     47  C   UNL     1       7.227   6.913  -6.888  1.00  0.00     0.049 A 
ATOM     48  H   UNL     1       8.977   5.824  -7.194  1.00  0.00     0.167 HD
ATOM     49  C   UNL     1      12.597   3.384  -7.539  1.00  0.00     0.034 A 
ATOM     50  C   UNL     1       7.587   8.199  -6.702  1.00  0.00     0.034 A 
ATOM     51  C   UNL     1      13.061   4.745  -7.503  1.00  0.00     0.049 A 
ATOM     52  C   UNL     1       9.046   8.568  -6.750  1.00  0.00     0.074 A 
ATOM     53  C   UNL     1      14.358   5.214  -7.614  1.00  0.00     0.029 A 
ATOM     54  N   UNL     1      12.249   5.854  -7.328  1.00  0.00    -0.354 N 
ATOM     55  N   UNL     1      10.087   7.801  -6.968  1.00  0.00    -0.248 NA
ATOM     56  C   UNL     1       9.378   9.988  -6.558  1.00  0.00     0.031 C 
ATOM     57  C   UNL     1      14.334   6.604  -7.463  1.00  0.00     0.029 A 
ATOM     58  C   UNL     1      13.017   7.006  -7.306  1.00  0.00     0.049 A 
ATOM     59  H   UNL     1      11.269   5.828  -7.232  1.00  0.00     0.167 HD
ATOM     60  C   UNL     1      11.191   8.647  -6.977  1.00  0.00     0.074 A 
ATOM     61  C   UNL     1      10.688   9.989  -6.763  1.00  0.00     0.031 C 
ATOM     62  C   UNL     1      12.502   8.341  -7.139  1.00  0.00     0.034 A 
BRANCH  49  63
ATOM     63  C   UNL     1      13.623   2.286  -7.668  1.00  0.00     0.023 A 
ATOM     64  C   UNL     1      13.737   1.567  -8.875  1.00  0.00     0.012 A 
ATOM     65  C   UNL     1      14.511   2.006  -6.611  1.00  0.00     0.148 A 
ATOM     66  C   UNL     1      14.696   0.564  -9.017  1.00  0.00     0.002 A 
ATOM     67  C   UNL     1      15.495   1.038  -6.776  1.00  0.00     0.091 A 
ATOM     68  F   UNL     1      14.374   2.685  -5.464  1.00  0.00    -0.205 F 
ATOM     69  C   UNL     1      15.580   0.307  -7.972  1.00  0.00     0.022 A 
BRANCH  67  70
ATOM     70  S   UNL     1      16.730   0.687  -5.520  1.00  0.00     0.127 S 
ATOM     71  O   UNL     1      16.337  -0.653  -5.087  1.00  0.00    -0.237 OA
ATOM     72  O   UNL     1      17.973   0.738  -6.290  1.00  0.00    -0.237 OA
ATOM     73  O   UNL     1      16.593   1.731  -4.515  1.00  0.00    -0.744 OA
ENDBRANCH  67  70
ENDBRANCH  49  63
BRANCH  50  74
ATOM     74  C   UNL     1       6.545   9.238  -6.471  1.00  0.00     0.023 A 
ATOM     75  C   UNL     1       6.312  10.226  -7.447  1.00  0.00     0.012 A 
ATOM     76  C   UNL     1       5.778   9.246  -5.289  1.00  0.00     0.148 A 
ATOM     77  C   UNL     1       5.358  11.223  -7.237  1.00  0.00     0.002 A 
ATOM     78  C   UNL     1       4.791  10.207  -5.111  1.00  0.00     0.091 A 
ATOM     79  F   UNL     1       6.026   8.306  -4.366  1.00  0.00    -0.205 F 
ATOM     80  C   UNL     1       4.592  11.207  -6.075  1.00  0.00     0.022 A 
BRANCH  78  81
ATOM     81  S   UNL     1       3.676  10.196  -3.704  1.00  0.00     0.127 S 
ATOM     82  O   UNL     1       4.083  11.404  -2.990  1.00  0.00    -0.237 OA
ATOM     83  O   UNL     1       2.370  10.276  -4.359  1.00  0.00    -0.237 OA
ATOM     84  O   UNL     1       3.928   8.940  -3.011  1.00  0.00    -0.744 OA
ENDBRANCH  78  81
ENDBRANCH  50  74
BRANCH  62  85
ATOM     85  C   UNL     1      13.493   9.478  -7.140  1.00  0.00     0.023 A 
ATOM     86  C   UNL     1      13.784  10.164  -5.944  1.00  0.00     0.012 A 
ATOM     87  C   UNL     1      14.188   9.818  -8.318  1.00  0.00     0.148 A 
ATOM     88  C   UNL     1      14.723  11.196  -5.929  1.00  0.00     0.002 A 
ATOM     89  C   UNL     1      15.161  10.809  -8.283  1.00  0.00     0.091 A 
ATOM     90  F   UNL     1      13.887   9.164  -9.449  1.00  0.00    -0.205 F 
ATOM     91  C   UNL     1      15.419  11.510  -7.094  1.00  0.00     0.022 A 
BRANCH  89  92
ATOM     92  S   UNL     1      16.178  11.213  -9.708  1.00  0.00     0.127 S 
ATOM     93  O   UNL     1      15.680  12.541 -10.063  1.00  0.00    -0.237 OA
ATOM     94  O   UNL     1      17.526  11.200  -9.138  1.00  0.00    -0.237 OA
ATOM     95  O   UNL     1      15.927  10.170 -10.692  1.00  0.00    -0.744 OA
ENDBRANCH  89  92
ENDBRANCH  62  85
ENDBRANCH  36  37
ENDBRANCH  29  31
ENDBRANCH  28  29
ENDBRANCH  27  28
ENDBRANCH  26  27
ENDBRANCH  25  26
ENDBRANCH   1  25
TORSDOF 22
