REMARK SMILES O=C(OCCOCCOC(=O)c1ccc(-c2c3nc(c(-c4cccc(S(=O)(=O)[O-])c4F)c4ccc([nH]4)c(-c4cccc(S(=O)(=O)[O-])c4F)c4nc(c(-c5cccc(S(=O)(=O)[O-])c5F)c5ccc2[nH]5)C=C4)C=C3)cc1)C1=C([O-])N(c2ccc3c(c2)OCCO3)CC1
REMARK SMILES IDX 7 1 6 2 5 3 4 4 3 5 2 6 1 7 75 8 76 9 90 10 77 11 78 12
REMARK SMILES IDX 89 13 79 14 80 15 84 16 81 17 83 18 82 19 85 20 88 21 86 22
REMARK SMILES IDX 87 23 8 24 9 25 10 26 11 27 12 28 13 29 74 30 14 31 73 32
REMARK SMILES IDX 15 33 16 34 17 35 67 36 18 37 72 38 66 39 68 40 19 41 71 42
REMARK SMILES IDX 65 43 64 44 20 46 52 47 32 48 51 49 33 50 36 51 50 52 69 53
REMARK SMILES IDX 34 54 35 55 49 57 70 58 37 59 21 60 22 61 30 62 23 63 25 64
REMARK SMILES IDX 31 65 24 66 26 67 27 68 28 69 29 70 53 71 54 72 62 73 55 74
REMARK SMILES IDX 57 75 63 76 56 77 58 78 59 79 60 80 61 81 38 82 39 83 47 84
REMARK SMILES IDX 40 85 42 86 48 87 41 88 43 89 44 90 45 91 46 92
REMARK H PARENT 68 45 36 56
REMARK Flexibility Score: inf
ROOT
ATOM      1  C   UNL     1       2.614   0.252   2.170  1.00  0.00     0.202 C 
ENDROOT
BRANCH   1   2
ATOM      2  O   UNL     1       3.943   0.146   1.631  1.00  0.00    -0.374 OA
BRANCH   2   3
ATOM      3  C   UNL     1       4.348   1.256   0.822  1.00  0.00     0.202 C 
BRANCH   3   4
ATOM      4  C   UNL     1       4.190   1.018  -0.682  1.00  0.00     0.261 C 
BRANCH   4   5
ATOM      5  O   UNL     1       2.834   0.699  -1.027  1.00  0.00    -0.460 OA
BRANCH   5   6
ATOM      6  C   UNL     1       2.247  -0.501  -0.806  1.00  0.00     0.335 C 
ATOM      7  O   UNL     1       1.044  -0.548  -0.563  1.00  0.00    -0.247 OA
BRANCH   6   8
ATOM      8  C   UNL     1       3.045  -1.724  -0.902  1.00  0.00     0.048 C 
ATOM      9  C   UNL     1       2.573  -2.825  -1.509  1.00  0.00    -0.026 C 
ATOM     10  C   UNL     1       4.285  -2.095  -0.138  1.00  0.00     0.066 C 
ATOM     11  O   UNL     1       1.402  -2.942  -2.182  1.00  0.00    -0.860 OA
ATOM     12  N   UNL     1       3.418  -3.905  -1.392  1.00  0.00    -0.354 N 
ATOM     13  C   UNL     1       4.646  -3.483  -0.687  1.00  0.00     0.126 C 
BRANCH  12  14
ATOM     14  C   UNL     1       3.050  -5.220  -1.031  1.00  0.00     0.044 A 
ATOM     15  C   UNL     1       3.504  -6.277  -1.832  1.00  0.00     0.030 A 
ATOM     16  C   UNL     1       2.557  -5.476   0.256  1.00  0.00     0.076 A 
ATOM     17  C   UNL     1       3.631  -7.554  -1.297  1.00  0.00     0.052 A 
ATOM     18  C   UNL     1       2.788  -6.719   0.824  1.00  0.00     0.163 A 
ATOM     19  C   UNL     1       3.371  -7.734   0.057  1.00  0.00     0.161 A 
ATOM     20  O   UNL     1       2.591  -6.814   2.177  1.00  0.00    -0.486 OA
ATOM     21  O   UNL     1       3.869  -8.872   0.646  1.00  0.00    -0.486 OA
ATOM     22  C   UNL     1       3.274  -7.923   2.778  1.00  0.00     0.271 C 
ATOM     23  C   UNL     1       4.404  -8.469   1.915  1.00  0.00     0.271 C 
ENDBRANCH  12  14
ENDBRANCH   6   8
ENDBRANCH   5   6
ENDBRANCH   4   5
ENDBRANCH   3   4
ENDBRANCH   2   3
ENDBRANCH   1   2
BRANCH   1  24
ATOM     24  C   UNL     1       2.613   0.653   3.646  1.00  0.00     0.261 C 
BRANCH  24  25
ATOM     25  O   UNL     1       3.107   1.990   3.773  1.00  0.00    -0.460 OA
BRANCH  25  26
ATOM     26  C   UNL     1       4.447   2.084   3.975  1.00  0.00     0.338 C 
ATOM     27  O   UNL     1       5.205   1.206   4.316  1.00  0.00    -0.246 OA
BRANCH  26  28
ATOM     28  C   UNL     1       4.881   3.411   3.481  1.00  0.00     0.060 A 
ATOM     29  C   UNL     1       6.126   3.489   2.843  1.00  0.00     0.016 A 
ATOM     30  C   UNL     1       4.061   4.539   3.581  1.00  0.00     0.016 A 
ATOM     31  C   UNL     1       6.571   4.703   2.330  1.00  0.00     0.010 A 
ATOM     32  C   UNL     1       4.509   5.757   3.077  1.00  0.00     0.010 A 
ATOM     33  C   UNL     1       5.779   5.846   2.484  1.00  0.00    -0.014 A 
BRANCH  33  34
ATOM     34  C   UNL     1       6.364   7.180   2.242  1.00  0.00     0.031 A 
ATOM     35  C   UNL     1       6.900   7.927   3.429  1.00  0.00     0.074 A 
ATOM     36  C   UNL     1       6.381   7.718   1.011  1.00  0.00     0.049 A 
ATOM     37  N   UNL     1       7.389   9.134   3.496  1.00  0.00    -0.248 NA
ATOM     38  C   UNL     1       6.868   7.215   4.721  1.00  0.00     0.031 C 
ATOM     39  C   UNL     1       5.881   7.074  -0.202  1.00  0.00     0.029 A 
ATOM     40  N   UNL     1       6.809   8.950   0.591  1.00  0.00    -0.354 N 
ATOM     41  C   UNL     1       7.690   9.341   4.837  1.00  0.00     0.074 A 
ATOM     42  C   UNL     1       7.319   8.141   5.551  1.00  0.00     0.031 C 
ATOM     43  C   UNL     1       5.999   7.934  -1.230  1.00  0.00     0.029 A 
ATOM     44  C   UNL     1       6.557   9.192  -0.738  1.00  0.00     0.049 A 
ATOM     45  H   UNL     1       7.253   9.599   1.183  1.00  0.00     0.167 HD
ATOM     46  C   UNL     1       8.239  10.431   5.418  1.00  0.00     0.034 A 
ATOM     47  C   UNL     1       6.734  10.316  -1.460  1.00  0.00     0.034 A 
ATOM     48  C   UNL     1       8.613  11.613   4.693  1.00  0.00     0.049 A 
ATOM     49  C   UNL     1       7.333  11.524  -0.786  1.00  0.00     0.074 A 
ATOM     50  C   UNL     1       9.220  12.759   5.170  1.00  0.00     0.029 A 
ATOM     51  N   UNL     1       8.398  11.803   3.336  1.00  0.00    -0.354 N 
ATOM     52  N   UNL     1       7.727  11.667   0.458  1.00  0.00    -0.248 NA
ATOM     53  C   UNL     1       7.541  12.716  -1.620  1.00  0.00     0.031 C 
ATOM     54  C   UNL     1       9.347  13.656   4.104  1.00  0.00     0.029 A 
ATOM     55  C   UNL     1       8.850  13.054   2.958  1.00  0.00     0.049 A 
ATOM     56  H   UNL     1       7.984  11.146   2.732  1.00  0.00     0.167 HD
ATOM     57  C   UNL     1       8.262  12.947   0.546  1.00  0.00     0.074 A 
ATOM     58  C   UNL     1       8.159  13.532  -0.776  1.00  0.00     0.031 C 
ATOM     59  C   UNL     1       8.781  13.590   1.622  1.00  0.00     0.034 A 
BRANCH  46  60
ATOM     60  C   UNL     1       8.479  10.382   6.902  1.00  0.00     0.023 A 
ATOM     61  C   UNL     1       9.501   9.559   7.419  1.00  0.00     0.012 A 
ATOM     62  C   UNL     1       7.714  11.170   7.783  1.00  0.00     0.148 A 
ATOM     63  C   UNL     1       9.736   9.496   8.791  1.00  0.00     0.002 A 
ATOM     64  C   UNL     1       7.985  11.137   9.145  1.00  0.00     0.091 A 
ATOM     65  F   UNL     1       6.728  11.922   7.275  1.00  0.00    -0.205 F 
ATOM     66  C   UNL     1       8.986  10.292   9.652  1.00  0.00     0.022 A 
BRANCH  64  67
ATOM     67  S   UNL     1       7.127  12.180  10.328  1.00  0.00     0.127 S 
ATOM     68  O   UNL     1       6.335  11.198  11.068  1.00  0.00    -0.237 OA
ATOM     69  O   UNL     1       8.236  12.763  11.084  1.00  0.00    -0.237 OA
ATOM     70  O   UNL     1       6.359  13.135   9.541  1.00  0.00    -0.744 OA
ENDBRANCH  64  67
ENDBRANCH  46  60
BRANCH  47  71
ATOM     71  C   UNL     1       6.374  10.342  -2.906  1.00  0.00     0.023 A 
ATOM     72  C   UNL     1       7.393  10.429  -3.874  1.00  0.00     0.012 A 
ATOM     73  C   UNL     1       5.032  10.266  -3.327  1.00  0.00     0.148 A 
ATOM     74  C   UNL     1       7.081  10.470  -5.234  1.00  0.00     0.002 A 
ATOM     75  C   UNL     1       4.731  10.253  -4.684  1.00  0.00     0.091 A 
ATOM     76  F   UNL     1       4.075  10.200  -2.390  1.00  0.00    -0.205 F 
ATOM     77  C   UNL     1       5.753  10.372  -5.639  1.00  0.00     0.022 A 
BRANCH  75  78
ATOM     78  S   UNL     1       3.063  10.006  -5.301  1.00  0.00     0.127 S 
ATOM     79  O   UNL     1       2.753  11.319  -5.859  1.00  0.00    -0.237 OA
ATOM     80  O   UNL     1       3.263   8.947  -6.291  1.00  0.00    -0.237 OA
ATOM     81  O   UNL     1       2.272   9.606  -4.145  1.00  0.00    -0.744 OA
ENDBRANCH  75  78
ENDBRANCH  47  71
BRANCH  59  82
ATOM     82  C   UNL     1       9.318  14.982   1.413  1.00  0.00     0.023 A 
ATOM     83  C   UNL     1       8.428  16.055   1.214  1.00  0.00     0.012 A 
ATOM     84  C   UNL     1      10.701  15.234   1.500  1.00  0.00     0.148 A 
ATOM     85  C   UNL     1       8.910  17.356   1.072  1.00  0.00     0.002 A 
ATOM     86  C   UNL     1      11.170  16.538   1.409  1.00  0.00     0.091 A 
ATOM     87  F   UNL     1      11.531  14.195   1.674  1.00  0.00    -0.205 F 
ATOM     88  C   UNL     1      10.278  17.599   1.182  1.00  0.00     0.022 A 
BRANCH  86  89
ATOM     89  S   UNL     1      12.902  16.955   1.642  1.00  0.00     0.127 S 
ATOM     90  O   UNL     1      13.312  17.291   0.280  1.00  0.00    -0.237 OA
ATOM     91  O   UNL     1      12.826  18.096   2.555  1.00  0.00    -0.237 OA
ATOM     92  O   UNL     1      13.528  15.769   2.209  1.00  0.00    -0.744 OA
ENDBRANCH  86  89
ENDBRANCH  59  82
ENDBRANCH  33  34
ENDBRANCH  26  28
ENDBRANCH  25  26
ENDBRANCH  24  25
ENDBRANCH   1  24
TORSDOF 18
