REMARK SMILES O=C(OCCOCCOC(=O)c1nccnc1C(=O)Nc1ccc2c(c1)OCO2)c1ccc(-c2c3nc(c(-c4cccc(S(=O)(=O)[O-])c4F)c4ccc([nH]4)c(-c4cccc(S(=O)(=O)[O-])c4F)c4nc(c(-c5cccc(S(=O)(=O)[O-])c5F)c5ccc2[nH]5)C=C4)C=C3)cc1
REMARK SMILES IDX 5 1 4 2 3 3 2 4 1 5 30 6 31 7 92 8 32 9 91 10 33 11 34 12
REMARK SMILES IDX 35 13 85 14 36 15 90 16 84 17 86 18 37 19 89 20 83 21 82 22
REMARK SMILES IDX 38 24 70 25 50 26 69 27 51 28 54 29 68 30 87 31 52 32 53 33
REMARK SMILES IDX 67 35 88 36 55 37 39 38 40 39 48 40 41 41 43 42 49 43 42 44
REMARK SMILES IDX 44 45 45 46 46 47 47 48 71 49 72 50 80 51 73 52 75 53 81 54
REMARK SMILES IDX 74 55 76 56 77 57 78 58 79 59 56 60 57 61 65 62 58 63 60 64
REMARK SMILES IDX 66 65 59 66 61 67 62 68 63 69 64 70 6 71 7 72 8 73 9 74
REMARK SMILES IDX 10 75 11 76 12 77 13 78 17 79 14 80 16 81 15 82 18 83 19 84
REMARK SMILES IDX 20 85 21 87 22 88 26 89 23 90 25 91 24 92 27 93 29 94 28 95
REMARK H PARENT 86 23 54 34 20 86
REMARK Flexibility Score: inf
ROOT
ATOM      1  C   UNL     1       4.196  -0.422   0.967  1.00  0.00     0.202 C 
ENDROOT
BRANCH   1   2
ATOM      2  C   UNL     1       3.386   0.500   1.882  1.00  0.00     0.261 C 
BRANCH   2   3
ATOM      3  O   UNL     1       2.002   0.702   1.532  1.00  0.00    -0.460 OA
BRANCH   3   4
ATOM      4  C   UNL     1       1.449   1.505   0.600  1.00  0.00     0.338 C 
ATOM      5  O   UNL     1       0.230   1.608   0.514  1.00  0.00    -0.246 OA
BRANCH   4   6
ATOM      6  C   UNL     1       2.300   2.278  -0.320  1.00  0.00     0.060 A 
ATOM      7  C   UNL     1       3.218   1.681  -1.187  1.00  0.00     0.016 A 
ATOM      8  C   UNL     1       2.050   3.646  -0.415  1.00  0.00     0.016 A 
ATOM      9  C   UNL     1       4.020   2.460  -2.015  1.00  0.00     0.010 A 
ATOM     10  C   UNL     1       2.776   4.414  -1.319  1.00  0.00     0.010 A 
ATOM     11  C   UNL     1       3.802   3.835  -2.087  1.00  0.00    -0.014 A 
BRANCH  11  12
ATOM     12  C   UNL     1       4.657   4.718  -2.908  1.00  0.00     0.031 A 
ATOM     13  C   UNL     1       5.405   5.811  -2.207  1.00  0.00     0.074 A 
ATOM     14  C   UNL     1       4.686   4.603  -4.247  1.00  0.00     0.049 A 
ATOM     15  N   UNL     1       5.907   6.912  -2.688  1.00  0.00    -0.248 NA
ATOM     16  C   UNL     1       5.567   5.655  -0.750  1.00  0.00     0.031 C 
ATOM     17  C   UNL     1       4.036   3.547  -5.023  1.00  0.00     0.029 A 
ATOM     18  N   UNL     1       5.251   5.417  -5.196  1.00  0.00    -0.354 N 
ATOM     19  C   UNL     1       6.345   7.633  -1.583  1.00  0.00     0.074 A 
ATOM     20  C   UNL     1       6.080   6.828  -0.412  1.00  0.00     0.031 C 
ATOM     21  C   UNL     1       4.219   3.786  -6.330  1.00  0.00     0.029 A 
ATOM     22  C   UNL     1       4.922   5.055  -6.482  1.00  0.00     0.049 A 
ATOM     23  H   UNL     1       5.832   6.181  -4.979  1.00  0.00     0.167 HD
ATOM     24  C   UNL     1       6.903   8.864  -1.559  1.00  0.00     0.034 A 
ATOM     25  C   UNL     1       5.108   5.711  -7.644  1.00  0.00     0.034 A 
ATOM     26  C   UNL     1       7.208   9.608  -2.748  1.00  0.00     0.049 A 
ATOM     27  C   UNL     1       5.776   7.059  -7.602  1.00  0.00     0.074 A 
ATOM     28  C   UNL     1       7.790  10.855  -2.865  1.00  0.00     0.029 A 
ATOM     29  N   UNL     1       6.963   9.152  -4.037  1.00  0.00    -0.354 N 
ATOM     30  N   UNL     1       6.198   7.734  -6.559  1.00  0.00    -0.248 NA
ATOM     31  C   UNL     1       6.004   7.732  -8.887  1.00  0.00     0.031 C 
ATOM     32  C   UNL     1       7.897  11.153  -4.228  1.00  0.00     0.029 A 
ATOM     33  C   UNL     1       7.396  10.085  -4.959  1.00  0.00     0.049 A 
ATOM     34  H   UNL     1       6.543   8.291  -4.261  1.00  0.00     0.167 HD
ATOM     35  C   UNL     1       6.765   8.899  -7.060  1.00  0.00     0.074 A 
ATOM     36  C   UNL     1       6.644   8.830  -8.504  1.00  0.00     0.031 C 
ATOM     37  C   UNL     1       7.318   9.941  -6.392  1.00  0.00     0.034 A 
BRANCH  24  38
ATOM     38  C   UNL     1       7.198   9.461  -0.210  1.00  0.00     0.023 A 
ATOM     39  C   UNL     1       8.260   8.957   0.568  1.00  0.00     0.012 A 
ATOM     40  C   UNL     1       6.404  10.506   0.302  1.00  0.00     0.148 A 
ATOM     41  C   UNL     1       8.496   9.449   1.852  1.00  0.00     0.002 A 
ATOM     42  C   UNL     1       6.672  11.020   1.566  1.00  0.00     0.091 A 
ATOM     43  F   UNL     1       5.377  10.952  -0.435  1.00  0.00    -0.205 F 
ATOM     44  C   UNL     1       7.707  10.484   2.348  1.00  0.00     0.022 A 
BRANCH  42  45
ATOM     45  S   UNL     1       5.742  12.394   2.256  1.00  0.00     0.127 S 
ATOM     46  O   UNL     1       4.821  11.705   3.158  1.00  0.00    -0.237 OA
ATOM     47  O   UNL     1       6.785  13.172   2.927  1.00  0.00    -0.237 OA
ATOM     48  O   UNL     1       5.132  13.065   1.117  1.00  0.00    -0.744 OA
ENDBRANCH  42  45
ENDBRANCH  24  38
BRANCH  25  49
ATOM     49  C   UNL     1       4.663   5.085  -8.922  1.00  0.00     0.023 A 
ATOM     50  C   UNL     1       5.628   4.606  -9.828  1.00  0.00     0.012 A 
ATOM     51  C   UNL     1       3.297   4.874  -9.202  1.00  0.00     0.148 A 
ATOM     52  C   UNL     1       5.243   3.938 -10.992  1.00  0.00     0.002 A 
ATOM     53  C   UNL     1       2.923   4.154 -10.331  1.00  0.00     0.091 A 
ATOM     54  F   UNL     1       2.391   5.348  -8.335  1.00  0.00    -0.205 F 
ATOM     55  C   UNL     1       3.894   3.698 -11.235  1.00  0.00     0.022 A 
BRANCH  53  56
ATOM     56  S   UNL     1       1.224   3.655 -10.638  1.00  0.00     0.127 S 
ATOM     57  O   UNL     1       0.879   4.467 -11.802  1.00  0.00    -0.237 OA
ATOM     58  O   UNL     1       1.377   2.224 -10.907  1.00  0.00    -0.237 OA
ATOM     59  O   UNL     1       0.497   3.960  -9.414  1.00  0.00    -0.744 OA
ENDBRANCH  53  56
ENDBRANCH  25  49
BRANCH  37  60
ATOM     60  C   UNL     1       7.886  11.068  -7.207  1.00  0.00     0.023 A 
ATOM     61  C   UNL     1       7.025  12.035  -7.756  1.00  0.00     0.012 A 
ATOM     62  C   UNL     1       9.281  11.233  -7.309  1.00  0.00     0.148 A 
ATOM     63  C   UNL     1       7.546  13.152  -8.406  1.00  0.00     0.002 A 
ATOM     64  C   UNL     1       9.793  12.369  -7.920  1.00  0.00     0.091 A 
ATOM     65  F   UNL     1      10.076  10.284  -6.794  1.00  0.00    -0.205 F 
ATOM     66  C   UNL     1       8.928  13.327  -8.474  1.00  0.00     0.022 A 
BRANCH  64  67
ATOM     67  S   UNL     1      11.553  12.722  -7.962  1.00  0.00     0.127 S 
ATOM     68  O   UNL     1      11.873  12.470  -9.366  1.00  0.00    -0.237 OA
ATOM     69  O   UNL     1      11.598  14.131  -7.568  1.00  0.00    -0.237 OA
ATOM     70  O   UNL     1      12.168  11.810  -7.006  1.00  0.00    -0.744 OA
ENDBRANCH  64  67
ENDBRANCH  37  60
ENDBRANCH  11  12
ENDBRANCH   4   6
ENDBRANCH   3   4
ENDBRANCH   2   3
ENDBRANCH   1   2
BRANCH   1  71
ATOM     71  O   UNL     1       3.601  -1.564   0.367  1.00  0.00    -0.374 OA
BRANCH  71  72
ATOM     72  C   UNL     1       2.192  -1.603   0.138  1.00  0.00     0.202 C 
BRANCH  72  73
ATOM     73  C   UNL     1       1.853  -2.922  -0.534  1.00  0.00     0.261 C 
BRANCH  73  74
ATOM     74  O   UNL     1       2.589  -3.908   0.195  1.00  0.00    -0.458 OA
BRANCH  74  75
ATOM     75  C   UNL     1       3.325  -4.713  -0.587  1.00  0.00     0.359 C 
ATOM     76  O   UNL     1       3.050  -5.077  -1.722  1.00  0.00    -0.244 OA
BRANCH  75  77
ATOM     77  C   UNL     1       4.426  -5.260   0.204  1.00  0.00     0.179 A 
ATOM     78  N   UNL     1       4.058  -6.439   0.818  1.00  0.00    -0.245 NA
ATOM     79  C   UNL     1       5.690  -4.699   0.353  1.00  0.00     0.161 A 
ATOM     80  C   UNL     1       4.970  -7.012   1.622  1.00  0.00     0.132 A 
ATOM     81  N   UNL     1       6.618  -5.366   1.130  1.00  0.00    -0.247 NA
ATOM     82  C   UNL     1       6.232  -6.489   1.768  1.00  0.00     0.132 A 
BRANCH  79  83
ATOM     83  C   UNL     1       6.173  -3.310   0.091  1.00  0.00     0.276 C 
ATOM     84  O   UNL     1       6.733  -2.756   1.056  1.00  0.00    -0.267 OA
ATOM     85  N   UNL     1       6.168  -2.526  -1.032  1.00  0.00    -0.320 N 
ATOM     86  H   UNL     1       6.679  -1.701  -0.863  1.00  0.00     0.170 HD
BRANCH  85  87
ATOM     87  C   UNL     1       5.675  -2.515  -2.336  1.00  0.00     0.045 A 
ATOM     88  C   UNL     1       5.109  -3.601  -2.996  1.00  0.00     0.030 A 
ATOM     89  C   UNL     1       5.715  -1.263  -2.983  1.00  0.00     0.076 A 
ATOM     90  C   UNL     1       4.420  -3.418  -4.208  1.00  0.00     0.053 A 
ATOM     91  C   UNL     1       5.061  -1.115  -4.186  1.00  0.00     0.167 A 
ATOM     92  C   UNL     1       4.399  -2.160  -4.770  1.00  0.00     0.165 A 
ATOM     93  O   UNL     1       4.951   0.038  -4.896  1.00  0.00    -0.454 OA
ATOM     94  O   UNL     1       3.764  -1.796  -5.914  1.00  0.00    -0.454 OA
ATOM     95  C   UNL     1       4.129  -0.399  -6.003  1.00  0.00     0.468 C 
ENDBRANCH  85  87
ENDBRANCH  79  83
ENDBRANCH  75  77
ENDBRANCH  74  75
ENDBRANCH  73  74
ENDBRANCH  72  73
ENDBRANCH  71  72
ENDBRANCH   1  71
TORSDOF 19
