REMARK SMILES CC(C)(C)c1ccc(CSc2ccnc(C(=O)OCCOCCOC(=O)c3ccc(-c4c5nc(c(-c6cccc(S(=O)(=O)[O-])c6F)c6ccc([nH]6)c(-c6cccc(S(=O)(=O)[O-])c6F)c6nc(c(-c7cccc(S(=O)(=O)[O-])c7F)c7ccc4[nH]7)C=C6)C=C5)cc3)c2)cc1
REMARK SMILES IDX 20 1 19 2 18 3 16 4 17 5 15 6 11 7 12 8 90 9 13 10 14 11
REMARK SMILES IDX 10 12 9 13 8 14 5 15 6 16 92 17 7 18 91 19 2 20 1 21 3 22
REMARK SMILES IDX 4 23 21 24 22 25 23 26 24 27 25 28 26 29 27 30 28 31 89 32
REMARK SMILES IDX 29 33 88 34 30 35 31 36 32 37 82 38 33 39 87 40 81 41 83 42
REMARK SMILES IDX 34 43 86 44 80 45 79 46 35 48 67 49 47 50 66 51 48 52 51 53
REMARK SMILES IDX 65 54 84 55 49 56 50 57 64 59 85 60 52 61 36 62 37 63 45 64
REMARK SMILES IDX 38 65 40 66 46 67 39 68 41 69 42 70 43 71 44 72 68 73 69 74
REMARK SMILES IDX 77 75 70 76 72 77 78 78 71 79 73 80 74 81 75 82 76 83 53 84
REMARK SMILES IDX 54 85 62 86 55 87 57 88 63 89 56 90 58 91 59 92 60 93 61 94
REMARK H PARENT 83 47 51 58
REMARK Flexibility Score: inf
ROOT
ATOM      1  C   UNL     1      -6.015   0.248   5.154  1.00  0.00     0.202 C 
ENDROOT
BRANCH   1   2
ATOM      2  C   UNL     1      -5.043   0.431   3.983  1.00  0.00     0.261 C 
BRANCH   2   3
ATOM      3  O   UNL     1      -3.918   1.239   4.371  1.00  0.00    -0.459 OA
BRANCH   3   4
ATOM      4  C   UNL     1      -3.806   2.434   3.734  1.00  0.00     0.357 C 
ATOM      5  O   UNL     1      -4.459   2.801   2.767  1.00  0.00    -0.244 OA
BRANCH   4   6
ATOM      6  C   UNL     1      -2.871   3.317   4.494  1.00  0.00     0.149 A 
ATOM      7  C   UNL     1      -0.929   3.720   5.813  1.00  0.00     0.011 A 
ATOM      8  C   UNL     1      -1.288   5.064   5.881  1.00  0.00     0.035 A 
ATOM      9  C   UNL     1      -1.744   2.817   5.130  1.00  0.00     0.051 A 
ATOM     10  C   UNL     1      -2.440   5.466   5.234  1.00  0.00     0.113 A 
ATOM     11  N   UNL     1      -3.232   4.631   4.538  1.00  0.00    -0.249 NA
BRANCH   7  12
ATOM     12  S   UNL     1       0.584   3.169   6.577  1.00  0.00    -0.121 SA
BRANCH  12  13
ATOM     13  C   UNL     1       1.785   3.704   5.301  1.00  0.00     0.110 C 
BRANCH  13  14
ATOM     14  C   UNL     1       1.523   3.099   3.945  1.00  0.00    -0.038 A 
ATOM     15  C   UNL     1       0.912   1.931   1.420  1.00  0.00    -0.043 A 
ATOM     16  C   UNL     1       1.341   1.148   2.504  1.00  0.00     0.004 A 
ATOM     17  C   UNL     1       0.805   3.317   1.633  1.00  0.00     0.004 A 
ATOM     18  C   UNL     1       1.649   1.721   3.742  1.00  0.00     0.005 A 
ATOM     19  C   UNL     1       1.111   3.894   2.871  1.00  0.00     0.005 A 
BRANCH  15  20
ATOM     20  C   UNL     1       0.507   1.306   0.073  1.00  0.00    -0.013 C 
ATOM     21  C   UNL     1       1.005  -0.146  -0.108  1.00  0.00     0.016 C 
ATOM     22  C   UNL     1       1.069   2.116  -1.117  1.00  0.00     0.016 C 
ATOM     23  C   UNL     1      -1.033   1.296  -0.009  1.00  0.00     0.016 C 
ENDBRANCH  15  20
ENDBRANCH  13  14
ENDBRANCH  12  13
ENDBRANCH   7  12
ENDBRANCH   4   6
ENDBRANCH   3   4
ENDBRANCH   2   3
ENDBRANCH   1   2
BRANCH   1  24
ATOM     24  O   UNL     1      -6.670   1.433   5.611  1.00  0.00    -0.374 OA
BRANCH  24  25
ATOM     25  C   UNL     1      -5.928   2.276   6.495  1.00  0.00     0.202 C 
BRANCH  25  26
ATOM     26  C   UNL     1      -5.911   1.851   7.969  1.00  0.00     0.261 C 
BRANCH  26  27
ATOM     27  O   UNL     1      -5.207   0.612   8.166  1.00  0.00    -0.460 OA
BRANCH  27  28
ATOM     28  C   UNL     1      -5.989  -0.446   8.485  1.00  0.00     0.338 C 
ATOM     29  O   UNL     1      -7.195  -0.432   8.703  1.00  0.00    -0.246 OA
BRANCH  28  30
ATOM     30  C   UNL     1      -5.220  -1.699   8.368  1.00  0.00     0.060 A 
ATOM     31  C   UNL     1      -5.773  -2.727   7.594  1.00  0.00     0.016 A 
ATOM     32  C   UNL     1      -4.014  -1.892   9.046  1.00  0.00     0.016 A 
ATOM     33  C   UNL     1      -5.145  -3.969   7.531  1.00  0.00     0.010 A 
ATOM     34  C   UNL     1      -3.389  -3.143   8.986  1.00  0.00     0.010 A 
ATOM     35  C   UNL     1      -3.967  -4.197   8.256  1.00  0.00    -0.014 A 
BRANCH  35  36
ATOM     36  C   UNL     1      -3.407  -5.568   8.337  1.00  0.00     0.031 A 
ATOM     37  C   UNL     1      -3.647  -6.391   9.574  1.00  0.00     0.074 A 
ATOM     38  C   UNL     1      -2.691  -6.076   7.318  1.00  0.00     0.049 A 
ATOM     39  N   UNL     1      -3.241  -7.602   9.852  1.00  0.00    -0.248 NA
ATOM     40  C   UNL     1      -4.447  -5.764  10.639  1.00  0.00     0.031 C 
ATOM     41  C   UNL     1      -2.385  -5.376   6.071  1.00  0.00     0.029 A 
ATOM     42  N   UNL     1      -2.070  -7.293   7.183  1.00  0.00    -0.354 N 
ATOM     43  C   UNL     1      -3.712  -7.875  11.131  1.00  0.00     0.074 A 
ATOM     44  C   UNL     1      -4.423  -6.697  11.580  1.00  0.00     0.031 C 
ATOM     45  C   UNL     1      -1.611  -6.165   5.307  1.00  0.00     0.029 A 
ATOM     46  C   UNL     1      -1.350  -7.416   6.019  1.00  0.00     0.049 A 
ATOM     47  H   UNL     1      -2.134  -8.008   7.856  1.00  0.00     0.167 HD
ATOM     48  C   UNL     1      -3.581  -9.010  11.859  1.00  0.00     0.034 A 
ATOM     49  C   UNL     1      -0.555  -8.415   5.584  1.00  0.00     0.034 A 
ATOM     50  C   UNL     1      -2.893 -10.188  11.404  1.00  0.00     0.049 A 
ATOM     51  C   UNL     1      -0.413  -9.660   6.420  1.00  0.00     0.074 A 
ATOM     52  C   UNL     1      -2.755 -11.406  12.047  1.00  0.00     0.029 A 
ATOM     53  N   UNL     1      -2.215 -10.293  10.200  1.00  0.00    -0.354 N 
ATOM     54  N   UNL     1      -0.975  -9.954   7.568  1.00  0.00    -0.248 NA
ATOM     55  C   UNL     1       0.445 -10.728   5.884  1.00  0.00     0.031 C 
ATOM     56  C   UNL     1      -1.972 -12.239  11.242  1.00  0.00     0.029 A 
ATOM     57  C   UNL     1      -1.644 -11.550  10.085  1.00  0.00     0.049 A 
ATOM     58  H   UNL     1      -2.149  -9.580   9.525  1.00  0.00     0.167 HD
ATOM     59  C   UNL     1      -0.569 -11.248   7.874  1.00  0.00     0.074 A 
ATOM     60  C   UNL     1       0.272 -11.691   6.780  1.00  0.00     0.031 C 
ATOM     61  C   UNL     1      -0.854 -11.998   8.967  1.00  0.00     0.034 A 
BRANCH  48  62
ATOM     62  C   UNL     1      -4.223  -9.044  13.221  1.00  0.00     0.023 A 
ATOM     63  C   UNL     1      -5.625  -9.141  13.327  1.00  0.00     0.012 A 
ATOM     64  C   UNL     1      -3.440  -9.038  14.392  1.00  0.00     0.148 A 
ATOM     65  C   UNL     1      -6.240  -9.202  14.577  1.00  0.00     0.002 A 
ATOM     66  C   UNL     1      -4.057  -9.141  15.633  1.00  0.00     0.091 A 
ATOM     67  F   UNL     1      -2.110  -8.921  14.271  1.00  0.00    -0.205 F 
ATOM     68  C   UNL     1      -5.457  -9.212  15.728  1.00  0.00     0.022 A 
BRANCH  66  69
ATOM     69  S   UNL     1      -3.130  -9.238  17.169  1.00  0.00     0.127 S 
ATOM     70  O   UNL     1      -3.386  -7.922  17.752  1.00  0.00    -0.237 OA
ATOM     71  O   UNL     1      -3.789 -10.349  17.857  1.00  0.00    -0.237 OA
ATOM     72  O   UNL     1      -1.749  -9.496  16.787  1.00  0.00    -0.744 OA
ENDBRANCH  66  69
ENDBRANCH  48  62
BRANCH  49  73
ATOM     73  C   UNL     1       0.136  -8.294   4.270  1.00  0.00     0.023 A 
ATOM     74  C   UNL     1      -0.263  -9.112   3.196  1.00  0.00     0.012 A 
ATOM     75  C   UNL     1       1.170  -7.357   4.073  1.00  0.00     0.148 A 
ATOM     76  C   UNL     1       0.372  -9.019   1.957  1.00  0.00     0.002 A 
ATOM     77  C   UNL     1       1.760  -7.230   2.821  1.00  0.00     0.091 A 
ATOM     78  F   UNL     1       1.549  -6.601   5.113  1.00  0.00    -0.205 F 
ATOM     79  C   UNL     1       1.375  -8.071   1.766  1.00  0.00     0.022 A 
BRANCH  77  80
ATOM     80  S   UNL     1       2.962  -5.947   2.450  1.00  0.00     0.127 S 
ATOM     81  O   UNL     1       4.193  -6.721   2.313  1.00  0.00    -0.237 OA
ATOM     82  O   UNL     1       2.438  -5.394   1.201  1.00  0.00    -0.237 OA
ATOM     83  O   UNL     1       2.914  -5.026   3.578  1.00  0.00    -0.744 OA
ENDBRANCH  77  80
ENDBRANCH  49  73
BRANCH  61  84
ATOM     84  C   UNL     1      -0.285 -13.393   9.031  1.00  0.00     0.023 A 
ATOM     85  C   UNL     1       1.091 -13.578   9.276  1.00  0.00     0.012 A 
ATOM     86  C   UNL     1      -1.125 -14.519   8.928  1.00  0.00     0.148 A 
ATOM     87  C   UNL     1       1.626 -14.861   9.384  1.00  0.00     0.002 A 
ATOM     88  C   UNL     1      -0.593 -15.794   9.085  1.00  0.00     0.091 A 
ATOM     89  F   UNL     1      -2.428 -14.325   8.677  1.00  0.00    -0.205 F 
ATOM     90  C   UNL     1       0.783 -15.967   9.301  1.00  0.00     0.022 A 
BRANCH  88  91
ATOM     91  S   UNL     1      -1.617 -17.271   9.088  1.00  0.00     0.127 S 
ATOM     92  O   UNL     1      -1.292 -17.861   7.790  1.00  0.00    -0.237 OA
ATOM     93  O   UNL     1      -1.097 -18.008  10.240  1.00  0.00    -0.237 OA
ATOM     94  O   UNL     1      -2.989 -16.806   9.238  1.00  0.00    -0.744 OA
ENDBRANCH  88  91
ENDBRANCH  61  84
ENDBRANCH  35  36
ENDBRANCH  28  30
ENDBRANCH  27  28
ENDBRANCH  26  27
ENDBRANCH  25  26
ENDBRANCH  24  25
ENDBRANCH   1  24
TORSDOF 21
