REMARK SMILES CC[C@@H](C)CN(CC)C(=O)Nc1c(Br)cccc1C(=O)OCCOCCOC(=O)c1ccc(-c2c3nc(c(-c4cccc(S(=O)(=O)[O-])c4F)c4ccc([nH]4)c(-c4cccc(S(=O)(=O)[O-])c4F)c4nc(c(-c5cccc(S(=O)(=O)[O-])c5F)c5ccc2[nH]5)C=C4)C=C3)cc1
REMARK SMILES IDX 23 1 22 2 21 3 19 4 20 5 18 6 12 7 13 8 14 9 15 10 17 11
REMARK SMILES IDX 16 12 11 13 9 14 10 15 6 17 5 18 3 19 4 20 2 21 1 22 7 23
REMARK SMILES IDX 8 24 24 25 25 26 26 27 27 28 28 29 29 30 30 31 31 32 92 33
REMARK SMILES IDX 32 34 91 35 33 36 34 37 35 38 85 39 36 40 90 41 84 42 86 43
REMARK SMILES IDX 37 44 89 45 83 46 82 47 38 49 70 50 50 51 69 52 51 53 54 54
REMARK SMILES IDX 68 55 87 56 52 57 53 58 67 60 88 61 55 62 39 63 40 64 48 65
REMARK SMILES IDX 41 66 43 67 49 68 42 69 44 70 45 71 46 72 47 73 71 74 72 75
REMARK SMILES IDX 80 76 73 77 75 78 81 79 74 80 76 81 77 82 78 83 79 84 56 85
REMARK SMILES IDX 57 86 65 87 58 88 60 89 66 90 59 91 61 92 62 93 63 94 64 95
REMARK H PARENT 11 16 86 48 54 59
REMARK Flexibility Score: inf
ROOT
ATOM      1  C   UNL     1       4.307   1.731   5.636  1.00  0.00     0.202 C 
ENDROOT
BRANCH   1   2
ATOM      2  C   UNL     1       3.082   2.491   6.149  1.00  0.00     0.261 C 
BRANCH   2   3
ATOM      3  O   UNL     1       2.618   3.474   5.205  1.00  0.00    -0.460 OA
BRANCH   3   4
ATOM      4  C   UNL     1       3.030   4.730   5.495  1.00  0.00     0.340 C 
ATOM      5  O   UNL     1       3.663   5.057   6.490  1.00  0.00    -0.246 OA
BRANCH   4   6
ATOM      6  C   UNL     1       2.711   5.727   4.440  1.00  0.00     0.084 A 
ATOM      7  C   UNL     1       1.639   5.675   3.537  1.00  0.00     0.071 A 
ATOM      8  C   UNL     1       1.158   6.904   3.069  1.00  0.00     0.042 A 
ATOM      9  Br  UNL     1      -0.690   7.138   2.646  1.00  0.00    -0.049 Br
ATOM     10  C   UNL     1       1.952   8.056   3.129  1.00  0.00     0.018 A 
ATOM     11  C   UNL     1       3.536   6.869   4.461  1.00  0.00     0.018 A 
ATOM     12  C   UNL     1       3.196   8.007   3.744  1.00  0.00     0.002 A 
BRANCH   7  13
ATOM     13  N   UNL     1       1.105   4.444   3.112  1.00  0.00    -0.306 N 
ATOM     14  C   UNL     1       0.465   4.056   1.970  1.00  0.00     0.321 C 
ATOM     15  O   UNL     1      -0.377   3.166   2.113  1.00  0.00    -0.248 OA
ATOM     16  H   UNL     1       1.215   3.718   3.768  1.00  0.00     0.171 HD
BRANCH  14  17
ATOM     17  N   UNL     1       0.839   4.506   0.709  1.00  0.00    -0.325 N 
BRANCH  17  18
ATOM     18  C   UNL     1       0.149   3.893  -0.450  1.00  0.00     0.124 C 
BRANCH  18  19
ATOM     19  C   UNL     1       0.783   2.565  -0.958  1.00  0.00     0.005 C 
ATOM     20  C   UNL     1       0.486   2.384  -2.454  1.00  0.00     0.009 C 
BRANCH  19  21
ATOM     21  C   UNL     1       0.279   1.368  -0.126  1.00  0.00     0.002 C 
ATOM     22  C   UNL     1       0.404   0.003  -0.779  1.00  0.00     0.004 C 
ENDBRANCH  19  21
ENDBRANCH  18  19
ENDBRANCH  17  18
BRANCH  17  23
ATOM     23  C   UNL     1       1.955   5.394   0.353  1.00  0.00     0.118 C 
ATOM     24  C   UNL     1       1.507   6.713  -0.283  1.00  0.00     0.027 C 
ENDBRANCH  17  23
ENDBRANCH  14  17
ENDBRANCH   7  13
ENDBRANCH   4   6
ENDBRANCH   3   4
ENDBRANCH   2   3
ENDBRANCH   1   2
BRANCH   1  25
ATOM     25  O   UNL     1       5.471   2.485   5.301  1.00  0.00    -0.374 OA
BRANCH  25  26
ATOM     26  C   UNL     1       5.486   3.156   4.042  1.00  0.00     0.202 C 
BRANCH  26  27
ATOM     27  C   UNL     1       5.690   2.317   2.774  1.00  0.00     0.261 C 
BRANCH  27  28
ATOM     28  O   UNL     1       4.646   1.357   2.558  1.00  0.00    -0.460 OA
BRANCH  28  29
ATOM     29  C   UNL     1       4.975   0.078   2.877  1.00  0.00     0.338 C 
ATOM     30  O   UNL     1       6.048  -0.328   3.280  1.00  0.00    -0.246 OA
BRANCH  29  31
ATOM     31  C   UNL     1       3.762  -0.758   2.826  1.00  0.00     0.060 A 
ATOM     32  C   UNL     1       3.347  -1.435   3.982  1.00  0.00     0.016 A 
ATOM     33  C   UNL     1       3.083  -0.927   1.626  1.00  0.00     0.016 A 
ATOM     34  C   UNL     1       2.250  -2.300   3.935  1.00  0.00     0.010 A 
ATOM     35  C   UNL     1       2.003  -1.809   1.586  1.00  0.00     0.010 A 
ATOM     36  C   UNL     1       1.580  -2.514   2.726  1.00  0.00    -0.014 A 
BRANCH  36  37
ATOM     37  C   UNL     1       0.523  -3.554   2.583  1.00  0.00     0.031 A 
ATOM     38  C   UNL     1       0.778  -4.732   1.674  1.00  0.00     0.074 A 
ATOM     39  C   UNL     1      -0.674  -3.425   3.190  1.00  0.00     0.049 A 
ATOM     40  N   UNL     1      -0.034  -5.687   1.304  1.00  0.00    -0.248 NA
ATOM     41  C   UNL     1       2.121  -4.825   1.073  1.00  0.00     0.031 C 
ATOM     42  C   UNL     1      -1.077  -2.312   4.050  1.00  0.00     0.029 A 
ATOM     43  N   UNL     1      -1.788  -4.230   3.147  1.00  0.00    -0.354 N 
ATOM     44  C   UNL     1       0.680  -6.459   0.393  1.00  0.00     0.074 A 
ATOM     45  C   UNL     1       1.975  -5.837   0.233  1.00  0.00     0.031 C 
ATOM     46  C   UNL     1      -2.346  -2.503   4.452  1.00  0.00     0.029 A 
ATOM     47  C   UNL     1      -2.859  -3.733   3.855  1.00  0.00     0.049 A 
ATOM     48  H   UNL     1      -1.816  -5.082   2.656  1.00  0.00     0.167 HD
ATOM     49  C   UNL     1       0.311  -7.604  -0.230  1.00  0.00     0.034 A 
ATOM     50  C   UNL     1      -4.113  -4.211   3.993  1.00  0.00     0.034 A 
ATOM     51  C   UNL     1      -0.951  -8.259  -0.025  1.00  0.00     0.049 A 
ATOM     52  C   UNL     1      -4.489  -5.504   3.310  1.00  0.00     0.074 A 
ATOM     53  C   UNL     1      -1.389  -9.461  -0.549  1.00  0.00     0.029 A 
ATOM     54  N   UNL     1      -1.974  -7.771   0.771  1.00  0.00    -0.354 N 
ATOM     55  N   UNL     1      -3.755  -6.288   2.558  1.00  0.00    -0.248 NA
ATOM     56  C   UNL     1      -5.859  -5.997   3.525  1.00  0.00     0.031 C 
ATOM     57  C   UNL     1      -2.687  -9.692  -0.084  1.00  0.00     0.029 A 
ATOM     58  C   UNL     1      -3.042  -8.649   0.756  1.00  0.00     0.049 A 
ATOM     59  H   UNL     1      -1.945  -6.925   1.273  1.00  0.00     0.167 HD
ATOM     60  C   UNL     1      -4.555  -7.385   2.253  1.00  0.00     0.074 A 
ATOM     61  C   UNL     1      -5.824  -7.174   2.916  1.00  0.00     0.031 C 
ATOM     62  C   UNL     1      -4.272  -8.464   1.482  1.00  0.00     0.034 A 
BRANCH  49  63
ATOM     63  C   UNL     1       1.314  -8.258  -1.146  1.00  0.00     0.023 A 
ATOM     64  C   UNL     1       2.467  -8.858  -0.598  1.00  0.00     0.012 A 
ATOM     65  C   UNL     1       1.091  -8.331  -2.534  1.00  0.00     0.148 A 
ATOM     66  C   UNL     1       3.401  -9.485  -1.420  1.00  0.00     0.002 A 
ATOM     67  C   UNL     1       2.001  -9.003  -3.342  1.00  0.00     0.091 A 
ATOM     68  F   UNL     1      -0.002  -7.742  -3.039  1.00  0.00    -0.205 F 
ATOM     69  C   UNL     1       3.163  -9.567  -2.788  1.00  0.00     0.022 A 
BRANCH  67  70
ATOM     70  S   UNL     1       1.749  -9.242  -5.104  1.00  0.00     0.127 S 
ATOM     71  O   UNL     1       2.826  -8.430  -5.669  1.00  0.00    -0.237 OA
ATOM     72  O   UNL     1       1.935 -10.686  -5.246  1.00  0.00    -0.237 OA
ATOM     73  O   UNL     1       0.402  -8.769  -5.388  1.00  0.00    -0.744 OA
ENDBRANCH  67  70
ENDBRANCH  49  63
BRANCH  50  74
ATOM     74  C   UNL     1      -5.106  -3.508   4.859  1.00  0.00     0.023 A 
ATOM     75  C   UNL     1      -5.539  -4.127   6.050  1.00  0.00     0.012 A 
ATOM     76  C   UNL     1      -5.647  -2.257   4.503  1.00  0.00     0.148 A 
ATOM     77  C   UNL     1      -6.526  -3.539   6.843  1.00  0.00     0.002 A 
ATOM     78  C   UNL     1      -6.590  -1.651   5.326  1.00  0.00     0.091 A 
ATOM     79  F   UNL     1      -5.235  -1.689   3.361  1.00  0.00    -0.205 F 
ATOM     80  C   UNL     1      -7.046  -2.300   6.485  1.00  0.00     0.022 A 
BRANCH  78  81
ATOM     81  S   UNL     1      -7.239  -0.007   5.010  1.00  0.00     0.127 S 
ATOM     82  O   UNL     1      -8.623  -0.297   4.643  1.00  0.00    -0.237 OA
ATOM     83  O   UNL     1      -7.071   0.638   6.313  1.00  0.00    -0.237 OA
ATOM     84  O   UNL     1      -6.407   0.547   3.952  1.00  0.00    -0.744 OA
ENDBRANCH  78  81
ENDBRANCH  50  74
BRANCH  62  85
ATOM     85  C   UNL     1      -5.317  -9.543   1.362  1.00  0.00     0.023 A 
ATOM     86  C   UNL     1      -6.486  -9.316   0.608  1.00  0.00     0.012 A 
ATOM     87  C   UNL     1      -5.097 -10.814   1.929  1.00  0.00     0.148 A 
ATOM     88  C   UNL     1      -7.434 -10.326   0.450  1.00  0.00     0.002 A 
ATOM     89  C   UNL     1      -6.020 -11.832   1.722  1.00  0.00     0.091 A 
ATOM     90  F   UNL     1      -3.986 -11.006   2.655  1.00  0.00    -0.205 F 
ATOM     91  C   UNL     1      -7.195 -11.586   0.995  1.00  0.00     0.022 A 
BRANCH  89  92
ATOM     92  S   UNL     1      -5.749 -13.512   2.298  1.00  0.00     0.127 S 
ATOM     93  O   UNL     1      -6.739 -13.623   3.368  1.00  0.00    -0.237 OA
ATOM     94  O   UNL     1      -6.051 -14.301   1.103  1.00  0.00    -0.237 OA
ATOM     95  O   UNL     1      -4.358 -13.572   2.727  1.00  0.00    -0.744 OA
ENDBRANCH  89  92
ENDBRANCH  62  85
ENDBRANCH  36  37
ENDBRANCH  29  31
ENDBRANCH  28  29
ENDBRANCH  27  28
ENDBRANCH  26  27
ENDBRANCH  25  26
ENDBRANCH   1  25
TORSDOF 23
