REMARK SMILES Cc1ccccc1[C@@H]1[NH2+][C@@H](C(=O)OCCOCCOC(=O)c2ccc(-c3c4nc(c(-c5cccc(S(=O)(=O)[O-])c5F)c5ccc([nH]5)c(-c5cccc(S(=O)(=O)[O-])c5F)c5nc(c(-c6cccc(S(=O)(=O)[O-])c6F)c6ccc3[nH]6)C=C5)C=C4)cc2)CC2=c3ccccc3=N[C@H]21
REMARK SMILES IDX 17 1 16 2 15 3 14 4 13 5 11 6 12 7 10 8 8 9 9 10 94 11 86 14
REMARK SMILES IDX 93 15 85 16 87 17 92 18 88 19 91 20 89 21 90 22 7 23 1 24
REMARK SMILES IDX 2 25 3 26 4 27 6 28 5 29 18 30 19 31 20 32 21 33 22 34 23 35
REMARK SMILES IDX 84 36 24 37 83 38 25 39 26 40 27 41 77 42 28 43 82 44 76 45
REMARK SMILES IDX 78 46 29 47 81 48 75 49 74 50 30 52 62 53 42 54 61 55 43 56
REMARK SMILES IDX 46 57 60 58 79 59 44 60 45 61 59 63 80 64 47 65 31 66 32 67
REMARK SMILES IDX 40 68 33 69 35 70 41 71 34 72 36 73 37 74 38 75 39 76 63 77
REMARK SMILES IDX 64 78 72 79 65 80 67 81 73 82 66 83 68 84 69 85 70 86 71 87
REMARK SMILES IDX 48 88 49 89 57 90 50 91 52 92 58 93 51 94 53 95 54 96 55 97
REMARK SMILES IDX 56 98
REMARK H PARENT 9 12 9 13 78 51 46 62
REMARK Flexibility Score: inf
ROOT
ATOM      1  C   UNL     1       0.218   5.651  -3.274  1.00  0.00     0.202 C 
ENDROOT
BRANCH   1   2
ATOM      2  O   UNL     1      -1.068   5.453  -2.715  1.00  0.00    -0.374 OA
BRANCH   2   3
ATOM      3  C   UNL     1      -1.485   6.435  -1.792  1.00  0.00     0.202 C 
BRANCH   3   4
ATOM      4  C   UNL     1      -2.737   5.951  -1.124  1.00  0.00     0.261 C 
BRANCH   4   5
ATOM      5  O   UNL     1      -2.878   4.521  -0.860  1.00  0.00    -0.459 OA
BRANCH   5   6
ATOM      6  C   UNL     1      -2.030   3.493  -1.092  1.00  0.00     0.365 C 
ATOM      7  O   UNL     1      -2.393   2.493  -1.704  1.00  0.00    -0.245 OA
BRANCH   6   8
ATOM      8  C   UNL     1      -0.688   3.580  -0.362  1.00  0.00     0.298 C 
ATOM      9  C   UNL     1       0.956   2.075   0.824  1.00  0.00     0.243 C 
ATOM     10  N   UNL     1      -0.106   2.215  -0.197  1.00  0.00    -0.326 N 
ATOM     11  C   UNL     1       0.868   2.979   2.103  1.00  0.00     0.196 C 
ATOM     12  H   UNL     1      -0.865   1.582   0.055  1.00  0.00     0.347 HD
ATOM     13  H   UNL     1       0.342   2.001  -1.088  1.00  0.00     0.347 HD
ATOM     14  C   UNL     1      -0.488   3.598   2.116  1.00  0.00    -0.024 C 
ATOM     15  N   UNL     1       0.915   2.161   3.354  1.00  0.00    -0.270 NA
ATOM     16  C   UNL     1      -0.838   4.408   0.934  1.00  0.00     0.111 C 
ATOM     17  C   UNL     1      -1.246   3.112   3.087  1.00  0.00     0.002 A 
ATOM     18  C   UNL     1      -0.297   2.255   3.811  1.00  0.00     0.066 A 
ATOM     19  C   UNL     1      -2.635   3.153   3.401  1.00  0.00     0.010 A 
ATOM     20  C   UNL     1      -0.830   1.557   4.995  1.00  0.00     0.028 A 
ATOM     21  C   UNL     1      -3.067   2.420   4.439  1.00  0.00     0.001 A 
ATOM     22  C   UNL     1      -2.145   1.647   5.259  1.00  0.00     0.002 A 
BRANCH   9  23
ATOM     23  C   UNL     1       2.356   2.003   0.213  1.00  0.00     0.015 A 
ATOM     24  C   UNL     1       2.776   4.538  -0.089  1.00  0.00     0.045 C 
ATOM     25  C   UNL     1       3.200   3.098  -0.071  1.00  0.00    -0.042 A 
ATOM     26  C   UNL     1       4.562   2.855  -0.330  1.00  0.00     0.004 A 
ATOM     27  C   UNL     1       5.067   1.561  -0.413  1.00  0.00     0.000 A 
ATOM     28  C   UNL     1       2.866   0.701   0.004  1.00  0.00     0.010 A 
ATOM     29  C   UNL     1       4.207   0.481  -0.297  1.00  0.00     0.001 A 
ENDBRANCH   9  23
ENDBRANCH   6   8
ENDBRANCH   5   6
ENDBRANCH   4   5
ENDBRANCH   3   4
ENDBRANCH   2   3
ENDBRANCH   1   2
BRANCH   1  30
ATOM     30  C   UNL     1       0.306   6.912  -4.132  1.00  0.00     0.261 C 
BRANCH  30  31
ATOM     31  O   UNL     1      -0.544   6.764  -5.283  1.00  0.00    -0.460 OA
BRANCH  31  32
ATOM     32  C   UNL     1      -1.709   7.459  -5.210  1.00  0.00     0.338 C 
ATOM     33  O   UNL     1      -1.766   8.678  -5.032  1.00  0.00    -0.246 OA
BRANCH  32  34
ATOM     34  C   UNL     1      -2.861   6.527  -5.112  1.00  0.00     0.060 A 
ATOM     35  C   UNL     1      -4.123   7.019  -4.745  1.00  0.00     0.016 A 
ATOM     36  C   UNL     1      -2.618   5.151  -5.093  1.00  0.00     0.016 A 
ATOM     37  C   UNL     1      -5.082   6.156  -4.210  1.00  0.00     0.010 A 
ATOM     38  C   UNL     1      -3.524   4.322  -4.463  1.00  0.00     0.010 A 
ATOM     39  C   UNL     1      -4.743   4.830  -3.988  1.00  0.00    -0.014 A 
BRANCH  39  40
ATOM     40  C   UNL     1      -5.617   3.842  -3.373  1.00  0.00     0.031 A 
ATOM     41  C   UNL     1      -6.241   2.862  -4.269  1.00  0.00     0.074 A 
ATOM     42  C   UNL     1      -5.595   3.626  -2.040  1.00  0.00     0.049 A 
ATOM     43  N   UNL     1      -7.067   1.966  -3.865  1.00  0.00    -0.248 NA
ATOM     44  C   UNL     1      -6.043   2.851  -5.721  1.00  0.00     0.031 C 
ATOM     45  C   UNL     1      -5.662   2.347  -1.336  1.00  0.00     0.029 A 
ATOM     46  N   UNL     1      -5.401   4.542  -1.011  1.00  0.00    -0.354 N 
ATOM     47  C   UNL     1      -7.147   1.048  -4.879  1.00  0.00     0.074 A 
ATOM     48  C   UNL     1      -6.711   1.744  -6.058  1.00  0.00     0.031 C 
ATOM     49  C   UNL     1      -5.717   2.567  -0.009  1.00  0.00     0.029 A 
ATOM     50  C   UNL     1      -5.876   3.998   0.187  1.00  0.00     0.049 A 
ATOM     51  H   UNL     1      -4.994   5.433  -1.110  1.00  0.00     0.167 HD
ATOM     52  C   UNL     1      -7.363  -0.249  -4.541  1.00  0.00     0.034 A 
ATOM     53  C   UNL     1      -6.832   4.650   0.904  1.00  0.00     0.034 A 
ATOM     54  C   UNL     1      -7.701  -0.368  -3.106  1.00  0.00     0.049 A 
ATOM     55  C   UNL     1      -8.090   3.826   0.893  1.00  0.00     0.074 A 
ATOM     56  C   UNL     1      -7.043  -0.892  -2.007  1.00  0.00     0.029 A 
ATOM     57  N   UNL     1      -8.761   0.386  -2.591  1.00  0.00    -0.354 N 
ATOM     58  N   UNL     1      -8.218   2.770   0.141  1.00  0.00    -0.248 NA
ATOM     59  C   UNL     1      -9.261   4.041   1.730  1.00  0.00     0.031 C 
ATOM     60  C   UNL     1      -7.669  -0.375  -0.830  1.00  0.00     0.029 A 
ATOM     61  C   UNL     1      -8.741   0.423  -1.204  1.00  0.00     0.049 A 
ATOM     62  H   UNL     1      -9.439   0.836  -3.146  1.00  0.00     0.167 HD
ATOM     63  C   UNL     1      -9.426   2.189   0.310  1.00  0.00     0.074 A 
ATOM     64  C   UNL     1     -10.037   3.004   1.355  1.00  0.00     0.031 C 
ATOM     65  C   UNL     1      -9.800   1.126  -0.464  1.00  0.00     0.034 A 
BRANCH  52  66
ATOM     66  C   UNL     1      -7.094  -1.435  -5.450  1.00  0.00     0.023 A 
ATOM     67  C   UNL     1      -7.519  -2.696  -4.982  1.00  0.00     0.012 A 
ATOM     68  C   UNL     1      -6.409  -1.435  -6.696  1.00  0.00     0.148 A 
ATOM     69  C   UNL     1      -7.299  -3.876  -5.703  1.00  0.00     0.002 A 
ATOM     70  C   UNL     1      -6.266  -2.600  -7.456  1.00  0.00     0.091 A 
ATOM     71  F   UNL     1      -5.790  -0.333  -7.129  1.00  0.00    -0.205 F 
ATOM     72  C   UNL     1      -6.698  -3.827  -6.952  1.00  0.00     0.022 A 
BRANCH  70  73
ATOM     73  S   UNL     1      -5.566  -2.601  -9.121  1.00  0.00     0.127 S 
ATOM     74  O   UNL     1      -4.326  -3.356  -8.937  1.00  0.00    -0.237 OA
ATOM     75  O   UNL     1      -6.593  -3.303  -9.892  1.00  0.00    -0.237 OA
ATOM     76  O   UNL     1      -5.389  -1.203  -9.495  1.00  0.00    -0.744 OA
ENDBRANCH  70  73
ENDBRANCH  52  66
BRANCH  53  77
ATOM     77  C   UNL     1      -6.672   6.140   0.829  1.00  0.00     0.023 A 
ATOM     78  C   UNL     1      -5.547   6.690   1.502  1.00  0.00     0.012 A 
ATOM     79  C   UNL     1      -7.248   6.879  -0.221  1.00  0.00     0.148 A 
ATOM     80  C   UNL     1      -4.937   7.868   1.057  1.00  0.00     0.002 A 
ATOM     81  C   UNL     1      -6.605   8.029  -0.688  1.00  0.00     0.091 A 
ATOM     82  F   UNL     1      -8.364   6.412  -0.793  1.00  0.00    -0.205 F 
ATOM     83  C   UNL     1      -5.435   8.506  -0.072  1.00  0.00     0.022 A 
BRANCH  81  84
ATOM     84  S   UNL     1      -7.120   8.863  -2.197  1.00  0.00     0.127 S 
ATOM     85  O   UNL     1      -7.859  10.005  -1.664  1.00  0.00    -0.237 OA
ATOM     86  O   UNL     1      -5.837   9.204  -2.816  1.00  0.00    -0.237 OA
ATOM     87  O   UNL     1      -7.902   7.885  -2.936  1.00  0.00    -0.744 OA
ENDBRANCH  81  84
ENDBRANCH  53  77
BRANCH  65  88
ATOM     88  C   UNL     1     -11.227   0.657  -0.611  1.00  0.00     0.023 A 
ATOM     89  C   UNL     1     -12.321   1.454  -0.224  1.00  0.00     0.012 A 
ATOM     90  C   UNL     1     -11.524  -0.536  -1.315  1.00  0.00     0.148 A 
ATOM     91  C   UNL     1     -13.640   1.064  -0.457  1.00  0.00     0.002 A 
ATOM     92  C   UNL     1     -12.829  -0.845  -1.672  1.00  0.00     0.091 A 
ATOM     93  F   UNL     1     -10.546  -1.395  -1.633  1.00  0.00    -0.205 F 
ATOM     94  C   UNL     1     -13.894  -0.070  -1.210  1.00  0.00     0.022 A 
BRANCH  92  95
ATOM     95  S   UNL     1     -13.183  -2.130  -2.875  1.00  0.00     0.127 S 
ATOM     96  O   UNL     1     -13.621  -3.228  -2.017  1.00  0.00    -0.237 OA
ATOM     97  O   UNL     1     -14.246  -1.515  -3.673  1.00  0.00    -0.237 OA
ATOM     98  O   UNL     1     -11.938  -2.342  -3.601  1.00  0.00    -0.744 OA
ENDBRANCH  92  95
ENDBRANCH  65  88
ENDBRANCH  39  40
ENDBRANCH  32  34
ENDBRANCH  31  32
ENDBRANCH  30  31
ENDBRANCH   1  30
TORSDOF 18
