REMARK SMILES CN1C(=O)/C(=N\Nc2cccc(C(=O)OCCOCCOC(=O)c3ccc(-c4c5nc(c(-c6cccc(S(=O)(=O)[O-])c6F)c6ccc([nH]6)c(-c6cccc(S(=O)(=O)[O-])c6F)c6nc(c(-c7cccc(S(=O)(=O)[O-])c7F)c7ccc4[nH]7)C=C6)C=C5)cc3)c2)c2ccccc21
REMARK SMILES IDX 19 1 18 2 17 3 16 4 15 5 13 6 14 7 12 8 8 9 9 10 87 11 10 12
REMARK SMILES IDX 11 13 7 14 6 16 1 17 2 18 3 19 93 20 4 21 5 22 88 23 92 24
REMARK SMILES IDX 89 25 91 26 90 27 20 28 21 29 22 30 23 31 24 32 25 33 86 34
REMARK SMILES IDX 26 35 85 36 27 37 28 38 29 39 79 40 30 41 84 42 78 43 80 44
REMARK SMILES IDX 31 45 83 46 77 47 76 48 32 50 64 51 44 52 63 53 45 54 48 55
REMARK SMILES IDX 62 56 81 57 46 58 47 59 61 61 82 62 49 63 33 64 34 65 42 66
REMARK SMILES IDX 35 67 37 68 43 69 36 70 38 71 39 72 40 73 41 74 65 75 66 76
REMARK SMILES IDX 74 77 67 78 69 79 75 80 68 81 70 82 71 83 72 84 73 85 50 86
REMARK SMILES IDX 51 87 59 88 52 89 54 90 60 91 53 92 55 93 56 94 57 95 58 96
REMARK H PARENT 7 15 80 49 48 60
REMARK Flexibility Score: inf
ROOT
ATOM      1  C   UNL     1      -5.835   1.144  -3.995  1.00  0.00     0.202 C 
ENDROOT
BRANCH   1   2
ATOM      2  O   UNL     1      -5.397   2.467  -4.316  1.00  0.00    -0.374 OA
BRANCH   2   3
ATOM      3  C   UNL     1      -3.979   2.665  -4.263  1.00  0.00     0.202 C 
BRANCH   3   4
ATOM      4  C   UNL     1      -3.495   3.089  -2.874  1.00  0.00     0.261 C 
BRANCH   4   5
ATOM      5  O   UNL     1      -3.484   1.948  -1.996  1.00  0.00    -0.460 OA
BRANCH   5   6
ATOM      6  C   UNL     1      -4.465   1.903  -1.064  1.00  0.00     0.338 C 
ATOM      7  O   UNL     1      -5.259   2.792  -0.801  1.00  0.00    -0.246 OA
BRANCH   6   8
ATOM      8  C   UNL     1      -4.534   0.549  -0.456  1.00  0.00     0.062 A 
ATOM      9  C   UNL     1      -3.508  -1.548   0.237  1.00  0.00     0.057 A 
ATOM     10  C   UNL     1      -4.715  -1.885   0.875  1.00  0.00     0.028 A 
ATOM     11  C   UNL     1      -3.456  -0.348  -0.485  1.00  0.00     0.043 A 
ATOM     12  C   UNL     1      -5.819  -1.032   0.841  1.00  0.00     0.003 A 
ATOM     13  C   UNL     1      -5.719   0.197   0.200  1.00  0.00     0.016 A 
BRANCH   9  14
ATOM     14  N   UNL     1      -2.379  -2.351   0.511  1.00  0.00    -0.278 N 
ATOM     15  H   UNL     1      -2.535  -3.183   1.014  1.00  0.00     0.190 HD
BRANCH  14  16
ATOM     16  N   UNL     1      -1.103  -2.085   0.147  1.00  0.00    -0.169 NA
ATOM     17  C   UNL     1      -0.442   2.648   1.275  1.00  0.00     0.153 C 
ATOM     18  N   UNL     1      -0.207   1.265   0.969  1.00  0.00    -0.309 N 
ATOM     19  C   UNL     1      -1.050   0.222   1.321  1.00  0.00     0.279 C 
ATOM     20  C   UNL     1       0.922   0.783   0.290  1.00  0.00     0.053 A 
ATOM     21  O   UNL     1      -1.980   0.239   2.091  1.00  0.00    -0.267 OA
ATOM     22  C   UNL     1      -0.519  -0.985   0.517  1.00  0.00     0.158 C 
ATOM     23  C   UNL     1       0.812  -0.589   0.059  1.00  0.00     0.031 A 
ATOM     24  C   UNL     1       2.050   1.475  -0.102  1.00  0.00     0.027 A 
ATOM     25  C   UNL     1       1.810  -1.329  -0.543  1.00  0.00     0.013 A 
ATOM     26  C   UNL     1       3.083   0.745  -0.700  1.00  0.00     0.002 A 
ATOM     27  C   UNL     1       2.969  -0.643  -0.911  1.00  0.00     0.001 A 
ENDBRANCH  14  16
ENDBRANCH   9  14
ENDBRANCH   6   8
ENDBRANCH   5   6
ENDBRANCH   4   5
ENDBRANCH   3   4
ENDBRANCH   2   3
ENDBRANCH   1   2
BRANCH   1  28
ATOM     28  C   UNL     1      -6.031   0.270  -5.234  1.00  0.00     0.261 C 
BRANCH  28  29
ATOM     29  O   UNL     1      -4.752  -0.048  -5.809  1.00  0.00    -0.460 OA
BRANCH  29  30
ATOM     30  C   UNL     1      -4.445   0.624  -6.943  1.00  0.00     0.338 C 
ATOM     31  O   UNL     1      -5.193   1.335  -7.594  1.00  0.00    -0.246 OA
BRANCH  30  32
ATOM     32  C   UNL     1      -3.001   0.482  -7.244  1.00  0.00     0.060 A 
ATOM     33  C   UNL     1      -2.390   1.522  -7.955  1.00  0.00     0.016 A 
ATOM     34  C   UNL     1      -2.251  -0.637  -6.859  1.00  0.00     0.016 A 
ATOM     35  C   UNL     1      -1.051   1.426  -8.325  1.00  0.00     0.010 A 
ATOM     36  C   UNL     1      -0.905  -0.734  -7.234  1.00  0.00     0.010 A 
ATOM     37  C   UNL     1      -0.312   0.282  -7.997  1.00  0.00    -0.014 A 
BRANCH  37  38
ATOM     38  C   UNL     1       1.040   0.119  -8.575  1.00  0.00     0.031 A 
ATOM     39  C   UNL     1       1.183  -0.548  -9.912  1.00  0.00     0.074 A 
ATOM     40  C   UNL     1       2.123   0.605  -7.944  1.00  0.00     0.049 A 
ATOM     41  N   UNL     1       2.234  -0.621 -10.687  1.00  0.00    -0.248 NA
ATOM     42  C   UNL     1      -0.016  -1.208 -10.454  1.00  0.00     0.031 C 
ATOM     43  C   UNL     1       2.120   1.247  -6.632  1.00  0.00     0.029 A 
ATOM     44  N   UNL     1       3.439   0.630  -8.332  1.00  0.00    -0.354 N 
ATOM     45  C   UNL     1       1.819  -1.315 -11.815  1.00  0.00     0.074 A 
ATOM     46  C   UNL     1       0.432  -1.674 -11.611  1.00  0.00     0.031 C 
ATOM     47  C   UNL     1       3.379   1.599  -6.319  1.00  0.00     0.029 A 
ATOM     48  C   UNL     1       4.273   1.216  -7.412  1.00  0.00     0.049 A 
ATOM     49  H   UNL     1       3.756   0.263  -9.189  1.00  0.00     0.167 HD
ATOM     50  C   UNL     1       2.519  -1.592 -12.939  1.00  0.00     0.034 A 
ATOM     51  C   UNL     1       5.603   1.435  -7.456  1.00  0.00     0.034 A 
ATOM     52  C   UNL     1       3.890  -1.222 -13.152  1.00  0.00     0.049 A 
ATOM     53  C   UNL     1       6.372   1.067  -8.697  1.00  0.00     0.074 A 
ATOM     54  C   UNL     1       4.658  -1.373 -14.293  1.00  0.00     0.029 A 
ATOM     55  N   UNL     1       4.705  -0.646 -12.192  1.00  0.00    -0.354 N 
ATOM     56  N   UNL     1       5.922   0.600  -9.837  1.00  0.00    -0.248 NA
ATOM     57  C   UNL     1       7.826   1.288  -8.671  1.00  0.00     0.031 C 
ATOM     58  C   UNL     1       5.945  -0.895 -14.017  1.00  0.00     0.029 A 
ATOM     59  C   UNL     1       5.978  -0.461 -12.701  1.00  0.00     0.049 A 
ATOM     60  H   UNL     1       4.421  -0.404 -11.281  1.00  0.00     0.167 HD
ATOM     61  C   UNL     1       7.029   0.499 -10.672  1.00  0.00     0.074 A 
ATOM     62  C   UNL     1       8.171   0.964  -9.912  1.00  0.00     0.031 C 
ATOM     63  C   UNL     1       7.096   0.049 -11.950  1.00  0.00     0.034 A 
BRANCH  50  64
ATOM     64  C   UNL     1       1.774  -2.258 -14.058  1.00  0.00     0.023 A 
ATOM     65  C   UNL     1       1.006  -1.458 -14.927  1.00  0.00     0.012 A 
ATOM     66  C   UNL     1       1.841  -3.646 -14.268  1.00  0.00     0.148 A 
ATOM     67  C   UNL     1       0.304  -2.034 -15.985  1.00  0.00     0.002 A 
ATOM     68  C   UNL     1       1.151  -4.210 -15.336  1.00  0.00     0.091 A 
ATOM     69  F   UNL     1       2.542  -4.398 -13.408  1.00  0.00    -0.205 F 
ATOM     70  C   UNL     1       0.383  -3.409 -16.195  1.00  0.00     0.022 A 
BRANCH  68  71
ATOM     71  S   UNL     1       1.245  -5.974 -15.658  1.00  0.00     0.127 S 
ATOM     72  O   UNL     1       0.221  -6.501 -14.760  1.00  0.00    -0.237 OA
ATOM     73  O   UNL     1       0.910  -6.067 -17.081  1.00  0.00    -0.237 OA
ATOM     74  O   UNL     1       2.623  -6.332 -15.347  1.00  0.00    -0.744 OA
ENDBRANCH  68  71
ENDBRANCH  50  64
BRANCH  51  75
ATOM     75  C   UNL     1       6.271   2.113  -6.312  1.00  0.00     0.023 A 
ATOM     76  C   UNL     1       6.713   3.441  -6.461  1.00  0.00     0.012 A 
ATOM     77  C   UNL     1       6.421   1.472  -5.068  1.00  0.00     0.148 A 
ATOM     78  C   UNL     1       7.302   4.117  -5.392  1.00  0.00     0.002 A 
ATOM     79  C   UNL     1       6.964   2.166  -3.993  1.00  0.00     0.091 A 
ATOM     80  F   UNL     1       6.014   0.200  -4.955  1.00  0.00    -0.205 F 
ATOM     81  C   UNL     1       7.416   3.485  -4.156  1.00  0.00     0.022 A 
BRANCH  79  82
ATOM     82  S   UNL     1       7.025   1.472  -2.338  1.00  0.00     0.127 S 
ATOM     83  O   UNL     1       8.451   1.214  -2.170  1.00  0.00    -0.237 OA
ATOM     84  O   UNL     1       6.492   2.568  -1.528  1.00  0.00    -0.237 OA
ATOM     85  O   UNL     1       6.166   0.295  -2.373  1.00  0.00    -0.744 OA
ENDBRANCH  79  82
ENDBRANCH  51  75
BRANCH  63  86
ATOM     86  C   UNL     1       8.445   0.019 -12.611  1.00  0.00     0.023 A 
ATOM     87  C   UNL     1       9.323  -1.043 -12.322  1.00  0.00     0.012 A 
ATOM     88  C   UNL     1       8.811   0.976 -13.576  1.00  0.00     0.148 A 
ATOM     89  C   UNL     1      10.551  -1.145 -12.975  1.00  0.00     0.002 A 
ATOM     90  C   UNL     1      10.025   0.850 -14.245  1.00  0.00     0.091 A 
ATOM     91  F   UNL     1       7.975   1.995 -13.828  1.00  0.00    -0.205 F 
ATOM     92  C   UNL     1      10.898  -0.206 -13.944  1.00  0.00     0.022 A 
BRANCH  90  93
ATOM     93  S   UNL     1      10.472   1.998 -15.553  1.00  0.00     0.127 S 
ATOM     94  O   UNL     1      11.040   3.114 -14.802  1.00  0.00    -0.237 OA
ATOM     95  O   UNL     1      11.445   1.239 -16.341  1.00  0.00    -0.237 OA
ATOM     96  O   UNL     1       9.220   2.261 -16.253  1.00  0.00    -0.744 OA
ENDBRANCH  90  93
ENDBRANCH  63  86
ENDBRANCH  37  38
ENDBRANCH  30  32
ENDBRANCH  29  30
ENDBRANCH  28  29
ENDBRANCH   1  28
TORSDOF 19
