REMARK SMILES O=C(Cn1cccc1C(=O)OCCOCCOC(=O)c1ccc(-c2c3nc(c(-c4cccc(S(=O)(=O)[O-])c4F)c4ccc([nH]4)c(-c4cccc(S(=O)(=O)[O-])c4F)c4nc(c(-c5cccc(S(=O)(=O)[O-])c5F)c5ccc2[nH]5)C=C4)C=C3)cc1)NCC1CCCC1
REMARK SMILES IDX 13 1 12 2 11 3 9 4 10 5 8 6 4 7 5 8 6 9 7 10 3 11 2 12 1 13
REMARK SMILES IDX 83 14 84 16 85 17 86 18 89 19 87 20 88 21 14 22 15 23 16 24
REMARK SMILES IDX 17 25 18 26 19 27 20 28 21 29 82 30 22 31 81 32 23 33 24 34
REMARK SMILES IDX 25 35 75 36 26 37 80 38 74 39 76 40 27 41 79 42 73 43 72 44
REMARK SMILES IDX 28 46 60 47 40 48 59 49 41 50 44 51 58 52 77 53 42 54 43 55
REMARK SMILES IDX 57 57 78 58 45 59 29 60 30 61 38 62 31 63 33 64 39 65 32 66
REMARK SMILES IDX 34 67 35 68 36 69 37 70 61 71 62 72 70 73 63 74 65 75 71 76
REMARK SMILES IDX 64 77 66 78 67 79 68 80 69 81 46 82 47 83 55 84 48 85 50 86
REMARK SMILES IDX 56 87 49 88 51 89 52 90 53 91 54 92
REMARK H PARENT 83 15 76 45 44 56
REMARK Flexibility Score: inf
ROOT
ATOM      1  C   UNL     1       3.192  -4.240   0.494  1.00  0.00     0.202 C 
ENDROOT
BRANCH   1   2
ATOM      2  C   UNL     1       2.109  -3.521   1.323  1.00  0.00     0.261 C 
BRANCH   2   3
ATOM      3  O   UNL     1       2.420  -2.114   1.448  1.00  0.00    -0.459 OA
BRANCH   3   4
ATOM      4  C   UNL     1       2.688  -1.664   2.696  1.00  0.00     0.355 C 
ATOM      5  O   UNL     1       2.432  -2.297   3.718  1.00  0.00    -0.244 OA
BRANCH   4   6
ATOM      6  C   UNL     1       3.557  -0.489   2.682  1.00  0.00     0.128 A 
ATOM      7  N   UNL     1       3.653   0.633   1.868  1.00  0.00    -0.333 N 
ATOM      8  C   UNL     1       4.639   1.470   2.385  1.00  0.00     0.087 A 
ATOM      9  C   UNL     1       5.256   0.852   3.437  1.00  0.00     0.020 A 
ATOM     10  C   UNL     1       4.587  -0.366   3.619  1.00  0.00     0.035 A 
BRANCH   7  11
ATOM     11  C   UNL     1       2.941   1.109   0.674  1.00  0.00     0.222 C 
BRANCH  11  12
ATOM     12  C   UNL     1       1.938   0.207   0.025  1.00  0.00     0.239 C 
ATOM     13  O   UNL     1       0.801   0.081   0.477  1.00  0.00    -0.273 OA
ATOM     14  N   UNL     1       2.391  -0.462  -1.102  1.00  0.00    -0.354 N 
ATOM     15  H   UNL     1       3.224  -0.186  -1.549  1.00  0.00     0.163 HD
BRANCH  14  16
ATOM     16  C   UNL     1       1.620  -1.571  -1.605  1.00  0.00     0.119 C 
BRANCH  16  17
ATOM     17  C   UNL     1       1.956  -2.038  -3.008  1.00  0.00     0.008 C 
ATOM     18  C   UNL     1       1.621  -3.528  -3.167  1.00  0.00     0.005 C 
ATOM     19  C   UNL     1       1.103  -1.375  -4.079  1.00  0.00     0.005 C 
ATOM     20  C   UNL     1       1.290  -3.733  -4.638  1.00  0.00     0.000 C 
ATOM     21  C   UNL     1       1.193  -2.340  -5.252  1.00  0.00     0.000 C 
ENDBRANCH  16  17
ENDBRANCH  14  16
ENDBRANCH  11  12
ENDBRANCH   7  11
ENDBRANCH   4   6
ENDBRANCH   3   4
ENDBRANCH   2   3
ENDBRANCH   1   2
BRANCH   1  22
ATOM     22  O   UNL     1       4.480  -4.251   1.115  1.00  0.00    -0.374 OA
BRANCH  22  23
ATOM     23  C   UNL     1       5.199  -3.020   1.041  1.00  0.00     0.202 C 
BRANCH  23  24
ATOM     24  C   UNL     1       6.241  -2.951  -0.058  1.00  0.00     0.261 C 
BRANCH  24  25
ATOM     25  O   UNL     1       5.674  -2.423  -1.263  1.00  0.00    -0.460 OA
BRANCH  25  26
ATOM     26  C   UNL     1       5.404  -3.346  -2.205  1.00  0.00     0.338 C 
ATOM     27  O   UNL     1       5.146  -4.527  -2.018  1.00  0.00    -0.246 OA
BRANCH  26  28
ATOM     28  C   UNL     1       5.605  -2.753  -3.536  1.00  0.00     0.060 A 
ATOM     29  C   UNL     1       5.277  -3.547  -4.639  1.00  0.00     0.016 A 
ATOM     30  C   UNL     1       6.230  -1.505  -3.695  1.00  0.00     0.016 A 
ATOM     31  C   UNL     1       5.645  -3.128  -5.901  1.00  0.00     0.010 A 
ATOM     32  C   UNL     1       6.634  -1.105  -4.955  1.00  0.00     0.010 A 
ATOM     33  C   UNL     1       6.358  -1.930  -6.044  1.00  0.00    -0.014 A 
BRANCH  33  34
ATOM     34  C   UNL     1       6.740  -1.534  -7.407  1.00  0.00     0.031 A 
ATOM     35  C   UNL     1       5.585  -0.685  -8.033  1.00  0.00     0.074 A 
ATOM     36  C   UNL     1       7.925  -2.103  -7.832  1.00  0.00     0.049 A 
ATOM     37  N   UNL     1       5.099  -0.703  -9.237  1.00  0.00    -0.248 NA
ATOM     38  C   UNL     1       4.751   0.217  -7.176  1.00  0.00     0.031 C 
ATOM     39  C   UNL     1       8.885  -2.848  -6.965  1.00  0.00     0.029 A 
ATOM     40  N   UNL     1       8.586  -2.201  -9.040  1.00  0.00    -0.354 N 
ATOM     41  C   UNL     1       4.158   0.360  -9.350  1.00  0.00     0.074 A 
ATOM     42  C   UNL     1       3.870   0.775  -8.017  1.00  0.00     0.031 C 
ATOM     43  C   UNL     1       9.884  -3.412  -7.688  1.00  0.00     0.029 A 
ATOM     44  C   UNL     1       9.715  -3.078  -9.088  1.00  0.00     0.049 A 
ATOM     45  H   UNL     1       8.294  -1.692  -9.830  1.00  0.00     0.167 HD
ATOM     46  C   UNL     1       3.833   0.923 -10.557  1.00  0.00     0.034 A 
ATOM     47  C   UNL     1      10.411  -3.527 -10.191  1.00  0.00     0.034 A 
ATOM     48  C   UNL     1       4.603   0.270 -11.565  1.00  0.00     0.049 A 
ATOM     49  C   UNL     1       9.845  -2.754 -11.304  1.00  0.00     0.074 A 
ATOM     50  C   UNL     1       4.513  -0.983 -12.110  1.00  0.00     0.029 A 
ATOM     51  N   UNL     1       5.864   0.787 -11.755  1.00  0.00    -0.354 N 
ATOM     52  N   UNL     1      10.017  -1.475 -11.469  1.00  0.00    -0.248 NA
ATOM     53  C   UNL     1       8.858  -3.402 -12.174  1.00  0.00     0.031 C 
ATOM     54  C   UNL     1       5.860  -1.389 -12.108  1.00  0.00     0.029 A 
ATOM     55  C   UNL     1       6.701  -0.280 -11.934  1.00  0.00     0.049 A 
ATOM     56  H   UNL     1       6.115   1.739 -11.760  1.00  0.00     0.167 HD
ATOM     57  C   UNL     1       8.889  -1.128 -12.168  1.00  0.00     0.074 A 
ATOM     58  C   UNL     1       8.435  -2.332 -12.839  1.00  0.00     0.031 C 
ATOM     59  C   UNL     1       8.114  -0.093 -11.739  1.00  0.00     0.034 A 
BRANCH  46  60
ATOM     60  C   UNL     1       3.119   2.168 -11.042  1.00  0.00     0.023 A 
ATOM     61  C   UNL     1       2.783   2.158 -12.432  1.00  0.00     0.012 A 
ATOM     62  C   UNL     1       3.099   3.408 -10.388  1.00  0.00     0.148 A 
ATOM     63  C   UNL     1       2.622   3.322 -13.178  1.00  0.00     0.002 A 
ATOM     64  C   UNL     1       2.876   4.576 -11.133  1.00  0.00     0.091 A 
ATOM     65  F   UNL     1       3.370   3.458  -9.079  1.00  0.00    -0.205 F 
ATOM     66  C   UNL     1       2.692   4.537 -12.527  1.00  0.00     0.022 A 
BRANCH  64  67
ATOM     67  S   UNL     1       2.838   6.223 -10.414  1.00  0.00     0.127 S 
ATOM     68  O   UNL     1       4.040   6.830 -10.980  1.00  0.00    -0.237 OA
ATOM     69  O   UNL     1       1.582   6.752 -10.952  1.00  0.00    -0.237 OA
ATOM     70  O   UNL     1       2.835   6.025  -8.972  1.00  0.00    -0.744 OA
ENDBRANCH  64  67
ENDBRANCH  46  60
BRANCH  47  71
ATOM     71  C   UNL     1      11.410  -4.622 -10.565  1.00  0.00     0.023 A 
ATOM     72  C   UNL     1      12.202  -5.327  -9.649  1.00  0.00     0.012 A 
ATOM     73  C   UNL     1      11.517  -5.066 -11.928  1.00  0.00     0.148 A 
ATOM     74  C   UNL     1      12.952  -6.462 -10.046  1.00  0.00     0.002 A 
ATOM     75  C   UNL     1      12.144  -6.257 -12.291  1.00  0.00     0.091 A 
ATOM     76  F   UNL     1      11.039  -4.300 -12.915  1.00  0.00    -0.205 F 
ATOM     77  C   UNL     1      12.880  -6.960 -11.348  1.00  0.00     0.022 A 
BRANCH  75  78
ATOM     78  S   UNL     1      11.908  -7.012 -13.919  1.00  0.00     0.127 S 
ATOM     79  O   UNL     1      13.281  -7.263 -14.354  1.00  0.00    -0.237 OA
ATOM     80  O   UNL     1      11.146  -8.213 -13.575  1.00  0.00    -0.237 OA
ATOM     81  O   UNL     1      11.176  -6.040 -14.720  1.00  0.00    -0.744 OA
ENDBRANCH  75  78
ENDBRANCH  47  71
BRANCH  59  82
ATOM     82  C   UNL     1       8.811   0.965 -10.865  1.00  0.00     0.023 A 
ATOM     83  C   UNL     1       9.975   1.557 -11.395  1.00  0.00     0.012 A 
ATOM     84  C   UNL     1       8.457   1.349  -9.544  1.00  0.00     0.148 A 
ATOM     85  C   UNL     1      10.758   2.455 -10.660  1.00  0.00     0.002 A 
ATOM     86  C   UNL     1       9.258   2.224  -8.791  1.00  0.00     0.091 A 
ATOM     87  F   UNL     1       7.332   0.875  -9.017  1.00  0.00    -0.205 F 
ATOM     88  C   UNL     1      10.405   2.784  -9.358  1.00  0.00     0.022 A 
BRANCH  86  89
ATOM     89  S   UNL     1       8.957   2.638  -7.053  1.00  0.00     0.127 S 
ATOM     90  O   UNL     1      10.261   2.383  -6.435  1.00  0.00    -0.237 OA
ATOM     91  O   UNL     1       8.599   4.052  -7.124  1.00  0.00    -0.237 OA
ATOM     92  O   UNL     1       7.901   1.745  -6.588  1.00  0.00    -0.744 OA
ENDBRANCH  86  89
ENDBRANCH  59  82
ENDBRANCH  33  34
ENDBRANCH  26  28
ENDBRANCH  25  26
ENDBRANCH  24  25
ENDBRANCH  23  24
ENDBRANCH  22  23
ENDBRANCH   1  22
TORSDOF 21
