REMARK SMILES C/C(=N\NC(N)=O)c1nnn(-c2ccc(C(=O)OCCOCCOC(=O)c3ccc(-c4c5nc(c(-c6cccc(S(=O)(=O)[O-])c6F)c6ccc([nH]6)c(-c6cccc(S(=O)(=O)[O-])c6F)c6nc(c(-c7cccc(S(=O)(=O)[O-])c7F)c7ccc4[nH]7)C=C6)C=C5)cc3)cc2)c1C
REMARK SMILES IDX 21 1 20 2 19 3 18 4 16 5 17 6 15 7 12 8 13 9 91 10 14 11
REMARK SMILES IDX 90 12 11 13 8 14 9 15 92 16 10 17 93 18 2 19 1 20 3 21 4 22
REMARK SMILES IDX 5 23 6 25 7 26 22 29 23 30 24 31 25 32 26 33 27 34 28 35
REMARK SMILES IDX 89 36 29 37 88 38 30 39 31 40 32 41 82 42 33 43 87 44 81 45
REMARK SMILES IDX 83 46 34 47 86 48 80 49 79 50 35 52 67 53 47 54 66 55 48 56
REMARK SMILES IDX 51 57 65 58 84 59 49 60 50 61 64 63 85 64 52 65 36 66 37 67
REMARK SMILES IDX 45 68 38 69 40 70 46 71 39 72 41 73 42 74 43 75 44 76 68 77
REMARK SMILES IDX 69 78 77 79 70 80 72 81 78 82 71 83 73 84 74 85 75 86 76 87
REMARK SMILES IDX 53 88 54 89 62 90 55 91 57 92 63 93 56 94 58 95 59 96 60 97
REMARK SMILES IDX 61 98
REMARK H PARENT 4 24 6 27 6 28 83 51 51 62
REMARK Flexibility Score: inf
ROOT
ATOM      1  O   UNL     1       8.381   4.872  -8.345  1.00  0.00    -0.374 OA
ENDROOT
BRANCH   1   2
ATOM      2  C   UNL     1       9.345   4.016  -7.731  1.00  0.00     0.202 C 
BRANCH   2   3
ATOM      3  C   UNL     1       9.176   3.651  -6.256  1.00  0.00     0.261 C 
BRANCH   3   4
ATOM      4  O   UNL     1       7.974   2.911  -6.006  1.00  0.00    -0.460 OA
BRANCH   4   5
ATOM      5  C   UNL     1       7.007   3.609  -5.364  1.00  0.00     0.338 C 
ATOM      6  O   UNL     1       7.077   4.754  -4.950  1.00  0.00    -0.246 OA
BRANCH   5   7
ATOM      7  C   UNL     1       5.752   2.830  -5.327  1.00  0.00     0.060 A 
ATOM      8  C   UNL     1       3.372   1.545  -4.764  1.00  0.00     0.067 A 
ATOM      9  C   UNL     1       3.331   2.885  -5.154  1.00  0.00     0.029 A 
ATOM     10  C   UNL     1       4.564   0.808  -4.822  1.00  0.00     0.029 A 
ATOM     11  C   UNL     1       4.538   3.534  -5.409  1.00  0.00     0.018 A 
ATOM     12  C   UNL     1       5.763   1.451  -5.112  1.00  0.00     0.018 A 
BRANCH   8  13
ATOM     13  N   UNL     1       2.283   1.011  -4.045  1.00  0.00    -0.217 N 
ATOM     14  C   UNL     1       1.028   0.245  -2.437  1.00  0.00     0.132 A 
ATOM     15  N   UNL     1       0.230   0.603  -3.494  1.00  0.00    -0.128 NA
ATOM     16  C   UNL     1       2.338   0.567  -2.731  1.00  0.00     0.071 A 
ATOM     17  N   UNL     1       0.996   1.177  -4.416  1.00  0.00    -0.061 NA
ATOM     18  C   UNL     1       3.554   0.616  -1.881  1.00  0.00     0.069 C 
BRANCH  14  19
ATOM     19  C   UNL     1       0.503  -0.214  -1.160  1.00  0.00     0.087 C 
ATOM     20  C   UNL     1       0.661   0.727   0.005  1.00  0.00     0.071 C 
ATOM     21  N   UNL     1      -0.063  -1.383  -1.181  1.00  0.00    -0.174 NA
BRANCH  21  22
ATOM     22  N   UNL     1      -0.554  -2.015  -0.075  1.00  0.00    -0.229 N 
ATOM     23  C   UNL     1      -0.013  -2.059   1.190  1.00  0.00     0.332 C 
ATOM     24  H   UNL     1      -1.402  -2.501  -0.198  1.00  0.00     0.195 HD
ATOM     25  N   UNL     1      -0.752  -2.824   2.044  1.00  0.00    -0.350 N 
ATOM     26  O   UNL     1       0.994  -1.501   1.604  1.00  0.00    -0.247 OA
ATOM     27  H   UNL     1      -1.563  -3.278   1.722  1.00  0.00     0.161 HD
ATOM     28  H   UNL     1      -0.473  -2.922   2.984  1.00  0.00     0.161 HD
ENDBRANCH  21  22
ENDBRANCH  14  19
ENDBRANCH   8  13
ENDBRANCH   5   7
ENDBRANCH   4   5
ENDBRANCH   3   4
ENDBRANCH   2   3
ENDBRANCH   1   2
BRANCH   1  29
ATOM     29  C   UNL     1       7.039   4.432  -8.537  1.00  0.00     0.202 C 
BRANCH  29  30
ATOM     30  C   UNL     1       6.757   3.320  -9.537  1.00  0.00     0.261 C 
BRANCH  30  31
ATOM     31  O   UNL     1       7.482   2.143  -9.235  1.00  0.00    -0.460 OA
BRANCH  31  32
ATOM     32  C   UNL     1       8.582   1.971 -10.005  1.00  0.00     0.338 C 
ATOM     33  O   UNL     1       9.115   2.793 -10.724  1.00  0.00    -0.246 OA
BRANCH  32  34
ATOM     34  C   UNL     1       8.967   0.558  -9.941  1.00  0.00     0.060 A 
ATOM     35  C   UNL     1       9.993   0.180 -10.807  1.00  0.00     0.016 A 
ATOM     36  C   UNL     1       8.089  -0.367  -9.355  1.00  0.00     0.016 A 
ATOM     37  C   UNL     1       9.944  -1.086 -11.330  1.00  0.00     0.010 A 
ATOM     38  C   UNL     1       8.037  -1.627  -9.885  1.00  0.00     0.010 A 
ATOM     39  C   UNL     1       8.888  -1.918 -10.944  1.00  0.00    -0.014 A 
BRANCH  39  40
ATOM     40  C   UNL     1       8.718  -3.159 -11.655  1.00  0.00     0.031 A 
ATOM     41  C   UNL     1       9.727  -4.155 -11.250  1.00  0.00     0.074 A 
ATOM     42  C   UNL     1       7.697  -3.348 -12.512  1.00  0.00     0.049 A 
ATOM     43  N   UNL     1      10.753  -4.547 -11.928  1.00  0.00    -0.248 NA
ATOM     44  C   UNL     1       9.740  -4.571  -9.838  1.00  0.00     0.031 C 
ATOM     45  C   UNL     1       6.521  -2.498 -12.731  1.00  0.00     0.029 A 
ATOM     46  N   UNL     1       7.428  -4.436 -13.274  1.00  0.00    -0.354 N 
ATOM     47  C   UNL     1      11.387  -5.470 -11.105  1.00  0.00     0.074 A 
ATOM     48  C   UNL     1      10.891  -5.239  -9.777  1.00  0.00     0.031 C 
ATOM     49  C   UNL     1       5.559  -3.229 -13.342  1.00  0.00     0.029 A 
ATOM     50  C   UNL     1       6.099  -4.538 -13.666  1.00  0.00     0.049 A 
ATOM     51  H   UNL     1       8.114  -5.095 -13.528  1.00  0.00     0.167 HD
ATOM     52  C   UNL     1      12.015  -6.554 -11.632  1.00  0.00     0.034 A 
ATOM     53  C   UNL     1       5.486  -5.665 -14.112  1.00  0.00     0.034 A 
ATOM     54  C   UNL     1      12.241  -6.389 -13.046  1.00  0.00     0.049 A 
ATOM     55  C   UNL     1       6.553  -6.602 -14.544  1.00  0.00     0.074 A 
ATOM     56  C   UNL     1      12.938  -5.488 -13.824  1.00  0.00     0.029 A 
ATOM     57  N   UNL     1      11.347  -7.013 -13.883  1.00  0.00    -0.354 N 
ATOM     58  N   UNL     1       7.344  -6.365 -15.553  1.00  0.00    -0.248 NA
ATOM     59  C   UNL     1       7.057  -7.553 -13.564  1.00  0.00     0.031 C 
ATOM     60  C   UNL     1      12.122  -5.291 -14.976  1.00  0.00     0.029 A 
ATOM     61  C   UNL     1      11.011  -6.132 -14.875  1.00  0.00     0.049 A 
ATOM     62  H   UNL     1      11.008  -7.932 -13.786  1.00  0.00     0.167 HD
ATOM     63  C   UNL     1       8.601  -6.754 -15.104  1.00  0.00     0.074 A 
ATOM     64  C   UNL     1       8.346  -7.569 -13.916  1.00  0.00     0.031 C 
ATOM     65  C   UNL     1       9.730  -6.128 -15.548  1.00  0.00     0.034 A 
BRANCH  52  66
ATOM     66  C   UNL     1      12.045  -7.917 -10.985  1.00  0.00     0.023 A 
ATOM     67  C   UNL     1      12.867  -8.891 -11.590  1.00  0.00     0.012 A 
ATOM     68  C   UNL     1      11.118  -8.371 -10.017  1.00  0.00     0.148 A 
ATOM     69  C   UNL     1      12.731 -10.250 -11.293  1.00  0.00     0.002 A 
ATOM     70  C   UNL     1      11.040  -9.712  -9.667  1.00  0.00     0.091 A 
ATOM     71  F   UNL     1      10.199  -7.542  -9.518  1.00  0.00    -0.205 F 
ATOM     72  C   UNL     1      11.821 -10.661 -10.327  1.00  0.00     0.022 A 
BRANCH  70  73
ATOM     73  S   UNL     1       9.905 -10.288  -8.398  1.00  0.00     0.127 S 
ATOM     74  O   UNL     1       8.897 -10.976  -9.199  1.00  0.00    -0.237 OA
ATOM     75  O   UNL     1      10.768 -11.160  -7.601  1.00  0.00    -0.237 OA
ATOM     76  O   UNL     1       9.458  -9.091  -7.696  1.00  0.00    -0.744 OA
ENDBRANCH  70  73
ENDBRANCH  52  66
BRANCH  53  77
ATOM     77  C   UNL     1       4.099  -6.123 -13.850  1.00  0.00     0.023 A 
ATOM     78  C   UNL     1       3.501  -7.088 -14.686  1.00  0.00     0.012 A 
ATOM     79  C   UNL     1       3.463  -5.822 -12.624  1.00  0.00     0.148 A 
ATOM     80  C   UNL     1       2.318  -7.739 -14.306  1.00  0.00     0.002 A 
ATOM     81  C   UNL     1       2.285  -6.464 -12.255  1.00  0.00     0.091 A 
ATOM     82  F   UNL     1       4.064  -4.973 -11.780  1.00  0.00    -0.205 F 
ATOM     83  C   UNL     1       1.714  -7.431 -13.089  1.00  0.00     0.022 A 
BRANCH  81  84
ATOM     84  S   UNL     1       1.467  -6.137 -10.687  1.00  0.00     0.127 S 
ATOM     85  O   UNL     1       0.102  -5.838 -11.119  1.00  0.00    -0.237 OA
ATOM     86  O   UNL     1       1.625  -7.412  -9.992  1.00  0.00    -0.237 OA
ATOM     87  O   UNL     1       2.172  -5.007 -10.095  1.00  0.00    -0.744 OA
ENDBRANCH  81  84
ENDBRANCH  53  77
BRANCH  65  88
ATOM     88  C   UNL     1       9.599  -5.170 -16.705  1.00  0.00     0.023 A 
ATOM     89  C   UNL     1       8.906  -3.944 -16.607  1.00  0.00     0.012 A 
ATOM     90  C   UNL     1      10.366  -5.428 -17.852  1.00  0.00     0.148 A 
ATOM     91  C   UNL     1       8.970  -3.002 -17.640  1.00  0.00     0.002 A 
ATOM     92  C   UNL     1      10.466  -4.471 -18.852  1.00  0.00     0.091 A 
ATOM     93  F   UNL     1      11.021  -6.596 -17.921  1.00  0.00    -0.205 F 
ATOM     94  C   UNL     1       9.762  -3.260 -18.756  1.00  0.00     0.022 A 
BRANCH  92  95
ATOM     95  S   UNL     1      11.577  -4.689 -20.243  1.00  0.00     0.127 S 
ATOM     96  O   UNL     1      10.645  -4.932 -21.342  1.00  0.00    -0.237 OA
ATOM     97  O   UNL     1      12.265  -3.398 -20.297  1.00  0.00    -0.237 OA
ATOM     98  O   UNL     1      12.442  -5.810 -19.896  1.00  0.00    -0.744 OA
ENDBRANCH  92  95
ENDBRANCH  65  88
ENDBRANCH  39  40
ENDBRANCH  32  34
ENDBRANCH  31  32
ENDBRANCH  30  31
ENDBRANCH  29  30
ENDBRANCH   1  29
TORSDOF 20
