REMARK SMILES C[C@H](Oc1cc2oc(=O)cc(-c3ccccc3)c2cc1Cl)C(=O)OCCOCCOC(=O)c1ccc(-c2c3nc(c(-c4cccc(S(=O)(=O)[O-])c4F)c4ccc([nH]4)c(-c4cccc(S(=O)(=O)[O-])c4F)c4nc(c(-c5cccc(S(=O)(=O)[O-])c5F)c5ccc2[nH]5)C=C4)C=C3)cc1
REMARK SMILES IDX 27 1 26 2 25 3 24 4 22 5 23 6 2 7 1 8 3 9 4 10 5 11 20 12
REMARK SMILES IDX 6 13 19 14 21 15 7 16 18 17 8 18 11 19 9 20 10 21 12 22
REMARK SMILES IDX 13 23 17 24 14 25 16 26 15 27 28 28 29 29 30 30 31 31 32 32
REMARK SMILES IDX 33 33 34 34 95 35 35 36 94 37 36 38 37 39 38 40 88 41 39 42
REMARK SMILES IDX 93 43 87 44 89 45 40 46 92 47 86 48 85 49 41 51 73 52 53 53
REMARK SMILES IDX 72 54 54 55 57 56 71 57 90 58 55 59 56 60 70 62 91 63 58 64
REMARK SMILES IDX 42 65 43 66 51 67 44 68 46 69 52 70 45 71 47 72 48 73 49 74
REMARK SMILES IDX 50 75 74 76 75 77 83 78 76 79 78 80 84 81 77 82 79 83 80 84
REMARK SMILES IDX 81 85 82 86 59 87 60 88 68 89 61 90 63 91 69 92 62 93 64 94
REMARK SMILES IDX 65 95 66 96 67 97
REMARK H PARENT 89 50 57 61
REMARK Flexibility Score: inf
ROOT
ATOM      1  O   UNL     1      -3.238  -1.831   0.214  1.00  0.00    -0.374 OA
ENDROOT
BRANCH   1   2
ATOM      2  C   UNL     1      -3.731  -0.568   0.659  1.00  0.00     0.202 C 
BRANCH   2   3
ATOM      3  C   UNL     1      -3.120  -0.038   1.955  1.00  0.00     0.261 C 
BRANCH   3   4
ATOM      4  O   UNL     1      -1.726   0.270   1.805  1.00  0.00    -0.461 OA
BRANCH   4   5
ATOM      5  C   UNL     1      -0.851  -0.590   2.399  1.00  0.00     0.347 C 
ATOM      6  O   UNL     1      -1.158  -1.602   3.019  1.00  0.00    -0.248 OA
BRANCH   5   7
ATOM      7  C   UNL     1       0.587  -0.087   2.273  1.00  0.00     0.279 C 
ATOM      8  C   UNL     1       0.696   1.119   3.216  1.00  0.00     0.066 C 
BRANCH   7   9
ATOM      9  O   UNL     1       0.897   0.175   0.895  1.00  0.00    -0.477 OA
BRANCH   9  10
ATOM     10  C   UNL     1       2.102   0.742   0.565  1.00  0.00     0.142 A 
ATOM     11  C   UNL     1       3.153   0.896   1.460  1.00  0.00     0.096 A 
ATOM     12  C   UNL     1       2.262   1.255  -0.735  1.00  0.00     0.084 A 
ATOM     13  C   UNL     1       4.227   1.722   1.131  1.00  0.00     0.142 A 
ATOM     14  C   UNL     1       3.398   2.011  -1.083  1.00  0.00     0.037 A 
ATOM     15  Cl  UNL     1       1.056   1.004  -1.949  1.00  0.00    -0.080 Cl
ATOM     16  O   UNL     1       5.117   1.992   2.185  1.00  0.00    -0.423 OA
ATOM     17  C   UNL     1       4.371   2.308  -0.124  1.00  0.00     0.027 A 
ATOM     18  C   UNL     1       6.036   3.015   2.070  1.00  0.00     0.336 A 
ATOM     19  C   UNL     1       5.508   3.220  -0.349  1.00  0.00    -0.000 A 
ATOM     20  O   UNL     1       6.718   3.390   3.017  1.00  0.00    -0.246 OA
ATOM     21  C   UNL     1       6.231   3.576   0.728  1.00  0.00     0.103 A 
BRANCH  19  22
ATOM     22  C   UNL     1       5.940   3.830  -1.627  1.00  0.00    -0.017 A 
ATOM     23  C   UNL     1       7.222   3.549  -2.130  1.00  0.00     0.009 A 
ATOM     24  C   UNL     1       5.117   4.718  -2.329  1.00  0.00     0.009 A 
ATOM     25  C   UNL     1       7.674   4.149  -3.306  1.00  0.00     0.001 A 
ATOM     26  C   UNL     1       5.566   5.306  -3.515  1.00  0.00     0.001 A 
ATOM     27  C   UNL     1       6.844   5.026  -3.999  1.00  0.00     0.000 A 
ENDBRANCH  19  22
ENDBRANCH   9  10
ENDBRANCH   7   9
ENDBRANCH   5   7
ENDBRANCH   4   5
ENDBRANCH   3   4
ENDBRANCH   2   3
ENDBRANCH   1   2
BRANCH   1  28
ATOM     28  C   UNL     1      -2.001  -1.819  -0.503  1.00  0.00     0.202 C 
BRANCH  28  29
ATOM     29  C   UNL     1      -2.086  -1.403  -1.975  1.00  0.00     0.261 C 
BRANCH  29  30
ATOM     30  O   UNL     1      -2.378  -0.001  -2.119  1.00  0.00    -0.460 OA
BRANCH  30  31
ATOM     31  C   UNL     1      -3.592   0.286  -2.639  1.00  0.00     0.338 C 
ATOM     32  O   UNL     1      -4.423  -0.512  -3.057  1.00  0.00    -0.246 OA
BRANCH  31  33
ATOM     33  C   UNL     1      -3.888   1.722  -2.479  1.00  0.00     0.060 A 
ATOM     34  C   UNL     1      -5.104   2.067  -1.876  1.00  0.00     0.016 A 
ATOM     35  C   UNL     1      -3.034   2.712  -2.971  1.00  0.00     0.016 A 
ATOM     36  C   UNL     1      -5.498   3.401  -1.811  1.00  0.00     0.010 A 
ATOM     37  C   UNL     1      -3.437   4.052  -2.912  1.00  0.00     0.010 A 
ATOM     38  C   UNL     1      -4.686   4.399  -2.365  1.00  0.00    -0.014 A 
BRANCH  38  39
ATOM     39  C   UNL     1      -5.202   5.785  -2.477  1.00  0.00     0.031 A 
ATOM     40  C   UNL     1      -5.749   6.263  -3.795  1.00  0.00     0.074 A 
ATOM     41  C   UNL     1      -5.190   6.609  -1.413  1.00  0.00     0.049 A 
ATOM     42  N   UNL     1      -6.234   7.434  -4.113  1.00  0.00    -0.248 NA
ATOM     43  C   UNL     1      -5.747   5.292  -4.902  1.00  0.00     0.031 C 
ATOM     44  C   UNL     1      -4.688   6.263  -0.084  1.00  0.00     0.029 A 
ATOM     45  N   UNL     1      -5.592   7.916  -1.292  1.00  0.00    -0.354 N 
ATOM     46  C   UNL     1      -6.571   7.353  -5.459  1.00  0.00     0.074 A 
ATOM     47  C   UNL     1      -6.227   6.019  -5.902  1.00  0.00     0.031 C 
ATOM     48  C   UNL     1      -4.782   7.343   0.711  1.00  0.00     0.029 A 
ATOM     49  C   UNL     1      -5.332   8.459  -0.056  1.00  0.00     0.049 A 
ATOM     50  H   UNL     1      -6.025   8.417  -2.021  1.00  0.00     0.167 HD
ATOM     51  C   UNL     1      -7.132   8.298  -6.251  1.00  0.00     0.034 A 
ATOM     52  C   UNL     1      -5.497   9.718   0.397  1.00  0.00     0.034 A 
ATOM     53  C   UNL     1      -7.498   9.615  -5.804  1.00  0.00     0.049 A 
ATOM     54  C   UNL     1      -6.107  10.754  -0.512  1.00  0.00     0.074 A 
ATOM     55  C   UNL     1      -8.122  10.622  -6.520  1.00  0.00     0.029 A 
ATOM     56  N   UNL     1      -7.263  10.114  -4.533  1.00  0.00    -0.354 N 
ATOM     57  N   UNL     1      -6.542  10.622  -1.742  1.00  0.00    -0.248 NA
ATOM     58  C   UNL     1      -6.280  12.106   0.041  1.00  0.00     0.031 C 
ATOM     59  C   UNL     1      -8.243  11.739  -5.687  1.00  0.00     0.029 A 
ATOM     60  C   UNL     1      -7.716  11.419  -4.446  1.00  0.00     0.049 A 
ATOM     61  H   UNL     1      -6.837   9.614  -3.800  1.00  0.00     0.167 HD
ATOM     62  C   UNL     1      -7.070  11.859  -2.096  1.00  0.00     0.074 A 
ATOM     63  C   UNL     1      -6.921  12.722  -0.943  1.00  0.00     0.031 C 
ATOM     64  C   UNL     1      -7.615  12.250  -3.275  1.00  0.00     0.034 A 
BRANCH  51  65
ATOM     65  C   UNL     1      -7.418   7.935  -7.684  1.00  0.00     0.023 A 
ATOM     66  C   UNL     1      -8.504   7.089  -7.984  1.00  0.00     0.012 A 
ATOM     67  C   UNL     1      -6.664   8.494  -8.735  1.00  0.00     0.148 A 
ATOM     68  C   UNL     1      -8.822   6.786  -9.307  1.00  0.00     0.002 A 
ATOM     69  C   UNL     1      -7.012   8.220 -10.052  1.00  0.00     0.091 A 
ATOM     70  F   UNL     1      -5.622   9.279  -8.426  1.00  0.00    -0.205 F 
ATOM     71  C   UNL     1      -8.085   7.360 -10.339  1.00  0.00     0.022 A 
BRANCH  69  72
ATOM     72  S   UNL     1      -6.172   8.968 -11.453  1.00  0.00     0.127 S 
ATOM     73  O   UNL     1      -5.465   7.820 -12.020  1.00  0.00    -0.237 OA
ATOM     74  O   UNL     1      -7.292   9.454 -12.259  1.00  0.00    -0.237 OA
ATOM     75  O   UNL     1      -5.322  10.013 -10.900  1.00  0.00    -0.744 OA
ENDBRANCH  69  72
ENDBRANCH  51  65
BRANCH  52  76
ATOM     76  C   UNL     1      -5.107  10.067   1.792  1.00  0.00     0.023 A 
ATOM     77  C   UNL     1      -6.102  10.385   2.736  1.00  0.00     0.012 A 
ATOM     78  C   UNL     1      -3.755  10.078   2.189  1.00  0.00     0.148 A 
ATOM     79  C   UNL     1      -5.757  10.741   4.040  1.00  0.00     0.002 A 
ATOM     80  C   UNL     1      -3.422  10.378   3.505  1.00  0.00     0.091 A 
ATOM     81  F   UNL     1      -2.820   9.795   1.271  1.00  0.00    -0.205 F 
ATOM     82  C   UNL     1      -4.419  10.727   4.428  1.00  0.00     0.022 A 
BRANCH  80  83
ATOM     83  S   UNL     1      -1.738  10.252   4.116  1.00  0.00     0.127 S 
ATOM     84  O   UNL     1      -1.354  11.657   4.228  1.00  0.00    -0.237 OA
ATOM     85  O   UNL     1      -1.927   9.560   5.391  1.00  0.00    -0.237 OA
ATOM     86  O   UNL     1      -1.019   9.473   3.117  1.00  0.00    -0.744 OA
ENDBRANCH  80  83
ENDBRANCH  52  76
BRANCH  64  87
ATOM     87  C   UNL     1      -8.127  13.664  -3.377  1.00  0.00     0.023 A 
ATOM     88  C   UNL     1      -7.214  14.734  -3.458  1.00  0.00     0.012 A 
ATOM     89  C   UNL     1      -9.509  13.925  -3.471  1.00  0.00     0.148 A 
ATOM     90  C   UNL     1      -7.669  16.044  -3.599  1.00  0.00     0.002 A 
ATOM     91  C   UNL     1      -9.953  15.229  -3.659  1.00  0.00     0.091 A 
ATOM     92  F   UNL     1     -10.363  12.896  -3.374  1.00  0.00    -0.205 F 
ATOM     93  C   UNL     1      -9.036  16.290  -3.712  1.00  0.00     0.022 A 
BRANCH  91  94
ATOM     94  S   UNL     1     -11.687  15.627  -3.910  1.00  0.00     0.127 S 
ATOM     95  O   UNL     1     -12.041  16.234  -2.628  1.00  0.00    -0.237 OA
ATOM     96  O   UNL     1     -11.633  16.563  -5.034  1.00  0.00    -0.237 OA
ATOM     97  O   UNL     1     -12.348  14.364  -4.209  1.00  0.00    -0.744 OA
ENDBRANCH  91  94
ENDBRANCH  64  87
ENDBRANCH  38  39
ENDBRANCH  31  33
ENDBRANCH  30  31
ENDBRANCH  29  30
ENDBRANCH  28  29
ENDBRANCH   1  28
TORSDOF 20
