REMARK SMILES CS(=O)(=O)N1C[C@@H]2CN(C(=O)c3ccco3)C[C@]2(C(=O)OCCOCCOC(=O)c2ccc(-c3c4nc(c(-c5cccc(S(=O)(=O)[O-])c5F)c5ccc([nH]5)c(-c5cccc(S(=O)(=O)[O-])c5F)c5nc(c(-c6cccc(S(=O)(=O)[O-])c6F)c6ccc3[nH]6)C=C5)C=C4)cc2)C1
REMARK SMILES IDX 25 1 24 2 23 3 22 4 21 5 19 6 20 7 18 8 5 9 6 10 93 11 7 12
REMARK SMILES IDX 8 13 17 14 9 15 2 16 1 17 3 18 4 19 10 20 11 21 12 22 13 23
REMARK SMILES IDX 16 24 14 25 15 26 26 27 27 28 28 29 29 30 30 31 31 32 92 33
REMARK SMILES IDX 32 34 91 35 33 36 34 37 35 38 85 39 36 40 90 41 84 42 86 43
REMARK SMILES IDX 37 44 89 45 83 46 82 47 38 49 70 50 50 51 69 52 51 53 54 54
REMARK SMILES IDX 68 55 87 56 52 57 53 58 67 60 88 61 55 62 39 63 40 64 48 65
REMARK SMILES IDX 41 66 43 67 49 68 42 69 44 70 45 71 46 72 47 73 71 74 72 75
REMARK SMILES IDX 80 76 73 77 75 78 81 79 74 80 76 81 77 82 78 83 79 84 56 85
REMARK SMILES IDX 57 86 65 87 58 88 60 89 66 90 59 91 61 92 62 93 63 94 64 95
REMARK H PARENT 86 48 54 59
REMARK Flexibility Score: inf
ROOT
ATOM      1  C   UNL     1      -2.395  -6.314  -2.900  1.00  0.00     0.202 C 
ENDROOT
BRANCH   1   2
ATOM      2  O   UNL     1      -2.156  -5.563  -4.091  1.00  0.00    -0.374 OA
BRANCH   2   3
ATOM      3  C   UNL     1      -0.827  -5.644  -4.601  1.00  0.00     0.202 C 
BRANCH   3   4
ATOM      4  C   UNL     1       0.055  -4.483  -4.160  1.00  0.00     0.261 C 
BRANCH   4   5
ATOM      5  O   UNL     1       0.608  -4.705  -2.851  1.00  0.00    -0.463 OA
BRANCH   5   6
ATOM      6  C   UNL     1      -0.121  -4.476  -1.718  1.00  0.00     0.315 C 
ATOM      7  O   UNL     1      -1.239  -3.990  -1.677  1.00  0.00    -0.251 OA
BRANCH   6   8
ATOM      8  C   UNL     1       0.787  -4.697  -0.522  1.00  0.00     0.105 C 
ATOM      9  N   UNL     1       1.509  -2.890   0.995  1.00  0.00    -0.201 NA
ATOM     10  C   UNL     1       1.154  -4.083   1.789  1.00  0.00     0.109 C 
ATOM     11  C   UNL     1       1.413  -3.291  -0.437  1.00  0.00     0.123 C 
ATOM     12  C   UNL     1       0.233  -4.911   0.892  1.00  0.00     0.044 C 
ATOM     13  C   UNL     1       0.416  -6.372   1.263  1.00  0.00     0.126 C 
ATOM     14  C   UNL     1       1.623  -5.974  -0.776  1.00  0.00     0.140 C 
ATOM     15  N   UNL     1       1.127  -6.978   0.168  1.00  0.00    -0.334 N 
BRANCH   9  16
ATOM     16  S   UNL     1       0.701  -1.492   1.535  1.00  0.00     0.211 S 
ATOM     17  C   UNL     1       1.176  -0.234   0.368  1.00  0.00     0.176 C 
ATOM     18  O   UNL     1       1.266  -1.155   2.825  1.00  0.00    -0.213 OA
ATOM     19  O   UNL     1      -0.720  -1.727   1.395  1.00  0.00    -0.213 OA
ENDBRANCH   9  16
BRANCH  15  20
ATOM     20  C   UNL     1       1.188  -8.376   0.147  1.00  0.00     0.289 C 
ATOM     21  O   UNL     1       0.775  -8.991   1.136  1.00  0.00    -0.265 OA
BRANCH  20  22
ATOM     22  C   UNL     1       1.640  -9.085  -1.034  1.00  0.00     0.191 A 
ATOM     23  C   UNL     1       2.520  -8.833  -2.071  1.00  0.00     0.056 A 
ATOM     24  O   UNL     1       1.105 -10.341  -1.215  1.00  0.00    -0.459 OA
ATOM     25  C   UNL     1       2.524  -9.981  -2.903  1.00  0.00     0.043 A 
ATOM     26  C   UNL     1       1.648 -10.870  -2.334  1.00  0.00     0.196 A 
ENDBRANCH  20  22
ENDBRANCH  15  20
ENDBRANCH   6   8
ENDBRANCH   5   6
ENDBRANCH   4   5
ENDBRANCH   3   4
ENDBRANCH   2   3
ENDBRANCH   1   2
BRANCH   1  27
ATOM     27  C   UNL     1      -2.909  -7.731  -3.140  1.00  0.00     0.261 C 
BRANCH  27  28
ATOM     28  O   UNL     1      -1.911  -8.532  -3.790  1.00  0.00    -0.460 OA
BRANCH  28  29
ATOM     29  C   UNL     1      -1.992  -8.572  -5.139  1.00  0.00     0.338 C 
ATOM     30  O   UNL     1      -2.859  -8.079  -5.849  1.00  0.00    -0.246 OA
BRANCH  29  31
ATOM     31  C   UNL     1      -0.752  -9.163  -5.666  1.00  0.00     0.060 A 
ATOM     32  C   UNL     1      -0.050  -8.480  -6.667  1.00  0.00     0.016 A 
ATOM     33  C   UNL     1      -0.284 -10.383  -5.182  1.00  0.00     0.016 A 
ATOM     34  C   UNL     1       1.120  -9.025  -7.198  1.00  0.00     0.010 A 
ATOM     35  C   UNL     1       0.890 -10.921  -5.712  1.00  0.00     0.010 A 
ATOM     36  C   UNL     1       1.593 -10.261  -6.738  1.00  0.00    -0.014 A 
BRANCH  36  37
ATOM     37  C   UNL     1       2.748 -10.932  -7.393  1.00  0.00     0.031 A 
ATOM     38  C   UNL     1       2.522 -12.241  -8.105  1.00  0.00     0.074 A 
ATOM     39  C   UNL     1       3.993 -10.417  -7.325  1.00  0.00     0.049 A 
ATOM     40  N   UNL     1       3.392 -13.042  -8.662  1.00  0.00    -0.248 NA
ATOM     41  C   UNL     1       1.133 -12.728  -8.170  1.00  0.00     0.031 C 
ATOM     42  C   UNL     1       4.367  -9.180  -6.640  1.00  0.00     0.029 A 
ATOM     43  N   UNL     1       5.183 -10.893  -7.823  1.00  0.00    -0.354 N 
ATOM     44  C   UNL     1       2.669 -14.151  -9.083  1.00  0.00     0.074 A 
ATOM     45  C   UNL     1       1.294 -13.934  -8.690  1.00  0.00     0.031 C 
ATOM     46  C   UNL     1       5.694  -8.999  -6.753  1.00  0.00     0.029 A 
ATOM     47  C   UNL     1       6.272 -10.120  -7.492  1.00  0.00     0.049 A 
ATOM     48  H   UNL     1       5.249 -11.711  -8.367  1.00  0.00     0.167 HD
ATOM     49  C   UNL     1       3.096 -15.240  -9.763  1.00  0.00     0.034 A 
ATOM     50  C   UNL     1       7.586 -10.303  -7.740  1.00  0.00     0.034 A 
ATOM     51  C   UNL     1       4.444 -15.428 -10.221  1.00  0.00     0.049 A 
ATOM     52  C   UNL     1       8.033 -11.510  -8.527  1.00  0.00     0.074 A 
ATOM     53  C   UNL     1       4.947 -16.449 -11.007  1.00  0.00     0.029 A 
ATOM     54  N   UNL     1       5.503 -14.586  -9.930  1.00  0.00    -0.354 N 
ATOM     55  N   UNL     1       7.309 -12.472  -9.046  1.00  0.00    -0.248 NA
ATOM     56  C   UNL     1       9.475 -11.639  -8.791  1.00  0.00     0.031 C 
ATOM     57  C   UNL     1       6.321 -16.242 -11.162  1.00  0.00     0.029 A 
ATOM     58  C   UNL     1       6.663 -15.071 -10.505  1.00  0.00     0.049 A 
ATOM     59  H   UNL     1       5.440 -13.763  -9.392  1.00  0.00     0.167 HD
ATOM     60  C   UNL     1       8.202 -13.299  -9.723  1.00  0.00     0.074 A 
ATOM     61  C   UNL     1       9.515 -12.711  -9.571  1.00  0.00     0.031 C 
ATOM     62  C   UNL     1       7.958 -14.450 -10.397  1.00  0.00     0.034 A 
BRANCH  49  63
ATOM     63  C   UNL     1       2.080 -16.305 -10.085  1.00  0.00     0.023 A 
ATOM     64  C   UNL     1       1.070 -16.051 -11.036  1.00  0.00     0.012 A 
ATOM     65  C   UNL     1       2.158 -17.574  -9.480  1.00  0.00     0.148 A 
ATOM     66  C   UNL     1       0.126 -17.028 -11.345  1.00  0.00     0.002 A 
ATOM     67  C   UNL     1       1.247 -18.560  -9.834  1.00  0.00     0.091 A 
ATOM     68  F   UNL     1       3.114 -17.788  -8.565  1.00  0.00    -0.205 F 
ATOM     69  C   UNL     1       0.222 -18.285 -10.754  1.00  0.00     0.022 A 
BRANCH  67  70
ATOM     70  S   UNL     1       1.338 -20.237  -9.198  1.00  0.00     0.127 S 
ATOM     71  O   UNL     1       0.136 -20.302  -8.367  1.00  0.00    -0.237 OA
ATOM     72  O   UNL     1       1.276 -21.032 -10.424  1.00  0.00    -0.237 OA
ATOM     73  O   UNL     1       2.599 -20.327  -8.476  1.00  0.00    -0.744 OA
ENDBRANCH  67  70
ENDBRANCH  49  63
BRANCH  50  74
ATOM     74  C   UNL     1       8.588  -9.304  -7.266  1.00  0.00     0.023 A 
ATOM     75  C   UNL     1       9.295  -8.526  -8.204  1.00  0.00     0.012 A 
ATOM     76  C   UNL     1       8.854  -9.130  -5.894  1.00  0.00     0.148 A 
ATOM     77  C   UNL     1      10.278  -7.626  -7.788  1.00  0.00     0.002 A 
ATOM     78  C   UNL     1       9.791  -8.189  -5.483  1.00  0.00     0.091 A 
ATOM     79  F   UNL     1       8.180  -9.886  -5.016  1.00  0.00    -0.205 F 
ATOM     80  C   UNL     1      10.520  -7.452  -6.429  1.00  0.00     0.022 A 
BRANCH  78  81
ATOM     81  S   UNL     1      10.069  -7.797  -3.753  1.00  0.00     0.127 S 
ATOM     82  O   UNL     1      11.422  -8.304  -3.544  1.00  0.00    -0.237 OA
ATOM     83  O   UNL     1       9.947  -6.339  -3.754  1.00  0.00    -0.237 OA
ATOM     84  O   UNL     1       9.014  -8.485  -3.020  1.00  0.00    -0.744 OA
ENDBRANCH  78  81
ENDBRANCH  50  74
BRANCH  62  85
ATOM     85  C   UNL     1       9.118 -15.142 -11.066  1.00  0.00     0.023 A 
ATOM     86  C   UNL     1      10.089 -15.803 -10.288  1.00  0.00     0.012 A 
ATOM     87  C   UNL     1       9.193 -15.215 -12.472  1.00  0.00     0.148 A 
ATOM     88  C   UNL     1      11.132 -16.500 -10.898  1.00  0.00     0.002 A 
ATOM     89  C   UNL     1      10.204 -15.955 -13.072  1.00  0.00     0.091 A 
ATOM     90  F   UNL     1       8.268 -14.567 -13.195  1.00  0.00    -0.205 F 
ATOM     91  C   UNL     1      11.182 -16.587 -12.287  1.00  0.00     0.022 A 
BRANCH  89  92
ATOM     92  S   UNL     1      10.291 -16.209 -14.848  1.00  0.00     0.127 S 
ATOM     93  O   UNL     1      11.480 -15.434 -15.201  1.00  0.00    -0.237 OA
ATOM     94  O   UNL     1      10.456 -17.659 -14.945  1.00  0.00    -0.237 OA
ATOM     95  O   UNL     1       9.037 -15.704 -15.390  1.00  0.00    -0.744 OA
ENDBRANCH  89  92
ENDBRANCH  62  85
ENDBRANCH  36  37
ENDBRANCH  29  31
ENDBRANCH  28  29
ENDBRANCH  27  28
ENDBRANCH   1  27
TORSDOF 20
