REMARK SMILES O=C(OCCOCCOC(=O)[C@@H]1CCCC[C@H]1C(=O)Nc1cccc(-c2nnc(-c3ccccc3)o2)c1)c1ccc(-c2c3nc(c(-c4cccc(S(=O)(=O)[O-])c4F)c4ccc([nH]4)c(-c4cccc(S(=O)(=O)[O-])c4F)c4nc(c(-c5cccc(S(=O)(=O)[O-])c5F)c5ccc2[nH]5)C=C4)C=C3)cc1
REMARK SMILES IDX 7 1 6 2 5 3 4 4 3 5 2 6 1 7 38 8 39 9 100 10 40 11 99 12
REMARK SMILES IDX 41 13 42 14 43 15 93 16 44 17 98 18 92 19 94 20 45 21 97 22
REMARK SMILES IDX 91 23 90 24 46 26 78 27 58 28 77 29 59 30 62 31 76 32 95 33
REMARK SMILES IDX 60 34 61 35 75 37 96 38 63 39 47 40 48 41 56 42 49 43 51 44
REMARK SMILES IDX 57 45 50 46 52 47 53 48 54 49 55 50 79 51 80 52 88 53 81 54
REMARK SMILES IDX 83 55 89 56 82 57 84 58 85 59 86 60 87 61 64 62 65 63 73 64
REMARK SMILES IDX 66 65 68 66 74 67 67 68 69 69 70 70 71 71 72 72 8 73 9 74
REMARK SMILES IDX 10 75 11 76 12 77 13 78 17 79 14 80 16 81 15 82 18 83 19 84
REMARK SMILES IDX 20 85 21 87 22 88 37 89 23 90 25 91 24 92 26 93 27 94 36 95
REMARK SMILES IDX 28 96 29 97 30 98 31 99 35 100 32 101 34 102 33 103
REMARK H PARENT 94 25 62 36 20 86
REMARK Flexibility Score: inf
ROOT
ATOM      1  C   UNL     1       2.398  -0.804  -2.132  1.00  0.00     0.202 C 
ENDROOT
BRANCH   1   2
ATOM      2  O   UNL     1       3.691  -0.454  -1.647  1.00  0.00    -0.374 OA
BRANCH   2   3
ATOM      3  C   UNL     1       4.037  -1.019  -0.388  1.00  0.00     0.202 C 
BRANCH   3   4
ATOM      4  C   UNL     1       3.600  -0.246   0.859  1.00  0.00     0.261 C 
BRANCH   4   5
ATOM      5  O   UNL     1       2.187   0.038   0.817  1.00  0.00    -0.460 OA
BRANCH   5   6
ATOM      6  C   UNL     1       1.621   1.263   0.667  1.00  0.00     0.338 C 
ATOM      7  O   UNL     1       0.415   1.410   0.835  1.00  0.00    -0.246 OA
BRANCH   6   8
ATOM      8  C   UNL     1       2.461   2.441   0.336  1.00  0.00     0.060 A 
ATOM      9  C   UNL     1       3.526   2.351  -0.552  1.00  0.00     0.016 A 
ATOM     10  C   UNL     1       2.158   3.687   0.888  1.00  0.00     0.016 A 
ATOM     11  C   UNL     1       4.395   3.394  -0.759  1.00  0.00     0.010 A 
ATOM     12  C   UNL     1       2.950   4.796   0.571  1.00  0.00     0.010 A 
ATOM     13  C   UNL     1       4.084   4.640  -0.240  1.00  0.00    -0.014 A 
BRANCH  13  14
ATOM     14  C   UNL     1       4.998   5.742  -0.573  1.00  0.00     0.031 A 
ATOM     15  C   UNL     1       5.804   6.355   0.521  1.00  0.00     0.074 A 
ATOM     16  C   UNL     1       5.161   6.080  -1.867  1.00  0.00     0.049 A 
ATOM     17  N   UNL     1       6.566   7.410   0.482  1.00  0.00    -0.248 NA
ATOM     18  C   UNL     1       5.746   5.695   1.837  1.00  0.00     0.031 C 
ATOM     19  C   UNL     1       4.492   5.430  -3.002  1.00  0.00     0.029 A 
ATOM     20  N   UNL     1       5.953   7.026  -2.454  1.00  0.00    -0.354 N 
ATOM     21  C   UNL     1       7.003   7.598   1.784  1.00  0.00     0.074 A 
ATOM     22  C   UNL     1       6.463   6.521   2.584  1.00  0.00     0.031 C 
ATOM     23  C   UNL     1       4.928   5.974  -4.146  1.00  0.00     0.029 A 
ATOM     24  C   UNL     1       5.815   7.080  -3.823  1.00  0.00     0.049 A 
ATOM     25  H   UNL     1       6.562   7.612  -1.949  1.00  0.00     0.167 HD
ATOM     26  C   UNL     1       7.771   8.603   2.258  1.00  0.00     0.034 A 
ATOM     27  C   UNL     1       6.307   7.968  -4.704  1.00  0.00     0.034 A 
ATOM     28  C   UNL     1       8.309   9.631   1.411  1.00  0.00     0.049 A 
ATOM     29  C   UNL     1       7.143   9.086  -4.149  1.00  0.00     0.074 A 
ATOM     30  C   UNL     1       9.053  10.740   1.758  1.00  0.00     0.029 A 
ATOM     31  N   UNL     1       8.158   9.659   0.029  1.00  0.00    -0.354 N 
ATOM     32  N   UNL     1       7.520   9.290  -2.907  1.00  0.00    -0.248 NA
ATOM     33  C   UNL     1       7.614  10.097  -5.099  1.00  0.00     0.031 C 
ATOM     34  C   UNL     1       9.342  11.446   0.584  1.00  0.00     0.029 A 
ATOM     35  C   UNL     1       8.796  10.764  -0.496  1.00  0.00     0.049 A 
ATOM     36  H   UNL     1       7.666   8.988  -0.498  1.00  0.00     0.167 HD
ATOM     37  C   UNL     1       8.281  10.447  -2.924  1.00  0.00     0.074 A 
ATOM     38  C   UNL     1       8.339  10.880  -4.309  1.00  0.00     0.031 C 
ATOM     39  C   UNL     1       8.860  11.114  -1.895  1.00  0.00     0.034 A 
BRANCH  26  40
ATOM     40  C   UNL     1       8.005   8.644   3.741  1.00  0.00     0.023 A 
ATOM     41  C   UNL     1       8.893   7.732   4.346  1.00  0.00     0.012 A 
ATOM     42  C   UNL     1       7.301   9.561   4.546  1.00  0.00     0.148 A 
ATOM     43  C   UNL     1       9.048   7.707   5.733  1.00  0.00     0.002 A 
ATOM     44  C   UNL     1       7.488   9.554   5.924  1.00  0.00     0.091 A 
ATOM     45  F   UNL     1       6.435  10.396   3.956  1.00  0.00    -0.205 F 
ATOM     46  C   UNL     1       8.351   8.620   6.520  1.00  0.00     0.022 A 
BRANCH  44  47
ATOM     47  S   UNL     1       6.666  10.719   7.017  1.00  0.00     0.127 S 
ATOM     48  O   UNL     1       5.710   9.853   7.705  1.00  0.00    -0.237 OA
ATOM     49  O   UNL     1       7.772  11.189   7.851  1.00  0.00    -0.237 OA
ATOM     50  O   UNL     1       6.081  11.736   6.155  1.00  0.00    -0.744 OA
ENDBRANCH  44  47
ENDBRANCH  26  40
BRANCH  27  51
ATOM     51  C   UNL     1       6.002   7.840  -6.159  1.00  0.00     0.023 A 
ATOM     52  C   UNL     1       7.041   7.560  -7.066  1.00  0.00     0.012 A 
ATOM     53  C   UNL     1       4.681   7.937  -6.647  1.00  0.00     0.148 A 
ATOM     54  C   UNL     1       6.776   7.398  -8.428  1.00  0.00     0.002 A 
ATOM     55  C   UNL     1       4.416   7.714  -7.994  1.00  0.00     0.091 A 
ATOM     56  F   UNL     1       3.701   8.230  -5.780  1.00  0.00    -0.205 F 
ATOM     57  C   UNL     1       5.463   7.460  -8.889  1.00  0.00     0.022 A 
BRANCH  55  58
ATOM     58  S   UNL     1       2.738   7.632  -8.636  1.00  0.00     0.127 S 
ATOM     59  O   UNL     1       2.608   8.926  -9.299  1.00  0.00    -0.237 OA
ATOM     60  O   UNL     1       2.809   6.481  -9.538  1.00  0.00    -0.237 OA
ATOM     61  O   UNL     1       1.888   7.422  -7.471  1.00  0.00    -0.744 OA
ENDBRANCH  55  58
ENDBRANCH  27  51
BRANCH  39  62
ATOM     62  C   UNL     1       9.622  12.358  -2.241  1.00  0.00     0.023 A 
ATOM     63  C   UNL     1       8.922  13.544  -2.533  1.00  0.00     0.012 A 
ATOM     64  C   UNL     1      11.027  12.369  -2.181  1.00  0.00     0.148 A 
ATOM     65  C   UNL     1       9.616  14.726  -2.780  1.00  0.00     0.002 A 
ATOM     66  C   UNL     1      11.709  13.560  -2.380  1.00  0.00     0.091 A 
ATOM     67  F   UNL     1      11.666  11.217  -1.927  1.00  0.00    -0.205 F 
ATOM     68  C   UNL     1      11.007  14.737  -2.688  1.00  0.00     0.022 A 
BRANCH  66  69
ATOM     69  S   UNL     1      13.488  13.679  -2.176  1.00  0.00     0.127 S 
ATOM     70  O   UNL     1      13.944  13.725  -3.564  1.00  0.00    -0.237 OA
ATOM     71  O   UNL     1      13.635  14.937  -1.443  1.00  0.00    -0.237 OA
ATOM     72  O   UNL     1      13.882  12.496  -1.423  1.00  0.00    -0.744 OA
ENDBRANCH  66  69
ENDBRANCH  39  62
ENDBRANCH  13  14
ENDBRANCH   6   8
ENDBRANCH   5   6
ENDBRANCH   4   5
ENDBRANCH   3   4
ENDBRANCH   2   3
ENDBRANCH   1   2
BRANCH   1  73
ATOM     73  C   UNL     1       2.546  -1.804  -3.269  1.00  0.00     0.261 C 
BRANCH  73  74
ATOM     74  O   UNL     1       3.117  -3.023  -2.752  1.00  0.00    -0.463 OA
BRANCH  74  75
ATOM     75  C   UNL     1       4.466  -3.145  -2.875  1.00  0.00     0.309 C 
ATOM     76  O   UNL     1       5.201  -2.337  -3.428  1.00  0.00    -0.252 OA
BRANCH  75  77
ATOM     77  C   UNL     1       4.970  -4.447  -2.279  1.00  0.00     0.111 C 
ATOM     78  C   UNL     1       4.129  -5.596  -2.867  1.00  0.00     0.016 C 
ATOM     79  C   UNL     1       5.031  -4.486  -0.741  1.00  0.00     0.093 C 
ATOM     80  C   UNL     1       4.614  -6.945  -2.365  1.00  0.00     0.001 C 
ATOM     81  C   UNL     1       5.405  -5.889  -0.227  1.00  0.00     0.014 C 
ATOM     82  C   UNL     1       4.553  -6.991  -0.846  1.00  0.00     0.001 C 
BRANCH  79  83
ATOM     83  C   UNL     1       5.848  -3.486   0.114  1.00  0.00     0.228 C 
ATOM     84  O   UNL     1       5.304  -3.037   1.139  1.00  0.00    -0.274 OA
ATOM     85  N   UNL     1       7.171  -3.185   0.009  1.00  0.00    -0.326 N 
ATOM     86  H   UNL     1       7.496  -2.518   0.655  1.00  0.00     0.169 HD
BRANCH  85  87
ATOM     87  C   UNL     1       8.136  -3.671  -0.867  1.00  0.00     0.041 A 
ATOM     88  C   UNL     1       9.232  -4.348  -0.339  1.00  0.00     0.026 A 
ATOM     89  C   UNL     1       8.006  -3.533  -2.237  1.00  0.00     0.040 A 
ATOM     90  C   UNL     1      10.072  -5.060  -1.194  1.00  0.00     0.003 A 
ATOM     91  C   UNL     1       8.761  -4.332  -3.097  1.00  0.00     0.041 A 
ATOM     92  C   UNL     1       9.800  -5.101  -2.564  1.00  0.00     0.014 A 
BRANCH  91  93
ATOM     93  C   UNL     1       8.265  -4.565  -4.442  1.00  0.00     0.248 A 
ATOM     94  N   UNL     1       7.779  -5.690  -4.929  1.00  0.00    -0.107 NA
ATOM     95  O   UNL     1       8.043  -3.486  -5.255  1.00  0.00    -0.416 OA
ATOM     96  N   UNL     1       7.158  -5.362  -6.112  1.00  0.00    -0.107 NA
ATOM     97  C   UNL     1       7.348  -4.069  -6.287  1.00  0.00     0.248 A 
BRANCH  97  98
ATOM     98  C   UNL     1       6.940  -3.226  -7.396  1.00  0.00     0.039 A 
ATOM     99  C   UNL     1       5.666  -3.380  -7.962  1.00  0.00     0.014 A 
ATOM    100  C   UNL     1       7.831  -2.310  -7.970  1.00  0.00     0.014 A 
ATOM    101  C   UNL     1       5.293  -2.637  -9.085  1.00  0.00     0.001 A 
ATOM    102  C   UNL     1       7.464  -1.581  -9.104  1.00  0.00     0.001 A 
ATOM    103  C   UNL     1       6.197  -1.746  -9.661  1.00  0.00     0.000 A 
ENDBRANCH  97  98
ENDBRANCH  91  93
ENDBRANCH  85  87
ENDBRANCH  79  83
ENDBRANCH  75  77
ENDBRANCH  74  75
ENDBRANCH  73  74
ENDBRANCH   1  73
TORSDOF 21
