REMARK SMILES CCOc1cc2c(cc1/C=C1/C(=O)N(c3cccc(C(=O)OCCOCCOC(=O)c4ccc(-c5c6nc(c(-c7cccc(S(=O)(=O)[O-])c7F)c7ccc([nH]7)c(-c7cccc(S(=O)(=O)[O-])c7F)c7nc(c(-c8cccc(S(=O)(=O)[O-])c8F)c8ccc5[nH]8)C=C7)C=C6)cc4)c3)C(=S)N=C1O)OCO2
REMARK SMILES IDX 24 1 23 2 22 3 20 4 21 5 19 6 15 7 16 8 94 9 17 10 18 11
REMARK SMILES IDX 14 12 10 13 11 14 12 15 98 16 13 17 97 18 95 19 96 20 9 21
REMARK SMILES IDX 4 22 5 23 6 24 8 25 7 26 102 27 100 28 101 29 3 30 2 31 1 32
REMARK SMILES IDX 99 33 25 35 26 36 27 37 28 38 29 39 30 40 31 41 32 42 93 43
REMARK SMILES IDX 33 44 92 45 34 46 35 47 36 48 86 49 37 50 91 51 85 52 87 53
REMARK SMILES IDX 38 54 90 55 84 56 83 57 39 59 71 60 51 61 70 62 52 63 55 64
REMARK SMILES IDX 69 65 88 66 53 67 54 68 68 70 89 71 56 72 40 73 41 74 49 75
REMARK SMILES IDX 42 76 44 77 50 78 43 79 45 80 46 81 47 82 48 83 72 84 73 85
REMARK SMILES IDX 81 86 74 87 76 88 82 89 75 90 77 91 78 92 79 93 80 94 57 95
REMARK SMILES IDX 58 96 66 97 59 98 61 99 67 100 60 101 62 102 63 103 64 104
REMARK SMILES IDX 65 105
REMARK H PARENT 99 34 87 58 55 69
REMARK Flexibility Score: inf
ROOT
ATOM      1  C   UNL     1      -2.039  11.128   4.668  1.00  0.00     0.202 C 
ENDROOT
BRANCH   1   2
ATOM      2  C   UNL     1      -2.692  10.117   3.719  1.00  0.00     0.261 C 
BRANCH   2   3
ATOM      3  O   UNL     1      -1.855   9.846   2.584  1.00  0.00    -0.460 OA
BRANCH   3   4
ATOM      4  C   UNL     1      -2.299  10.342   1.405  1.00  0.00     0.338 C 
ATOM      5  O   UNL     1      -3.378  10.876   1.190  1.00  0.00    -0.246 OA
BRANCH   4   6
ATOM      6  C   UNL     1      -1.189  10.353   0.423  1.00  0.00     0.062 A 
ATOM      7  C   UNL     1       0.888   9.479  -0.492  1.00  0.00     0.052 A 
ATOM      8  C   UNL     1       0.902  10.558  -1.398  1.00  0.00     0.027 A 
ATOM      9  C   UNL     1      -0.178   9.381   0.415  1.00  0.00     0.042 A 
ATOM     10  C   UNL     1      -0.097  11.533  -1.381  1.00  0.00     0.003 A 
ATOM     11  C   UNL     1      -1.141  11.430  -0.471  1.00  0.00     0.016 A 
BRANCH   7  12
ATOM     12  N   UNL     1       1.933   8.481  -0.534  1.00  0.00    -0.251 N 
ATOM     13  C   UNL     1       2.349   4.832  -0.443  1.00  0.00     0.031 C 
ATOM     14  C   UNL     1       2.643   6.131  -0.702  1.00  0.00     0.103 C 
ATOM     15  C   UNL     1       1.532   7.131  -0.558  1.00  0.00     0.270 C 
ATOM     16  C   UNL     1       3.892   6.737  -1.158  1.00  0.00     0.226 C 
ATOM     17  O   UNL     1       0.360   6.754  -0.527  1.00  0.00    -0.268 OA
ATOM     18  N   UNL     1       4.199   7.977  -1.121  1.00  0.00    -0.184 NA
ATOM     19  C   UNL     1       3.291   8.866  -0.602  1.00  0.00     0.210 C 
ATOM     20  S   UNL     1       3.900  10.362  -0.062  1.00  0.00    -0.038 S 
BRANCH  13  21
ATOM     21  C   UNL     1       3.160   3.586  -0.535  1.00  0.00     0.021 A 
ATOM     22  C   UNL     1       2.551   2.335  -0.843  1.00  0.00     0.130 A 
ATOM     23  C   UNL     1       3.317   1.205  -1.166  1.00  0.00     0.097 A 
ATOM     24  C   UNL     1       4.680   1.304  -1.061  1.00  0.00     0.169 A 
ATOM     25  C   UNL     1       4.547   3.588  -0.316  1.00  0.00     0.062 A 
ATOM     26  C   UNL     1       5.277   2.456  -0.623  1.00  0.00     0.166 A 
ATOM     27  O   UNL     1       5.576   0.324  -1.348  1.00  0.00    -0.453 OA
ATOM     28  O   UNL     1       6.633   2.349  -0.575  1.00  0.00    -0.454 OA
ATOM     29  C   UNL     1       6.813   0.997  -1.045  1.00  0.00     0.468 C 
BRANCH  22  30
ATOM     30  O   UNL     1       1.183   2.200  -0.904  1.00  0.00    -0.493 OA
BRANCH  30  31
ATOM     31  C   UNL     1       0.656   1.538   0.270  1.00  0.00     0.226 C 
ATOM     32  C   UNL     1       0.655   0.018   0.147  1.00  0.00     0.049 C 
ENDBRANCH  30  31
ENDBRANCH  22  30
ENDBRANCH  13  21
BRANCH  16  33
ATOM     33  O   UNL     1       4.792   5.946  -1.738  1.00  0.00    -0.493 OA
ATOM     34  H   UNL     1       4.635   5.025  -1.801  1.00  0.00     0.295 HD
ENDBRANCH  16  33
ENDBRANCH   7  12
ENDBRANCH   4   6
ENDBRANCH   3   4
ENDBRANCH   2   3
ENDBRANCH   1   2
BRANCH   1  35
ATOM     35  O   UNL     1      -1.785  12.437   4.154  1.00  0.00    -0.374 OA
BRANCH  35  36
ATOM     36  C   UNL     1      -0.636  12.604   3.323  1.00  0.00     0.202 C 
BRANCH  36  37
ATOM     37  C   UNL     1       0.735  12.685   4.006  1.00  0.00     0.261 C 
BRANCH  37  38
ATOM     38  O   UNL     1       1.069  11.490   4.729  1.00  0.00    -0.460 OA
BRANCH  38  39
ATOM     39  C   UNL     1       0.963  11.612   6.075  1.00  0.00     0.338 C 
ATOM     40  O   UNL     1       0.687  12.623   6.702  1.00  0.00    -0.246 OA
BRANCH  39  41
ATOM     41  C   UNL     1       1.050  10.288   6.717  1.00  0.00     0.060 A 
ATOM     42  C   UNL     1       0.029   9.950   7.613  1.00  0.00     0.016 A 
ATOM     43  C   UNL     1       2.138   9.435   6.522  1.00  0.00     0.016 A 
ATOM     44  C   UNL     1       0.130   8.793   8.376  1.00  0.00     0.010 A 
ATOM     45  C   UNL     1       2.235   8.268   7.289  1.00  0.00     0.010 A 
ATOM     46  C   UNL     1       1.257   7.968   8.255  1.00  0.00    -0.014 A 
BRANCH  46  47
ATOM     47  C   UNL     1       1.443   6.870   9.235  1.00  0.00     0.031 A 
ATOM     48  C   UNL     1       2.451   7.022  10.341  1.00  0.00     0.074 A 
ATOM     49  C   UNL     1       0.677   5.766   9.169  1.00  0.00     0.049 A 
ATOM     50  N   UNL     1       2.705   6.221  11.343  1.00  0.00    -0.248 NA
ATOM     51  C   UNL     1       3.287   8.234  10.316  1.00  0.00     0.031 C 
ATOM     52  C   UNL     1      -0.321   5.496   8.135  1.00  0.00     0.029 A 
ATOM     53  N   UNL     1       0.627   4.664   9.984  1.00  0.00    -0.354 N 
ATOM     54  C   UNL     1       3.746   6.812  12.050  1.00  0.00     0.074 A 
ATOM     55  C   UNL     1       4.089   8.032  11.352  1.00  0.00     0.031 C 
ATOM     56  C   UNL     1      -0.879   4.297   8.372  1.00  0.00     0.029 A 
ATOM     57  C   UNL     1      -0.263   3.708   9.559  1.00  0.00     0.049 A 
ATOM     58  H   UNL     1       1.175   4.568  10.796  1.00  0.00     0.167 HD
ATOM     59  C   UNL     1       4.352   6.387  13.184  1.00  0.00     0.034 A 
ATOM     60  C   UNL     1      -0.542   2.489  10.062  1.00  0.00     0.034 A 
ATOM     61  C   UNL     1       3.996   5.181  13.885  1.00  0.00     0.049 A 
ATOM     62  C   UNL     1       0.134   2.044  11.331  1.00  0.00     0.074 A 
ATOM     63  C   UNL     1       4.504   4.699  15.079  1.00  0.00     0.029 A 
ATOM     64  N   UNL     1       3.059   4.257  13.448  1.00  0.00    -0.354 N 
ATOM     65  N   UNL     1       1.022   2.677  12.059  1.00  0.00    -0.248 NA
ATOM     66  C   UNL     1      -0.263   0.737  11.872  1.00  0.00     0.031 C 
ATOM     67  C   UNL     1       3.909   3.460  15.338  1.00  0.00     0.029 A 
ATOM     68  C   UNL     1       2.988   3.197  14.336  1.00  0.00     0.049 A 
ATOM     69  H   UNL     1       2.524   4.342  12.627  1.00  0.00     0.167 HD
ATOM     70  C   UNL     1       1.261   1.865  13.162  1.00  0.00     0.074 A 
ATOM     71  C   UNL     1       0.409   0.702  13.014  1.00  0.00     0.031 C 
ATOM     72  C   UNL     1       2.110   2.062  14.201  1.00  0.00     0.034 A 
BRANCH  59  73
ATOM     73  C   UNL     1       5.466   7.234  13.745  1.00  0.00     0.023 A 
ATOM     74  C   UNL     1       5.180   8.487  14.325  1.00  0.00     0.012 A 
ATOM     75  C   UNL     1       6.794   6.763  13.743  1.00  0.00     0.148 A 
ATOM     76  C   UNL     1       6.201   9.273  14.859  1.00  0.00     0.002 A 
ATOM     77  C   UNL     1       7.799   7.529  14.321  1.00  0.00     0.091 A 
ATOM     78  F   UNL     1       7.052   5.580  13.167  1.00  0.00    -0.205 F 
ATOM     79  C   UNL     1       7.507   8.790  14.867  1.00  0.00     0.022 A 
BRANCH  77  80
ATOM     80  S   UNL     1       9.496   6.956  14.457  1.00  0.00     0.127 S 
ATOM     81  O   UNL     1      10.178   7.824  13.498  1.00  0.00    -0.237 OA
ATOM     82  O   UNL     1       9.804   7.236  15.859  1.00  0.00    -0.237 OA
ATOM     83  O   UNL     1       9.471   5.542  14.111  1.00  0.00    -0.744 OA
ENDBRANCH  77  80
ENDBRANCH  59  73
BRANCH  60  84
ATOM     84  C   UNL     1      -1.539   1.622   9.375  1.00  0.00     0.023 A 
ATOM     85  C   UNL     1      -2.785   1.365   9.978  1.00  0.00     0.012 A 
ATOM     86  C   UNL     1      -1.265   1.083   8.103  1.00  0.00     0.148 A 
ATOM     87  C   UNL     1      -3.730   0.562   9.338  1.00  0.00     0.002 A 
ATOM     88  C   UNL     1      -2.233   0.334   7.445  1.00  0.00     0.091 A 
ATOM     89  F   UNL     1      -0.068   1.331   7.553  1.00  0.00    -0.205 F 
ATOM     90  C   UNL     1      -3.459   0.057   8.069  1.00  0.00     0.022 A 
BRANCH  88  91
ATOM     91  S   UNL     1      -2.022  -0.238   5.756  1.00  0.00     0.127 S 
ATOM     92  O   UNL     1      -1.940  -1.685   5.937  1.00  0.00    -0.237 OA
ATOM     93  O   UNL     1      -3.253   0.237   5.123  1.00  0.00    -0.237 OA
ATOM     94  O   UNL     1      -0.810   0.405   5.265  1.00  0.00    -0.744 OA
ENDBRANCH  88  91
ENDBRANCH  60  84
BRANCH  72  95
ATOM     95  C   UNL     1       2.131   1.025  15.296  1.00  0.00     0.023 A 
ATOM     96  C   UNL     1       2.671  -0.254  15.055  1.00  0.00     0.012 A 
ATOM     97  C   UNL     1       1.660   1.342  16.586  1.00  0.00     0.148 A 
ATOM     98  C   UNL     1       2.699  -1.214  16.067  1.00  0.00     0.002 A 
ATOM     99  C   UNL     1       1.742   0.400  17.603  1.00  0.00     0.091 A 
ATOM    100  F   UNL     1       1.133   2.558  16.793  1.00  0.00    -0.205 F 
ATOM    101  C   UNL     1       2.246  -0.884  17.342  1.00  0.00     0.022 A 
BRANCH  99 102
ATOM    102  S   UNL     1       1.277   0.772  19.298  1.00  0.00     0.127 S 
ATOM    103  O   UNL     1       0.026   0.027  19.433  1.00  0.00    -0.237 OA
ATOM    104  O   UNL     1       2.400   0.221  20.056  1.00  0.00    -0.237 OA
ATOM    105  O   UNL     1       1.153   2.222  19.371  1.00  0.00    -0.744 OA
ENDBRANCH  99 102
ENDBRANCH  72  95
ENDBRANCH  46  47
ENDBRANCH  39  41
ENDBRANCH  38  39
ENDBRANCH  37  38
ENDBRANCH  36  37
ENDBRANCH  35  36
ENDBRANCH   1  35
TORSDOF 22
