REMARK SMILES COc1c(C)cccc1C(=O)NCc1ccc(C(=O)OCCOCCOC(=O)c2ccc(-c3c4nc(c(-c5cccc(S(=O)(=O)[O-])c5F)c5ccc([nH]5)c(-c5cccc(S(=O)(=O)[O-])c5F)c5nc(c(-c6cccc(S(=O)(=O)[O-])c6F)c6ccc3[nH]6)C=C5)C=C4)cc2)cc1
REMARK SMILES IDX 22 1 21 2 20 3 18 4 19 5 17 6 14 7 15 8 93 9 16 10 92 11
REMARK SMILES IDX 13 12 12 13 10 14 11 15 9 17 3 18 4 19 5 20 6 21 8 22 7 23
REMARK SMILES IDX 2 24 1 25 23 26 24 27 25 28 26 29 27 30 28 31 29 32 30 33
REMARK SMILES IDX 91 34 31 35 90 36 32 37 33 38 34 39 84 40 35 41 89 42 83 43
REMARK SMILES IDX 85 44 36 45 88 46 82 47 81 48 37 50 69 51 49 52 68 53 50 54
REMARK SMILES IDX 53 55 67 56 86 57 51 58 52 59 66 61 87 62 54 63 38 64 39 65
REMARK SMILES IDX 47 66 40 67 42 68 48 69 41 70 43 71 44 72 45 73 46 74 70 75
REMARK SMILES IDX 71 76 79 77 72 78 74 79 80 80 73 81 75 82 76 83 77 84 78 85
REMARK SMILES IDX 55 86 56 87 64 88 57 89 59 90 65 91 58 92 60 93 61 94 62 95
REMARK SMILES IDX 63 96
REMARK H PARENT 12 16 85 49 53 60
REMARK Flexibility Score: inf
ROOT
ATOM      1  C   UNL     1       6.215  -2.713  -0.223  1.00  0.00     0.202 C 
ENDROOT
BRANCH   1   2
ATOM      2  C   UNL     1       5.192  -3.752   0.343  1.00  0.00     0.261 C 
BRANCH   2   3
ATOM      3  O   UNL     1       4.061  -3.287   1.055  1.00  0.00    -0.460 OA
BRANCH   3   4
ATOM      4  C   UNL     1       4.221  -2.363   2.021  1.00  0.00     0.338 C 
ATOM      5  O   UNL     1       5.245  -1.792   2.340  1.00  0.00    -0.246 OA
BRANCH   4   6
ATOM      6  C   UNL     1       2.840  -2.001   2.422  1.00  0.00     0.060 A 
ATOM      7  C   UNL     1       0.178  -1.156   2.402  1.00  0.00    -0.029 A 
ATOM      8  C   UNL     1       1.236  -0.229   2.537  1.00  0.00     0.006 A 
ATOM      9  C   UNL     1       0.467  -2.516   2.487  1.00  0.00     0.006 A 
ATOM     10  C   UNL     1       2.565  -0.651   2.582  1.00  0.00     0.016 A 
ATOM     11  C   UNL     1       1.792  -2.936   2.414  1.00  0.00     0.016 A 
BRANCH   7  12
ATOM     12  C   UNL     1      -1.206  -0.644   2.081  1.00  0.00     0.152 C 
BRANCH  12  13
ATOM     13  N   UNL     1      -2.201  -1.575   1.532  1.00  0.00    -0.348 N 
ATOM     14  C   UNL     1      -2.241  -2.404   0.429  1.00  0.00     0.255 C 
ATOM     15  O   UNL     1      -3.296  -2.983   0.163  1.00  0.00    -0.269 OA
ATOM     16  H   UNL     1      -3.024  -1.616   2.071  1.00  0.00     0.164 HD
BRANCH  14  17
ATOM     17  C   UNL     1      -1.026  -2.754  -0.341  1.00  0.00     0.082 A 
ATOM     18  C   UNL     1      -0.099  -1.783  -0.747  1.00  0.00     0.134 A 
ATOM     19  C   UNL     1       1.205  -2.225  -0.957  1.00  0.00    -0.008 A 
ATOM     20  C   UNL     1       2.358  -1.288  -0.822  1.00  0.00     0.048 C 
ATOM     21  C   UNL     1       1.478  -3.614  -1.069  1.00  0.00     0.007 A 
ATOM     22  C   UNL     1      -0.760  -4.137  -0.460  1.00  0.00     0.018 A 
ATOM     23  C   UNL     1       0.490  -4.569  -0.868  1.00  0.00     0.001 A 
BRANCH  18  24
ATOM     24  O   UNL     1      -0.553  -0.500  -0.748  1.00  0.00    -0.496 OA
ATOM     25  C   UNL     1       0.117   0.617  -1.308  1.00  0.00     0.278 C 
ENDBRANCH  18  24
ENDBRANCH  14  17
ENDBRANCH  12  13
ENDBRANCH   7  12
ENDBRANCH   4   6
ENDBRANCH   3   4
ENDBRANCH   2   3
ENDBRANCH   1   2
BRANCH   1  26
ATOM     26  O   UNL     1       5.813  -1.807  -1.219  1.00  0.00    -0.374 OA
BRANCH  26  27
ATOM     27  C   UNL     1       5.043  -2.485  -2.167  1.00  0.00     0.202 C 
BRANCH  27  28
ATOM     28  C   UNL     1       5.462  -3.857  -2.758  1.00  0.00     0.261 C 
BRANCH  28  29
ATOM     29  O   UNL     1       6.343  -4.954  -2.104  1.00  0.00    -0.460 OA
BRANCH  29  30
ATOM     30  C   UNL     1       7.144  -5.858  -1.486  1.00  0.00     0.338 C 
ATOM     31  O   UNL     1       7.202  -6.976  -1.999  1.00  0.00    -0.246 OA
BRANCH  30  32
ATOM     32  C   UNL     1       7.877  -5.676  -0.153  1.00  0.00     0.060 A 
ATOM     33  C   UNL     1       7.974  -6.705   0.785  1.00  0.00     0.016 A 
ATOM     34  C   UNL     1       8.323  -4.487   0.342  1.00  0.00     0.016 A 
ATOM     35  C   UNL     1       7.766  -6.449   2.157  1.00  0.00     0.010 A 
ATOM     36  C   UNL     1       7.894  -4.194   1.630  1.00  0.00     0.010 A 
ATOM     37  C   UNL     1       7.435  -5.172   2.510  1.00  0.00    -0.014 A 
BRANCH  37  38
ATOM     38  C   UNL     1       6.782  -4.660   3.717  1.00  0.00     0.031 A 
ATOM     39  C   UNL     1       7.686  -3.874   4.599  1.00  0.00     0.074 A 
ATOM     40  C   UNL     1       5.428  -4.686   3.902  1.00  0.00     0.049 A 
ATOM     41  N   UNL     1       7.522  -3.718   5.863  1.00  0.00    -0.248 NA
ATOM     42  C   UNL     1       8.955  -3.276   4.141  1.00  0.00     0.031 C 
ATOM     43  C   UNL     1       4.626  -3.792   4.755  1.00  0.00     0.029 A 
ATOM     44  N   UNL     1       4.440  -5.498   3.340  1.00  0.00    -0.354 N 
ATOM     45  C   UNL     1       8.369  -2.685   6.215  1.00  0.00     0.074 A 
ATOM     46  C   UNL     1       9.402  -2.669   5.236  1.00  0.00     0.031 C 
ATOM     47  C   UNL     1       3.348  -4.214   4.815  1.00  0.00     0.029 A 
ATOM     48  C   UNL     1       3.272  -5.485   4.121  1.00  0.00     0.049 A 
ATOM     49  H   UNL     1       4.548  -6.012   2.507  1.00  0.00     0.167 HD
ATOM     50  C   UNL     1       7.949  -1.769   7.122  1.00  0.00     0.034 A 
ATOM     51  C   UNL     1       2.759  -6.628   4.676  1.00  0.00     0.034 A 
ATOM     52  C   UNL     1       6.654  -2.193   7.684  1.00  0.00     0.049 A 
ATOM     53  C   UNL     1       3.106  -6.671   6.155  1.00  0.00     0.074 A 
ATOM     54  C   UNL     1       5.362  -1.718   7.555  1.00  0.00     0.029 A 
ATOM     55  N   UNL     1       6.539  -3.482   8.208  1.00  0.00    -0.354 N 
ATOM     56  N   UNL     1       3.842  -5.750   6.714  1.00  0.00    -0.248 NA
ATOM     57  C   UNL     1       2.648  -7.653   7.134  1.00  0.00     0.031 C 
ATOM     58  C   UNL     1       4.472  -2.780   7.913  1.00  0.00     0.029 A 
ATOM     59  C   UNL     1       5.217  -3.891   8.287  1.00  0.00     0.049 A 
ATOM     60  H   UNL     1       7.304  -4.035   8.488  1.00  0.00     0.167 HD
ATOM     61  C   UNL     1       4.045  -6.004   8.024  1.00  0.00     0.074 A 
ATOM     62  C   UNL     1       3.239  -7.194   8.257  1.00  0.00     0.031 C 
ATOM     63  C   UNL     1       4.891  -5.237   8.777  1.00  0.00     0.034 A 
BRANCH  50  64
ATOM     64  C   UNL     1       8.585  -0.405   7.368  1.00  0.00     0.023 A 
ATOM     65  C   UNL     1       8.085   0.301   8.480  1.00  0.00     0.012 A 
ATOM     66  C   UNL     1       9.596   0.265   6.616  1.00  0.00     0.148 A 
ATOM     67  C   UNL     1       8.564   1.562   8.852  1.00  0.00     0.002 A 
ATOM     68  C   UNL     1      10.130   1.492   7.033  1.00  0.00     0.091 A 
ATOM     69  F   UNL     1      10.001  -0.214   5.438  1.00  0.00    -0.205 F 
ATOM     70  C   UNL     1       9.605   2.146   8.147  1.00  0.00     0.022 A 
BRANCH  68  71
ATOM     71  S   UNL     1      11.531   2.295   6.218  1.00  0.00     0.127 S 
ATOM     72  O   UNL     1      10.931   3.532   5.716  1.00  0.00    -0.237 OA
ATOM     73  O   UNL     1      12.468   2.485   7.326  1.00  0.00    -0.237 OA
ATOM     74  O   UNL     1      11.995   1.373   5.189  1.00  0.00    -0.744 OA
ENDBRANCH  68  71
ENDBRANCH  50  64
BRANCH  51  75
ATOM     75  C   UNL     1       2.767  -7.745   3.683  1.00  0.00     0.023 A 
ATOM     76  C   UNL     1       1.934  -7.547   2.546  1.00  0.00     0.012 A 
ATOM     77  C   UNL     1       3.909  -8.549   3.560  1.00  0.00     0.148 A 
ATOM     78  C   UNL     1       2.363  -7.928   1.275  1.00  0.00     0.002 A 
ATOM     79  C   UNL     1       4.329  -8.921   2.288  1.00  0.00     0.091 A 
ATOM     80  F   UNL     1       4.626  -8.817   4.659  1.00  0.00    -0.205 F 
ATOM     81  C   UNL     1       3.589  -8.563   1.144  1.00  0.00     0.022 A 
BRANCH  79  82
ATOM     82  S   UNL     1       5.957  -9.611   2.011  1.00  0.00     0.127 S 
ATOM     83  O   UNL     1       5.688 -11.037   1.878  1.00  0.00    -0.237 OA
ATOM     84  O   UNL     1       6.327  -8.959   0.760  1.00  0.00    -0.237 OA
ATOM     85  O   UNL     1       6.743  -9.222   3.172  1.00  0.00    -0.744 OA
ENDBRANCH  79  82
ENDBRANCH  51  75
BRANCH  63  86
ATOM     86  C   UNL     1       5.461  -5.723  10.085  1.00  0.00     0.023 A 
ATOM     87  C   UNL     1       5.488  -7.094  10.408  1.00  0.00     0.012 A 
ATOM     88  C   UNL     1       6.106  -4.841  10.984  1.00  0.00     0.148 A 
ATOM     89  C   UNL     1       5.969  -7.552  11.632  1.00  0.00     0.002 A 
ATOM     90  C   UNL     1       6.716  -5.322  12.133  1.00  0.00     0.091 A 
ATOM     91  F   UNL     1       6.117  -3.523  10.745  1.00  0.00    -0.205 F 
ATOM     92  C   UNL     1       6.592  -6.665  12.493  1.00  0.00     0.022 A 
BRANCH  90  93
ATOM     93  S   UNL     1       7.781  -4.286  13.139  1.00  0.00     0.127 S 
ATOM     94  O   UNL     1       6.933  -4.039  14.304  1.00  0.00    -0.237 OA
ATOM     95  O   UNL     1       8.918  -5.174  13.386  1.00  0.00    -0.237 OA
ATOM     96  O   UNL     1       8.095  -3.121  12.324  1.00  0.00    -0.744 OA
ENDBRANCH  90  93
ENDBRANCH  63  86
ENDBRANCH  37  38
ENDBRANCH  30  32
ENDBRANCH  29  30
ENDBRANCH  28  29
ENDBRANCH  27  28
ENDBRANCH  26  27
ENDBRANCH   1  26
TORSDOF 21
