REMARK SMILES CC(C)Cc1ccc(S(=O)(=O)Nc2cnc(N3CCCC3)c(C(=O)OCCOCCOC(=O)c3ccc(-c4c5nc(c(-c6cccc(S(=O)(=O)[O-])c6F)c6ccc([nH]6)c(-c6cccc(S(=O)(=O)[O-])c6F)c6nc(c(-c7cccc(S(=O)(=O)[O-])c7F)c7ccc4[nH]7)C=C6)C=C5)cc3)c2)cc1
REMARK SMILES IDX 27 1 26 2 25 3 23 4 24 5 22 6 13 7 14 8 97 9 15 10 16 11
REMARK SMILES IDX 12 12 9 14 10 15 11 16 8 17 5 18 6 19 99 20 7 21 98 22 4 23
REMARK SMILES IDX 2 24 1 25 3 26 17 27 18 28 21 29 19 30 20 31 28 32 29 33
REMARK SMILES IDX 30 34 31 35 32 36 33 37 34 38 35 39 96 40 36 41 95 42 37 43
REMARK SMILES IDX 38 44 39 45 89 46 40 47 94 48 88 49 90 50 41 51 93 52 87 53
REMARK SMILES IDX 86 54 42 56 74 57 54 58 73 59 55 60 58 61 72 62 91 63 56 64
REMARK SMILES IDX 57 65 71 67 92 68 59 69 43 70 44 71 52 72 45 73 47 74 53 75
REMARK SMILES IDX 46 76 48 77 49 78 50 79 51 80 75 81 76 82 84 83 77 84 79 85
REMARK SMILES IDX 85 86 78 87 80 88 81 89 82 90 83 91 60 92 61 93 69 94 62 95
REMARK SMILES IDX 64 96 70 97 63 98 65 99 66 100 67 101 68 102
REMARK H PARENT 12 13 90 55 58 66
REMARK Flexibility Score: inf
ROOT
ATOM      1  C   UNL     1       2.037  -3.070   2.530  1.00  0.00     0.202 C 
ENDROOT
BRANCH   1   2
ATOM      2  C   UNL     1       0.919  -2.237   1.904  1.00  0.00     0.261 C 
BRANCH   2   3
ATOM      3  O   UNL     1       0.077  -1.588   2.869  1.00  0.00    -0.460 OA
BRANCH   3   4
ATOM      4  C   UNL     1      -1.256  -1.762   2.674  1.00  0.00     0.342 C 
ATOM      5  O   UNL     1      -1.773  -2.346   1.737  1.00  0.00    -0.246 OA
BRANCH   4   6
ATOM      6  C   UNL     1      -2.018  -1.111   3.758  1.00  0.00     0.104 A 
ATOM      7  C   UNL     1      -2.530   0.964   4.870  1.00  0.00     0.068 A 
ATOM      8  C   UNL     1      -3.671   0.344   5.355  1.00  0.00     0.140 A 
ATOM      9  C   UNL     1      -1.682   0.213   4.072  1.00  0.00     0.048 A 
ATOM     10  N   UNL     1      -3.965  -0.965   5.143  1.00  0.00    -0.236 NA
ATOM     11  C   UNL     1      -3.144  -1.704   4.350  1.00  0.00     0.143 A 
BRANCH   7  12
ATOM     12  N   UNL     1      -2.249   2.357   5.044  1.00  0.00    -0.278 N 
ATOM     13  H   UNL     1      -1.695   2.669   5.795  1.00  0.00     0.180 HD
BRANCH  12  14
ATOM     14  S   UNL     1      -2.902   3.468   3.913  1.00  0.00     0.261 S 
ATOM     15  O   UNL     1      -2.236   4.714   4.181  1.00  0.00    -0.201 OA
ATOM     16  O   UNL     1      -4.348   3.363   4.024  1.00  0.00    -0.201 OA
BRANCH  14  17
ATOM     17  C   UNL     1      -2.433   2.889   2.301  1.00  0.00     0.087 A 
ATOM     18  C   UNL     1      -1.636   1.870  -0.191  1.00  0.00    -0.048 A 
ATOM     19  C   UNL     1      -1.105   3.076   0.293  1.00  0.00     0.005 A 
ATOM     20  C   UNL     1      -2.645   1.237   0.545  1.00  0.00     0.005 A 
ATOM     21  C   UNL     1      -1.478   3.575   1.546  1.00  0.00     0.022 A 
ATOM     22  C   UNL     1      -3.072   1.765   1.764  1.00  0.00     0.022 A 
BRANCH  18  23
ATOM     23  C   UNL     1      -1.157   1.253  -1.490  1.00  0.00     0.038 C 
BRANCH  23  24
ATOM     24  C   UNL     1       0.378   1.197  -1.666  1.00  0.00    -0.013 C 
ATOM     25  C   UNL     1       1.058   0.465  -0.512  1.00  0.00     0.008 C 
ATOM     26  C   UNL     1       0.735   0.486  -2.975  1.00  0.00     0.008 C 
ENDBRANCH  23  24
ENDBRANCH  18  23
ENDBRANCH  14  17
ENDBRANCH  12  14
ENDBRANCH   7  12
BRANCH  11  27
ATOM     27  N   UNL     1      -3.470  -3.034   4.267  1.00  0.00    -0.356 N 
ATOM     28  C   UNL     1      -2.644  -4.053   4.890  1.00  0.00     0.118 C 
ATOM     29  C   UNL     1      -4.190  -3.561   3.114  1.00  0.00     0.118 C 
ATOM     30  C   UNL     1      -2.381  -5.033   3.754  1.00  0.00     0.023 C 
ATOM     31  C   UNL     1      -3.703  -5.013   2.996  1.00  0.00     0.023 C 
ENDBRANCH  11  27
ENDBRANCH   4   6
ENDBRANCH   3   4
ENDBRANCH   2   3
ENDBRANCH   1   2
BRANCH   1  32
ATOM     32  O   UNL     1       1.687  -4.098   3.450  1.00  0.00    -0.374 OA
BRANCH  32  33
ATOM     33  C   UNL     1       0.994  -3.720   4.632  1.00  0.00     0.202 C 
BRANCH  33  34
ATOM     34  C   UNL     1       1.720  -2.916   5.718  1.00  0.00     0.261 C 
BRANCH  34  35
ATOM     35  O   UNL     1       2.423  -1.762   5.244  1.00  0.00    -0.460 OA
BRANCH  35  36
ATOM     36  C   UNL     1       3.764  -1.941   5.146  1.00  0.00     0.338 C 
ATOM     37  O   UNL     1       4.394  -2.952   5.413  1.00  0.00    -0.246 OA
BRANCH  36  38
ATOM     38  C   UNL     1       4.383  -0.771   4.501  1.00  0.00     0.060 A 
ATOM     39  C   UNL     1       5.140  -0.992   3.343  1.00  0.00     0.016 A 
ATOM     40  C   UNL     1       4.311   0.496   5.081  1.00  0.00     0.016 A 
ATOM     41  C   UNL     1       5.876   0.049   2.787  1.00  0.00     0.010 A 
ATOM     42  C   UNL     1       5.064   1.536   4.531  1.00  0.00     0.010 A 
ATOM     43  C   UNL     1       5.881   1.303   3.410  1.00  0.00    -0.014 A 
BRANCH  43  44
ATOM     44  C   UNL     1       6.883   2.310   3.000  1.00  0.00     0.031 A 
ATOM     45  C   UNL     1       8.162   2.410   3.784  1.00  0.00     0.074 A 
ATOM     46  C   UNL     1       6.659   3.112   1.946  1.00  0.00     0.049 A 
ATOM     47  N   UNL     1       9.172   3.222   3.620  1.00  0.00    -0.248 NA
ATOM     48  C   UNL     1       8.323   1.468   4.905  1.00  0.00     0.031 C 
ATOM     49  C   UNL     1       5.460   3.090   1.111  1.00  0.00     0.029 A 
ATOM     50  N   UNL     1       7.426   4.116   1.415  1.00  0.00    -0.354 N 
ATOM     51  C   UNL     1      10.077   2.908   4.627  1.00  0.00     0.074 A 
ATOM     52  C   UNL     1       9.491   1.839   5.407  1.00  0.00     0.031 C 
ATOM     53  C   UNL     1       5.560   4.058   0.183  1.00  0.00     0.029 A 
ATOM     54  C   UNL     1       6.819   4.778   0.376  1.00  0.00     0.049 A 
ATOM     55  H   UNL     1       8.326   4.341   1.746  1.00  0.00     0.167 HD
ATOM     56  C   UNL     1      11.293   3.448   4.871  1.00  0.00     0.034 A 
ATOM     57  C   UNL     1       7.229   5.853  -0.326  1.00  0.00     0.034 A 
ATOM     58  C   UNL     1      11.874   4.501   4.084  1.00  0.00     0.049 A 
ATOM     59  C   UNL     1       8.574   6.457  -0.016  1.00  0.00     0.074 A 
ATOM     60  C   UNL     1      13.115   5.096   4.221  1.00  0.00     0.029 A 
ATOM     61  N   UNL     1      11.246   5.124   3.016  1.00  0.00    -0.354 N 
ATOM     62  N   UNL     1       9.468   6.075   0.864  1.00  0.00    -0.248 NA
ATOM     63  C   UNL     1       8.980   7.621  -0.817  1.00  0.00     0.031 C 
ATOM     64  C   UNL     1      13.228   6.094   3.247  1.00  0.00     0.029 A 
ATOM     65  C   UNL     1      12.067   6.105   2.490  1.00  0.00     0.049 A 
ATOM     66  H   UNL     1      10.347   4.901   2.682  1.00  0.00     0.167 HD
ATOM     67  C   UNL     1      10.556   6.925   0.698  1.00  0.00     0.074 A 
ATOM     68  C   UNL     1      10.214   7.833  -0.378  1.00  0.00     0.031 C 
ATOM     69  C   UNL     1      11.728   6.961   1.381  1.00  0.00     0.034 A 
BRANCH  56  70
ATOM     70  C   UNL     1      12.083   2.887   6.024  1.00  0.00     0.023 A 
ATOM     71  C   UNL     1      12.669   1.610   5.908  1.00  0.00     0.012 A 
ATOM     72  C   UNL     1      12.267   3.627   7.207  1.00  0.00     0.148 A 
ATOM     73  C   UNL     1      13.397   1.063   6.964  1.00  0.00     0.002 A 
ATOM     74  C   UNL     1      13.028   3.092   8.241  1.00  0.00     0.091 A 
ATOM     75  F   UNL     1      11.677   4.826   7.311  1.00  0.00    -0.205 F 
ATOM     76  C   UNL     1      13.584   1.808   8.126  1.00  0.00     0.022 A 
BRANCH  74  77
ATOM     77  S   UNL     1      13.380   4.005   9.748  1.00  0.00     0.127 S 
ATOM     78  O   UNL     1      12.486   3.353  10.704  1.00  0.00    -0.237 OA
ATOM     79  O   UNL     1      14.802   3.726   9.955  1.00  0.00    -0.237 OA
ATOM     80  O   UNL     1      13.075   5.397   9.449  1.00  0.00    -0.744 OA
ENDBRANCH  74  77
ENDBRANCH  56  70
BRANCH  57  81
ATOM     81  C   UNL     1       6.376   6.390  -1.423  1.00  0.00     0.023 A 
ATOM     82  C   UNL     1       6.791   6.240  -2.760  1.00  0.00     0.012 A 
ATOM     83  C   UNL     1       5.139   7.009  -1.153  1.00  0.00     0.148 A 
ATOM     84  C   UNL     1       6.003   6.718  -3.807  1.00  0.00     0.002 A 
ATOM     85  C   UNL     1       4.333   7.432  -2.203  1.00  0.00     0.091 A 
ATOM     86  F   UNL     1       4.769   7.155   0.127  1.00  0.00    -0.205 F 
ATOM     87  C   UNL     1       4.770   7.303  -3.530  1.00  0.00     0.022 A 
BRANCH  85  88
ATOM     88  S   UNL     1       2.673   8.069  -1.948  1.00  0.00     0.127 S 
ATOM     89  O   UNL     1       2.831   9.473  -2.317  1.00  0.00    -0.237 OA
ATOM     90  O   UNL     1       1.896   7.264  -2.893  1.00  0.00    -0.237 OA
ATOM     91  O   UNL     1       2.364   7.812  -0.548  1.00  0.00    -0.744 OA
ENDBRANCH  85  88
ENDBRANCH  57  81
BRANCH  69  92
ATOM     92  C   UNL     1      12.747   7.991   0.969  1.00  0.00     0.023 A 
ATOM     93  C   UNL     1      12.547   9.345   1.303  1.00  0.00     0.012 A 
ATOM     94  C   UNL     1      13.941   7.604   0.329  1.00  0.00     0.148 A 
ATOM     95  C   UNL     1      13.509  10.302   0.983  1.00  0.00     0.002 A 
ATOM     96  C   UNL     1      14.916   8.556   0.055  1.00  0.00     0.091 A 
ATOM     97  F   UNL     1      14.103   6.314   0.003  1.00  0.00    -0.205 F 
ATOM     98  C   UNL     1      14.697   9.907   0.371  1.00  0.00     0.022 A 
BRANCH  96  99
ATOM     99  S   UNL     1      16.513   8.121  -0.642  1.00  0.00     0.127 S 
ATOM    100  O   UNL     1      16.375   8.589  -2.020  1.00  0.00    -0.237 OA
ATOM    101  O   UNL     1      17.436   8.906   0.178  1.00  0.00    -0.237 OA
ATOM    102  O   UNL     1      16.641   6.679  -0.478  1.00  0.00    -0.744 OA
ENDBRANCH  96  99
ENDBRANCH  69  92
ENDBRANCH  43  44
ENDBRANCH  36  38
ENDBRANCH  35  36
ENDBRANCH  34  35
ENDBRANCH  33  34
ENDBRANCH  32  33
ENDBRANCH   1  32
TORSDOF 23
