REMARK SMILES CC(C)(C)OC(=O)N[C@H](Cc1ccc(N=[N+]=[N-])cc1)C(=O)OCCOCCOC(=O)c1ccc(-c2c3nc(c(-c4cccc(S(=O)(=O)[O-])c4F)c4ccc([nH]4)c(-c4cccc(S(=O)(=O)[O-])c4F)c4nc(c(-c5cccc(S(=O)(=O)[O-])c5F)c5ccc2[nH]5)C=C4)C=C3)cc1
REMARK SMILES IDX 25 1 24 2 23 3 22 4 20 5 21 6 9 7 8 8 6 9 7 10 5 12 2 13
REMARK SMILES IDX 1 14 3 15 4 16 10 17 11 18 12 19 19 20 13 21 18 22 14 23
REMARK SMILES IDX 15 24 16 25 17 26 26 27 27 28 28 29 29 30 30 31 31 32 32 33
REMARK SMILES IDX 93 34 33 35 92 36 34 37 35 38 36 39 86 40 37 41 91 42 85 43
REMARK SMILES IDX 87 44 38 45 90 46 84 47 83 48 39 50 71 51 51 52 70 53 52 54
REMARK SMILES IDX 55 55 69 56 88 57 53 58 54 59 68 61 89 62 56 63 40 64 41 65
REMARK SMILES IDX 49 66 42 67 44 68 50 69 43 70 45 71 46 72 47 73 48 74 72 75
REMARK SMILES IDX 73 76 81 77 74 78 76 79 82 80 75 81 77 82 78 83 79 84 80 85
REMARK SMILES IDX 57 86 58 87 66 88 59 89 61 90 67 91 60 92 62 93 63 94 64 95
REMARK SMILES IDX 65 96
REMARK H PARENT 8 11 87 49 55 60
REMARK Flexibility Score: inf
ROOT
ATOM      1  O   UNL     1      -0.696   1.485   7.108  1.00  0.00    -0.374 OA
ENDROOT
BRANCH   1   2
ATOM      2  C   UNL     1      -0.378   2.737   7.708  1.00  0.00     0.202 C 
BRANCH   2   3
ATOM      3  C   UNL     1       0.922   3.421   7.278  1.00  0.00     0.261 C 
BRANCH   3   4
ATOM      4  O   UNL     1       0.997   3.679   5.864  1.00  0.00    -0.462 OA
BRANCH   4   5
ATOM      5  C   UNL     1       1.919   2.947   5.186  1.00  0.00     0.329 C 
ATOM      6  O   UNL     1       2.626   2.081   5.698  1.00  0.00    -0.250 OA
BRANCH   5   7
ATOM      7  C   UNL     1       2.135   3.393   3.736  1.00  0.00     0.199 C 
BRANCH   7   8
ATOM      8  N   UNL     1       3.475   3.988   3.792  1.00  0.00    -0.308 N 
ATOM      9  C   UNL     1       4.264   4.343   2.752  1.00  0.00     0.408 C 
ATOM     10  O   UNL     1       5.411   4.721   2.934  1.00  0.00    -0.225 OA
ATOM     11  H   UNL     1       3.842   4.146   4.691  1.00  0.00     0.168 HD
BRANCH   9  12
ATOM     12  O   UNL     1       3.627   4.253   1.565  1.00  0.00    -0.444 OA
BRANCH  12  13
ATOM     13  C   UNL     1       4.227   4.842   0.388  1.00  0.00     0.106 C 
ATOM     14  C   UNL     1       3.181   4.648  -0.719  1.00  0.00     0.056 C 
ATOM     15  C   UNL     1       5.510   4.105  -0.006  1.00  0.00     0.056 C 
ATOM     16  C   UNL     1       4.453   6.347   0.584  1.00  0.00     0.056 C 
ENDBRANCH  12  13
ENDBRANCH   9  12
ENDBRANCH   7   8
BRANCH   7  17
ATOM     17  C   UNL     1       1.054   4.308   3.109  1.00  0.00     0.072 C 
BRANCH  17  18
ATOM     18  C   UNL     1      -0.089   3.630   2.360  1.00  0.00    -0.045 A 
ATOM     19  C   UNL     1       0.074   2.486   1.567  1.00  0.00     0.004 A 
ATOM     20  C   UNL     1      -1.356   4.236   2.369  1.00  0.00     0.004 A 
ATOM     21  C   UNL     1      -1.020   1.912   0.899  1.00  0.00     0.010 A 
ATOM     22  C   UNL     1      -2.445   3.665   1.694  1.00  0.00     0.010 A 
ATOM     23  C   UNL     1      -2.297   2.472   0.980  1.00  0.00     0.038 A 
BRANCH  23  24
ATOM     24  N   UNL     1      -3.350   1.839   0.292  1.00  0.00    -0.061 NA
ATOM     25  N   UNL     1      -4.437   1.840   0.896  1.00  0.00     0.005 N 
ATOM     26  N   UNL     1      -5.446   1.836   1.437  1.00  0.00    -0.003 NA
ENDBRANCH  23  24
ENDBRANCH  17  18
ENDBRANCH   7  17
ENDBRANCH   5   7
ENDBRANCH   4   5
ENDBRANCH   3   4
ENDBRANCH   2   3
ENDBRANCH   1   2
BRANCH   1  27
ATOM     27  C   UNL     1      -0.977   1.457   5.712  1.00  0.00     0.202 C 
BRANCH  27  28
ATOM     28  C   UNL     1      -2.157   2.290   5.199  1.00  0.00     0.261 C 
BRANCH  28  29
ATOM     29  O   UNL     1      -2.047   3.697   5.493  1.00  0.00    -0.460 OA
BRANCH  29  30
ATOM     30  C   UNL     1      -3.153   4.223   6.079  1.00  0.00     0.338 C 
ATOM     31  O   UNL     1      -4.219   3.658   6.266  1.00  0.00    -0.246 OA
BRANCH  30  32
ATOM     32  C   UNL     1      -2.893   5.558   6.648  1.00  0.00     0.060 A 
ATOM     33  C   UNL     1      -2.869   5.662   8.043  1.00  0.00     0.016 A 
ATOM     34  C   UNL     1      -2.894   6.707   5.854  1.00  0.00     0.016 A 
ATOM     35  C   UNL     1      -2.912   6.914   8.650  1.00  0.00     0.010 A 
ATOM     36  C   UNL     1      -2.928   7.968   6.471  1.00  0.00     0.010 A 
ATOM     37  C   UNL     1      -2.986   8.079   7.873  1.00  0.00    -0.014 A 
BRANCH  37  38
ATOM     38  C   UNL     1      -3.221   9.380   8.558  1.00  0.00     0.031 A 
ATOM     39  C   UNL     1      -4.573  10.044   8.490  1.00  0.00     0.074 A 
ATOM     40  C   UNL     1      -2.247   9.930   9.307  1.00  0.00     0.049 A 
ATOM     41  N   UNL     1      -4.994  11.125   9.098  1.00  0.00    -0.248 NA
ATOM     42  C   UNL     1      -5.583   9.413   7.627  1.00  0.00     0.031 C 
ATOM     43  C   UNL     1      -0.895   9.392   9.454  1.00  0.00     0.029 A 
ATOM     44  N   UNL     1      -2.245  11.062  10.083  1.00  0.00    -0.354 N 
ATOM     45  C   UNL     1      -6.306  11.318   8.677  1.00  0.00     0.074 A 
ATOM     46  C   UNL     1      -6.605  10.250   7.746  1.00  0.00     0.031 C 
ATOM     47  C   UNL     1      -0.193  10.193  10.272  1.00  0.00     0.029 A 
ATOM     48  C   UNL     1      -1.034  11.315  10.683  1.00  0.00     0.049 A 
ATOM     49  H   UNL     1      -3.035  11.638  10.200  1.00  0.00     0.167 HD
ATOM     50  C   UNL     1      -7.186  12.282   9.041  1.00  0.00     0.034 A 
ATOM     51  C   UNL     1      -0.639  12.339  11.465  1.00  0.00     0.034 A 
ATOM     52  C   UNL     1      -6.893  13.338   9.978  1.00  0.00     0.049 A 
ATOM     53  C   UNL     1      -1.633  13.403  11.845  1.00  0.00     0.074 A 
ATOM     54  C   UNL     1      -7.736  14.332  10.445  1.00  0.00     0.029 A 
ATOM     55  N   UNL     1      -5.661  13.550  10.577  1.00  0.00    -0.354 N 
ATOM     56  N   UNL     1      -2.900  13.503  11.526  1.00  0.00    -0.248 NA
ATOM     57  C   UNL     1      -1.150  14.474  12.729  1.00  0.00     0.031 C 
ATOM     58  C   UNL     1      -7.001  15.171  11.290  1.00  0.00     0.029 A 
ATOM     59  C   UNL     1      -5.716  14.667  11.396  1.00  0.00     0.049 A 
ATOM     60  H   UNL     1      -4.864  12.989  10.441  1.00  0.00     0.167 HD
ATOM     61  C   UNL     1      -3.376  14.622  12.201  1.00  0.00     0.074 A 
ATOM     62  C   UNL     1      -2.265  15.151  12.965  1.00  0.00     0.031 C 
ATOM     63  C   UNL     1      -4.618  15.168  12.183  1.00  0.00     0.034 A 
BRANCH  50  64
ATOM     64  C   UNL     1      -8.567  12.242   8.433  1.00  0.00     0.023 A 
ATOM     65  C   UNL     1      -9.475  11.232   8.809  1.00  0.00     0.012 A 
ATOM     66  C   UNL     1      -8.989  13.247   7.538  1.00  0.00     0.148 A 
ATOM     67  C   UNL     1     -10.765  11.200   8.278  1.00  0.00     0.002 A 
ATOM     68  C   UNL     1     -10.291  13.236   7.051  1.00  0.00     0.091 A 
ATOM     69  F   UNL     1      -8.108  14.192   7.178  1.00  0.00    -0.205 F 
ATOM     70  C   UNL     1     -11.176  12.207   7.409  1.00  0.00     0.022 A 
BRANCH  68  71
ATOM     71  S   UNL     1     -10.942  14.534   5.992  1.00  0.00     0.127 S 
ATOM     72  O   UNL     1     -11.111  13.822   4.725  1.00  0.00    -0.237 OA
ATOM     73  O   UNL     1     -12.192  14.883   6.667  1.00  0.00    -0.237 OA
ATOM     74  O   UNL     1      -9.939  15.589   5.984  1.00  0.00    -0.744 OA
ENDBRANCH  68  71
ENDBRANCH  50  64
BRANCH  51  75
ATOM     75  C   UNL     1       0.763  12.393  11.967  1.00  0.00     0.023 A 
ATOM     76  C   UNL     1       1.026  12.232  13.341  1.00  0.00     0.012 A 
ATOM     77  C   UNL     1       1.838  12.594  11.080  1.00  0.00     0.148 A 
ATOM     78  C   UNL     1       2.333  12.309  13.827  1.00  0.00     0.002 A 
ATOM     79  C   UNL     1       3.140  12.606  11.562  1.00  0.00     0.091 A 
ATOM     80  F   UNL     1       1.563  12.758   9.778  1.00  0.00    -0.205 F 
ATOM     81  C   UNL     1       3.389  12.484  12.937  1.00  0.00     0.022 A 
BRANCH  79  82
ATOM     82  S   UNL     1       4.566  12.690  10.474  1.00  0.00     0.127 S 
ATOM     83  O   UNL     1       5.109  14.007  10.796  1.00  0.00    -0.237 OA
ATOM     84  O   UNL     1       5.366  11.559  10.944  1.00  0.00    -0.237 OA
ATOM     85  O   UNL     1       4.042  12.536   9.124  1.00  0.00    -0.744 OA
ENDBRANCH  79  82
ENDBRANCH  51  75
BRANCH  63  86
ATOM     86  C   UNL     1      -4.861  16.372  13.060  1.00  0.00     0.023 A 
ATOM     87  C   UNL     1      -4.249  17.606  12.763  1.00  0.00     0.012 A 
ATOM     88  C   UNL     1      -5.725  16.284  14.171  1.00  0.00     0.148 A 
ATOM     89  C   UNL     1      -4.445  18.714  13.588  1.00  0.00     0.002 A 
ATOM     90  C   UNL     1      -5.961  17.407  14.954  1.00  0.00     0.091 A 
ATOM     91  F   UNL     1      -6.288  15.099  14.452  1.00  0.00    -0.205 F 
ATOM     92  C   UNL     1      -5.307  18.617  14.677  1.00  0.00     0.022 A 
BRANCH  90  93
ATOM     93  S   UNL     1      -7.133  17.399  16.316  1.00  0.00     0.127 S 
ATOM     94  O   UNL     1      -6.243  17.420  17.475  1.00  0.00    -0.237 OA
ATOM     95  O   UNL     1      -7.875  18.641  16.093  1.00  0.00    -0.237 OA
ATOM     96  O   UNL     1      -7.925  16.187  16.156  1.00  0.00    -0.744 OA
ENDBRANCH  90  93
ENDBRANCH  63  86
ENDBRANCH  37  38
ENDBRANCH  30  32
ENDBRANCH  29  30
ENDBRANCH  28  29
ENDBRANCH  27  28
ENDBRANCH   1  27
TORSDOF 23
