REMARK SMILES C#CC[N@H+](CC(=O)OCCOCCOC(=O)c1ccc(-c2c3nc(c(-c4cccc(S(=O)(=O)[O-])c4F)c4ccc([nH]4)c(-c4cccc(S(=O)(=O)[O-])c4F)c4nc(c(-c5cccc(S(=O)(=O)[O-])c5F)c5ccc2[nH]5)C=C4)C=C3)cc1)[C@H](C)c1cc(C)ccc1C
REMARK SMILES IDX 11 1 10 2 9 3 8 4 6 5 7 6 5 7 4 8 3 10 2 11 1 12 80 13 81 14
REMARK SMILES IDX 82 15 83 16 88 17 84 18 87 19 89 20 85 21 86 22 12 23 13 24
REMARK SMILES IDX 14 25 15 26 16 27 17 28 18 29 79 30 19 31 78 32 20 33 21 34
REMARK SMILES IDX 22 35 72 36 23 37 77 38 71 39 73 40 24 41 76 42 70 43 69 44
REMARK SMILES IDX 25 46 57 47 37 48 56 49 38 50 41 51 55 52 74 53 39 54 40 55
REMARK SMILES IDX 54 57 75 58 42 59 26 60 27 61 35 62 28 63 30 64 36 65 29 66
REMARK SMILES IDX 31 67 32 68 33 69 34 70 58 71 59 72 67 73 60 74 62 75 68 76
REMARK SMILES IDX 61 77 63 78 64 79 65 80 66 81 43 82 44 83 52 84 45 85 47 86
REMARK SMILES IDX 53 87 46 88 48 89 49 90 50 91 51 92
REMARK H PARENT 4 9 73 45 41 56
REMARK Flexibility Score: inf
ROOT
ATOM      1  O   UNL     1      -4.762   6.471  -0.429  1.00  0.00    -0.374 OA
ENDROOT
BRANCH   1   2
ATOM      2  C   UNL     1      -4.772   6.045   0.931  1.00  0.00     0.202 C 
BRANCH   2   3
ATOM      3  C   UNL     1      -5.307   4.644   1.227  1.00  0.00     0.261 C 
BRANCH   3   4
ATOM      4  O   UNL     1      -4.455   3.634   0.668  1.00  0.00    -0.459 OA
BRANCH   4   5
ATOM      5  C   UNL     1      -4.907   3.009  -0.441  1.00  0.00     0.361 C 
ATOM      6  O   UNL     1      -6.027   3.180  -0.919  1.00  0.00    -0.245 OA
BRANCH   5   7
ATOM      7  C   UNL     1      -3.943   1.994  -1.038  1.00  0.00     0.387 C 
BRANCH   7   8
ATOM      8  N   UNL     1      -2.444   2.199  -0.976  1.00  0.00    -0.310 N 
ATOM      9  H   UNL     1      -2.161   3.122  -1.304  1.00  0.00     0.349 HD
BRANCH   8  10
ATOM     10  C   UNL     1      -1.989   2.128   0.435  1.00  0.00     0.354 C 
BRANCH  10  11
ATOM     11  C   UNL     1      -0.548   2.285   0.678  1.00  0.00    -0.047 C 
ATOM     12  C   UNL     1       0.625   2.404   0.923  1.00  0.00     0.010 C 
ENDBRANCH  10  11
ENDBRANCH   8  10
BRANCH   8  13
ATOM     13  C   UNL     1      -1.808   1.166  -1.893  1.00  0.00     0.213 C 
ATOM     14  C   UNL     1      -2.364  -0.264  -1.648  1.00  0.00     0.081 C 
BRANCH  13  15
ATOM     15  C   UNL     1      -0.268   1.222  -2.053  1.00  0.00     0.012 A 
ATOM     16  C   UNL     1       0.519   0.073  -1.800  1.00  0.00     0.013 A 
ATOM     17  C   UNL     1       0.424   2.392  -2.450  1.00  0.00    -0.042 A 
ATOM     18  C   UNL     1       1.922   0.082  -1.854  1.00  0.00    -0.051 A 
ATOM     19  C   UNL     1       1.836   2.401  -2.479  1.00  0.00     0.004 A 
ATOM     20  C   UNL     1      -0.250   3.705  -2.716  1.00  0.00     0.045 C 
ATOM     21  C   UNL     1       2.684  -1.174  -1.554  1.00  0.00     0.044 C 
ATOM     22  C   UNL     1       2.578   1.262  -2.183  1.00  0.00     0.004 A 
ENDBRANCH  13  15
ENDBRANCH   8  13
ENDBRANCH   7   8
ENDBRANCH   5   7
ENDBRANCH   4   5
ENDBRANCH   3   4
ENDBRANCH   2   3
ENDBRANCH   1   2
BRANCH   1  23
ATOM     23  C   UNL     1      -3.772   5.928  -1.301  1.00  0.00     0.202 C 
BRANCH  23  24
ATOM     24  C   UNL     1      -2.314   6.350  -1.094  1.00  0.00     0.261 C 
BRANCH  24  25
ATOM     25  O   UNL     1      -1.778   5.966   0.183  1.00  0.00    -0.460 OA
BRANCH  25  26
ATOM     26  C   UNL     1      -1.522   7.009   1.010  1.00  0.00     0.338 C 
ATOM     27  O   UNL     1      -1.647   8.196   0.753  1.00  0.00    -0.246 OA
BRANCH  26  28
ATOM     28  C   UNL     1      -1.256   6.539   2.382  1.00  0.00     0.060 A 
ATOM     29  C   UNL     1      -2.112   6.998   3.391  1.00  0.00     0.016 A 
ATOM     30  C   UNL     1      -0.132   5.776   2.697  1.00  0.00     0.016 A 
ATOM     31  C   UNL     1      -1.817   6.745   4.727  1.00  0.00     0.010 A 
ATOM     32  C   UNL     1       0.164   5.526   4.043  1.00  0.00     0.010 A 
ATOM     33  C   UNL     1      -0.653   6.045   5.066  1.00  0.00    -0.014 A 
BRANCH  33  34
ATOM     34  C   UNL     1      -0.242   5.968   6.490  1.00  0.00     0.031 A 
ATOM     35  C   UNL     1       0.906   6.811   6.978  1.00  0.00     0.074 A 
ATOM     36  C   UNL     1      -0.907   5.175   7.350  1.00  0.00     0.049 A 
ATOM     37  N   UNL     1       1.430   6.881   8.174  1.00  0.00    -0.248 NA
ATOM     38  C   UNL     1       1.550   7.689   5.988  1.00  0.00     0.031 C 
ATOM     39  C   UNL     1      -2.045   4.324   7.004  1.00  0.00     0.029 A 
ATOM     40  N   UNL     1      -0.707   4.942   8.688  1.00  0.00    -0.354 N 
ATOM     41  C   UNL     1       2.487   7.779   8.075  1.00  0.00     0.074 A 
ATOM     42  C   UNL     1       2.535   8.221   6.698  1.00  0.00     0.031 C 
ATOM     43  C   UNL     1      -2.428   3.643   8.097  1.00  0.00     0.029 A 
ATOM     44  C   UNL     1      -1.540   3.980   9.207  1.00  0.00     0.049 A 
ATOM     45  H   UNL     1      -0.031   5.418   9.224  1.00  0.00     0.167 HD
ATOM     46  C   UNL     1       3.336   8.201   9.042  1.00  0.00     0.034 A 
ATOM     47  C   UNL     1      -1.564   3.411  10.429  1.00  0.00     0.034 A 
ATOM     48  C   UNL     1       3.278   7.767  10.413  1.00  0.00     0.049 A 
ATOM     49  C   UNL     1      -0.585   3.871  11.476  1.00  0.00     0.074 A 
ATOM     50  C   UNL     1       4.061   8.179  11.478  1.00  0.00     0.029 A 
ATOM     51  N   UNL     1       2.408   6.808  10.906  1.00  0.00    -0.354 N 
ATOM     52  N   UNL     1       0.341   4.796  11.393  1.00  0.00    -0.248 NA
ATOM     53  C   UNL     1      -0.674   3.231  12.797  1.00  0.00     0.031 C 
ATOM     54  C   UNL     1       3.703   7.426  12.601  1.00  0.00     0.029 A 
ATOM     55  C   UNL     1       2.651   6.594  12.252  1.00  0.00     0.049 A 
ATOM     56  H   UNL     1       1.718   6.346  10.377  1.00  0.00     0.167 HD
ATOM     57  C   UNL     1       0.914   4.877  12.658  1.00  0.00     0.074 A 
ATOM     58  C   UNL     1       0.219   3.920  13.493  1.00  0.00     0.031 C 
ATOM     59  C   UNL     1       1.928   5.669  13.087  1.00  0.00     0.034 A 
BRANCH  46  60
ATOM     60  C   UNL     1       4.412   9.184   8.656  1.00  0.00     0.023 A 
ATOM     61  C   UNL     1       4.076  10.512   8.327  1.00  0.00     0.012 A 
ATOM     62  C   UNL     1       5.769   8.802   8.681  1.00  0.00     0.148 A 
ATOM     63  C   UNL     1       5.068  11.434   7.993  1.00  0.00     0.002 A 
ATOM     64  C   UNL     1       6.755   9.739   8.398  1.00  0.00     0.091 A 
ATOM     65  F   UNL     1       6.069   7.530   8.980  1.00  0.00    -0.205 F 
ATOM     66  C   UNL     1       6.406  11.051   8.040  1.00  0.00     0.022 A 
BRANCH  64  67
ATOM     67  S   UNL     1       8.508   9.366   8.512  1.00  0.00     0.127 S 
ATOM     68  O   UNL     1       8.919   9.454   7.111  1.00  0.00    -0.237 OA
ATOM     69  O   UNL     1       8.997  10.454   9.360  1.00  0.00    -0.237 OA
ATOM     70  O   UNL     1       8.603   8.040   9.105  1.00  0.00    -0.744 OA
ENDBRANCH  64  67
ENDBRANCH  46  60
BRANCH  47  71
ATOM     71  C   UNL     1      -2.554   2.339  10.732  1.00  0.00     0.023 A 
ATOM     72  C   UNL     1      -3.580   2.574  11.666  1.00  0.00     0.012 A 
ATOM     73  C   UNL     1      -2.479   1.085  10.093  1.00  0.00     0.148 A 
ATOM     74  C   UNL     1      -4.492   1.567  11.988  1.00  0.00     0.002 A 
ATOM     75  C   UNL     1      -3.426   0.109  10.371  1.00  0.00     0.091 A 
ATOM     76  F   UNL     1      -1.487   0.879   9.215  1.00  0.00    -0.205 F 
ATOM     77  C   UNL     1      -4.421   0.339  11.334  1.00  0.00     0.022 A 
BRANCH  75  78
ATOM     78  S   UNL     1      -3.489  -1.453   9.487  1.00  0.00     0.127 S 
ATOM     79  O   UNL     1      -3.166  -2.408  10.543  1.00  0.00    -0.237 OA
ATOM     80  O   UNL     1      -4.879  -1.481   9.032  1.00  0.00    -0.237 OA
ATOM     81  O   UNL     1      -2.508  -1.343   8.416  1.00  0.00    -0.744 OA
ENDBRANCH  75  78
ENDBRANCH  47  71
BRANCH  59  82
ATOM     82  C   UNL     1       2.319   5.585  14.542  1.00  0.00     0.023 A 
ATOM     83  C   UNL     1       2.964   4.437  15.043  1.00  0.00     0.012 A 
ATOM     84  C   UNL     1       2.100   6.683  15.399  1.00  0.00     0.148 A 
ATOM     85  C   UNL     1       3.346   4.366  16.383  1.00  0.00     0.002 A 
ATOM     86  C   UNL     1       2.535   6.628  16.717  1.00  0.00     0.091 A 
ATOM     87  F   UNL     1       1.473   7.761  14.909  1.00  0.00    -0.205 F 
ATOM     88  C   UNL     1       3.143   5.465  17.216  1.00  0.00     0.022 A 
BRANCH  86  89
ATOM     89  S   UNL     1       2.406   8.027  17.836  1.00  0.00     0.127 S 
ATOM     90  O   UNL     1       1.414   7.550  18.797  1.00  0.00    -0.237 OA
ATOM     91  O   UNL     1       3.768   8.126  18.362  1.00  0.00    -0.237 OA
ATOM     92  O   UNL     1       1.987   9.160  17.021  1.00  0.00    -0.744 OA
ENDBRANCH  86  89
ENDBRANCH  59  82
ENDBRANCH  33  34
ENDBRANCH  26  28
ENDBRANCH  25  26
ENDBRANCH  24  25
ENDBRANCH  23  24
ENDBRANCH   1  23
TORSDOF 22
