REMARK SMILES O=C(OCCOCCOC(=O)c1ccc(-c2c3nc(c(-c4cccc(S(=O)(=O)[O-])c4F)c4ccc([nH]4)c(-c4cccc(S(=O)(=O)[O-])c4F)c4nc(c(-c5cccc(S(=O)(=O)[O-])c5F)c5ccc2[nH]5)C=C4)C=C3)cc1)C1=Cc2cc(S(F)(F)(F)(F)F)cc(Br)c2O[C@@H]1C(F)(F)F
REMARK SMILES IDX 7 1 6 2 5 3 4 4 3 5 2 6 1 7 75 8 76 9 91 10 77 11 90 12
REMARK SMILES IDX 78 13 89 14 79 15 87 16 86 17 88 18 92 19 93 20 94 21 95 22
REMARK SMILES IDX 80 23 81 24 82 25 83 26 84 27 85 28 8 29 9 30 10 31 11 32
REMARK SMILES IDX 12 33 13 34 74 35 14 36 73 37 15 38 16 39 17 40 67 41 18 42
REMARK SMILES IDX 72 43 66 44 68 45 19 46 71 47 65 48 64 49 20 51 52 52 32 53
REMARK SMILES IDX 51 54 33 55 36 56 50 57 69 58 34 59 35 60 49 62 70 63 37 64
REMARK SMILES IDX 21 65 22 66 30 67 23 68 25 69 31 70 24 71 26 72 27 73 28 74
REMARK SMILES IDX 29 75 53 76 54 77 62 78 55 79 57 80 63 81 56 82 58 83 59 84
REMARK SMILES IDX 60 85 61 86 38 87 39 88 47 89 40 90 42 91 48 92 41 93 43 94
REMARK SMILES IDX 44 95 45 96 46 97
REMARK H PARENT 68 50 36 61
REMARK Flexibility Score: inf
ROOT
ATOM      1  C   UNL     1       3.089  -1.470   0.487  1.00  0.00     0.202 C 
ENDROOT
BRANCH   1   2
ATOM      2  O   UNL     1       4.509  -1.470   0.487  1.00  0.00    -0.374 OA
BRANCH   2   3
ATOM      3  C   UNL     1       4.982  -0.433   1.334  1.00  0.00     0.202 C 
BRANCH   3   4
ATOM      4  C   UNL     1       4.476   0.907   0.826  1.00  0.00     0.261 C 
BRANCH   4   5
ATOM      5  O   UNL     1       3.056   0.907   0.826  1.00  0.00    -0.460 OA
BRANCH   5   6
ATOM      6  C   UNL     1       2.346  -0.046   0.048  1.00  0.00     0.338 C 
ATOM      7  O   UNL     1       1.075  -0.046   0.048  1.00  0.00    -0.246 OA
BRANCH   6   8
ATOM      8  C   UNL     1       3.106  -1.066  -0.784  1.00  0.00     0.087 C 
ATOM      9  C   UNL     1       4.466  -1.066  -0.784  1.00  0.00     0.027 C 
ATOM     10  C   UNL     1       2.346  -2.085  -1.617  1.00  0.00     0.316 C 
ATOM     11  C   UNL     1       5.226  -0.046   0.048  1.00  0.00     0.020 A 
ATOM     12  O   UNL     1       3.523  -0.365   1.675  1.00  0.00    -0.474 OA
ATOM     13  C   UNL     1       6.383   0.564  -0.409  1.00  0.00     0.036 A 
ATOM     14  C   UNL     1       4.792   0.143   1.288  1.00  0.00     0.142 A 
ATOM     15  C   UNL     1       7.175   1.133   0.616  1.00  0.00     0.109 A 
ATOM     16  C   UNL     1       5.559   0.826   2.202  1.00  0.00     0.062 A 
ATOM     17  C   UNL     1       6.742   1.405   1.834  1.00  0.00     0.044 A 
ATOM     18  Br  UNL     1       4.948   0.973   4.058  1.00  0.00    -0.047 Br
BRANCH  10  19
ATOM     19  C   UNL     1       2.713  -3.488  -1.159  1.00  0.00     0.430 C 
ATOM     20  F   UNL     1       2.392  -3.634   0.123  1.00  0.00    -0.167 F 
ATOM     21  F   UNL     1       2.048  -4.380  -1.888  1.00  0.00    -0.167 F 
ATOM     22  F   UNL     1       4.021  -3.676  -1.313  1.00  0.00    -0.167 F 
ENDBRANCH  10  19
BRANCH  15  23
ATOM     23  S   UNL     1       8.902   1.513   0.233  1.00  0.00     0.310 S 
ATOM     24  F   UNL     1       9.307   1.534   1.766  1.00  0.00    -0.094 F 
ATOM     25  F   UNL     1       8.562   3.045   0.372  1.00  0.00    -0.094 F 
ATOM     26  F   UNL     1      10.384   1.844  -0.101  1.00  0.00    -0.094 F 
ATOM     27  F   UNL     1       9.255  -0.026   0.235  1.00  0.00    -0.094 F 
ATOM     28  F   UNL     1       7.428   1.162   0.680  1.00  0.00    -0.094 F 
ENDBRANCH  15  23
ENDBRANCH   6   8
ENDBRANCH   5   6
ENDBRANCH   4   5
ENDBRANCH   3   4
ENDBRANCH   2   3
ENDBRANCH   1   2
BRANCH   1  29
ATOM     29  C   UNL     1       2.582  -1.700   1.902  1.00  0.00     0.261 C 
BRANCH  29  30
ATOM     30  O   UNL     1       3.056  -0.663   2.748  1.00  0.00    -0.460 OA
BRANCH  30  31
ATOM     31  C   UNL     1       4.452  -0.462   2.913  1.00  0.00     0.338 C 
ATOM     32  O   UNL     1       5.278  -1.210   2.302  1.00  0.00    -0.246 OA
BRANCH  31  33
ATOM     33  C   UNL     1       4.958   0.649   3.819  1.00  0.00     0.060 A 
ATOM     34  C   UNL     1       6.091   1.376   3.492  1.00  0.00     0.016 A 
ATOM     35  C   UNL     1       4.374   0.780   5.004  1.00  0.00     0.016 A 
ATOM     36  C   UNL     1       6.705   2.009   4.599  1.00  0.00     0.010 A 
ATOM     37  C   UNL     1       4.963   1.525   5.996  1.00  0.00     0.010 A 
ATOM     38  C   UNL     1       6.115   2.223   5.761  1.00  0.00    -0.014 A 
BRANCH  38  39
ATOM     39  C   UNL     1       6.686   3.193   6.782  1.00  0.00     0.031 A 
ATOM     40  C   UNL     1       7.009   2.618   8.013  1.00  0.00     0.074 A 
ATOM     41  C   UNL     1       7.000   4.494   6.429  1.00  0.00     0.049 A 
ATOM     42  N   UNL     1       7.680   3.178   9.021  1.00  0.00    -0.248 NA
ATOM     43  C   UNL     1       6.647   1.248   8.403  1.00  0.00     0.031 C 
ATOM     44  C   UNL     1       6.686   5.078   5.187  1.00  0.00     0.029 A 
ATOM     45  N   UNL     1       7.654   5.441   7.186  1.00  0.00    -0.354 N 
ATOM     46  C   UNL     1       7.810   2.310  10.027  1.00  0.00     0.074 A 
ATOM     47  C   UNL     1       7.142   1.058   9.646  1.00  0.00     0.031 C 
ATOM     48  C   UNL     1       7.133   6.361   5.199  1.00  0.00     0.029 A 
ATOM     49  C   UNL     1       7.735   6.601   6.449  1.00  0.00     0.049 A 
ATOM     50  H   UNL     1       8.003   5.311   8.098  1.00  0.00     0.167 HD
ATOM     51  C   UNL     1       8.461   2.513  11.245  1.00  0.00     0.034 A 
ATOM     52  C   UNL     1       8.296   7.810   6.827  1.00  0.00     0.034 A 
ATOM     53  C   UNL     1       9.060   3.709  11.606  1.00  0.00     0.049 A 
ATOM     54  C   UNL     1       8.896   8.032   8.069  1.00  0.00     0.074 A 
ATOM     55  C   UNL     1       9.727   3.927  12.827  1.00  0.00     0.029 A 
ATOM     56  N   UNL     1       9.119   4.877  10.878  1.00  0.00    -0.354 N 
ATOM     57  N   UNL     1       9.060   7.152   9.058  1.00  0.00    -0.248 NA
ATOM     58  C   UNL     1       9.465   9.318   8.493  1.00  0.00     0.031 C 
ATOM     59  C   UNL     1      10.174   5.212  12.839  1.00  0.00     0.029 A 
ATOM     60  C   UNL     1       9.793   5.816  11.626  1.00  0.00     0.049 A 
ATOM     61  H   UNL     1       8.745   5.015   9.978  1.00  0.00     0.167 HD
ATOM     62  C   UNL     1       9.695   7.725  10.082  1.00  0.00     0.074 A 
ATOM     63  C   UNL     1       9.958   9.129   9.737  1.00  0.00     0.031 C 
ATOM     64  C   UNL     1      10.069   7.133  11.290  1.00  0.00     0.034 A 
BRANCH  51  65
ATOM     65  C   UNL     1       8.515   1.357  12.230  1.00  0.00     0.023 A 
ATOM     66  C   UNL     1       9.108   0.154  11.883  1.00  0.00     0.012 A 
ATOM     67  C   UNL     1       7.963   1.533  13.424  1.00  0.00     0.148 A 
ATOM     68  C   UNL     1       8.811  -0.909  12.769  1.00  0.00     0.002 A 
ATOM     69  C   UNL     1       7.827   0.478  14.295  1.00  0.00     0.091 A 
ATOM     70  F   UNL     1       7.537   2.741  13.782  1.00  0.00    -0.205 F 
ATOM     71  C   UNL     1       8.337  -0.754  13.992  1.00  0.00     0.022 A 
BRANCH  69  72
ATOM     72  S   UNL     1       6.960   0.724  15.864  1.00  0.00     0.127 S 
ATOM     73  O   UNL     1       5.750  -0.211  15.931  1.00  0.00    -0.237 OA
ATOM     74  O   UNL     1       7.909   0.413  17.025  1.00  0.00    -0.237 OA
ATOM     75  O   UNL     1       6.434   2.346  15.977  1.00  0.00    -0.744 OA
ENDBRANCH  69  72
ENDBRANCH  51  65
BRANCH  52  76
ATOM     76  C   UNL     1       8.256   8.961   5.835  1.00  0.00     0.023 A 
ATOM     77  C   UNL     1       9.459   9.500   5.410  1.00  0.00     0.012 A 
ATOM     78  C   UNL     1       7.096   9.427   5.387  1.00  0.00     0.148 A 
ATOM     79  C   UNL     1       9.325  10.731   4.724  1.00  0.00     0.002 A 
ATOM     80  C   UNL     1       7.050  10.558   4.608  1.00  0.00     0.091 A 
ATOM     81  F   UNL     1       5.968   8.794   5.696  1.00  0.00    -0.205 F 
ATOM     82  C   UNL     1       8.199  11.177   4.199  1.00  0.00     0.022 A 
BRANCH  80  83
ATOM     83  S   UNL     1       5.447  11.238   4.115  1.00  0.00     0.127 S 
ATOM     84  O   UNL     1       5.313  12.667   4.647  1.00  0.00    -0.237 OA
ATOM     85  O   UNL     1       5.345  11.249   2.588  1.00  0.00    -0.237 OA
ATOM     86  O   UNL     1       4.194  10.270   4.762  1.00  0.00    -0.744 OA
ENDBRANCH  80  83
ENDBRANCH  52  76
BRANCH  64  87
ATOM     87  C   UNL     1      10.825   7.983  12.298  1.00  0.00     0.023 A 
ATOM     88  C   UNL     1      10.337   9.205  12.730  1.00  0.00     0.012 A 
ATOM     89  C   UNL     1      12.036   7.562  12.646  1.00  0.00     0.148 A 
ATOM     90  C   UNL     1      11.322  10.048  13.297  1.00  0.00     0.002 A 
ATOM     91  C   UNL     1      12.898   8.394  13.319  1.00  0.00     0.091 A 
ATOM     92  F   UNL     1      12.416   6.325  12.341  1.00  0.00    -0.205 F 
ATOM     93  C   UNL     1      12.502   9.638  13.726  1.00  0.00     0.022 A 
BRANCH  91  94
ATOM     94  S   UNL     1      14.583   7.834  13.672  1.00  0.00     0.127 S 
ATOM     95  O   UNL     1      15.585   8.783  13.010  1.00  0.00    -0.237 OA
ATOM     96  O   UNL     1      14.811   7.826  15.185  1.00  0.00    -0.237 OA
ATOM     97  O   UNL     1      14.800   6.254  13.054  1.00  0.00    -0.744 OA
ENDBRANCH  91  94
ENDBRANCH  64  87
ENDBRANCH  38  39
ENDBRANCH  31  33
ENDBRANCH  30  31
ENDBRANCH  29  30
ENDBRANCH   1  29
TORSDOF 19
