REMARK SMILES O=C(OCCOCCOC(=O)[C@@H]1CCCN1C(=O)[C@@H]1CCCN1C(=O)OCC1c2ccccc2-c2ccccc21)c1ccc(-c2c3nc(c(-c4cccc(S(=O)(=O)[O-])c4F)c4ccc([nH]4)c(-c4cccc(S(=O)(=O)[O-])c4F)c4nc(c(-c5cccc(S(=O)(=O)[O-])c5F)c5ccc2[nH]5)C=C4)C=C3)cc1
REMARK SMILES IDX 7 1 6 2 5 3 4 4 3 5 2 6 1 7 41 8 42 9 103 10 43 11 102 12
REMARK SMILES IDX 44 13 45 14 46 15 96 16 47 17 101 18 95 19 97 20 48 21
REMARK SMILES IDX 100 22 94 23 93 24 49 26 81 27 61 28 80 29 62 30 65 31 79 32
REMARK SMILES IDX 98 33 63 34 64 35 78 37 99 38 66 39 50 40 51 41 59 42 52 43
REMARK SMILES IDX 54 44 60 45 53 46 55 47 56 48 57 49 58 50 82 51 83 52 91 53
REMARK SMILES IDX 84 54 86 55 92 56 85 57 87 58 88 59 89 60 90 61 67 62 68 63
REMARK SMILES IDX 76 64 69 65 71 66 77 67 70 68 72 69 73 70 74 71 75 72 8 73
REMARK SMILES IDX 9 74 10 75 11 76 12 77 13 78 16 79 14 80 15 81 17 82 18 83
REMARK SMILES IDX 19 84 20 85 23 86 21 87 22 88 24 89 25 90 26 91 27 92 28 93
REMARK SMILES IDX 29 94 40 95 30 96 34 97 35 98 39 99 31 100 33 101 36 102
REMARK SMILES IDX 38 103 32 104 37 105
REMARK H PARENT 97 25 65 36
REMARK Flexibility Score: inf
ROOT
ATOM      1  C   UNL     1       1.993   0.123  -1.580  1.00  0.00     0.202 C 
ENDROOT
BRANCH   1   2
ATOM      2  O   UNL     1       3.343   0.049  -1.113  1.00  0.00    -0.374 OA
BRANCH   2   3
ATOM      3  C   UNL     1       3.787  -1.225  -0.645  1.00  0.00     0.202 C 
BRANCH   3   4
ATOM      4  C   UNL     1       3.673  -1.445   0.862  1.00  0.00     0.261 C 
BRANCH   4   5
ATOM      5  O   UNL     1       2.322  -1.228   1.288  1.00  0.00    -0.460 OA
BRANCH   5   6
ATOM      6  C   UNL     1       1.762  -0.017   1.528  1.00  0.00     0.338 C 
ATOM      7  O   UNL     1       0.538   0.081   1.545  1.00  0.00    -0.246 OA
BRANCH   6   8
ATOM      8  C   UNL     1       2.585   1.177   1.877  1.00  0.00     0.060 A 
ATOM      9  C   UNL     1       3.805   1.515   1.285  1.00  0.00     0.016 A 
ATOM     10  C   UNL     1       2.056   2.035   2.850  1.00  0.00     0.016 A 
ATOM     11  C   UNL     1       4.534   2.607   1.695  1.00  0.00     0.010 A 
ATOM     12  C   UNL     1       2.773   3.159   3.260  1.00  0.00     0.010 A 
ATOM     13  C   UNL     1       4.031   3.413   2.703  1.00  0.00    -0.014 A 
BRANCH  13  14
ATOM     14  C   UNL     1       4.971   4.375   3.281  1.00  0.00     0.031 A 
ATOM     15  C   UNL     1       5.630   3.997   4.568  1.00  0.00     0.074 A 
ATOM     16  C   UNL     1       5.338   5.448   2.563  1.00  0.00     0.049 A 
ATOM     17  N   UNL     1       6.470   4.675   5.293  1.00  0.00    -0.248 NA
ATOM     18  C   UNL     1       5.310   2.659   5.105  1.00  0.00     0.031 C 
ATOM     19  C   UNL     1       4.850   5.774   1.219  1.00  0.00     0.029 A 
ATOM     20  N   UNL     1       6.224   6.445   2.850  1.00  0.00    -0.354 N 
ATOM     21  C   UNL     1       6.717   3.886   6.408  1.00  0.00     0.074 A 
ATOM     22  C   UNL     1       5.970   2.661   6.250  1.00  0.00     0.031 C 
ATOM     23  C   UNL     1       5.444   6.902   0.801  1.00  0.00     0.029 A 
ATOM     24  C   UNL     1       6.292   7.408   1.873  1.00  0.00     0.049 A 
ATOM     25  H   UNL     1       6.761   6.472   3.675  1.00  0.00     0.167 HD
ATOM     26  C   UNL     1       7.488   4.183   7.476  1.00  0.00     0.034 A 
ATOM     27  C   UNL     1       6.939   8.586   1.885  1.00  0.00     0.034 A 
ATOM     28  C   UNL     1       8.225   5.410   7.577  1.00  0.00     0.049 A 
ATOM     29  C   UNL     1       7.738   8.920   3.115  1.00  0.00     0.074 A 
ATOM     30  C   UNL     1       9.012   5.864   8.615  1.00  0.00     0.029 A 
ATOM     31  N   UNL     1       8.252   6.386   6.588  1.00  0.00    -0.354 N 
ATOM     32  N   UNL     1       7.951   8.188   4.184  1.00  0.00    -0.248 NA
ATOM     33  C   UNL     1       8.397  10.229   3.138  1.00  0.00     0.031 C 
ATOM     34  C   UNL     1       9.485   7.134   8.268  1.00  0.00     0.029 A 
ATOM     35  C   UNL     1       9.034   7.447   6.992  1.00  0.00     0.049 A 
ATOM     36  H   UNL     1       7.781   6.328   5.725  1.00  0.00     0.167 HD
ATOM     37  C   UNL     1       8.803   8.928   4.992  1.00  0.00     0.074 A 
ATOM     38  C   UNL     1       9.074  10.162   4.277  1.00  0.00     0.031 C 
ATOM     39  C   UNL     1       9.312   8.629   6.213  1.00  0.00     0.034 A 
BRANCH  26  40
ATOM     40  C   UNL     1       7.484   3.206   8.618  1.00  0.00     0.023 A 
ATOM     41  C   UNL     1       8.121   1.954   8.500  1.00  0.00     0.012 A 
ATOM     42  C   UNL     1       6.796   3.522   9.805  1.00  0.00     0.148 A 
ATOM     43  C   UNL     1       8.035   1.016   9.530  1.00  0.00     0.002 A 
ATOM     44  C   UNL     1       6.756   2.603  10.845  1.00  0.00     0.091 A 
ATOM     45  F   UNL     1       6.164   4.702   9.882  1.00  0.00    -0.205 F 
ATOM     46  C   UNL     1       7.360   1.343  10.704  1.00  0.00     0.022 A 
BRANCH  44  47
ATOM     47  S   UNL     1       5.965   2.958  12.417  1.00  0.00     0.127 S 
ATOM     48  O   UNL     1       4.817   2.053  12.382  1.00  0.00    -0.237 OA
ATOM     49  O   UNL     1       7.008   2.585  13.373  1.00  0.00    -0.237 OA
ATOM     50  O   UNL     1       5.640   4.378  12.394  1.00  0.00    -0.744 OA
ENDBRANCH  44  47
ENDBRANCH  26  40
BRANCH  27  51
ATOM     51  C   UNL     1       6.847   9.514   0.724  1.00  0.00     0.023 A 
ATOM     52  C   UNL     1       7.999   9.800  -0.032  1.00  0.00     0.012 A 
ATOM     53  C   UNL     1       5.621  10.102   0.352  1.00  0.00     0.148 A 
ATOM     54  C   UNL     1       7.939  10.681  -1.114  1.00  0.00     0.002 A 
ATOM     55  C   UNL     1       5.557  10.935  -0.758  1.00  0.00     0.091 A 
ATOM     56  F   UNL     1       4.535   9.828   1.090  1.00  0.00    -0.205 F 
ATOM     57  C   UNL     1       6.719  11.241  -1.482  1.00  0.00     0.022 A 
BRANCH  55  58
ATOM     58  S   UNL     1       4.009  11.608  -1.373  1.00  0.00     0.127 S 
ATOM     59  O   UNL     1       4.163  13.030  -1.078  1.00  0.00    -0.237 OA
ATOM     60  O   UNL     1       4.073  11.262  -2.794  1.00  0.00    -0.237 OA
ATOM     61  O   UNL     1       2.958  10.920  -0.635  1.00  0.00    -0.744 OA
ENDBRANCH  55  58
ENDBRANCH  27  51
BRANCH  39  62
ATOM     62  C   UNL     1      10.268   9.620   6.813  1.00  0.00     0.023 A 
ATOM     63  C   UNL     1       9.796  10.844   7.322  1.00  0.00     0.012 A 
ATOM     64  C   UNL     1      11.630   9.286   6.945  1.00  0.00     0.148 A 
ATOM     65  C   UNL     1      10.677  11.741   7.922  1.00  0.00     0.002 A 
ATOM     66  C   UNL     1      12.488  10.156   7.598  1.00  0.00     0.091 A 
ATOM     67  F   UNL     1      12.056   8.122   6.432  1.00  0.00    -0.205 F 
ATOM     68  C   UNL     1      12.018  11.391   8.074  1.00  0.00     0.022 A 
BRANCH  66  69
ATOM     69  S   UNL     1      14.197   9.728   7.940  1.00  0.00     0.127 S 
ATOM     70  O   UNL     1      14.911  10.555   6.969  1.00  0.00    -0.237 OA
ATOM     71  O   UNL     1      14.350  10.151   9.333  1.00  0.00    -0.237 OA
ATOM     72  O   UNL     1      14.298   8.290   7.735  1.00  0.00    -0.744 OA
ENDBRANCH  66  69
ENDBRANCH  39  62
ENDBRANCH  13  14
ENDBRANCH   6   8
ENDBRANCH   5   6
ENDBRANCH   4   5
ENDBRANCH   3   4
ENDBRANCH   2   3
ENDBRANCH   1   2
BRANCH   1  73
ATOM     73  C   UNL     1       1.959   0.291  -3.098  1.00  0.00     0.261 C 
BRANCH  73  74
ATOM     74  O   UNL     1       2.788  -0.723  -3.687  1.00  0.00    -0.462 OA
BRANCH  74  75
ATOM     75  C   UNL     1       4.099  -0.342  -3.793  1.00  0.00     0.328 C 
ATOM     76  O   UNL     1       4.442   0.829  -3.763  1.00  0.00    -0.250 OA
BRANCH  75  77
ATOM     77  C   UNL     1       5.057  -1.537  -3.952  1.00  0.00     0.195 C 
ATOM     78  C   UNL     1       4.312  -2.862  -3.682  1.00  0.00     0.039 C 
ATOM     79  N   UNL     1       6.273  -1.693  -3.120  1.00  0.00    -0.327 N 
ATOM     80  C   UNL     1       5.373  -3.902  -3.425  1.00  0.00     0.024 C 
ATOM     81  C   UNL     1       6.546  -3.110  -2.900  1.00  0.00     0.120 C 
BRANCH  79  82
ATOM     82  C   UNL     1       7.351  -0.867  -2.872  1.00  0.00     0.246 C 
ATOM     83  O   UNL     1       8.318  -1.357  -2.254  1.00  0.00    -0.272 OA
BRANCH  82  84
ATOM     84  C   UNL     1       7.418   0.657  -3.085  1.00  0.00     0.178 C 
ATOM     85  C   UNL     1       6.717   1.386  -1.930  1.00  0.00     0.037 C 
ATOM     86  N   UNL     1       6.987   1.377  -4.264  1.00  0.00    -0.296 N 
ATOM     87  C   UNL     1       6.564   2.824  -2.412  1.00  0.00     0.024 C 
ATOM     88  C   UNL     1       6.652   2.753  -3.932  1.00  0.00     0.124 C 
BRANCH  86  89
ATOM     89  C   UNL     1       7.333   1.048  -5.548  1.00  0.00     0.410 C 
ATOM     90  O   UNL     1       7.612   1.870  -6.412  1.00  0.00    -0.224 OA
BRANCH  89  91
ATOM     91  O   UNL     1       7.223  -0.291  -5.781  1.00  0.00    -0.448 OA
BRANCH  91  92
ATOM     92  C   UNL     1       7.274  -0.701  -7.162  1.00  0.00     0.248 C 
BRANCH  92  93
ATOM     93  C   UNL     1       5.897  -0.906  -7.848  1.00  0.00     0.088 C 
ATOM     94  C   UNL     1       5.142  -2.195  -7.500  1.00  0.00    -0.029 A 
ATOM     95  C   UNL     1       4.822   0.148  -7.598  1.00  0.00    -0.029 A 
ATOM     96  C   UNL     1       5.602  -3.504  -7.474  1.00  0.00     0.005 A 
ATOM     97  C   UNL     1       3.790  -1.900  -7.207  1.00  0.00    -0.014 A 
ATOM     98  C   UNL     1       3.610  -0.465  -7.213  1.00  0.00    -0.014 A 
ATOM     99  C   UNL     1       4.912   1.527  -7.691  1.00  0.00     0.005 A 
ATOM    100  C   UNL     1       4.694  -4.521  -7.155  1.00  0.00     0.000 A 
ATOM    101  C   UNL     1       2.885  -2.911  -6.917  1.00  0.00     0.009 A 
ATOM    102  C   UNL     1       2.514   0.298  -6.837  1.00  0.00     0.009 A 
ATOM    103  C   UNL     1       3.819   2.297  -7.290  1.00  0.00     0.000 A 
ATOM    104  C   UNL     1       3.346  -4.230  -6.889  1.00  0.00     0.001 A 
ATOM    105  C   UNL     1       2.633   1.689  -6.854  1.00  0.00     0.001 A 
ENDBRANCH  92  93
ENDBRANCH  91  92
ENDBRANCH  89  91
ENDBRANCH  86  89
ENDBRANCH  82  84
ENDBRANCH  79  82
ENDBRANCH  75  77
ENDBRANCH  74  75
ENDBRANCH  73  74
ENDBRANCH   1  73
TORSDOF 23
