REMARK SMILES CC(C)(C)c1cc2c(cc1Cl)C=C(C(=O)OCCOCCOC(=O)c1ccc(-c3c4nc(c(-c5cccc(S(=O)(=O)[O-])c5F)c5ccc([nH]5)c(-c5cccc(S(=O)(=O)[O-])c5F)c5nc(c(-c6cccc(S(=O)(=O)[O-])c6F)c6ccc3[nH]6)C=C5)C=C4)cc1)[C@@H](C(F)(F)F)O2
REMARK SMILES IDX 20 1 19 2 18 3 17 4 16 5 14 6 15 7 13 8 5 9 6 10 10 11 7 12
REMARK SMILES IDX 9 13 11 14 8 15 93 16 12 17 88 18 2 19 1 20 3 21 4 22 89 23
REMARK SMILES IDX 90 24 91 25 92 26 21 27 22 28 23 29 24 30 25 31 26 32 87 33
REMARK SMILES IDX 27 34 86 35 28 36 29 37 30 38 80 39 31 40 85 41 79 42 81 43
REMARK SMILES IDX 32 44 84 45 78 46 77 47 33 49 65 50 45 51 64 52 46 53 49 54
REMARK SMILES IDX 63 55 82 56 47 57 48 58 62 60 83 61 50 62 34 63 35 64 43 65
REMARK SMILES IDX 36 66 38 67 44 68 37 69 39 70 40 71 41 72 42 73 66 74 67 75
REMARK SMILES IDX 75 76 68 77 70 78 76 79 69 80 71 81 72 82 73 83 74 84 51 85
REMARK SMILES IDX 52 86 60 87 53 88 55 89 61 90 54 91 56 92 57 93 58 94 59 95
REMARK H PARENT 81 48 49 59
REMARK Flexibility Score: inf
ROOT
ATOM      1  C   UNL     1       4.961  -3.240  -8.216  1.00  0.00     0.202 C 
ENDROOT
BRANCH   1   2
ATOM      2  O   UNL     1       4.600  -3.488  -9.574  1.00  0.00    -0.374 OA
BRANCH   2   3
ATOM      3  C   UNL     1       4.383  -2.369 -10.431  1.00  0.00     0.202 C 
BRANCH   3   4
ATOM      4  C   UNL     1       3.059  -1.612 -10.284  1.00  0.00     0.261 C 
BRANCH   4   5
ATOM      5  O   UNL     1       2.838  -1.167  -8.938  1.00  0.00    -0.460 OA
BRANCH   5   6
ATOM      6  C   UNL     1       1.852  -1.829  -8.291  1.00  0.00     0.338 C 
ATOM      7  O   UNL     1       1.089  -2.658  -8.763  1.00  0.00    -0.246 OA
BRANCH   6   8
ATOM      8  C   UNL     1       1.901  -1.522  -6.849  1.00  0.00     0.087 C 
ATOM      9  C   UNL     1       0.969  -1.758  -1.897  1.00  0.00    -0.020 A 
ATOM     10  C   UNL     1       1.436  -0.759  -2.791  1.00  0.00     0.053 A 
ATOM     11  C   UNL     1       0.872  -3.067  -2.425  1.00  0.00     0.045 A 
ATOM     12  C   UNL     1       1.716  -1.026  -4.137  1.00  0.00     0.128 A 
ATOM     13  C   UNL     1       1.188  -3.336  -3.764  1.00  0.00     0.032 A 
ATOM     14  Cl  UNL     1       0.295  -4.444  -1.551  1.00  0.00    -0.084 Cl
ATOM     15  C   UNL     1       1.569  -2.313  -4.627  1.00  0.00     0.019 A 
ATOM     16  O   UNL     1       2.110   0.033  -4.907  1.00  0.00    -0.475 OA
ATOM     17  C   UNL     1       1.712  -2.574  -6.043  1.00  0.00     0.027 C 
ATOM     18  C   UNL     1       2.099  -0.114  -6.361  1.00  0.00     0.316 C 
BRANCH   9  19
ATOM     19  C   UNL     1       0.502  -1.354  -0.474  1.00  0.00    -0.012 C 
ATOM     20  C   UNL     1       0.930   0.083  -0.068  1.00  0.00     0.016 C 
ATOM     21  C   UNL     1       1.058  -2.267   0.642  1.00  0.00     0.016 C 
ATOM     22  C   UNL     1      -1.043  -1.374  -0.449  1.00  0.00     0.016 C 
ENDBRANCH   9  19
BRANCH  18  23
ATOM     23  C   UNL     1       1.066   0.861  -6.946  1.00  0.00     0.430 C 
ATOM     24  F   UNL     1       1.233   2.109  -6.447  1.00  0.00    -0.167 F 
ATOM     25  F   UNL     1       1.174   0.958  -8.290  1.00  0.00    -0.167 F 
ATOM     26  F   UNL     1      -0.201   0.478  -6.665  1.00  0.00    -0.167 F 
ENDBRANCH  18  23
ENDBRANCH   6   8
ENDBRANCH   5   6
ENDBRANCH   4   5
ENDBRANCH   3   4
ENDBRANCH   2   3
ENDBRANCH   1   2
BRANCH   1  27
ATOM     27  C   UNL     1       6.354  -2.667  -7.925  1.00  0.00     0.261 C 
BRANCH  27  28
ATOM     28  O   UNL     1       6.496  -1.310  -8.374  1.00  0.00    -0.460 OA
BRANCH  28  29
ATOM     29  C   UNL     1       7.351  -1.131  -9.415  1.00  0.00     0.338 C 
ATOM     30  O   UNL     1       8.019  -1.985  -9.973  1.00  0.00    -0.246 OA
BRANCH  29  31
ATOM     31  C   UNL     1       7.194   0.245  -9.919  1.00  0.00     0.060 A 
ATOM     32  C   UNL     1       7.396   1.341  -9.080  1.00  0.00     0.016 A 
ATOM     33  C   UNL     1       6.848   0.430 -11.265  1.00  0.00     0.016 A 
ATOM     34  C   UNL     1       7.258   2.630  -9.597  1.00  0.00     0.010 A 
ATOM     35  C   UNL     1       6.707   1.719 -11.777  1.00  0.00     0.010 A 
ATOM     36  C   UNL     1       6.921   2.829 -10.949  1.00  0.00    -0.014 A 
BRANCH  36  37
ATOM     37  C   UNL     1       6.915   4.201 -11.511  1.00  0.00     0.031 A 
ATOM     38  C   UNL     1       5.636   4.911 -11.840  1.00  0.00     0.074 A 
ATOM     39  C   UNL     1       8.099   4.804 -11.733  1.00  0.00     0.049 A 
ATOM     40  N   UNL     1       5.469   6.144 -12.242  1.00  0.00    -0.248 NA
ATOM     41  C   UNL     1       4.386   4.148 -11.704  1.00  0.00     0.031 C 
ATOM     42  C   UNL     1       9.409   4.187 -11.511  1.00  0.00     0.029 A 
ATOM     43  N   UNL     1       8.395   6.063 -12.189  1.00  0.00    -0.354 N 
ATOM     44  C   UNL     1       4.102   6.309 -12.412  1.00  0.00     0.074 A 
ATOM     45  C   UNL     1       3.481   5.042 -12.088  1.00  0.00     0.031 C 
ATOM     46  C   UNL     1      10.367   5.077 -11.810  1.00  0.00     0.029 A 
ATOM     47  C   UNL     1       9.743   6.318 -12.260  1.00  0.00     0.049 A 
ATOM     48  H   UNL     1       7.707   6.721 -12.442  1.00  0.00     0.167 HD
ATOM     49  C   UNL     1       3.428   7.424 -12.780  1.00  0.00     0.034 A 
ATOM     50  C   UNL     1      10.407   7.428 -12.635  1.00  0.00     0.034 A 
ATOM     51  C   UNL     1       4.048   8.685 -13.086  1.00  0.00     0.049 A 
ATOM     52  C   UNL     1       9.634   8.652 -13.030  1.00  0.00     0.074 A 
ATOM     53  C   UNL     1       3.435   9.885 -13.405  1.00  0.00     0.029 A 
ATOM     54  N   UNL     1       5.414   8.911 -13.128  1.00  0.00    -0.354 N 
ATOM     55  N   UNL     1       8.336   8.830 -13.050  1.00  0.00    -0.248 NA
ATOM     56  C   UNL     1      10.411   9.836 -13.427  1.00  0.00     0.031 C 
ATOM     57  C   UNL     1       4.431  10.831 -13.660  1.00  0.00     0.029 A 
ATOM     58  C   UNL     1       5.664  10.226 -13.479  1.00  0.00     0.049 A 
ATOM     59  H   UNL     1       6.105   8.236 -12.937  1.00  0.00     0.167 HD
ATOM     60  C   UNL     1       8.139  10.148 -13.441  1.00  0.00     0.074 A 
ATOM     61  C   UNL     1       9.452  10.729 -13.636  1.00  0.00     0.031 C 
ATOM     62  C   UNL     1       6.972  10.809 -13.632  1.00  0.00     0.034 A 
BRANCH  49  63
ATOM     63  C   UNL     1       1.926   7.368 -12.818  1.00  0.00     0.023 A 
ATOM     64  C   UNL     1       1.209   7.454 -11.609  1.00  0.00     0.012 A 
ATOM     65  C   UNL     1       1.229   7.369 -14.042  1.00  0.00     0.148 A 
ATOM     66  C   UNL     1      -0.183   7.538 -11.615  1.00  0.00     0.002 A 
ATOM     67  C   UNL     1      -0.156   7.481 -14.042  1.00  0.00     0.091 A 
ATOM     68  F   UNL     1       1.935   7.280 -15.178  1.00  0.00    -0.205 F 
ATOM     69  C   UNL     1      -0.863   7.564 -12.830  1.00  0.00     0.022 A 
BRANCH  67  70
ATOM     70  S   UNL     1      -1.127   7.576 -15.550  1.00  0.00     0.127 S 
ATOM     71  O   UNL     1      -1.919   6.349 -15.467  1.00  0.00    -0.237 OA
ATOM     72  O   UNL     1      -1.889   8.808 -15.347  1.00  0.00    -0.237 OA
ATOM     73  O   UNL     1      -0.170   7.619 -16.646  1.00  0.00    -0.744 OA
ENDBRANCH  67  70
ENDBRANCH  49  63
BRANCH  50  74
ATOM     74  C   UNL     1      11.893   7.435 -12.579  1.00  0.00     0.023 A 
ATOM     75  C   UNL     1      12.540   8.111 -11.528  1.00  0.00     0.012 A 
ATOM     76  C   UNL     1      12.656   6.707 -13.511  1.00  0.00     0.148 A 
ATOM     77  C   UNL     1      13.929   8.066 -11.409  1.00  0.00     0.002 A 
ATOM     78  C   UNL     1      14.036   6.635 -13.364  1.00  0.00     0.091 A 
ATOM     79  F   UNL     1      12.011   6.071 -14.499  1.00  0.00    -0.205 F 
ATOM     80  C   UNL     1      14.675   7.321 -12.319  1.00  0.00     0.022 A 
BRANCH  78  81
ATOM     81  S   UNL     1      15.072   5.623 -14.425  1.00  0.00     0.127 S 
ATOM     82  O   UNL     1      15.923   6.629 -15.057  1.00  0.00    -0.237 OA
ATOM     83  O   UNL     1      15.748   4.767 -13.451  1.00  0.00    -0.237 OA
ATOM     84  O   UNL     1      14.162   4.924 -15.321  1.00  0.00    -0.744 OA
ENDBRANCH  78  81
ENDBRANCH  50  74
BRANCH  62  85
ATOM     85  C   UNL     1       7.033  12.247 -14.067  1.00  0.00     0.023 A 
ATOM     86  C   UNL     1       7.297  12.550 -15.416  1.00  0.00     0.012 A 
ATOM     87  C   UNL     1       6.694  13.282 -13.173  1.00  0.00     0.148 A 
ATOM     88  C   UNL     1       7.228  13.867 -15.870  1.00  0.00     0.002 A 
ATOM     89  C   UNL     1       6.594  14.587 -13.639  1.00  0.00     0.091 A 
ATOM     90  F   UNL     1       6.453  12.964 -11.893  1.00  0.00    -0.205 F 
ATOM     91  C   UNL     1       6.865  14.882 -14.986  1.00  0.00     0.022 A 
BRANCH  89  92
ATOM     92  S   UNL     1       6.065  15.952 -12.598  1.00  0.00     0.127 S 
ATOM     93  O   UNL     1       7.267  16.784 -12.565  1.00  0.00    -0.237 OA
ATOM     94  O   UNL     1       4.955  16.513 -13.368  1.00  0.00    -0.237 OA
ATOM     95  O   UNL     1       5.686  15.364 -11.320  1.00  0.00    -0.744 OA
ENDBRANCH  89  92
ENDBRANCH  62  85
ENDBRANCH  36  37
ENDBRANCH  29  31
ENDBRANCH  28  29
ENDBRANCH  27  28
ENDBRANCH   1  27
TORSDOF 19
