REMARK SMILES CCCC[C@H](NS(=O)(=O)c1cccc(Br)c1)C(=O)OCCOCCOC(=O)c1ccc(-c2c3nc(c(-c4cccc(S(=O)(=O)[O-])c4F)c4ccc([nH]4)c(-c4cccc(S(=O)(=O)[O-])c4F)c4nc(c(-c5cccc(S(=O)(=O)[O-])c5F)c5ccc2[nH]5)C=C4)C=C3)cc1
REMARK SMILES IDX 22 1 21 2 20 3 19 4 17 5 18 6 5 7 4 8 3 9 2 10 1 11 6 12
REMARK SMILES IDX 7 14 8 15 9 16 10 17 11 18 16 19 12 20 14 21 13 22 15 23
REMARK SMILES IDX 23 24 24 25 25 26 26 27 27 28 28 29 29 30 90 31 30 32 89 33
REMARK SMILES IDX 31 34 32 35 33 36 83 37 34 38 88 39 82 40 84 41 35 42 87 43
REMARK SMILES IDX 81 44 80 45 36 47 68 48 48 49 67 50 49 51 52 52 66 53 85 54
REMARK SMILES IDX 50 55 51 56 65 58 86 59 53 60 37 61 38 62 46 63 39 64 41 65
REMARK SMILES IDX 47 66 40 67 42 68 43 69 44 70 45 71 69 72 70 73 78 74 71 75
REMARK SMILES IDX 73 76 79 77 72 78 74 79 75 80 76 81 77 82 54 83 55 84 63 85
REMARK SMILES IDX 56 86 58 87 64 88 57 89 59 90 60 91 61 92 62 93
REMARK H PARENT 6 13 84 46 52 57
REMARK Flexibility Score: inf
ROOT
ATOM      1  O   UNL     1      -1.620   5.097   0.472  1.00  0.00    -0.374 OA
ENDROOT
BRANCH   1   2
ATOM      2  C   UNL     1      -1.815   5.618   1.782  1.00  0.00     0.202 C 
BRANCH   2   3
ATOM      3  C   UNL     1      -2.442   4.688   2.821  1.00  0.00     0.261 C 
BRANCH   3   4
ATOM      4  O   UNL     1      -1.703   3.475   3.051  1.00  0.00    -0.462 OA
BRANCH   4   5
ATOM      5  C   UNL     1      -2.304   2.331   2.602  1.00  0.00     0.324 C 
ATOM      6  O   UNL     1      -3.309   2.291   1.902  1.00  0.00    -0.250 OA
BRANCH   5   7
ATOM      7  C   UNL     1      -1.573   1.080   3.085  1.00  0.00     0.179 C 
BRANCH   7   8
ATOM      8  C   UNL     1      -1.885   0.677   4.532  1.00  0.00     0.032 C 
BRANCH   8   9
ATOM      9  C   UNL     1      -2.574   1.664   5.484  1.00  0.00     0.002 C 
BRANCH   9  10
ATOM     10  C   UNL     1      -3.992   2.145   5.156  1.00  0.00    -0.003 C 
ATOM     11  C   UNL     1      -4.923   1.101   4.564  1.00  0.00     0.004 C 
ENDBRANCH   9  10
ENDBRANCH   8   9
ENDBRANCH   7   8
BRANCH   7  12
ATOM     12  N   UNL     1      -0.130   1.236   2.793  1.00  0.00    -0.197 NA
ATOM     13  H   UNL     1       0.221   1.899   3.484  1.00  0.00     0.142 HD
BRANCH  12  14
ATOM     14  S   UNL     1       0.964  -0.024   2.779  1.00  0.00     0.241 S 
ATOM     15  O   UNL     1       2.217   0.544   2.332  1.00  0.00    -0.207 OA
ATOM     16  O   UNL     1       0.858  -0.732   4.033  1.00  0.00    -0.207 OA
BRANCH  14  17
ATOM     17  C   UNL     1       0.442  -1.145   1.506  1.00  0.00     0.083 A 
ATOM     18  C   UNL     1       0.759  -2.502   1.665  1.00  0.00     0.022 A 
ATOM     19  C   UNL     1      -0.319  -0.715   0.419  1.00  0.00     0.037 A 
ATOM     20  C   UNL     1       0.304  -3.438   0.738  1.00  0.00     0.003 A 
ATOM     21  C   UNL     1      -0.787  -1.665  -0.489  1.00  0.00     0.019 A 
ATOM     22  C   UNL     1      -0.480  -3.020  -0.337  1.00  0.00     0.016 A 
ATOM     23  Br  UNL     1      -1.877  -1.118  -1.934  1.00  0.00    -0.051 Br
ENDBRANCH  14  17
ENDBRANCH  12  14
ENDBRANCH   7  12
ENDBRANCH   5   7
ENDBRANCH   4   5
ENDBRANCH   3   4
ENDBRANCH   2   3
ENDBRANCH   1   2
BRANCH   1  24
ATOM     24  C   UNL     1      -0.587   4.135   0.278  1.00  0.00     0.202 C 
BRANCH  24  25
ATOM     25  C   UNL     1       0.867   4.613   0.392  1.00  0.00     0.261 C 
BRANCH  25  26
ATOM     26  O   UNL     1       1.204   5.108   1.700  1.00  0.00    -0.460 OA
BRANCH  26  27
ATOM     27  C   UNL     1       1.476   6.438   1.732  1.00  0.00     0.338 C 
ATOM     28  O   UNL     1       1.468   7.208   0.784  1.00  0.00    -0.246 OA
BRANCH  27  29
ATOM     29  C   UNL     1       1.635   6.922   3.116  1.00  0.00     0.060 A 
ATOM     30  C   UNL     1       0.870   8.033   3.494  1.00  0.00     0.016 A 
ATOM     31  C   UNL     1       2.623   6.418   3.964  1.00  0.00     0.016 A 
ATOM     32  C   UNL     1       1.152   8.702   4.681  1.00  0.00     0.010 A 
ATOM     33  C   UNL     1       2.907   7.095   5.157  1.00  0.00     0.010 A 
ATOM     34  C   UNL     1       2.215   8.274   5.487  1.00  0.00    -0.014 A 
BRANCH  34  35
ATOM     35  C   UNL     1       2.715   9.187   6.546  1.00  0.00     0.031 A 
ATOM     36  C   UNL     1       3.921  10.046   6.256  1.00  0.00     0.074 A 
ATOM     37  C   UNL     1       2.077   9.298   7.725  1.00  0.00     0.049 A 
ATOM     38  N   UNL     1       4.487  10.958   7.002  1.00  0.00    -0.248 NA
ATOM     39  C   UNL     1       4.574   9.851   4.950  1.00  0.00     0.031 C 
ATOM     40  C   UNL     1       0.904   8.524   8.126  1.00  0.00     0.029 A 
ATOM     41  N   UNL     1       2.337  10.103   8.805  1.00  0.00    -0.354 N 
ATOM     42  C   UNL     1       5.573  11.428   6.271  1.00  0.00     0.074 A 
ATOM     43  C   UNL     1       5.597  10.688   5.028  1.00  0.00     0.031 C 
ATOM     44  C   UNL     1       0.556   8.879   9.376  1.00  0.00     0.029 A 
ATOM     45  C   UNL     1       1.484   9.898   9.863  1.00  0.00     0.049 A 
ATOM     46  H   UNL     1       3.066  10.765   8.821  1.00  0.00     0.167 HD
ATOM     47  C   UNL     1       6.457  12.402   6.590  1.00  0.00     0.034 A 
ATOM     48  C   UNL     1       1.457  10.468  11.085  1.00  0.00     0.034 A 
ATOM     49  C   UNL     1       6.415  13.160   7.811  1.00  0.00     0.049 A 
ATOM     50  C   UNL     1       2.443  11.561  11.409  1.00  0.00     0.074 A 
ATOM     51  C   UNL     1       7.244  14.194   8.212  1.00  0.00     0.029 A 
ATOM     52  N   UNL     1       5.497  12.966   8.831  1.00  0.00    -0.354 N 
ATOM     53  N   UNL     1       3.382  12.079  10.654  1.00  0.00    -0.248 NA
ATOM     54  C   UNL     1       2.332  12.183  12.737  1.00  0.00     0.031 C 
ATOM     55  C   UNL     1       6.833  14.616   9.481  1.00  0.00     0.029 A 
ATOM     56  C   UNL     1       5.736  13.860   9.860  1.00  0.00     0.049 A 
ATOM     57  H   UNL     1       4.780  12.291   8.824  1.00  0.00     0.167 HD
ATOM     58  C   UNL     1       3.943  13.113  11.397  1.00  0.00     0.074 A 
ATOM     59  C   UNL     1       3.225  13.160  12.654  1.00  0.00     0.031 C 
ATOM     60  C   UNL     1       4.969  13.940  11.076  1.00  0.00     0.034 A 
BRANCH  47  61
ATOM     61  C   UNL     1       7.527  12.733   5.584  1.00  0.00     0.023 A 
ATOM     62  C   UNL     1       7.187  13.447   4.417  1.00  0.00     0.012 A 
ATOM     63  C   UNL     1       8.873  12.389   5.817  1.00  0.00     0.148 A 
ATOM     64  C   UNL     1       8.164  13.790   3.484  1.00  0.00     0.002 A 
ATOM     65  C   UNL     1       9.848  12.771   4.902  1.00  0.00     0.091 A 
ATOM     66  F   UNL     1       9.172  11.689   6.920  1.00  0.00    -0.205 F 
ATOM     67  C   UNL     1       9.495  13.462   3.731  1.00  0.00     0.022 A 
BRANCH  65  68
ATOM     68  S   UNL     1      11.597  12.460   5.168  1.00  0.00     0.127 S 
ATOM     69  O   UNL     1      11.864  11.413   4.183  1.00  0.00    -0.237 OA
ATOM     70  O   UNL     1      12.193  13.759   4.853  1.00  0.00    -0.237 OA
ATOM     71  O   UNL     1      11.726  12.057   6.561  1.00  0.00    -0.744 OA
ENDBRANCH  65  68
ENDBRANCH  47  61
BRANCH  48  72
ATOM     72  C   UNL     1       0.421  10.058  12.075  1.00  0.00     0.023 A 
ATOM     73  C   UNL     1      -0.604  10.958  12.424  1.00  0.00     0.012 A 
ATOM     74  C   UNL     1       0.441   8.779  12.662  1.00  0.00     0.148 A 
ATOM     75  C   UNL     1      -1.570  10.604  13.367  1.00  0.00     0.002 A 
ATOM     76  C   UNL     1      -0.556   8.413  13.559  1.00  0.00     0.091 A 
ATOM     77  F   UNL     1       1.436   7.942  12.333  1.00  0.00    -0.205 F 
ATOM     78  C   UNL     1      -1.552   9.330  13.926  1.00  0.00     0.022 A 
BRANCH  76  79
ATOM     79  S   UNL     1      -0.682   6.748  14.223  1.00  0.00     0.127 S 
ATOM     80  O   UNL     1      -0.219   6.936  15.594  1.00  0.00    -0.237 OA
ATOM     81  O   UNL     1      -2.114   6.474  14.087  1.00  0.00    -0.237 OA
ATOM     82  O   UNL     1       0.165   5.925  13.370  1.00  0.00    -0.744 OA
ENDBRANCH  76  79
ENDBRANCH  48  72
BRANCH  60  83
ATOM     83  C   UNL     1       5.350  15.003  12.073  1.00  0.00     0.023 A 
ATOM     84  C   UNL     1       6.015  14.645  13.263  1.00  0.00     0.012 A 
ATOM     85  C   UNL     1       5.105  16.363  11.803  1.00  0.00     0.148 A 
ATOM     86  C   UNL     1       6.394  15.620  14.184  1.00  0.00     0.002 A 
ATOM     87  C   UNL     1       5.528  17.334  12.704  1.00  0.00     0.091 A 
ATOM     88  F   UNL     1       4.453  16.687  10.676  1.00  0.00    -0.205 F 
ATOM     89  C   UNL     1       6.162  16.964  13.901  1.00  0.00     0.022 A 
BRANCH  87  90
ATOM     90  S   UNL     1       5.349  19.089  12.361  1.00  0.00     0.127 S 
ATOM     91  O   UNL     1       4.147  19.422  13.123  1.00  0.00    -0.237 OA
ATOM     92  O   UNL     1       6.589  19.646  12.906  1.00  0.00    -0.237 OA
ATOM     93  O   UNL     1       5.233  19.195  10.913  1.00  0.00    -0.744 OA
ENDBRANCH  87  90
ENDBRANCH  60  83
ENDBRANCH  34  35
ENDBRANCH  27  29
ENDBRANCH  26  27
ENDBRANCH  25  26
ENDBRANCH  24  25
ENDBRANCH   1  24
TORSDOF 23
