REMARK SMILES Cc1cccc2c1[C@H]1c3c(C)cccc3[C@H](CC(=O)OCCOCCOC(=O)c3ccc(-c4c5nc(c(-c6cccc(S(=O)(=O)[O-])c6F)c6ccc([nH]6)c(-c6cccc(S(=O)(=O)[O-])c6F)c6nc(c(-c7cccc(S(=O)(=O)[O-])c7F)c7ccc4[nH]7)C=C6)C=C5)cc3)C[C@H]1CC2
REMARK SMILES IDX 24 1 23 2 22 3 21 4 20 5 18 6 19 7 17 8 16 9 1 10 2 11 3 12
REMARK SMILES IDX 7 13 4 14 6 15 8 16 5 17 95 18 9 19 93 20 94 21 10 22 15 23
REMARK SMILES IDX 92 24 12 25 11 26 14 27 13 28 25 29 26 30 27 31 28 32 29 33
REMARK SMILES IDX 30 34 91 35 31 36 90 37 32 38 33 39 34 40 84 41 35 42 89 43
REMARK SMILES IDX 83 44 85 45 36 46 88 47 82 48 81 49 37 51 69 52 49 53 68 54
REMARK SMILES IDX 50 55 53 56 67 57 86 58 51 59 52 60 66 62 87 63 54 64 38 65
REMARK SMILES IDX 39 66 47 67 40 68 42 69 48 70 41 71 43 72 44 73 45 74 46 75
REMARK SMILES IDX 70 76 71 77 79 78 72 79 74 80 80 81 73 82 75 83 76 84 77 85
REMARK SMILES IDX 78 86 55 87 56 88 64 89 57 90 59 91 65 92 58 93 60 94 61 95
REMARK SMILES IDX 62 96 63 97
REMARK H PARENT 85 50 53 61
REMARK Flexibility Score: inf
ROOT
ATOM      1  C   UNL     1      -0.804  -5.681  -6.467  1.00  0.00     0.202 C 
ENDROOT
BRANCH   1   2
ATOM      2  O   UNL     1      -0.062  -6.782  -5.935  1.00  0.00    -0.374 OA
BRANCH   2   3
ATOM      3  C   UNL     1       0.042  -6.847  -4.513  1.00  0.00     0.202 C 
BRANCH   3   4
ATOM      4  C   UNL     1       1.100  -5.954  -3.851  1.00  0.00     0.261 C 
BRANCH   4   5
ATOM      5  O   UNL     1       1.025  -4.590  -4.302  1.00  0.00    -0.463 OA
BRANCH   5   6
ATOM      6  C   UNL     1       2.128  -4.116  -4.934  1.00  0.00     0.306 C 
ATOM      7  O   UNL     1       3.197  -4.715  -5.011  1.00  0.00    -0.252 OA
BRANCH   6   8
ATOM      8  C   UNL     1       1.853  -2.889  -5.778  1.00  0.00     0.131 C 
BRANCH   8   9
ATOM      9  C   UNL     1       1.235  -1.583  -5.231  1.00  0.00     0.031 C 
ATOM     10  C   UNL     1       1.624   0.406   0.210  1.00  0.00     0.044 C 
ATOM     11  C   UNL     1       0.953   1.496  -0.591  1.00  0.00    -0.047 A 
ATOM     12  C   UNL     1       0.553   2.651   0.102  1.00  0.00     0.004 A 
ATOM     13  C   UNL     1       0.756   1.421  -1.993  1.00  0.00    -0.034 A 
ATOM     14  C   UNL     1      -0.018   3.729  -0.568  1.00  0.00     0.001 A 
ATOM     15  C   UNL     1       0.278   2.567  -2.678  1.00  0.00    -0.044 A 
ATOM     16  C   UNL     1       1.057   0.144  -2.778  1.00  0.00     0.053 C 
ATOM     17  C   UNL     1      -0.133   3.697  -1.952  1.00  0.00     0.004 A 
ATOM     18  C   UNL     1       0.304   2.685  -4.184  1.00  0.00     0.036 C 
ATOM     19  C   UNL     1      -0.124  -0.797  -3.142  1.00  0.00    -0.034 A 
ATOM     20  C   UNL     1       1.766   0.611  -4.073  1.00  0.00     0.002 C 
ATOM     21  C   UNL     1       0.796   1.449  -4.934  1.00  0.00     0.009 C 
ATOM     22  C   UNL     1      -1.353  -0.859  -2.422  1.00  0.00    -0.047 A 
ATOM     23  C   UNL     1       0.009  -1.608  -4.322  1.00  0.00    -0.040 A 
ATOM     24  C   UNL     1       2.332  -0.615  -4.782  1.00  0.00     0.013 C 
ATOM     25  C   UNL     1      -2.443  -1.560  -2.967  1.00  0.00     0.004 A 
ATOM     26  C   UNL     1      -1.646  -0.183  -1.108  1.00  0.00     0.044 C 
ATOM     27  C   UNL     1      -1.118  -2.280  -4.822  1.00  0.00     0.004 A 
ATOM     28  C   UNL     1      -2.337  -2.238  -4.167  1.00  0.00     0.001 A 
ENDBRANCH   8   9
ENDBRANCH   6   8
ENDBRANCH   5   6
ENDBRANCH   4   5
ENDBRANCH   3   4
ENDBRANCH   2   3
ENDBRANCH   1   2
BRANCH   1  29
ATOM     29  C   UNL     1      -2.317  -5.675  -6.195  1.00  0.00     0.261 C 
BRANCH  29  30
ATOM     30  O   UNL     1      -2.600  -5.308  -4.831  1.00  0.00    -0.460 OA
BRANCH  30  31
ATOM     31  C   UNL     1      -3.385  -6.156  -4.130  1.00  0.00     0.338 C 
ATOM     32  O   UNL     1      -3.975  -7.139  -4.560  1.00  0.00    -0.246 OA
BRANCH  31  33
ATOM     33  C   UNL     1      -3.275  -5.847  -2.693  1.00  0.00     0.060 A 
ATOM     34  C   UNL     1      -2.607  -6.763  -1.871  1.00  0.00     0.016 A 
ATOM     35  C   UNL     1      -3.879  -4.716  -2.143  1.00  0.00     0.016 A 
ATOM     36  C   UNL     1      -2.562  -6.561  -0.492  1.00  0.00     0.010 A 
ATOM     37  C   UNL     1      -3.832  -4.512  -0.759  1.00  0.00     0.010 A 
ATOM     38  C   UNL     1      -3.210  -5.457   0.076  1.00  0.00    -0.014 A 
BRANCH  38  39
ATOM     39  C   UNL     1      -3.411  -5.416   1.546  1.00  0.00     0.031 A 
ATOM     40  C   UNL     1      -4.728  -5.886   2.104  1.00  0.00     0.074 A 
ATOM     41  C   UNL     1      -2.434  -5.016   2.380  1.00  0.00     0.049 A 
ATOM     42  N   UNL     1      -5.106  -5.987   3.351  1.00  0.00    -0.248 NA
ATOM     43  C   UNL     1      -5.752  -6.300   1.129  1.00  0.00     0.031 C 
ATOM     44  C   UNL     1      -1.114  -4.540   1.972  1.00  0.00     0.029 A 
ATOM     45  N   UNL     1      -2.411  -4.943   3.751  1.00  0.00    -0.354 N 
ATOM     46  C   UNL     1      -6.413  -6.457   3.310  1.00  0.00     0.074 A 
ATOM     47  C   UNL     1      -6.771  -6.606   1.918  1.00  0.00     0.031 C 
ATOM     48  C   UNL     1      -0.410  -4.216   3.072  1.00  0.00     0.029 A 
ATOM     49  C   UNL     1      -1.233  -4.450   4.259  1.00  0.00     0.049 A 
ATOM     50  H   UNL     1      -3.168  -5.218   4.317  1.00  0.00     0.167 HD
ATOM     51  C   UNL     1      -7.234  -6.764   4.339  1.00  0.00     0.034 A 
ATOM     52  C   UNL     1      -0.862  -4.212   5.534  1.00  0.00     0.034 A 
ATOM     53  C   UNL     1      -6.876  -6.659   5.724  1.00  0.00     0.049 A 
ATOM     54  C   UNL     1      -1.804  -4.538   6.663  1.00  0.00     0.074 A 
ATOM     55  C   UNL     1      -7.629  -7.009   6.830  1.00  0.00     0.029 A 
ATOM     56  N   UNL     1      -5.673  -6.162   6.194  1.00  0.00    -0.354 N 
ATOM     57  N   UNL     1      -2.991  -5.090   6.610  1.00  0.00    -0.248 NA
ATOM     58  C   UNL     1      -1.348  -4.230   8.029  1.00  0.00     0.031 C 
ATOM     59  C   UNL     1      -6.885  -6.708   7.974  1.00  0.00     0.029 A 
ATOM     60  C   UNL     1      -5.667  -6.180   7.576  1.00  0.00     0.049 A 
ATOM     61  H   UNL     1      -4.933  -5.842   5.628  1.00  0.00     0.167 HD
ATOM     62  C   UNL     1      -3.417  -5.212   7.929  1.00  0.00     0.074 A 
ATOM     63  C   UNL     1      -2.355  -4.690   8.763  1.00  0.00     0.031 C 
ATOM     64  C   UNL     1      -4.589  -5.701   8.401  1.00  0.00     0.034 A 
BRANCH  51  65
ATOM     65  C   UNL     1      -8.598  -7.300   4.010  1.00  0.00     0.023 A 
ATOM     66  C   UNL     1      -8.733  -8.653   3.646  1.00  0.00     0.012 A 
ATOM     67  C   UNL     1      -9.743  -6.494   4.150  1.00  0.00     0.148 A 
ATOM     68  C   UNL     1      -9.995  -9.199   3.418  1.00  0.00     0.002 A 
ATOM     69  C   UNL     1     -10.998  -7.052   3.949  1.00  0.00     0.091 A 
ATOM     70  F   UNL     1      -9.580  -5.205   4.480  1.00  0.00    -0.205 F 
ATOM     71  C   UNL     1     -11.126  -8.402   3.580  1.00  0.00     0.022 A 
BRANCH  69  72
ATOM     72  S   UNL     1     -12.521  -6.129   4.181  1.00  0.00     0.127 S 
ATOM     73  O   UNL     1     -13.063  -6.110   2.823  1.00  0.00    -0.237 OA
ATOM     74  O   UNL     1     -13.254  -6.979   5.119  1.00  0.00    -0.237 OA
ATOM     75  O   UNL     1     -12.130  -4.829   4.708  1.00  0.00    -0.744 OA
ENDBRANCH  69  72
ENDBRANCH  51  65
BRANCH  52  76
ATOM     76  C   UNL     1       0.497  -3.671   5.807  1.00  0.00     0.023 A 
ATOM     77  C   UNL     1       1.489  -4.524   6.325  1.00  0.00     0.012 A 
ATOM     78  C   UNL     1       0.823  -2.335   5.503  1.00  0.00     0.148 A 
ATOM     79  C   UNL     1       2.784  -4.054   6.544  1.00  0.00     0.002 A 
ATOM     80  C   UNL     1       2.125  -1.883   5.685  1.00  0.00     0.091 A 
ATOM     81  F   UNL     1      -0.143  -1.542   5.020  1.00  0.00    -0.205 F 
ATOM     82  C   UNL     1       3.104  -2.738   6.215  1.00  0.00     0.022 A 
BRANCH  80  83
ATOM     83  S   UNL     1       2.659  -0.239   5.197  1.00  0.00     0.127 S 
ATOM     84  O   UNL     1       3.073   0.333   6.477  1.00  0.00    -0.237 OA
ATOM     85  O   UNL     1       3.752  -0.544   4.274  1.00  0.00    -0.237 OA
ATOM     86  O   UNL     1       1.501   0.391   4.578  1.00  0.00    -0.744 OA
ENDBRANCH  80  83
ENDBRANCH  52  76
BRANCH  64  87
ATOM     87  C   UNL     1      -4.825  -5.706   9.887  1.00  0.00     0.023 A 
ATOM     88  C   UNL     1      -5.237  -4.518  10.518  1.00  0.00     0.012 A 
ATOM     89  C   UNL     1      -4.806  -6.912  10.616  1.00  0.00     0.148 A 
ATOM     90  C   UNL     1      -5.629  -4.527  11.856  1.00  0.00     0.002 A 
ATOM     91  C   UNL     1      -5.229  -6.920  11.940  1.00  0.00     0.091 A 
ATOM     92  F   UNL     1      -4.411  -8.029   9.989  1.00  0.00    -0.205 F 
ATOM     93  C   UNL     1      -5.638  -5.729  12.562  1.00  0.00     0.022 A 
BRANCH  91  94
ATOM     94  S   UNL     1      -5.354  -8.427  12.912  1.00  0.00     0.127 S 
ATOM     95  O   UNL     1      -4.367  -8.184  13.964  1.00  0.00    -0.237 OA
ATOM     96  O   UNL     1      -6.745  -8.390  13.360  1.00  0.00    -0.237 OA
ATOM     97  O   UNL     1      -5.032  -9.522  12.007  1.00  0.00    -0.744 OA
ENDBRANCH  91  94
ENDBRANCH  64  87
ENDBRANCH  38  39
ENDBRANCH  31  33
ENDBRANCH  30  31
ENDBRANCH  29  30
ENDBRANCH   1  29
TORSDOF 18
