REMARK SMILES Cc1cc(N[C@@H]2C=C[C@@H](C(=O)OCCOCCOC(=O)c3ccc(-c4c5nc(c(-c6cccc(S(=O)(=O)[O-])c6F)c6ccc([nH]6)c(-c6cccc(S(=O)(=O)[O-])c6F)c6nc(c(-c7cccc(S(=O)(=O)[O-])c7F)c7ccc4[nH]7)C=C6)C=C5)cc3)C2)nc(C)n1
REMARK SMILES IDX 16 1 15 2 14 3 13 4 12 5 10 6 11 7 9 8 6 9 7 10 84 11 8 12
REMARK SMILES IDX 5 13 4 15 1 16 2 17 3 18 88 19 86 20 85 21 87 22 17 23 18 24
REMARK SMILES IDX 19 25 20 26 21 27 22 28 83 29 23 30 82 31 24 32 25 33 26 34
REMARK SMILES IDX 76 35 27 36 81 37 75 38 77 39 28 40 80 41 74 42 73 43 29 45
REMARK SMILES IDX 61 46 41 47 60 48 42 49 45 50 59 51 78 52 43 53 44 54 58 56
REMARK SMILES IDX 79 57 46 58 30 59 31 60 39 61 32 62 34 63 40 64 33 65 35 66
REMARK SMILES IDX 36 67 37 68 38 69 62 70 63 71 71 72 64 73 66 74 72 75 65 76
REMARK SMILES IDX 67 77 68 78 69 79 70 80 47 81 48 82 56 83 49 84 51 85 57 86
REMARK SMILES IDX 50 87 52 88 53 89 54 90 55 91
REMARK H PARENT 5 14 77 44 45 55
REMARK Flexibility Score: inf
ROOT
ATOM      1  C   UNL     1       3.901  -4.279   1.845  1.00  0.00     0.202 C 
ENDROOT
BRANCH   1   2
ATOM      2  O   UNL     1       4.293  -4.221   0.470  1.00  0.00    -0.374 OA
BRANCH   2   3
ATOM      3  C   UNL     1       4.143  -2.978  -0.211  1.00  0.00     0.202 C 
BRANCH   3   4
ATOM      4  C   UNL     1       2.717  -2.567  -0.589  1.00  0.00     0.261 C 
BRANCH   4   5
ATOM      5  O   UNL     1       1.816  -2.674   0.523  1.00  0.00    -0.463 OA
BRANCH   5   6
ATOM      6  C   UNL     1       0.735  -3.461   0.303  1.00  0.00     0.312 C 
ATOM      7  O   UNL     1       0.418  -3.928  -0.789  1.00  0.00    -0.252 OA
BRANCH   6   8
ATOM      8  C   UNL     1      -0.012  -3.842   1.568  1.00  0.00     0.124 C 
ATOM      9  C   UNL     1      -0.957  -2.994   3.672  1.00  0.00     0.104 C 
ATOM     10  C   UNL     1      -1.974  -3.029   2.586  1.00  0.00    -0.006 C 
ATOM     11  C   UNL     1       0.369  -3.252   2.935  1.00  0.00     0.048 C 
ATOM     12  C   UNL     1      -1.464  -3.479   1.435  1.00  0.00    -0.014 C 
BRANCH   9  13
ATOM     13  N   UNL     1      -1.282  -3.931   4.732  1.00  0.00    -0.364 N 
ATOM     14  H   UNL     1      -1.365  -3.496   5.612  1.00  0.00     0.162 HD
BRANCH  13  15
ATOM     15  C   UNL     1      -1.499  -5.276   4.787  1.00  0.00     0.130 A 
ATOM     16  C   UNL     1      -1.340  -8.465   2.829  1.00  0.00     0.067 C 
ATOM     17  C   UNL     1      -1.536  -7.495   3.955  1.00  0.00     0.043 A 
ATOM     18  C   UNL     1      -1.412  -6.139   3.723  1.00  0.00     0.070 A 
ATOM     19  N   UNL     1      -1.854  -7.985   5.162  1.00  0.00    -0.238 NA
ATOM     20  C   UNL     1      -2.009  -7.076   6.139  1.00  0.00     0.127 A 
ATOM     21  N   UNL     1      -1.812  -5.747   6.006  1.00  0.00    -0.216 NA
ATOM     22  C   UNL     1      -2.489  -7.575   7.465  1.00  0.00     0.090 C 
ENDBRANCH  13  15
ENDBRANCH   9  13
ENDBRANCH   6   8
ENDBRANCH   5   6
ENDBRANCH   4   5
ENDBRANCH   3   4
ENDBRANCH   2   3
ENDBRANCH   1   2
BRANCH   1  23
ATOM     23  C   UNL     1       4.633  -3.358   2.831  1.00  0.00     0.261 C 
BRANCH  23  24
ATOM     24  O   UNL     1       4.260  -1.975   2.669  1.00  0.00    -0.460 OA
BRANCH  24  25
ATOM     25  C   UNL     1       5.295  -1.126   2.458  1.00  0.00     0.338 C 
ATOM     26  O   UNL     1       6.486  -1.404   2.431  1.00  0.00    -0.246 OA
BRANCH  25  27
ATOM     27  C   UNL     1       4.791   0.201   2.076  1.00  0.00     0.060 A 
ATOM     28  C   UNL     1       4.998   0.635   0.759  1.00  0.00     0.016 A 
ATOM     29  C   UNL     1       4.255   1.061   3.035  1.00  0.00     0.016 A 
ATOM     30  C   UNL     1       4.699   1.948   0.405  1.00  0.00     0.010 A 
ATOM     31  C   UNL     1       3.974   2.384   2.681  1.00  0.00     0.010 A 
ATOM     32  C   UNL     1       4.230   2.841   1.376  1.00  0.00    -0.014 A 
BRANCH  32  33
ATOM     33  C   UNL     1       4.168   4.287   1.066  1.00  0.00     0.031 A 
ATOM     34  C   UNL     1       5.350   5.152   1.406  1.00  0.00     0.074 A 
ATOM     35  C   UNL     1       3.083   4.819   0.478  1.00  0.00     0.049 A 
ATOM     36  N   UNL     1       5.506   6.438   1.233  1.00  0.00    -0.248 NA
ATOM     37  C   UNL     1       6.512   4.480   2.014  1.00  0.00     0.031 C 
ATOM     38  C   UNL     1       1.888   4.076   0.083  1.00  0.00     0.029 A 
ATOM     39  N   UNL     1       2.809   6.116   0.125  1.00  0.00    -0.354 N 
ATOM     40  C   UNL     1       6.772   6.733   1.724  1.00  0.00     0.074 A 
ATOM     41  C   UNL     1       7.343   5.495   2.205  1.00  0.00     0.031 C 
ATOM     42  C   UNL     1       0.996   4.936  -0.439  1.00  0.00     0.029 A 
ATOM     43  C   UNL     1       1.551   6.288  -0.399  1.00  0.00     0.049 A 
ATOM     44  H   UNL     1       3.452   6.853   0.238  1.00  0.00     0.167 HD
ATOM     45  C   UNL     1       7.408   7.926   1.753  1.00  0.00     0.034 A 
ATOM     46  C   UNL     1       0.916   7.410  -0.790  1.00  0.00     0.034 A 
ATOM     47  C   UNL     1       6.850   9.152   1.258  1.00  0.00     0.049 A 
ATOM     48  C   UNL     1       1.629   8.733  -0.708  1.00  0.00     0.074 A 
ATOM     49  C   UNL     1       7.436  10.405   1.217  1.00  0.00     0.029 A 
ATOM     50  N   UNL     1       5.578   9.284   0.727  1.00  0.00    -0.354 N 
ATOM     51  N   UNL     1       2.858   8.981  -0.324  1.00  0.00    -0.248 NA
ATOM     52  C   UNL     1       0.880   9.926  -1.131  1.00  0.00     0.031 C 
ATOM     53  C   UNL     1       6.512  11.299   0.669  1.00  0.00     0.029 A 
ATOM     54  C   UNL     1       5.356  10.598   0.361  1.00  0.00     0.049 A 
ATOM     55  H   UNL     1       4.929   8.551   0.624  1.00  0.00     0.167 HD
ATOM     56  C   UNL     1       3.038  10.351  -0.481  1.00  0.00     0.074 A 
ATOM     57  C   UNL     1       1.796  10.880  -1.005  1.00  0.00     0.031 C 
ATOM     58  C   UNL     1       4.131  11.102  -0.204  1.00  0.00     0.034 A 
BRANCH  45  59
ATOM     59  C   UNL     1       8.805   7.964   2.302  1.00  0.00     0.023 A 
ATOM     60  C   UNL     1       9.875   7.564   1.478  1.00  0.00     0.012 A 
ATOM     61  C   UNL     1       9.066   8.477   3.586  1.00  0.00     0.148 A 
ATOM     62  C   UNL     1      11.190   7.670   1.927  1.00  0.00     0.002 A 
ATOM     63  C   UNL     1      10.381   8.604   4.017  1.00  0.00     0.091 A 
ATOM     64  F   UNL     1       8.027   8.834   4.354  1.00  0.00    -0.205 F 
ATOM     65  C   UNL     1      11.443   8.198   3.191  1.00  0.00     0.022 A 
BRANCH  63  66
ATOM     66  S   UNL     1      10.819   9.317   5.606  1.00  0.00     0.127 S 
ATOM     67  O   UNL     1      11.426   8.172   6.285  1.00  0.00    -0.237 OA
ATOM     68  O   UNL     1      11.762  10.367   5.220  1.00  0.00    -0.237 OA
ATOM     69  O   UNL     1       9.575   9.794   6.193  1.00  0.00    -0.744 OA
ENDBRANCH  63  66
ENDBRANCH  45  59
BRANCH  46  70
ATOM     70  C   UNL     1      -0.463   7.315  -1.339  1.00  0.00     0.023 A 
ATOM     71  C   UNL     1      -0.663   7.447  -2.726  1.00  0.00     0.012 A 
ATOM     72  C   UNL     1      -1.562   7.037  -0.504  1.00  0.00     0.148 A 
ATOM     73  C   UNL     1      -1.938   7.309  -3.273  1.00  0.00     0.002 A 
ATOM     74  C   UNL     1      -2.824   6.864  -1.060  1.00  0.00     0.091 A 
ATOM     75  F   UNL     1      -1.343   6.924   0.814  1.00  0.00    -0.205 F 
ATOM     76  C   UNL     1      -3.016   7.008  -2.443  1.00  0.00     0.022 A 
BRANCH  74  77
ATOM     77  S   UNL     1      -4.255   6.379  -0.088  1.00  0.00     0.127 S 
ATOM     78  O   UNL     1      -5.136   7.532  -0.258  1.00  0.00    -0.237 OA
ATOM     79  O   UNL     1      -4.686   5.165  -0.781  1.00  0.00    -0.237 OA
ATOM     80  O   UNL     1      -3.762   6.163   1.265  1.00  0.00    -0.744 OA
ENDBRANCH  74  77
ENDBRANCH  46  70
BRANCH  58  81
ATOM     81  C   UNL     1       4.064  12.582  -0.463  1.00  0.00     0.023 A 
ATOM     82  C   UNL     1       3.429  13.416   0.476  1.00  0.00     0.012 A 
ATOM     83  C   UNL     1       4.754  13.153  -1.550  1.00  0.00     0.148 A 
ATOM     84  C   UNL     1       3.478  14.802   0.335  1.00  0.00     0.002 A 
ATOM     85  C   UNL     1       4.827  14.536  -1.666  1.00  0.00     0.091 A 
ATOM     86  F   UNL     1       5.345  12.334  -2.432  1.00  0.00    -0.205 F 
ATOM     87  C   UNL     1       4.186  15.361  -0.727  1.00  0.00     0.022 A 
BRANCH  85  88
ATOM     88  S   UNL     1       5.781  15.352  -2.951  1.00  0.00     0.127 S 
ATOM     89  O   UNL     1       4.729  15.992  -3.741  1.00  0.00    -0.237 OA
ATOM     90  O   UNL     1       6.612  16.276  -2.179  1.00  0.00    -0.237 OA
ATOM     91  O   UNL     1       6.517  14.300  -3.639  1.00  0.00    -0.744 OA
ENDBRANCH  85  88
ENDBRANCH  58  81
ENDBRANCH  32  33
ENDBRANCH  25  27
ENDBRANCH  24  25
ENDBRANCH  23  24
ENDBRANCH   1  23
TORSDOF 19
