REMARK SMILES Cc1cc(=O)n2nc(C)c(C(=O)OCCOCCOC(=O)c3ccc(-c4c5nc(c(-c6cccc(S(=O)(=O)[O-])c6F)c6ccc([nH]6)c(-c6cccc(S(=O)(=O)[O-])c6F)c6nc(c(-c7cccc(S(=O)(=O)[O-])c7F)c7ccc4[nH]7)C=C6)C=C5)cc3)c2[nH]1
REMARK SMILES IDX 17 1 16 2 15 3 14 4 13 5 11 6 12 7 10 8 1 9 2 10 3 11 86 12
REMARK SMILES IDX 4 13 85 14 5 16 6 17 7 18 8 19 9 20 18 21 19 22 20 23 21 24
REMARK SMILES IDX 22 25 23 26 84 27 24 28 83 29 25 30 26 31 27 32 77 33 28 34
REMARK SMILES IDX 82 35 76 36 78 37 29 38 81 39 75 40 74 41 30 43 62 44 42 45
REMARK SMILES IDX 61 46 43 47 46 48 60 49 79 50 44 51 45 52 59 54 80 55 47 56
REMARK SMILES IDX 31 57 32 58 40 59 33 60 35 61 41 62 34 63 36 64 37 65 38 66
REMARK SMILES IDX 39 67 63 68 64 69 72 70 65 71 67 72 73 73 66 74 68 75 69 76
REMARK SMILES IDX 70 77 71 78 48 79 49 80 57 81 50 82 52 83 58 84 51 85 53 86
REMARK SMILES IDX 54 87 55 88 56 89
REMARK H PARENT 86 15 78 42 46 53
REMARK Flexibility Score: inf
ROOT
ATOM      1  C   UNL     1       3.210   4.762   0.282  1.00  0.00     0.202 C 
ENDROOT
BRANCH   1   2
ATOM      2  O   UNL     1       3.078   5.849  -0.629  1.00  0.00    -0.374 OA
BRANCH   2   3
ATOM      3  C   UNL     1       2.625   7.124  -0.173  1.00  0.00     0.202 C 
BRANCH   3   4
ATOM      4  C   UNL     1       1.139   7.292   0.154  1.00  0.00     0.261 C 
BRANCH   4   5
ATOM      5  O   UNL     1       0.730   6.502   1.282  1.00  0.00    -0.459 OA
BRANCH   5   6
ATOM      6  C   UNL     1       0.091   5.343   0.959  1.00  0.00     0.343 C 
ATOM      7  O   UNL     1      -0.221   5.017  -0.179  1.00  0.00    -0.246 OA
BRANCH   6   8
ATOM      8  C   UNL     1      -0.041   4.438   2.080  1.00  0.00     0.125 A 
ATOM      9  C   UNL     1       0.833  -0.009   0.015  1.00  0.00     0.064 C 
ATOM     10  C   UNL     1       0.371   0.844   1.164  1.00  0.00     0.019 A 
ATOM     11  C   UNL     1       0.015   0.298   2.344  1.00  0.00     0.095 A 
ATOM     12  N   UNL     1       0.336   2.214   0.967  1.00  0.00    -0.343 N 
ATOM     13  C   UNL     1      -0.353   1.174   3.494  1.00  0.00     0.274 A 
ATOM     14  C   UNL     1       0.037   3.067   1.977  1.00  0.00     0.152 A 
ATOM     15  H   UNL     1       0.533   2.576   0.073  1.00  0.00     0.168 HD
ATOM     16  O   UNL     1      -0.715   0.739   4.580  1.00  0.00    -0.267 OA
ATOM     17  N   UNL     1      -0.241   2.548   3.222  1.00  0.00    -0.179 N 
ATOM     18  N   UNL     1      -0.360   3.523   4.159  1.00  0.00    -0.168 NA
ATOM     19  C   UNL     1      -0.160   4.664   3.479  1.00  0.00     0.077 A 
ATOM     20  C   UNL     1      -0.081   5.952   4.216  1.00  0.00     0.070 C 
ENDBRANCH   6   8
ENDBRANCH   5   6
ENDBRANCH   4   5
ENDBRANCH   3   4
ENDBRANCH   2   3
ENDBRANCH   1   2
BRANCH   1  21
ATOM     21  C   UNL     1       4.294   4.803   1.345  1.00  0.00     0.261 C 
BRANCH  21  22
ATOM     22  O   UNL     1       4.160   5.932   2.186  1.00  0.00    -0.460 OA
BRANCH  22  23
ATOM     23  C   UNL     1       5.022   6.931   1.884  1.00  0.00     0.338 C 
ATOM     24  O   UNL     1       5.647   7.077   0.853  1.00  0.00    -0.246 OA
BRANCH  23  25
ATOM     25  C   UNL     1       5.199   7.754   3.080  1.00  0.00     0.060 A 
ATOM     26  C   UNL     1       6.110   8.805   2.967  1.00  0.00     0.016 A 
ATOM     27  C   UNL     1       4.756   7.266   4.318  1.00  0.00     0.016 A 
ATOM     28  C   UNL     1       6.781   9.189   4.100  1.00  0.00     0.010 A 
ATOM     29  C   UNL     1       5.440   7.637   5.443  1.00  0.00     0.010 A 
ATOM     30  C   UNL     1       6.506   8.517   5.297  1.00  0.00    -0.014 A 
BRANCH  30  31
ATOM     31  C   UNL     1       7.277   8.864   6.465  1.00  0.00     0.031 A 
ATOM     32  C   UNL     1       6.841  10.170   6.997  1.00  0.00     0.074 A 
ATOM     33  C   UNL     1       8.188   8.031   7.002  1.00  0.00     0.049 A 
ATOM     34  N   UNL     1       7.440  11.303   6.846  1.00  0.00    -0.248 NA
ATOM     35  C   UNL     1       5.463  10.283   7.507  1.00  0.00     0.031 C 
ATOM     36  C   UNL     1       8.438   6.626   6.655  1.00  0.00     0.029 A 
ATOM     37  N   UNL     1       9.010   8.228   8.066  1.00  0.00    -0.354 N 
ATOM     38  C   UNL     1       6.642  12.207   7.536  1.00  0.00     0.074 A 
ATOM     39  C   UNL     1       5.344  11.604   7.647  1.00  0.00     0.031 C 
ATOM     40  C   UNL     1       9.147   6.040   7.650  1.00  0.00     0.029 A 
ATOM     41  C   UNL     1       9.529   7.057   8.615  1.00  0.00     0.049 A 
ATOM     42  H   UNL     1       9.220   9.123   8.420  1.00  0.00     0.167 HD
ATOM     43  C   UNL     1       7.217  13.177   8.296  1.00  0.00     0.034 A 
ATOM     44  C   UNL     1      10.169   6.959   9.807  1.00  0.00     0.034 A 
ATOM     45  C   UNL     1       8.619  13.298   7.994  1.00  0.00     0.049 A 
ATOM     46  C   UNL     1      10.664   8.313  10.133  1.00  0.00     0.074 A 
ATOM     47  C   UNL     1       9.382  13.809   6.968  1.00  0.00     0.029 A 
ATOM     48  N   UNL     1       9.398  12.409   8.690  1.00  0.00    -0.354 N 
ATOM     49  N   UNL     1      11.598   8.912   9.450  1.00  0.00    -0.248 NA
ATOM     50  C   UNL     1       9.882   9.166  11.021  1.00  0.00     0.031 C 
ATOM     51  C   UNL     1      10.605  13.077   6.983  1.00  0.00     0.029 A 
ATOM     52  C   UNL     1      10.580  12.174   8.045  1.00  0.00     0.049 A 
ATOM     53  H   UNL     1       9.139  11.994   9.544  1.00  0.00     0.167 HD
ATOM     54  C   UNL     1      11.212  10.238   9.468  1.00  0.00     0.074 A 
ATOM     55  C   UNL     1      10.290  10.363  10.591  1.00  0.00     0.031 C 
ATOM     56  C   UNL     1      11.399  11.029   8.376  1.00  0.00     0.034 A 
BRANCH  43  57
ATOM     57  C   UNL     1       6.671  13.660   9.620  1.00  0.00     0.023 A 
ATOM     58  C   UNL     1       7.276  14.797  10.193  1.00  0.00     0.012 A 
ATOM     59  C   UNL     1       5.790  12.923  10.448  1.00  0.00     0.148 A 
ATOM     60  C   UNL     1       7.018  15.177  11.516  1.00  0.00     0.002 A 
ATOM     61  C   UNL     1       5.463  13.356  11.726  1.00  0.00     0.091 A 
ATOM     62  F   UNL     1       5.369  11.713  10.070  1.00  0.00    -0.205 F 
ATOM     63  C   UNL     1       6.096  14.469  12.277  1.00  0.00     0.022 A 
BRANCH  61  64
ATOM     64  S   UNL     1       4.229  12.507  12.721  1.00  0.00     0.127 S 
ATOM     65  O   UNL     1       5.050  11.932  13.782  1.00  0.00    -0.237 OA
ATOM     66  O   UNL     1       3.369  13.617  13.132  1.00  0.00    -0.237 OA
ATOM     67  O   UNL     1       3.586  11.556  11.823  1.00  0.00    -0.744 OA
ENDBRANCH  61  64
ENDBRANCH  43  57
BRANCH  44  68
ATOM     68  C   UNL     1      10.221   5.894  10.837  1.00  0.00     0.023 A 
ATOM     69  C   UNL     1      11.246   5.940  11.809  1.00  0.00     0.012 A 
ATOM     70  C   UNL     1       9.086   5.101  11.101  1.00  0.00     0.148 A 
ATOM     71  C   UNL     1      11.107   5.293  13.041  1.00  0.00     0.002 A 
ATOM     72  C   UNL     1       8.947   4.468  12.335  1.00  0.00     0.091 A 
ATOM     73  F   UNL     1       8.106   5.059  10.189  1.00  0.00    -0.205 F 
ATOM     74  C   UNL     1       9.947   4.577  13.313  1.00  0.00     0.022 A 
BRANCH  72  75
ATOM     75  S   UNL     1       7.451   3.587  12.803  1.00  0.00     0.127 S 
ATOM     76  O   UNL     1       7.991   2.333  13.331  1.00  0.00    -0.237 OA
ATOM     77  O   UNL     1       6.882   4.480  13.808  1.00  0.00    -0.237 OA
ATOM     78  O   UNL     1       6.681   3.441  11.575  1.00  0.00    -0.744 OA
ENDBRANCH  72  75
ENDBRANCH  44  68
BRANCH  56  79
ATOM     79  C   UNL     1      12.428  10.596   7.372  1.00  0.00     0.023 A 
ATOM     80  C   UNL     1      12.269   9.479   6.528  1.00  0.00     0.012 A 
ATOM     81  C   UNL     1      13.542  11.431   7.202  1.00  0.00     0.148 A 
ATOM     82  C   UNL     1      13.213   9.203   5.534  1.00  0.00     0.002 A 
ATOM     83  C   UNL     1      14.446  11.187   6.181  1.00  0.00     0.091 A 
ATOM     84  F   UNL     1      13.679  12.476   8.032  1.00  0.00    -0.205 F 
ATOM     85  C   UNL     1      14.292  10.067   5.349  1.00  0.00     0.022 A 
BRANCH  83  86
ATOM     86  S   UNL     1      15.768  12.340   5.815  1.00  0.00     0.127 S 
ATOM     87  O   UNL     1      16.946  11.613   6.280  1.00  0.00    -0.237 OA
ATOM     88  O   UNL     1      15.665  12.478   4.361  1.00  0.00    -0.237 OA
ATOM     89  O   UNL     1      15.453  13.559   6.550  1.00  0.00    -0.744 OA
ENDBRANCH  83  86
ENDBRANCH  56  79
ENDBRANCH  30  31
ENDBRANCH  23  25
ENDBRANCH  22  23
ENDBRANCH  21  22
ENDBRANCH   1  21
TORSDOF 17
