REMARK SMILES Cc1cc2c(c(C)c1Cl)C=C(C(=O)OCCOCCOC(=O)c1ccc(-c3c4nc(c(-c5cccc(S(=O)(=O)[O-])c5F)c5ccc([nH]5)c(-c5cccc(S(=O)(=O)[O-])c5F)c5nc(c(-c6cccc(S(=O)(=O)[O-])c6F)c6ccc3[nH]6)C=C5)C=C4)cc1)[C@@H](C(F)(F)F)O2
REMARK SMILES IDX 18 1 17 2 16 3 15 4 14 5 12 6 13 7 11 8 1 9 2 10 3 11 8 12
REMARK SMILES IDX 4 13 6 14 9 15 5 16 91 17 7 18 10 19 86 20 87 21 88 22 89 23
REMARK SMILES IDX 90 24 19 25 20 26 21 27 22 28 23 29 24 30 85 31 25 32 84 33
REMARK SMILES IDX 26 34 27 35 28 36 78 37 29 38 83 39 77 40 79 41 30 42 82 43
REMARK SMILES IDX 76 44 75 45 31 47 63 48 43 49 62 50 44 51 47 52 61 53 80 54
REMARK SMILES IDX 45 55 46 56 60 58 81 59 48 60 32 61 33 62 41 63 34 64 36 65
REMARK SMILES IDX 42 66 35 67 37 68 38 69 39 70 40 71 64 72 65 73 73 74 66 75
REMARK SMILES IDX 68 76 74 77 67 78 69 79 70 80 71 81 72 82 49 83 50 84 58 85
REMARK SMILES IDX 51 86 53 87 59 88 52 89 54 90 55 91 56 92 57 93
REMARK H PARENT 79 46 47 57
REMARK Flexibility Score: inf
ROOT
ATOM      1  C   UNL     1      -1.271   8.255   3.077  1.00  0.00     0.202 C 
ENDROOT
BRANCH   1   2
ATOM      2  O   UNL     1      -1.815   9.453   2.519  1.00  0.00    -0.374 OA
BRANCH   2   3
ATOM      3  C   UNL     1      -3.234   9.551   2.413  1.00  0.00     0.202 C 
BRANCH   3   4
ATOM      4  C   UNL     1      -3.895   8.803   1.250  1.00  0.00     0.261 C 
BRANCH   4   5
ATOM      5  O   UNL     1      -3.576   7.404   1.269  1.00  0.00    -0.460 OA
BRANCH   5   6
ATOM      6  C   UNL     1      -2.791   6.993   0.249  1.00  0.00     0.338 C 
ATOM      7  O   UNL     1      -2.438   7.652  -0.720  1.00  0.00    -0.246 OA
BRANCH   6   8
ATOM      8  C   UNL     1      -2.270   5.642   0.530  1.00  0.00     0.087 C 
ATOM      9  C   UNL     1       0.836  -0.010   0.196  1.00  0.00     0.046 C 
ATOM     10  C   UNL     1       0.473   1.446   0.316  1.00  0.00    -0.028 A 
ATOM     11  C   UNL     1      -0.807   1.774   0.784  1.00  0.00     0.052 A 
ATOM     12  C   UNL     1       1.333   2.482  -0.098  1.00  0.00     0.047 A 
ATOM     13  C   UNL     1      -1.248   3.095   0.797  1.00  0.00     0.128 A 
ATOM     14  C   UNL     1       0.919   3.833  -0.050  1.00  0.00    -0.021 A 
ATOM     15  Cl  UNL     1       2.906   2.068  -0.713  1.00  0.00    -0.084 Cl
ATOM     16  C   UNL     1      -0.408   4.122   0.354  1.00  0.00     0.022 A 
ATOM     17  O   UNL     1      -2.518   3.284   1.265  1.00  0.00    -0.475 OA
ATOM     18  C   UNL     1       1.843   4.966  -0.435  1.00  0.00     0.047 C 
ATOM     19  C   UNL     1      -0.973   5.462   0.249  1.00  0.00     0.027 C 
ATOM     20  C   UNL     1      -3.171   4.567   1.059  1.00  0.00     0.316 C 
BRANCH  20  21
ATOM     21  C   UNL     1      -4.410   4.347   0.178  1.00  0.00     0.430 C 
ATOM     22  F   UNL     1      -5.173   3.335   0.652  1.00  0.00    -0.167 F 
ATOM     23  F   UNL     1      -5.193   5.449   0.134  1.00  0.00    -0.167 F 
ATOM     24  F   UNL     1      -4.069   4.040  -1.095  1.00  0.00    -0.167 F 
ENDBRANCH  20  21
ENDBRANCH   6   8
ENDBRANCH   5   6
ENDBRANCH   4   5
ENDBRANCH   3   4
ENDBRANCH   2   3
ENDBRANCH   1   2
BRANCH   1  25
ATOM     25  C   UNL     1      -1.438   8.035   4.586  1.00  0.00     0.261 C 
BRANCH  25  26
ATOM     26  O   UNL     1      -2.810   7.812   4.958  1.00  0.00    -0.460 OA
BRANCH  26  27
ATOM     27  C   UNL     1      -3.348   8.775   5.744  1.00  0.00     0.338 C 
ATOM     28  O   UNL     1      -2.776   9.755   6.205  1.00  0.00    -0.246 OA
BRANCH  27  29
ATOM     29  C   UNL     1      -4.808   8.600   5.833  1.00  0.00     0.060 A 
ATOM     30  C   UNL     1      -5.616   9.664   5.412  1.00  0.00     0.016 A 
ATOM     31  C   UNL     1      -5.373   7.456   6.398  1.00  0.00     0.016 A 
ATOM     32  C   UNL     1      -6.995   9.607   5.599  1.00  0.00     0.010 A 
ATOM     33  C   UNL     1      -6.757   7.407   6.597  1.00  0.00     0.010 A 
ATOM     34  C   UNL     1      -7.568   8.497   6.232  1.00  0.00    -0.014 A 
BRANCH  34  35
ATOM     35  C   UNL     1      -8.992   8.548   6.642  1.00  0.00     0.031 A 
ATOM     36  C   UNL     1      -9.327   8.912   8.063  1.00  0.00     0.074 A 
ATOM     37  C   UNL     1      -9.972   8.304   5.753  1.00  0.00     0.049 A 
ATOM     38  N   UNL     1     -10.498   9.015   8.635  1.00  0.00    -0.248 NA
ATOM     39  C   UNL     1      -8.194   9.205   8.958  1.00  0.00     0.031 C 
ATOM     40  C   UNL     1      -9.769   7.967   4.346  1.00  0.00     0.029 A 
ATOM     41  N   UNL     1     -11.335   8.293   5.909  1.00  0.00    -0.354 N 
ATOM     42  C   UNL     1     -10.246   9.372   9.954  1.00  0.00     0.074 A 
ATOM     43  C   UNL     1      -8.810   9.449  10.106  1.00  0.00     0.031 C 
ATOM     44  C   UNL     1     -10.966   7.769   3.768  1.00  0.00     0.029 A 
ATOM     45  C   UNL     1     -12.018   7.942   4.769  1.00  0.00     0.049 A 
ATOM     46  H   UNL     1     -11.783   8.516   6.758  1.00  0.00     0.167 HD
ATOM     47  C   UNL     1     -11.132   9.638  10.942  1.00  0.00     0.034 A 
ATOM     48  C   UNL     1     -13.339   7.769   4.561  1.00  0.00     0.034 A 
ATOM     49  C   UNL     1     -12.559   9.580  10.782  1.00  0.00     0.049 A 
ATOM     50  C   UNL     1     -14.300   8.018   5.697  1.00  0.00     0.074 A 
ATOM     51  C   UNL     1     -13.538   9.849  11.722  1.00  0.00     0.029 A 
ATOM     52  N   UNL     1     -13.212   9.227   9.612  1.00  0.00    -0.354 N 
ATOM     53  N   UNL     1     -14.051   8.448   6.910  1.00  0.00    -0.248 NA
ATOM     54  C   UNL     1     -15.727   7.783   5.428  1.00  0.00     0.031 C 
ATOM     55  C   UNL     1     -14.784   9.641  11.125  1.00  0.00     0.029 A 
ATOM     56  C   UNL     1     -14.581   9.264   9.807  1.00  0.00     0.049 A 
ATOM     57  H   UNL     1     -12.768   8.987   8.767  1.00  0.00     0.167 HD
ATOM     58  C   UNL     1     -15.287   8.566   7.537  1.00  0.00     0.074 A 
ATOM     59  C   UNL     1     -16.287   8.185   6.561  1.00  0.00     0.031 C 
ATOM     60  C   UNL     1     -15.569   8.939   8.810  1.00  0.00     0.034 A 
BRANCH  47  61
ATOM     61  C   UNL     1     -10.593  10.070  12.279  1.00  0.00     0.023 A 
ATOM     62  C   UNL     1     -10.090  11.378  12.428  1.00  0.00     0.012 A 
ATOM     63  C   UNL     1     -10.681   9.228  13.405  1.00  0.00     0.148 A 
ATOM     64  C   UNL     1      -9.671  11.839  13.675  1.00  0.00     0.002 A 
ATOM     65  C   UNL     1     -10.300   9.709  14.653  1.00  0.00     0.091 A 
ATOM     66  F   UNL     1     -11.146   7.982  13.236  1.00  0.00    -0.205 F 
ATOM     67  C   UNL     1      -9.789  11.011  14.788  1.00  0.00     0.022 A 
BRANCH  65  68
ATOM     68  S   UNL     1     -10.484   8.753  16.163  1.00  0.00     0.127 S 
ATOM     69  O   UNL     1      -9.089   8.553  16.556  1.00  0.00    -0.237 OA
ATOM     70  O   UNL     1     -11.233   9.672  17.018  1.00  0.00    -0.237 OA
ATOM     71  O   UNL     1     -11.201   7.541  15.789  1.00  0.00    -0.744 OA
ENDBRANCH  65  68
ENDBRANCH  47  61
BRANCH  48  72
ATOM     72  C   UNL     1     -13.840   7.389   3.209  1.00  0.00     0.023 A 
ATOM     73  C   UNL     1     -14.600   8.315   2.468  1.00  0.00     0.012 A 
ATOM     74  C   UNL     1     -13.555   6.130   2.645  1.00  0.00     0.148 A 
ATOM     75  C   UNL     1     -15.087   7.987   1.202  1.00  0.00     0.002 A 
ATOM     76  C   UNL     1     -13.995   5.830   1.360  1.00  0.00     0.091 A 
ATOM     77  F   UNL     1     -12.851   5.252   3.373  1.00  0.00    -0.205 F 
ATOM     78  C   UNL     1     -14.775   6.750   0.644  1.00  0.00     0.022 A 
BRANCH  76  79
ATOM     79  S   UNL     1     -13.529   4.316   0.512  1.00  0.00     0.127 S 
ATOM     80  O   UNL     1     -14.787   3.575   0.509  1.00  0.00    -0.237 OA
ATOM     81  O   UNL     1     -13.106   4.820  -0.795  1.00  0.00    -0.237 OA
ATOM     82  O   UNL     1     -12.454   3.738   1.308  1.00  0.00    -0.744 OA
ENDBRANCH  76  79
ENDBRANCH  48  72
BRANCH  60  83
ATOM     83  C   UNL     1     -17.013   8.976   9.238  1.00  0.00     0.023 A 
ATOM     84  C   UNL     1     -17.701   7.767   9.463  1.00  0.00     0.012 A 
ATOM     85  C   UNL     1     -17.648  10.199   9.535  1.00  0.00     0.148 A 
ATOM     86  C   UNL     1     -19.004   7.775   9.958  1.00  0.00     0.002 A 
ATOM     87  C   UNL     1     -18.929  10.197  10.075  1.00  0.00     0.091 A 
ATOM     88  F   UNL     1     -16.981  11.338   9.301  1.00  0.00    -0.205 F 
ATOM     89  C   UNL     1     -19.612   8.987  10.278  1.00  0.00     0.022 A 
BRANCH  87  90
ATOM     90  S   UNL     1     -19.752  11.700  10.617  1.00  0.00     0.127 S 
ATOM     91  O   UNL     1     -20.801  11.845   9.610  1.00  0.00    -0.237 OA
ATOM     92  O   UNL     1     -20.232  11.328  11.949  1.00  0.00    -0.237 OA
ATOM     93  O   UNL     1     -18.733  12.741  10.611  1.00  0.00    -0.744 OA
ENDBRANCH  87  90
ENDBRANCH  60  83
ENDBRANCH  34  35
ENDBRANCH  27  29
ENDBRANCH  26  27
ENDBRANCH  25  26
ENDBRANCH   1  25
TORSDOF 18
