REMARK SMILES CCCc1cc(OC(F)(F)F)cc2c1O[C@H](C(F)(F)F)C(C(=O)OCCOCCOC(=O)c1ccc(-c3c4nc(c(-c5cccc(S(=O)(=O)[O-])c5F)c5ccc([nH]5)c(-c5cccc(S(=O)(=O)[O-])c5F)c5nc(c(-c6cccc(S(=O)(=O)[O-])c6F)c6ccc3[nH]6)C=C5)C=C4)cc1)=C2
REMARK SMILES IDX 28 1 27 2 26 3 25 4 24 5 22 6 23 7 21 8 4 9 5 10 14 11 6 12
REMARK SMILES IDX 13 13 15 14 12 15 96 16 16 17 3 18 2 19 1 20 7 21 8 22 9 23
REMARK SMILES IDX 10 24 11 25 17 26 18 27 19 28 20 29 29 30 30 31 31 32 32 33
REMARK SMILES IDX 33 34 34 35 95 36 35 37 94 38 36 39 37 40 38 41 88 42 39 43
REMARK SMILES IDX 93 44 87 45 89 46 40 47 92 48 86 49 85 50 41 52 73 53 53 54
REMARK SMILES IDX 72 55 54 56 57 57 71 58 90 59 55 60 56 61 70 63 91 64 58 65
REMARK SMILES IDX 42 66 43 67 51 68 44 69 46 70 52 71 45 72 47 73 48 74 49 75
REMARK SMILES IDX 50 76 74 77 75 78 83 79 76 80 78 81 84 82 77 83 79 84 80 85
REMARK SMILES IDX 81 86 82 87 59 88 60 89 68 90 61 91 63 92 69 93 62 94 64 95
REMARK SMILES IDX 65 96 66 97 67 98
REMARK H PARENT 89 51 57 62
REMARK Flexibility Score: inf
ROOT
ATOM      1  C   UNL     1       2.625  -4.851  -4.156  1.00  0.00     0.202 C 
ENDROOT
BRANCH   1   2
ATOM      2  O   UNL     1       1.879  -6.060  -4.231  1.00  0.00    -0.374 OA
BRANCH   2   3
ATOM      3  C   UNL     1       0.638  -6.042  -4.938  1.00  0.00     0.202 C 
BRANCH   3   4
ATOM      4  C   UNL     1      -0.519  -5.224  -4.357  1.00  0.00     0.261 C 
BRANCH   4   5
ATOM      5  O   UNL     1      -0.265  -3.806  -4.401  1.00  0.00    -0.460 OA
BRANCH   5   6
ATOM      6  C   UNL     1      -0.151  -3.223  -3.187  1.00  0.00     0.338 C 
ATOM      7  O   UNL     1      -0.266  -3.782  -2.105  1.00  0.00    -0.246 OA
BRANCH   6   8
ATOM      8  C   UNL     1       0.292  -1.822  -3.272  1.00  0.00     0.087 C 
ATOM      9  C   UNL     1       0.492   2.126  -2.019  1.00  0.00    -0.002 A 
ATOM     10  C   UNL     1       0.133   3.150  -2.910  1.00  0.00     0.054 A 
ATOM     11  C   UNL     1       0.418   0.812  -2.483  1.00  0.00     0.131 A 
ATOM     12  C   UNL     1      -0.308   2.859  -4.210  1.00  0.00     0.130 A 
ATOM     13  C   UNL     1      -0.053   0.488  -3.768  1.00  0.00     0.021 A 
ATOM     14  O   UNL     1       0.795  -0.154  -1.598  1.00  0.00    -0.475 OA
ATOM     15  C   UNL     1      -0.407   1.524  -4.630  1.00  0.00     0.058 A 
ATOM     16  C   UNL     1      -0.279  -0.927  -4.097  1.00  0.00     0.027 C 
ATOM     17  C   UNL     1       1.235  -1.388  -2.181  1.00  0.00     0.316 C 
BRANCH   9  18
ATOM     18  C   UNL     1       1.027   2.457  -0.638  1.00  0.00     0.039 C 
BRANCH  18  19
ATOM     19  C   UNL     1       0.283   1.870   0.580  1.00  0.00     0.001 C 
ATOM     20  C   UNL     1       0.779   0.512   1.078  1.00  0.00     0.004 C 
ENDBRANCH  18  19
ENDBRANCH   9  18
BRANCH  12  21
ATOM     21  O   UNL     1      -0.675   3.775  -5.158  1.00  0.00    -0.406 OA
BRANCH  21  22
ATOM     22  C   UNL     1      -0.682   5.144  -4.791  1.00  0.00     0.573 C 
ATOM     23  F   UNL     1      -1.525   5.371  -3.760  1.00  0.00    -0.132 F 
ATOM     24  F   UNL     1       0.558   5.564  -4.453  1.00  0.00    -0.132 F 
ATOM     25  F   UNL     1      -1.098   5.881  -5.844  1.00  0.00    -0.132 F 
ENDBRANCH  21  22
ENDBRANCH  12  21
BRANCH  17  26
ATOM     26  C   UNL     1       2.714  -1.276  -2.588  1.00  0.00     0.430 C 
ATOM     27  F   UNL     1       2.908  -0.557  -3.715  1.00  0.00    -0.167 F 
ATOM     28  F   UNL     1       3.446  -0.688  -1.607  1.00  0.00    -0.167 F 
ATOM     29  F   UNL     1       3.272  -2.492  -2.791  1.00  0.00    -0.167 F 
ENDBRANCH  17  26
ENDBRANCH   6   8
ENDBRANCH   5   6
ENDBRANCH   4   5
ENDBRANCH   3   4
ENDBRANCH   2   3
ENDBRANCH   1   2
BRANCH   1  30
ATOM     30  C   UNL     1       3.372  -4.356  -5.402  1.00  0.00     0.261 C 
BRANCH  30  31
ATOM     31  O   UNL     1       2.546  -4.270  -6.569  1.00  0.00    -0.460 OA
BRANCH  31  32
ATOM     32  C   UNL     1       2.747  -5.269  -7.461  1.00  0.00     0.338 C 
ATOM     33  O   UNL     1       3.578  -6.166  -7.392  1.00  0.00    -0.246 OA
BRANCH  32  34
ATOM     34  C   UNL     1       1.683  -5.255  -8.475  1.00  0.00     0.060 A 
ATOM     35  C   UNL     1       0.932  -6.427  -8.637  1.00  0.00     0.016 A 
ATOM     36  C   UNL     1       1.461  -4.144  -9.290  1.00  0.00     0.016 A 
ATOM     37  C   UNL     1      -0.018  -6.509  -9.649  1.00  0.00     0.010 A 
ATOM     38  C   UNL     1       0.516  -4.234 -10.316  1.00  0.00     0.010 A 
ATOM     39  C   UNL     1      -0.200  -5.427 -10.520  1.00  0.00    -0.014 A 
BRANCH  39  40
ATOM     40  C   UNL     1      -1.031  -5.605 -11.731  1.00  0.00     0.031 A 
ATOM     41  C   UNL     1      -0.352  -5.886 -13.042  1.00  0.00     0.074 A 
ATOM     42  C   UNL     1      -2.371  -5.527 -11.658  1.00  0.00     0.049 A 
ATOM     43  N   UNL     1      -0.878  -6.062 -14.224  1.00  0.00    -0.248 NA
ATOM     44  C   UNL     1       1.118  -5.979 -13.017  1.00  0.00     0.031 C 
ATOM     45  C   UNL     1      -3.136  -5.264 -10.440  1.00  0.00     0.029 A 
ATOM     46  N   UNL     1      -3.324  -5.639 -12.638  1.00  0.00    -0.354 N 
ATOM     47  C   UNL     1       0.192  -6.261 -15.088  1.00  0.00     0.074 A 
ATOM     48  C   UNL     1       1.399  -6.171 -14.297  1.00  0.00     0.031 C 
ATOM     49  C   UNL     1      -4.442  -5.206 -10.750  1.00  0.00     0.029 A 
ATOM     50  C   UNL     1      -4.602  -5.406 -12.189  1.00  0.00     0.049 A 
ATOM     51  H   UNL     1      -3.113  -5.865 -13.572  1.00  0.00     0.167 HD
ATOM     52  C   UNL     1       0.169  -6.511 -16.418  1.00  0.00     0.034 A 
ATOM     53  C   UNL     1      -5.764  -5.342 -12.870  1.00  0.00     0.034 A 
ATOM     54  C   UNL     1      -1.035  -6.619 -17.195  1.00  0.00     0.049 A 
ATOM     55  C   UNL     1      -5.759  -5.604 -14.353  1.00  0.00     0.074 A 
ATOM     56  C   UNL     1      -1.168  -6.918 -18.539  1.00  0.00     0.029 A 
ATOM     57  N   UNL     1      -2.315  -6.421 -16.700  1.00  0.00    -0.354 N 
ATOM     58  N   UNL     1      -4.751  -5.912 -15.134  1.00  0.00    -0.248 NA
ATOM     59  C   UNL     1      -7.055  -5.544 -15.044  1.00  0.00     0.031 C 
ATOM     60  C   UNL     1      -2.528  -6.875 -18.863  1.00  0.00     0.029 A 
ATOM     61  C   UNL     1      -3.244  -6.577 -17.714  1.00  0.00     0.049 A 
ATOM     62  H   UNL     1      -2.531  -6.201 -15.765  1.00  0.00     0.167 HD
ATOM     63  C   UNL     1      -5.295  -6.117 -16.398  1.00  0.00     0.074 A 
ATOM     64  C   UNL     1      -6.724  -5.917 -16.273  1.00  0.00     0.031 C 
ATOM     65  C   UNL     1      -4.668  -6.429 -17.559  1.00  0.00     0.034 A 
BRANCH  52  66
ATOM     66  C   UNL     1       1.489  -6.713 -17.113  1.00  0.00     0.023 A 
ATOM     67  C   UNL     1       2.210  -7.906 -16.907  1.00  0.00     0.012 A 
ATOM     68  C   UNL     1       1.988  -5.749 -18.010  1.00  0.00     0.148 A 
ATOM     69  C   UNL     1       3.422  -8.125 -17.560  1.00  0.00     0.002 A 
ATOM     70  C   UNL     1       3.176  -5.992 -18.690  1.00  0.00     0.091 A 
ATOM     71  F   UNL     1       1.300  -4.610 -18.173  1.00  0.00    -0.205 F 
ATOM     72  C   UNL     1       3.899  -7.174 -18.459  1.00  0.00     0.022 A 
BRANCH  70  73
ATOM     73  S   UNL     1       3.834  -4.863 -19.922  1.00  0.00     0.127 S 
ATOM     74  O   UNL     1       4.998  -4.315 -19.227  1.00  0.00    -0.237 OA
ATOM     75  O   UNL     1       4.154  -5.766 -21.028  1.00  0.00    -0.237 OA
ATOM     76  O   UNL     1       2.769  -3.911 -20.204  1.00  0.00    -0.744 OA
ENDBRANCH  70  73
ENDBRANCH  52  66
BRANCH  53  77
ATOM     77  C   UNL     1      -7.034  -5.051 -12.147  1.00  0.00     0.023 A 
ATOM     78  C   UNL     1      -8.007  -6.060 -12.015  1.00  0.00     0.012 A 
ATOM     79  C   UNL     1      -7.272  -3.787 -11.573  1.00  0.00     0.148 A 
ATOM     80  C   UNL     1      -9.207  -5.807 -11.351  1.00  0.00     0.002 A 
ATOM     81  C   UNL     1      -8.446  -3.559 -10.864  1.00  0.00     0.091 A 
ATOM     82  F   UNL     1      -6.342  -2.834 -11.725  1.00  0.00    -0.205 F 
ATOM     83  C   UNL     1      -9.422  -4.561 -10.766  1.00  0.00     0.022 A 
BRANCH  81  84
ATOM     84  S   UNL     1      -8.745  -2.030  -9.969  1.00  0.00     0.127 S 
ATOM     85  O   UNL     1      -9.775  -1.399 -10.790  1.00  0.00    -0.237 OA
ATOM     86  O   UNL     1      -9.206  -2.525  -8.671  1.00  0.00    -0.237 OA
ATOM     87  O   UNL     1      -7.460  -1.345  -9.924  1.00  0.00    -0.744 OA
ENDBRANCH  81  84
ENDBRANCH  53  77
BRANCH  65  88
ATOM     88  C   UNL     1      -5.521  -6.612 -18.788  1.00  0.00     0.023 A 
ATOM     89  C   UNL     1      -6.094  -5.490 -19.417  1.00  0.00     0.012 A 
ATOM     90  C   UNL     1      -5.684  -7.888 -19.365  1.00  0.00     0.148 A 
ATOM     91  C   UNL     1      -6.841  -5.637 -20.585  1.00  0.00     0.002 A 
ATOM     92  C   UNL     1      -6.389  -8.021 -20.555  1.00  0.00     0.091 A 
ATOM     93  F   UNL     1      -5.146  -8.946 -18.741  1.00  0.00    -0.205 F 
ATOM     94  C   UNL     1      -6.979  -6.899 -21.160  1.00  0.00     0.022 A 
BRANCH  92  95
ATOM     95  S   UNL     1      -6.534  -9.590 -21.417  1.00  0.00     0.127 S 
ATOM     96  O   UNL     1      -7.931  -9.941 -21.165  1.00  0.00    -0.237 OA
ATOM     97  O   UNL     1      -6.240  -9.214 -22.800  1.00  0.00    -0.237 OA
ATOM     98  O   UNL     1      -5.548 -10.474 -20.810  1.00  0.00    -0.744 OA
ENDBRANCH  92  95
ENDBRANCH  65  88
ENDBRANCH  39  40
ENDBRANCH  32  34
ENDBRANCH  31  32
ENDBRANCH  30  31
ENDBRANCH   1  30
TORSDOF 22
