REMARK SMILES CC1=C(C(=O)OCCOCCOC(=O)c2ccc(-c3c4nc(c(-c5cccc(S(=O)(=O)[O-])c5F)c5ccc([nH]5)c(-c5cccc(S(=O)(=O)[O-])c5F)c5nc(c(-c6cccc(S(=O)(=O)[O-])c6F)c6ccc3[nH]6)C=C5)C=C4)cc2)N2C(=O)[C@H](NC(=O)c3c(Cl)c(C(F)(F)F)nn3C)[C@@H]2SC1
REMARK SMILES IDX 9 1 8 2 7 3 6 4 4 5 5 6 3 7 1 8 2 9 98 10 78 11 97 12 79 13
REMARK SMILES IDX 96 14 80 15 81 16 82 17 83 18 84 20 85 21 86 22 94 23 87 24
REMARK SMILES IDX 88 25 93 26 95 27 89 28 90 29 91 30 92 31 10 32 11 33 12 34
REMARK SMILES IDX 13 35 14 36 15 37 16 38 77 39 17 40 76 41 18 42 19 43 20 44
REMARK SMILES IDX 70 45 21 46 75 47 69 48 71 49 22 50 74 51 68 52 67 53 23 55
REMARK SMILES IDX 55 56 35 57 54 58 36 59 39 60 53 61 72 62 37 63 38 64 52 66
REMARK SMILES IDX 73 67 40 68 24 69 25 70 33 71 26 72 28 73 34 74 27 75 29 76
REMARK SMILES IDX 30 77 31 78 32 79 56 80 57 81 65 82 58 83 60 84 66 85 59 86
REMARK SMILES IDX 61 87 62 88 63 89 64 90 41 91 42 92 50 93 43 94 45 95 51 96
REMARK SMILES IDX 44 97 46 98 47 99 48 100 49 101
REMARK H PARENT 82 19 71 54 39 65
REMARK Flexibility Score: inf
ROOT
ATOM      1  O   UNL     1       0.300  -4.575   2.375  1.00  0.00    -0.374 OA
ENDROOT
BRANCH   1   2
ATOM      2  C   UNL     1       0.037  -4.534   0.969  1.00  0.00     0.202 C 
BRANCH   2   3
ATOM      3  C   UNL     1      -1.001  -3.501   0.526  1.00  0.00     0.261 C 
BRANCH   3   4
ATOM      4  O   UNL     1      -0.465  -2.188   0.735  1.00  0.00    -0.459 OA
BRANCH   4   5
ATOM      5  C   UNL     1      -1.359  -1.250   1.123  1.00  0.00     0.355 C 
ATOM      6  O   UNL     1      -2.575  -1.342   1.097  1.00  0.00    -0.244 OA
BRANCH   5   7
ATOM      7  C   UNL     1      -0.622  -0.105   1.747  1.00  0.00     0.131 C 
ATOM      8  C   UNL     1       0.685   0.412  -0.366  1.00  0.00     0.043 C 
ATOM      9  C   UNL     1       0.236   0.681   1.052  1.00  0.00    -0.032 C 
ATOM     10  C   UNL     1       0.841   1.963   1.604  1.00  0.00     0.105 C 
ATOM     11  N   UNL     1      -0.889   0.149   3.058  1.00  0.00    -0.289 N 
ATOM     12  S   UNL     1      -0.050   2.648   3.042  1.00  0.00    -0.129 SA
ATOM     13  C   UNL     1      -1.649  -0.353   4.049  1.00  0.00     0.253 C 
ATOM     14  C   UNL     1      -0.120   1.053   3.880  1.00  0.00     0.181 C 
ATOM     15  O   UNL     1      -2.376  -1.315   4.143  1.00  0.00    -0.272 OA
ATOM     16  C   UNL     1      -1.199   0.831   4.986  1.00  0.00     0.206 C 
BRANCH  16  17
ATOM     17  N   UNL     1      -2.224   1.892   5.175  1.00  0.00    -0.336 N 
ATOM     18  C   UNL     1      -2.611   2.542   6.319  1.00  0.00     0.271 C 
ATOM     19  H   UNL     1      -2.695   2.169   4.356  1.00  0.00     0.164 HD
ATOM     20  O   UNL     1      -3.581   3.293   6.264  1.00  0.00    -0.267 OA
BRANCH  18  21
ATOM     21  C   UNL     1      -1.874   2.323   7.532  1.00  0.00     0.145 A 
ATOM     22  C   UNL     1      -2.356   1.950   8.773  1.00  0.00     0.104 A 
ATOM     23  N   UNL     1      -0.547   2.591   7.743  1.00  0.00    -0.261 N 
ATOM     24  Cl  UNL     1      -3.958   1.579   9.201  1.00  0.00    -0.079 Cl
ATOM     25  C   UNL     1      -1.238   1.924   9.643  1.00  0.00     0.185 A 
ATOM     26  N   UNL     1      -0.117   2.277   8.981  1.00  0.00    -0.166 NA
ATOM     27  C   UNL     1       0.395   3.203   6.833  1.00  0.00     0.174 C 
BRANCH  25  28
ATOM     28  C   UNL     1      -1.254   1.578  11.104  1.00  0.00     0.436 C 
ATOM     29  F   UNL     1      -1.956   2.489  11.832  1.00  0.00    -0.164 F 
ATOM     30  F   UNL     1      -1.831   0.368  11.338  1.00  0.00    -0.164 F 
ATOM     31  F   UNL     1      -0.012   1.521  11.658  1.00  0.00    -0.164 F 
ENDBRANCH  25  28
ENDBRANCH  18  21
ENDBRANCH  16  17
ENDBRANCH   5   7
ENDBRANCH   4   5
ENDBRANCH   3   4
ENDBRANCH   2   3
ENDBRANCH   1   2
BRANCH   1  32
ATOM     32  C   UNL     1       1.037  -3.493   2.941  1.00  0.00     0.202 C 
BRANCH  32  33
ATOM     33  C   UNL     1       2.559  -3.532   2.756  1.00  0.00     0.261 C 
BRANCH  33  34
ATOM     34  O   UNL     1       2.961  -3.470   1.378  1.00  0.00    -0.460 OA
BRANCH  34  35
ATOM     35  C   UNL     1       3.436  -4.640   0.880  1.00  0.00     0.338 C 
ATOM     36  O   UNL     1       3.591  -5.688   1.484  1.00  0.00    -0.246 OA
BRANCH  35  37
ATOM     37  C   UNL     1       3.613  -4.538  -0.581  1.00  0.00     0.060 A 
ATOM     38  C   UNL     1       2.983  -5.501  -1.379  1.00  0.00     0.016 A 
ATOM     39  C   UNL     1       4.447  -3.575  -1.154  1.00  0.00     0.016 A 
ATOM     40  C   UNL     1       3.218  -5.531  -2.753  1.00  0.00     0.010 A 
ATOM     41  C   UNL     1       4.686  -3.613  -2.532  1.00  0.00     0.010 A 
ATOM     42  C   UNL     1       4.099  -4.610  -3.332  1.00  0.00    -0.014 A 
BRANCH  42  43
ATOM     43  C   UNL     1       4.500  -4.765  -4.752  1.00  0.00     0.031 A 
ATOM     44  C   UNL     1       5.829  -5.390  -5.077  1.00  0.00     0.074 A 
ATOM     45  C   UNL     1       3.690  -4.348  -5.741  1.00  0.00     0.049 A 
ATOM     46  N   UNL     1       6.384  -5.593  -6.244  1.00  0.00    -0.248 NA
ATOM     47  C   UNL     1       6.641  -5.845  -3.937  1.00  0.00     0.031 C 
ATOM     48  C   UNL     1       2.379  -3.729  -5.553  1.00  0.00     0.029 A 
ATOM     49  N   UNL     1       3.865  -4.361  -7.102  1.00  0.00    -0.354 N 
ATOM     50  C   UNL     1       7.618  -6.175  -5.980  1.00  0.00     0.074 A 
ATOM     51  C   UNL     1       7.737  -6.279  -4.542  1.00  0.00     0.031 C 
ATOM     52  C   UNL     1       1.879  -3.396  -6.756  1.00  0.00     0.029 A 
ATOM     53  C   UNL     1       2.842  -3.757  -7.794  1.00  0.00     0.049 A 
ATOM     54  H   UNL     1       4.649  -4.764  -7.541  1.00  0.00     0.167 HD
ATOM     55  C   UNL     1       8.560  -6.601  -6.855  1.00  0.00     0.034 A 
ATOM     56  C   UNL     1       2.708  -3.508  -9.112  1.00  0.00     0.034 A 
ATOM     57  C   UNL     1       8.431  -6.517  -8.285  1.00  0.00     0.049 A 
ATOM     58  C   UNL     1       3.781  -3.968 -10.063  1.00  0.00     0.074 A 
ATOM     59  C   UNL     1       9.310  -6.965  -9.255  1.00  0.00     0.029 A 
ATOM     60  N   UNL     1       7.363  -5.937  -8.951  1.00  0.00    -0.354 N 
ATOM     61  N   UNL     1       4.886  -4.625  -9.806  1.00  0.00    -0.248 NA
ATOM     62  C   UNL     1       3.574  -3.681 -11.491  1.00  0.00     0.031 C 
ATOM     63  C   UNL     1       8.783  -6.636 -10.509  1.00  0.00     0.029 A 
ATOM     64  C   UNL     1       7.564  -6.004 -10.319  1.00  0.00     0.049 A 
ATOM     65  H   UNL     1       6.576  -5.537  -8.515  1.00  0.00     0.167 HD
ATOM     66  C   UNL     1       5.486  -4.862 -11.039  1.00  0.00     0.074 A 
ATOM     67  C   UNL     1       4.613  -4.293 -12.044  1.00  0.00     0.031 C 
ATOM     68  C   UNL     1       6.661  -5.483 -11.313  1.00  0.00     0.034 A 
BRANCH  55  69
ATOM     69  C   UNL     1       9.805  -7.229  -6.288  1.00  0.00     0.023 A 
ATOM     70  C   UNL     1       9.741  -8.525  -5.738  1.00  0.00     0.012 A 
ATOM     71  C   UNL     1      11.044  -6.562  -6.345  1.00  0.00     0.148 A 
ATOM     72  C   UNL     1      10.885  -9.137  -5.227  1.00  0.00     0.002 A 
ATOM     73  C   UNL     1      12.188  -7.194  -5.870  1.00  0.00     0.091 A 
ATOM     74  F   UNL     1      11.080  -5.320  -6.848  1.00  0.00    -0.205 F 
ATOM     75  C   UNL     1      12.109  -8.476  -5.302  1.00  0.00     0.022 A 
BRANCH  73  76
ATOM     76  S   UNL     1      13.820  -6.453  -5.988  1.00  0.00     0.127 S 
ATOM     77  O   UNL     1      14.076  -6.081  -4.598  1.00  0.00    -0.237 OA
ATOM     78  O   UNL     1      14.631  -7.566  -6.481  1.00  0.00    -0.237 OA
ATOM     79  O   UNL     1      13.687  -5.342  -6.920  1.00  0.00    -0.744 OA
ENDBRANCH  73  76
ENDBRANCH  55  69
BRANCH  56  80
ATOM     80  C   UNL     1       1.487  -2.817  -9.616  1.00  0.00     0.023 A 
ATOM     81  C   UNL     1       0.553  -3.533 -10.387  1.00  0.00     0.012 A 
ATOM     82  C   UNL     1       1.238  -1.464  -9.316  1.00  0.00     0.148 A 
ATOM     83  C   UNL     1      -0.596  -2.907 -10.874  1.00  0.00     0.002 A 
ATOM     84  C   UNL     1       0.066  -0.861  -9.757  1.00  0.00     0.091 A 
ATOM     85  F   UNL     1       2.150  -0.794  -8.596  1.00  0.00    -0.205 F 
ATOM     86  C   UNL     1      -0.845  -1.576 -10.550  1.00  0.00     0.022 A 
BRANCH  84  87
ATOM     87  S   UNL     1      -0.396   0.807  -9.275  1.00  0.00     0.127 S 
ATOM     88  O   UNL     1      -0.211   1.541 -10.524  1.00  0.00    -0.237 OA
ATOM     89  O   UNL     1      -1.789   0.628  -8.864  1.00  0.00    -0.237 OA
ATOM     90  O   UNL     1       0.506   1.164  -8.188  1.00  0.00    -0.744 OA
ENDBRANCH  84  87
ENDBRANCH  56  80
BRANCH  68  91
ATOM     91  C   UNL     1       7.065  -5.615 -12.759  1.00  0.00     0.023 A 
ATOM     92  C   UNL     1       7.520  -4.484 -13.464  1.00  0.00     0.012 A 
ATOM     93  C   UNL     1       7.071  -6.874 -13.392  1.00  0.00     0.148 A 
ATOM     94  C   UNL     1       7.947  -4.598 -14.787  1.00  0.00     0.002 A 
ATOM     95  C   UNL     1       7.542  -6.988 -14.695  1.00  0.00     0.091 A 
ATOM     96  F   UNL     1       6.617  -7.936 -12.710  1.00  0.00    -0.205 F 
ATOM     97  C   UNL     1       7.970  -5.850 -15.398  1.00  0.00     0.022 A 
BRANCH  95  98
ATOM     98  S   UNL     1       7.696  -8.573 -15.528  1.00  0.00     0.127 S 
ATOM     99  O   UNL     1       6.593  -8.514 -16.485  1.00  0.00    -0.237 OA
ATOM    100  O   UNL     1       9.029  -8.482 -16.125  1.00  0.00    -0.237 OA
ATOM    101  O   UNL     1       7.570  -9.585 -14.488  1.00  0.00    -0.744 OA
ENDBRANCH  95  98
ENDBRANCH  68  91
ENDBRANCH  42  43
ENDBRANCH  35  37
ENDBRANCH  34  35
ENDBRANCH  33  34
ENDBRANCH  32  33
ENDBRANCH   1  32
TORSDOF 20
