REMARK SMILES O=C(OCCOCCOC(=O)c1ccc([C@@H]2CC(O)=Nc3c2ncn3-c2cccc(Cl)c2)cc1)c1ccc(-c2c3nc(c(-c4cccc(S(=O)(=O)[O-])c4F)c4ccc([nH]4)c(-c4cccc(S(=O)(=O)[O-])c4F)c4nc(c(-c5cccc(S(=O)(=O)[O-])c5F)c5ccc2[nH]5)C=C4)C=C3)cc1
REMARK SMILES IDX 5 1 4 2 3 3 2 4 1 5 35 6 36 7 97 8 37 9 96 10 38 11 39 12
REMARK SMILES IDX 40 13 90 14 41 15 95 16 89 17 91 18 42 19 94 20 88 21 87 22
REMARK SMILES IDX 43 24 75 25 55 26 74 27 56 28 59 29 73 30 92 31 57 32 58 33
REMARK SMILES IDX 72 35 93 36 60 37 44 38 45 39 53 40 46 41 48 42 54 43 47 44
REMARK SMILES IDX 49 45 50 46 51 47 52 48 76 49 77 50 85 51 78 52 80 53 86 54
REMARK SMILES IDX 79 55 81 56 82 57 83 58 84 59 61 60 62 61 70 62 63 63 65 64
REMARK SMILES IDX 71 65 64 66 66 67 67 68 68 69 69 70 6 71 7 72 8 73 9 74
REMARK SMILES IDX 10 75 11 76 12 77 13 78 34 79 14 80 33 81 15 82 16 83 17 84
REMARK SMILES IDX 22 85 18 86 21 87 23 88 20 89 25 90 24 91 19 92 26 94 27 95
REMARK SMILES IDX 32 96 28 97 30 98 29 99 31 100
REMARK H PARENT 91 23 59 34 19 93
REMARK Flexibility Score: inf
ROOT
ATOM      1  C   UNL     1       4.718   0.229  -0.884  1.00  0.00     0.202 C 
ENDROOT
BRANCH   1   2
ATOM      2  C   UNL     1       4.517  -1.152  -0.266  1.00  0.00     0.261 C 
BRANCH   2   3
ATOM      3  O   UNL     1       3.164  -1.642  -0.289  1.00  0.00    -0.460 OA
BRANCH   3   4
ATOM      4  C   UNL     1       2.096  -0.895   0.071  1.00  0.00     0.338 C 
ATOM      5  O   UNL     1       1.131  -0.773  -0.677  1.00  0.00    -0.246 OA
BRANCH   4   6
ATOM      6  C   UNL     1       2.006  -0.493   1.497  1.00  0.00     0.060 A 
ATOM      7  C   UNL     1       3.091  -0.505   2.372  1.00  0.00     0.016 A 
ATOM      8  C   UNL     1       0.719  -0.244   1.998  1.00  0.00     0.016 A 
ATOM      9  C   UNL     1       2.877  -0.579   3.726  1.00  0.00     0.010 A 
ATOM     10  C   UNL     1       0.502  -0.242   3.364  1.00  0.00     0.010 A 
ATOM     11  C   UNL     1       1.573  -0.529   4.202  1.00  0.00    -0.014 A 
BRANCH  11  12
ATOM     12  C   UNL     1       1.410  -0.746   5.624  1.00  0.00     0.031 A 
ATOM     13  C   UNL     1       2.092   0.269   6.463  1.00  0.00     0.074 A 
ATOM     14  C   UNL     1       0.689  -1.779   6.094  1.00  0.00     0.049 A 
ATOM     15  N   UNL     1       3.082   0.100   7.277  1.00  0.00    -0.248 NA
ATOM     16  C   UNL     1       1.754   1.677   6.206  1.00  0.00     0.031 C 
ATOM     17  C   UNL     1      -0.197  -2.669   5.337  1.00  0.00     0.029 A 
ATOM     18  N   UNL     1       0.472  -2.147   7.383  1.00  0.00    -0.354 N 
ATOM     19  C   UNL     1       3.330   1.362   7.816  1.00  0.00     0.074 A 
ATOM     20  C   UNL     1       2.652   2.301   6.966  1.00  0.00     0.031 C 
ATOM     21  C   UNL     1      -1.061  -3.253   6.195  1.00  0.00     0.029 A 
ATOM     22  C   UNL     1      -0.696  -2.880   7.550  1.00  0.00     0.049 A 
ATOM     23  H   UNL     1       1.080  -1.918   8.123  1.00  0.00     0.167 HD
ATOM     24  C   UNL     1       3.832   1.502   9.074  1.00  0.00     0.034 A 
ATOM     25  C   UNL     1      -1.372  -3.049   8.711  1.00  0.00     0.034 A 
ATOM     26  C   UNL     1       4.482   0.290   9.511  1.00  0.00     0.049 A 
ATOM     27  C   UNL     1      -0.437  -2.743   9.819  1.00  0.00     0.074 A 
ATOM     28  C   UNL     1       5.539  -0.473   9.058  1.00  0.00     0.029 A 
ATOM     29  N   UNL     1       3.791  -0.505  10.393  1.00  0.00    -0.354 N 
ATOM     30  N   UNL     1       0.607  -3.471  10.104  1.00  0.00    -0.248 NA
ATOM     31  C   UNL     1      -0.412  -1.384  10.338  1.00  0.00     0.031 C 
ATOM     32  C   UNL     1       5.167  -1.821   9.336  1.00  0.00     0.029 A 
ATOM     33  C   UNL     1       3.932  -1.802   9.988  1.00  0.00     0.049 A 
ATOM     34  H   UNL     1       3.284  -0.194  11.178  1.00  0.00     0.167 HD
ATOM     35  C   UNL     1       1.595  -2.548  10.425  1.00  0.00     0.074 A 
ATOM     36  C   UNL     1       0.880  -1.296  10.667  1.00  0.00     0.031 C 
ATOM     37  C   UNL     1       2.912  -2.810  10.171  1.00  0.00     0.034 A 
BRANCH  24  38
ATOM     38  C   UNL     1       3.347   2.542  10.075  1.00  0.00     0.023 A 
ATOM     39  C   UNL     1       3.928   2.495  11.365  1.00  0.00     0.012 A 
ATOM     40  C   UNL     1       2.172   3.319   9.942  1.00  0.00     0.148 A 
ATOM     41  C   UNL     1       3.303   3.068  12.477  1.00  0.00     0.002 A 
ATOM     42  C   UNL     1       1.583   3.934  11.040  1.00  0.00     0.091 A 
ATOM     43  F   UNL     1       1.536   3.400   8.775  1.00  0.00    -0.205 F 
ATOM     44  C   UNL     1       2.120   3.777  12.317  1.00  0.00     0.022 A 
BRANCH  42  45
ATOM     45  S   UNL     1       0.066   4.889  10.881  1.00  0.00     0.127 S 
ATOM     46  O   UNL     1      -0.905   3.992  11.501  1.00  0.00    -0.237 OA
ATOM     47  O   UNL     1       0.388   6.088  11.654  1.00  0.00    -0.237 OA
ATOM     48  O   UNL     1      -0.107   5.129   9.453  1.00  0.00    -0.744 OA
ENDBRANCH  42  45
ENDBRANCH  24  38
BRANCH  25  49
ATOM     49  C   UNL     1      -2.835  -3.149   8.915  1.00  0.00     0.023 A 
ATOM     50  C   UNL     1      -3.333  -3.706  10.108  1.00  0.00     0.012 A 
ATOM     51  C   UNL     1      -3.741  -2.470   8.067  1.00  0.00     0.148 A 
ATOM     52  C   UNL     1      -4.682  -3.572  10.457  1.00  0.00     0.002 A 
ATOM     53  C   UNL     1      -5.084  -2.353   8.410  1.00  0.00     0.091 A 
ATOM     54  F   UNL     1      -3.271  -1.858   6.972  1.00  0.00    -0.205 F 
ATOM     55  C   UNL     1      -5.556  -2.893   9.612  1.00  0.00     0.022 A 
BRANCH  53  56
ATOM     56  S   UNL     1      -6.264  -1.479   7.372  1.00  0.00     0.127 S 
ATOM     57  O   UNL     1      -7.376  -2.429   7.312  1.00  0.00    -0.237 OA
ATOM     58  O   UNL     1      -6.528  -0.278   8.159  1.00  0.00    -0.237 OA
ATOM     59  O   UNL     1      -5.592  -1.266   6.097  1.00  0.00    -0.744 OA
ENDBRANCH  53  56
ENDBRANCH  25  49
BRANCH  37  60
ATOM     60  C   UNL     1       3.297  -4.215   9.788  1.00  0.00     0.023 A 
ATOM     61  C   UNL     1       2.842  -4.822   8.598  1.00  0.00     0.012 A 
ATOM     62  C   UNL     1       4.287  -4.862  10.546  1.00  0.00     0.148 A 
ATOM     63  C   UNL     1       3.349  -6.058   8.187  1.00  0.00     0.002 A 
ATOM     64  C   UNL     1       4.824  -6.066  10.108  1.00  0.00     0.091 A 
ATOM     65  F   UNL     1       4.713  -4.268  11.671  1.00  0.00    -0.205 F 
ATOM     66  C   UNL     1       4.351  -6.673   8.934  1.00  0.00     0.022 A 
BRANCH  64  67
ATOM     67  S   UNL     1       6.208  -6.833  10.954  1.00  0.00     0.127 S 
ATOM     68  O   UNL     1       5.560  -7.929  11.670  1.00  0.00    -0.237 OA
ATOM     69  O   UNL     1       7.065  -7.250   9.842  1.00  0.00    -0.237 OA
ATOM     70  O   UNL     1       6.791  -5.792  11.791  1.00  0.00    -0.744 OA
ENDBRANCH  64  67
ENDBRANCH  37  60
ENDBRANCH  11  12
ENDBRANCH   4   6
ENDBRANCH   3   4
ENDBRANCH   2   3
ENDBRANCH   1   2
BRANCH   1  71
ATOM     71  O   UNL     1       4.155   1.359  -0.233  1.00  0.00    -0.374 OA
BRANCH  71  72
ATOM     72  C   UNL     1       3.024   1.979  -0.865  1.00  0.00     0.202 C 
BRANCH  72  73
ATOM     73  C   UNL     1       3.171   2.593  -2.270  1.00  0.00     0.261 C 
BRANCH  73  74
ATOM     74  O   UNL     1       3.478   1.625  -3.293  1.00  0.00    -0.460 OA
BRANCH  74  75
ATOM     75  C   UNL     1       4.751   1.647  -3.758  1.00  0.00     0.338 C 
ATOM     76  O   UNL     1       5.615   2.475  -3.511  1.00  0.00    -0.246 OA
BRANCH  75  77
ATOM     77  C   UNL     1       5.049   0.367  -4.431  1.00  0.00     0.060 A 
ATOM     78  C   UNL     1       6.107  -0.400  -3.929  1.00  0.00     0.016 A 
ATOM     79  C   UNL     1       4.315  -0.082  -5.526  1.00  0.00     0.016 A 
ATOM     80  C   UNL     1       6.424  -1.624  -4.509  1.00  0.00     0.005 A 
ATOM     81  C   UNL     1       4.673  -1.286  -6.144  1.00  0.00     0.005 A 
ATOM     82  C   UNL     1       5.727  -2.075  -5.640  1.00  0.00    -0.038 A 
BRANCH  82  83
ATOM     83  C   UNL     1       6.228  -3.338  -6.324  1.00  0.00     0.081 C 
ATOM     84  C   UNL     1       7.029  -2.985  -7.595  1.00  0.00     0.111 C 
ATOM     85  C   UNL     1       5.057  -4.187  -6.638  1.00  0.00     0.093 A 
ATOM     86  C   UNL     1       6.303  -3.261  -8.901  1.00  0.00     0.188 C 
ATOM     87  C   UNL     1       4.706  -4.470  -7.939  1.00  0.00     0.164 A 
ATOM     88  N   UNL     1       4.168  -4.712  -5.744  1.00  0.00    -0.238 NA
ATOM     89  N   UNL     1       5.260  -4.004  -9.085  1.00  0.00    -0.198 NA
ATOM     90  N   UNL     1       3.529  -5.187  -7.842  1.00  0.00    -0.283 N 
ATOM     91  C   UNL     1       3.233  -5.258  -6.497  1.00  0.00     0.206 A 
BRANCH  86  92
ATOM     92  O   UNL     1       6.879  -2.693  -9.979  1.00  0.00    -0.496 OA
ATOM     93  H   UNL     1       7.636  -2.150  -9.875  1.00  0.00     0.294 HD
ENDBRANCH  86  92
BRANCH  90  94
ATOM     94  C   UNL     1       2.766  -5.702  -8.911  1.00  0.00     0.050 A 
ATOM     95  C   UNL     1       1.373  -5.571  -8.905  1.00  0.00     0.027 A 
ATOM     96  C   UNL     1       3.421  -6.313  -9.988  1.00  0.00     0.047 A 
ATOM     97  C   UNL     1       0.641  -6.013 -10.009  1.00  0.00     0.004 A 
ATOM     98  C   UNL     1       2.674  -6.797 -11.056  1.00  0.00     0.043 A 
ATOM     99  C   UNL     1       1.289  -6.634 -11.080  1.00  0.00     0.020 A 
ATOM    100  Cl  UNL     1       3.463  -7.611 -12.352  1.00  0.00    -0.084 Cl
ENDBRANCH  90  94
ENDBRANCH  82  83
ENDBRANCH  75  77
ENDBRANCH  74  75
ENDBRANCH  73  74
ENDBRANCH  72  73
ENDBRANCH  71  72
ENDBRANCH   1  71
TORSDOF 20
