REMARK SMILES O=C(OCCOCCOC(=O)[C@@H]1[C@@H](C(=O)N2CC[NH+](C/C=C/c3ccccc3)CC2)[C@@H]2C=C[C@H]1C2)c1ccc(-c2c3nc(c(-c4cccc(S(=O)(=O)[O-])c4F)c4ccc([nH]4)c(-c4cccc(S(=O)(=O)[O-])c4F)c4nc(c(-c5cccc(S(=O)(=O)[O-])c5F)c5ccc2[nH]5)C=C4)C=C3)cc1
REMARK SMILES IDX 7 1 6 2 5 3 4 4 3 5 2 6 1 7 36 8 37 9 98 10 38 11 97 12
REMARK SMILES IDX 39 13 40 14 41 15 91 16 42 17 96 18 90 19 92 20 43 21 95 22
REMARK SMILES IDX 89 23 88 24 44 26 76 27 56 28 75 29 57 30 60 31 74 32 93 33
REMARK SMILES IDX 58 34 59 35 73 37 94 38 61 39 45 40 46 41 54 42 47 43 49 44
REMARK SMILES IDX 55 45 48 46 50 47 51 48 52 49 53 50 77 51 78 52 86 53 79 54
REMARK SMILES IDX 81 55 87 56 80 57 82 58 83 59 84 60 85 61 62 62 63 63 71 64
REMARK SMILES IDX 64 65 66 66 72 67 65 68 67 69 68 70 69 71 70 72 8 73 9 74
REMARK SMILES IDX 10 75 11 76 12 77 13 78 34 79 31 80 33 81 35 82 32 83 14 84
REMARK SMILES IDX 15 85 16 86 17 87 30 88 18 89 29 90 19 91 20 93 21 94 22 95
REMARK SMILES IDX 23 96 24 97 28 98 25 99 27 100 26 101
REMARK H PARENT 92 25 60 36 19 92
REMARK Flexibility Score: inf
ROOT
ATOM      1  C   UNL     1       2.668  -1.426  -1.044  1.00  0.00     0.202 C 
ENDROOT
BRANCH   1   2
ATOM      2  O   UNL     1       4.057  -1.254  -0.726  1.00  0.00    -0.374 OA
BRANCH   2   3
ATOM      3  C   UNL     1       4.407  -1.190   0.658  1.00  0.00     0.202 C 
BRANCH   3   4
ATOM      4  C   UNL     1       4.296   0.178   1.334  1.00  0.00     0.261 C 
BRANCH   4   5
ATOM      5  O   UNL     1       2.933   0.621   1.346  1.00  0.00    -0.460 OA
BRANCH   5   6
ATOM      6  C   UNL     1       2.285   1.364   0.421  1.00  0.00     0.338 C 
ATOM      7  O   UNL     1       1.072   1.520   0.558  1.00  0.00    -0.246 OA
BRANCH   6   8
ATOM      8  C   UNL     1       2.952   2.004  -0.757  1.00  0.00     0.060 A 
ATOM      9  C   UNL     1       4.159   1.599  -1.340  1.00  0.00     0.016 A 
ATOM     10  C   UNL     1       2.242   3.044  -1.379  1.00  0.00     0.016 A 
ATOM     11  C   UNL     1       4.669   2.207  -2.472  1.00  0.00     0.010 A 
ATOM     12  C   UNL     1       2.747   3.673  -2.515  1.00  0.00     0.010 A 
ATOM     13  C   UNL     1       3.974   3.261  -3.042  1.00  0.00    -0.014 A 
BRANCH  13  14
ATOM     14  C   UNL     1       4.655   4.037  -4.078  1.00  0.00     0.031 A 
ATOM     15  C   UNL     1       5.375   5.269  -3.644  1.00  0.00     0.074 A 
ATOM     16  C   UNL     1       4.668   3.588  -5.341  1.00  0.00     0.049 A 
ATOM     17  N   UNL     1       5.953   6.182  -4.367  1.00  0.00    -0.248 NA
ATOM     18  C   UNL     1       5.460   5.499  -2.189  1.00  0.00     0.031 C 
ATOM     19  C   UNL     1       4.076   2.327  -5.792  1.00  0.00     0.029 A 
ATOM     20  N   UNL     1       5.181   4.150  -6.475  1.00  0.00    -0.354 N 
ATOM     21  C   UNL     1       6.414   7.128  -3.463  1.00  0.00     0.074 A 
ATOM     22  C   UNL     1       6.084   6.664  -2.136  1.00  0.00     0.031 C 
ATOM     23  C   UNL     1       4.217   2.235  -7.124  1.00  0.00     0.029 A 
ATOM     24  C   UNL     1       4.857   3.452  -7.613  1.00  0.00     0.049 A 
ATOM     25  H   UNL     1       5.726   4.970  -6.477  1.00  0.00     0.167 HD
ATOM     26  C   UNL     1       7.041   8.292  -3.734  1.00  0.00     0.034 A 
ATOM     27  C   UNL     1       5.013   3.804  -8.902  1.00  0.00     0.034 A 
ATOM     28  C   UNL     1       7.337   8.714  -5.072  1.00  0.00     0.049 A 
ATOM     29  C   UNL     1       5.677   5.124  -9.187  1.00  0.00     0.074 A 
ATOM     30  C   UNL     1       7.936   9.881  -5.500  1.00  0.00     0.029 A 
ATOM     31  N   UNL     1       7.035   7.969  -6.207  1.00  0.00    -0.354 N 
ATOM     32  N   UNL     1       6.135   6.013  -8.334  1.00  0.00    -0.248 NA
ATOM     33  C   UNL     1       5.864   5.489 -10.595  1.00  0.00     0.031 C 
ATOM     34  C   UNL     1       7.973   9.851  -6.899  1.00  0.00     0.029 A 
ATOM     35  C   UNL     1       7.425   8.652  -7.340  1.00  0.00     0.049 A 
ATOM     36  H   UNL     1       6.604   7.084  -6.202  1.00  0.00     0.167 HD
ATOM     37  C   UNL     1       6.689   7.030  -9.098  1.00  0.00     0.074 A 
ATOM     38  C   UNL     1       6.516   6.640 -10.486  1.00  0.00     0.031 C 
ATOM     39  C   UNL     1       7.275   8.186  -8.698  1.00  0.00     0.034 A 
BRANCH  26  40
ATOM     40  C   UNL     1       7.371   9.175  -2.564  1.00  0.00     0.023 A 
ATOM     41  C   UNL     1       8.412   8.820  -1.681  1.00  0.00     0.012 A 
ATOM     42  C   UNL     1       6.603  10.325  -2.301  1.00  0.00     0.148 A 
ATOM     43  C   UNL     1       8.652   9.573  -0.531  1.00  0.00     0.002 A 
ATOM     44  C   UNL     1       6.874  11.091  -1.174  1.00  0.00     0.091 A 
ATOM     45  F   UNL     1       5.589  10.621  -3.128  1.00  0.00    -0.205 F 
ATOM     46  C   UNL     1       7.888  10.710  -0.281  1.00  0.00     0.022 A 
BRANCH  44  47
ATOM     47  S   UNL     1       5.970  12.597  -0.801  1.00  0.00     0.127 S 
ATOM     48  O   UNL     1       5.074  12.150   0.263  1.00  0.00    -0.237 OA
ATOM     49  O   UNL     1       7.037  13.498  -0.361  1.00  0.00    -0.237 OA
ATOM     50  O   UNL     1       5.327  12.991  -2.047  1.00  0.00    -0.744 OA
ENDBRANCH  44  47
ENDBRANCH  26  40
BRANCH  27  51
ATOM     51  C   UNL     1       4.524   2.894  -9.975  1.00  0.00     0.023 A 
ATOM     52  C   UNL     1       5.447   2.205 -10.783  1.00  0.00     0.012 A 
ATOM     53  C   UNL     1       3.146   2.633 -10.132  1.00  0.00     0.148 A 
ATOM     54  C   UNL     1       5.007   1.280 -11.732  1.00  0.00     0.002 A 
ATOM     55  C   UNL     1       2.718   1.671 -11.040  1.00  0.00     0.091 A 
ATOM     56  F   UNL     1       2.281   3.309  -9.362  1.00  0.00    -0.205 F 
ATOM     57  C   UNL     1       3.647   1.002 -11.851  1.00  0.00     0.022 A 
BRANCH  55  58
ATOM     58  S   UNL     1       1.002   1.151 -11.159  1.00  0.00     0.127 S 
ATOM     59  O   UNL     1       0.622   1.672 -12.470  1.00  0.00    -0.237 OA
ATOM     60  O   UNL     1       1.122  -0.306 -11.087  1.00  0.00    -0.237 OA
ATOM     61  O   UNL     1       0.325   1.754 -10.020  1.00  0.00    -0.744 OA
ENDBRANCH  55  58
ENDBRANCH  27  51
BRANCH  39  62
ATOM     62  C   UNL     1       7.811   9.095  -9.765  1.00  0.00     0.023 A 
ATOM     63  C   UNL     1       6.928   9.920 -10.487  1.00  0.00     0.012 A 
ATOM     64  C   UNL     1       9.201   9.236  -9.935  1.00  0.00     0.148 A 
ATOM     65  C   UNL     1       7.426  10.873 -11.372  1.00  0.00     0.002 A 
ATOM     66  C   UNL     1       9.690  10.220 -10.781  1.00  0.00     0.091 A 
ATOM     67  F   UNL     1      10.015   8.423  -9.245  1.00  0.00    -0.205 F 
ATOM     68  C   UNL     1       8.804  11.035 -11.506  1.00  0.00     0.022 A 
BRANCH  66  69
ATOM     69  S   UNL     1      11.444  10.574 -10.928  1.00  0.00     0.127 S 
ATOM     70  O   UNL     1      11.731  10.096 -12.279  1.00  0.00    -0.237 OA
ATOM     71  O   UNL     1      11.479  12.029 -10.774  1.00  0.00    -0.237 OA
ATOM     72  O   UNL     1      12.095   9.836  -9.854  1.00  0.00    -0.744 OA
ENDBRANCH  66  69
ENDBRANCH  39  62
ENDBRANCH  13  14
ENDBRANCH   6   8
ENDBRANCH   5   6
ENDBRANCH   4   5
ENDBRANCH   3   4
ENDBRANCH   2   3
ENDBRANCH   1   2
BRANCH   1  73
ATOM     73  C   UNL     1       2.513  -2.581  -2.031  1.00  0.00     0.261 C 
BRANCH  73  74
ATOM     74  O   UNL     1       2.801  -3.772  -1.297  1.00  0.00    -0.463 OA
BRANCH  74  75
ATOM     75  C   UNL     1       4.114  -4.093  -1.249  1.00  0.00     0.310 C 
ATOM     76  O   UNL     1       4.902  -3.986  -2.182  1.00  0.00    -0.252 OA
BRANCH  75  77
ATOM     77  C   UNL     1       4.526  -4.538   0.132  1.00  0.00     0.119 C 
ATOM     78  C   UNL     1       5.134  -5.958   0.058  1.00  0.00     0.100 C 
ATOM     79  C   UNL     1       3.430  -4.683   1.227  1.00  0.00     0.027 C 
ATOM     80  C   UNL     1       4.302  -6.727   1.123  1.00  0.00     0.025 C 
ATOM     81  C   UNL     1       2.336  -5.610   0.759  1.00  0.00    -0.027 C 
ATOM     82  C   UNL     1       4.122  -5.643   2.196  1.00  0.00     0.017 C 
ATOM     83  C   UNL     1       2.872  -6.832   0.655  1.00  0.00    -0.027 C 
BRANCH  78  84
ATOM     84  C   UNL     1       6.583  -5.971   0.513  1.00  0.00     0.227 C 
ATOM     85  O   UNL     1       7.165  -4.975   0.940  1.00  0.00    -0.275 OA
ATOM     86  N   UNL     1       7.124  -7.234   0.624  1.00  0.00    -0.331 N 
ATOM     87  C   UNL     1       8.070  -7.475   1.702  1.00  0.00     0.181 C 
ATOM     88  C   UNL     1       7.021  -8.243  -0.430  1.00  0.00     0.181 C 
ATOM     89  C   UNL     1       7.991  -8.923   2.208  1.00  0.00     0.284 C 
ATOM     90  C   UNL     1       7.020  -9.678   0.119  1.00  0.00     0.284 C 
ATOM     91  N   UNL     1       8.009  -9.969   1.169  1.00  0.00    -0.329 N 
ATOM     92  H   UNL     1       7.710 -10.840   1.606  1.00  0.00     0.348 HD
BRANCH  91  93
ATOM     93  C   UNL     1       9.349 -10.313   0.688  1.00  0.00     0.291 C 
BRANCH  93  94
ATOM     94  C   UNL     1      10.086  -9.255  -0.078  1.00  0.00     0.034 C 
ATOM     95  C   UNL     1      11.106  -8.536   0.417  1.00  0.00     0.009 C 
BRANCH  95  96
ATOM     96  C   UNL     1      11.683  -7.380  -0.280  1.00  0.00    -0.026 A 
ATOM     97  C   UNL     1      13.072  -7.254  -0.372  1.00  0.00     0.008 A 
ATOM     98  C   UNL     1      10.874  -6.338  -0.757  1.00  0.00     0.008 A 
ATOM     99  C   UNL     1      13.640  -6.111  -0.942  1.00  0.00     0.001 A 
ATOM    100  C   UNL     1      11.442  -5.191  -1.314  1.00  0.00     0.001 A 
ATOM    101  C   UNL     1      12.826  -5.079  -1.407  1.00  0.00     0.000 A 
ENDBRANCH  95  96
ENDBRANCH  93  94
ENDBRANCH  91  93
ENDBRANCH  78  84
ENDBRANCH  75  77
ENDBRANCH  74  75
ENDBRANCH  73  74
ENDBRANCH   1  73
TORSDOF 21
