REMARK SMILES CCc1nc(=O)n([C@@H](CC)C(C)C)c(CC)c1CC(=O)OCCOCCOC(=O)c1ccc(-c2c3nc(c(-c4cccc(S(=O)(=O)[O-])c4F)c4ccc([nH]4)c(-c4cccc(S(=O)(=O)[O-])c4F)c4nc(c(-c5cccc(S(=O)(=O)[O-])c5F)c5ccc2[nH]5)C=C4)C=C3)cc1
REMARK SMILES IDX 24 1 23 2 22 3 21 4 19 5 20 6 18 7 17 8 3 9 4 10 5 11 14 12
REMARK SMILES IDX 6 13 7 14 2 15 1 16 15 17 16 18 8 19 9 20 10 21 11 22 12 23
REMARK SMILES IDX 13 24 25 25 26 26 27 27 28 28 29 29 30 30 31 31 92 32 32 33
REMARK SMILES IDX 91 34 33 35 34 36 35 37 85 38 36 39 90 40 84 41 86 42 37 43
REMARK SMILES IDX 89 44 83 45 82 46 38 48 70 49 50 50 69 51 51 52 54 53 68 54
REMARK SMILES IDX 87 55 52 56 53 57 67 59 88 60 55 61 39 62 40 63 48 64 41 65
REMARK SMILES IDX 43 66 49 67 42 68 44 69 45 70 46 71 47 72 71 73 72 74 80 75
REMARK SMILES IDX 73 76 75 77 81 78 74 79 76 80 77 81 78 82 79 83 56 84 57 85
REMARK SMILES IDX 65 86 58 87 60 88 66 89 59 90 61 91 62 92 63 93 64 94
REMARK H PARENT 86 47 54 58
REMARK Flexibility Score: inf
ROOT
ATOM      1  O   UNL     1       6.215  -2.169   5.391  1.00  0.00    -0.374 OA
ENDROOT
BRANCH   1   2
ATOM      2  C   UNL     1       6.509  -2.050   4.001  1.00  0.00     0.202 C 
BRANCH   2   3
ATOM      3  C   UNL     1       5.351  -2.182   2.989  1.00  0.00     0.261 C 
BRANCH   3   4
ATOM      4  O   UNL     1       4.143  -1.461   3.339  1.00  0.00    -0.463 OA
BRANCH   4   5
ATOM      5  C   UNL     1       3.007  -2.207   3.371  1.00  0.00     0.310 C 
ATOM      6  O   UNL     1       2.942  -3.390   3.049  1.00  0.00    -0.252 OA
BRANCH   5   7
ATOM      7  C   UNL     1       1.798  -1.511   4.000  1.00  0.00     0.162 C 
BRANCH   7   8
ATOM      8  C   UNL     1       1.599  -0.017   3.853  1.00  0.00     0.005 A 
ATOM      9  C   UNL     1       1.073   0.456   2.526  1.00  0.00     0.051 A 
ATOM     10  N   UNL     1       0.629   1.644   2.310  1.00  0.00    -0.198 NA
ATOM     11  C   UNL     1       0.656   2.586   3.286  1.00  0.00     0.348 A 
ATOM     12  C   UNL     1       1.607   0.928   4.840  1.00  0.00     0.028 A 
ATOM     13  O   UNL     1       0.148   3.682   3.068  1.00  0.00    -0.246 OA
ATOM     14  N   UNL     1       1.237   2.262   4.526  1.00  0.00    -0.293 N 
BRANCH   9  15
ATOM     15  C   UNL     1       0.869  -0.521   1.361  1.00  0.00     0.053 C 
ATOM     16  C   UNL     1       1.241   0.071   0.008  1.00  0.00     0.011 C 
ENDBRANCH   9  15
BRANCH  12  17
ATOM     17  C   UNL     1       1.761   0.522   6.327  1.00  0.00     0.051 C 
ATOM     18  C   UNL     1       2.728   1.195   7.314  1.00  0.00     0.010 C 
ENDBRANCH  12  17
BRANCH  14  19
ATOM     19  C   UNL     1       1.449   3.403   5.455  1.00  0.00     0.094 C 
BRANCH  19  20
ATOM     20  C   UNL     1       2.627   4.313   5.001  1.00  0.00     0.022 C 
ATOM     21  C   UNL     1       2.374   5.308   3.879  1.00  0.00     0.006 C 
ENDBRANCH  19  20
BRANCH  19  22
ATOM     22  C   UNL     1       0.162   4.123   5.958  1.00  0.00     0.006 C 
ATOM     23  C   UNL     1      -0.858   3.109   6.497  1.00  0.00     0.009 C 
ATOM     24  C   UNL     1       0.493   5.112   7.088  1.00  0.00     0.009 C 
ENDBRANCH  19  22
ENDBRANCH  14  19
ENDBRANCH   7   8
ENDBRANCH   5   7
ENDBRANCH   4   5
ENDBRANCH   3   4
ENDBRANCH   2   3
ENDBRANCH   1   2
BRANCH   1  25
ATOM     25  C   UNL     1       5.232  -1.302   5.931  1.00  0.00     0.202 C 
BRANCH  25  26
ATOM     26  C   UNL     1       5.366   0.207   5.698  1.00  0.00     0.261 C 
BRANCH  26  27
ATOM     27  O   UNL     1       5.980   0.592   4.479  1.00  0.00    -0.460 OA
BRANCH  27  28
ATOM     28  C   UNL     1       6.525   1.826   4.486  1.00  0.00     0.338 C 
ATOM     29  O   UNL     1       6.576   2.621   5.407  1.00  0.00    -0.246 OA
BRANCH  28  30
ATOM     30  C   UNL     1       6.928   2.092   3.105  1.00  0.00     0.060 A 
ATOM     31  C   UNL     1       6.168   2.993   2.360  1.00  0.00     0.016 A 
ATOM     32  C   UNL     1       8.022   1.421   2.552  1.00  0.00     0.016 A 
ATOM     33  C   UNL     1       6.508   3.226   1.032  1.00  0.00     0.010 A 
ATOM     34  C   UNL     1       8.379   1.682   1.234  1.00  0.00     0.010 A 
ATOM     35  C   UNL     1       7.627   2.588   0.470  1.00  0.00    -0.014 A 
BRANCH  35  36
ATOM     36  C   UNL     1       8.078   2.938  -0.892  1.00  0.00     0.031 A 
ATOM     37  C   UNL     1       7.946   1.962  -2.018  1.00  0.00     0.074 A 
ATOM     38  C   UNL     1       8.662   4.136  -1.076  1.00  0.00     0.049 A 
ATOM     39  N   UNL     1       8.339   2.085  -3.257  1.00  0.00    -0.248 NA
ATOM     40  C   UNL     1       7.297   0.675  -1.715  1.00  0.00     0.031 C 
ATOM     41  C   UNL     1       8.868   5.140  -0.028  1.00  0.00     0.029 A 
ATOM     42  N   UNL     1       9.203   4.707  -2.197  1.00  0.00    -0.354 N 
ATOM     43  C   UNL     1       7.998   0.894  -3.883  1.00  0.00     0.074 A 
ATOM     44  C   UNL     1       7.388   0.048  -2.881  1.00  0.00     0.031 C 
ATOM     45  C   UNL     1       9.480   6.208  -0.559  1.00  0.00     0.029 A 
ATOM     46  C   UNL     1       9.739   5.951  -1.971  1.00  0.00     0.049 A 
ATOM     47  H   UNL     1       9.206   4.269  -3.079  1.00  0.00     0.167 HD
ATOM     48  C   UNL     1       8.160   0.555  -5.183  1.00  0.00     0.034 A 
ATOM     49  C   UNL     1      10.377   6.790  -2.808  1.00  0.00     0.034 A 
ATOM     50  C   UNL     1       8.759   1.414  -6.168  1.00  0.00     0.049 A 
ATOM     51  C   UNL     1      10.556   6.385  -4.240  1.00  0.00     0.074 A 
ATOM     52  C   UNL     1       8.947   1.174  -7.517  1.00  0.00     0.029 A 
ATOM     53  N   UNL     1       9.269   2.678  -5.910  1.00  0.00    -0.354 N 
ATOM     54  N   UNL     1      10.165   5.283  -4.834  1.00  0.00    -0.248 NA
ATOM     55  C   UNL     1      11.240   7.338  -5.123  1.00  0.00     0.031 C 
ATOM     56  C   UNL     1       9.581   2.289  -8.073  1.00  0.00     0.029 A 
ATOM     57  C   UNL     1       9.771   3.232  -7.074  1.00  0.00     0.049 A 
ATOM     58  H   UNL     1       9.273   3.116  -5.029  1.00  0.00     0.167 HD
ATOM     59  C   UNL     1      10.537   5.414  -6.164  1.00  0.00     0.074 A 
ATOM     60  C   UNL     1      11.175   6.711  -6.291  1.00  0.00     0.031 C 
ATOM     61  C   UNL     1      10.374   4.536  -7.184  1.00  0.00     0.034 A 
BRANCH  48  62
ATOM     62  C   UNL     1       7.629  -0.779  -5.631  1.00  0.00     0.023 A 
ATOM     63  C   UNL     1       6.239  -0.936  -5.809  1.00  0.00     0.012 A 
ATOM     64  C   UNL     1       8.494  -1.844  -5.947  1.00  0.00     0.148 A 
ATOM     65  C   UNL     1       5.716  -2.139  -6.282  1.00  0.00     0.002 A 
ATOM     66  C   UNL     1       7.967  -3.030  -6.444  1.00  0.00     0.091 A 
ATOM     67  F   UNL     1       9.810  -1.675  -5.755  1.00  0.00    -0.205 F 
ATOM     68  C   UNL     1       6.580  -3.181  -6.609  1.00  0.00     0.022 A 
BRANCH  66  69
ATOM     69  S   UNL     1       8.991  -4.424  -6.933  1.00  0.00     0.127 S 
ATOM     70  O   UNL     1       8.581  -5.442  -5.965  1.00  0.00    -0.237 OA
ATOM     71  O   UNL     1       8.542  -4.668  -8.303  1.00  0.00    -0.237 OA
ATOM     72  O   UNL     1      10.371  -3.975  -6.809  1.00  0.00    -0.744 OA
ENDBRANCH  66  69
ENDBRANCH  48  62
BRANCH  49  73
ATOM     73  C   UNL     1      10.809   8.118  -2.300  1.00  0.00     0.023 A 
ATOM     74  C   UNL     1      10.030   9.250  -2.604  1.00  0.00     0.012 A 
ATOM     75  C   UNL     1      11.902   8.243  -1.421  1.00  0.00     0.148 A 
ATOM     76  C   UNL     1      10.332  10.488  -2.037  1.00  0.00     0.002 A 
ATOM     77  C   UNL     1      12.176   9.472  -0.833  1.00  0.00     0.091 A 
ATOM     78  F   UNL     1      12.617   7.144  -1.141  1.00  0.00    -0.205 F 
ATOM     79  C   UNL     1      11.395  10.597  -1.144  1.00  0.00     0.022 A 
BRANCH  77  80
ATOM     80  S   UNL     1      13.461   9.695   0.402  1.00  0.00     0.127 S 
ATOM     81  O   UNL     1      14.325  10.682  -0.241  1.00  0.00    -0.237 OA
ATOM     82  O   UNL     1      12.694  10.197   1.542  1.00  0.00    -0.237 OA
ATOM     83  O   UNL     1      14.058   8.381   0.599  1.00  0.00    -0.744 OA
ENDBRANCH  77  80
ENDBRANCH  49  73
BRANCH  61  84
ATOM     84  C   UNL     1      10.883   4.939  -8.539  1.00  0.00     0.023 A 
ATOM     85  C   UNL     1      12.262   4.856  -8.812  1.00  0.00     0.012 A 
ATOM     86  C   UNL     1       9.986   5.282  -9.569  1.00  0.00     0.148 A 
ATOM     87  C   UNL     1      12.743   5.121 -10.093  1.00  0.00     0.002 A 
ATOM     88  C   UNL     1      10.469   5.510 -10.851  1.00  0.00     0.091 A 
ATOM     89  F   UNL     1       8.680   5.360  -9.277  1.00  0.00    -0.205 F 
ATOM     90  C   UNL     1      11.848   5.435 -11.113  1.00  0.00     0.022 A 
BRANCH  88  91
ATOM     91  S   UNL     1       9.391   5.853 -12.245  1.00  0.00     0.127 S 
ATOM     92  O   UNL     1       9.757   7.231 -12.572  1.00  0.00    -0.237 OA
ATOM     93  O   UNL     1       9.828   4.857 -13.224  1.00  0.00    -0.237 OA
ATOM     94  O   UNL     1       8.030   5.673 -11.759  1.00  0.00    -0.744 OA
ENDBRANCH  88  91
ENDBRANCH  61  84
ENDBRANCH  35  36
ENDBRANCH  28  30
ENDBRANCH  27  28
ENDBRANCH  26  27
ENDBRANCH  25  26
ENDBRANCH   1  25
TORSDOF 23
