REMARK SMILES CC(=O)N1CC[NH+]([C@@H](C(=O)OCCOCCOC(=O)c2ccc(-c3c4nc(c(-c5cccc(S(=O)(=O)[O-])c5F)c5ccc([nH]5)c(-c5cccc(S(=O)(=O)[O-])c5F)c5nc(c(-c6cccc(S(=O)(=O)[O-])c6F)c6ccc3[nH]6)C=C5)C=C4)cc2)c2c[nH]c3ccc(Cl)cc23)CC1
REMARK SMILES IDX 15 1 14 2 13 3 12 4 11 5 9 6 10 7 8 8 7 9 1 10 2 11 3 12
REMARK SMILES IDX 4 13 5 14 94 15 6 16 93 17 83 19 84 20 92 21 85 22 86 23
REMARK SMILES IDX 91 24 87 26 89 27 88 28 90 29 16 30 17 31 18 32 19 33 20 34
REMARK SMILES IDX 21 35 82 36 22 37 81 38 23 39 24 40 25 41 75 42 26 43 80 44
REMARK SMILES IDX 74 45 76 46 27 47 79 48 73 49 72 50 28 52 60 53 40 54 59 55
REMARK SMILES IDX 41 56 44 57 58 58 77 59 42 60 43 61 57 63 78 64 45 65 29 66
REMARK SMILES IDX 30 67 38 68 31 69 33 70 39 71 32 72 34 73 35 74 36 75 37 76
REMARK SMILES IDX 61 77 62 78 70 79 63 80 65 81 71 82 64 83 66 84 67 85 68 86
REMARK SMILES IDX 69 87 46 88 47 89 55 90 48 91 50 92 56 93 49 94 51 95 52 96
REMARK SMILES IDX 53 97 54 98
REMARK H PARENT 7 18 85 25 76 51 44 62
REMARK Flexibility Score: inf
ROOT
ATOM      1  C   UNL     1      -0.368  -4.216  -3.014  1.00  0.00     0.202 C 
ENDROOT
BRANCH   1   2
ATOM      2  O   UNL     1       0.706  -5.111  -2.749  1.00  0.00    -0.374 OA
BRANCH   2   3
ATOM      3  C   UNL     1       1.984  -4.516  -2.535  1.00  0.00     0.202 C 
BRANCH   3   4
ATOM      4  C   UNL     1       2.699  -4.054  -3.806  1.00  0.00     0.261 C 
BRANCH   4   5
ATOM      5  O   UNL     1       2.085  -2.847  -4.307  1.00  0.00    -0.459 OA
BRANCH   5   6
ATOM      6  C   UNL     1       1.425  -2.899  -5.495  1.00  0.00     0.370 C 
ATOM      7  O   UNL     1       1.355  -3.918  -6.178  1.00  0.00    -0.245 OA
BRANCH   6   8
ATOM      8  C   UNL     1       0.805  -1.558  -5.935  1.00  0.00     0.328 C 
BRANCH   8   9
ATOM      9  N   UNL     1       1.112  -0.282  -5.170  1.00  0.00    -0.316 N 
ATOM     10  C   UNL     1       1.160   1.584  -0.276  1.00  0.00     0.114 C 
ATOM     11  C   UNL     1       0.162   0.851  -1.129  1.00  0.00     0.219 C 
ATOM     12  O   UNL     1      -1.024   0.851  -0.785  1.00  0.00    -0.275 OA
ATOM     13  N   UNL     1       0.575   0.295  -2.324  1.00  0.00    -0.332 N 
ATOM     14  C   UNL     1      -0.461   0.007  -3.302  1.00  0.00     0.181 C 
ATOM     15  C   UNL     1       1.928  -0.185  -2.692  1.00  0.00     0.181 C 
ATOM     16  C   UNL     1       0.022   0.539  -4.645  1.00  0.00     0.285 C 
ATOM     17  C   UNL     1       2.251  -0.146  -4.238  1.00  0.00     0.285 C 
ATOM     18  H   UNL     1       1.442   0.064  -6.071  1.00  0.00     0.349 HD
ENDBRANCH   8   9
BRANCH   8  19
ATOM     19  C   UNL     1      -0.688  -1.640  -6.378  1.00  0.00     0.046 A 
ATOM     20  C   UNL     1      -1.235  -0.985  -7.476  1.00  0.00     0.094 A 
ATOM     21  C   UNL     1      -1.899  -2.070  -5.736  1.00  0.00     0.011 A 
ATOM     22  N   UNL     1      -2.277  -0.269  -6.918  1.00  0.00    -0.361 N 
ATOM     23  C   UNL     1      -2.728  -0.951  -5.814  1.00  0.00     0.046 A 
ATOM     24  C   UNL     1      -2.474  -3.222  -5.176  1.00  0.00     0.031 A 
ATOM     25  H   UNL     1      -2.635   0.584  -7.255  1.00  0.00     0.166 HD
ATOM     26  C   UNL     1      -3.809  -0.727  -4.962  1.00  0.00     0.028 A 
ATOM     27  C   UNL     1      -3.704  -3.098  -4.507  1.00  0.00     0.041 A 
ATOM     28  C   UNL     1      -4.295  -1.852  -4.298  1.00  0.00     0.022 A 
ATOM     29  Cl  UNL     1      -4.529  -4.511  -3.965  1.00  0.00    -0.084 Cl
ENDBRANCH   8  19
ENDBRANCH   6   8
ENDBRANCH   5   6
ENDBRANCH   4   5
ENDBRANCH   3   4
ENDBRANCH   2   3
ENDBRANCH   1   2
BRANCH   1  30
ATOM     30  C   UNL     1      -1.132  -3.676  -1.806  1.00  0.00     0.261 C 
BRANCH  30  31
ATOM     31  O   UNL     1      -0.258  -2.977  -0.918  1.00  0.00    -0.460 OA
BRANCH  31  32
ATOM     32  C   UNL     1       0.159  -3.729   0.130  1.00  0.00     0.338 C 
ATOM     33  O   UNL     1      -0.216  -4.843   0.433  1.00  0.00    -0.246 OA
BRANCH  32  34
ATOM     34  C   UNL     1       1.300  -3.058   0.781  1.00  0.00     0.060 A 
ATOM     35  C   UNL     1       2.366  -3.861   1.187  1.00  0.00     0.016 A 
ATOM     36  C   UNL     1       1.316  -1.685   1.022  1.00  0.00     0.016 A 
ATOM     37  C   UNL     1       3.402  -3.306   1.931  1.00  0.00     0.010 A 
ATOM     38  C   UNL     1       2.390  -1.120   1.714  1.00  0.00     0.010 A 
ATOM     39  C   UNL     1       3.399  -1.938   2.244  1.00  0.00    -0.014 A 
BRANCH  39  40
ATOM     40  C   UNL     1       4.362  -1.427   3.256  1.00  0.00     0.031 A 
ATOM     41  C   UNL     1       3.854  -0.940   4.593  1.00  0.00     0.074 A 
ATOM     42  C   UNL     1       5.686  -1.468   3.018  1.00  0.00     0.049 A 
ATOM     43  N   UNL     1       4.533  -0.603   5.660  1.00  0.00    -0.248 NA
ATOM     44  C   UNL     1       2.397  -0.794   4.750  1.00  0.00     0.031 C 
ATOM     45  C   UNL     1       6.306  -1.861   1.751  1.00  0.00     0.029 A 
ATOM     46  N   UNL     1       6.751  -1.186   3.837  1.00  0.00    -0.354 N 
ATOM     47  C   UNL     1       3.593  -0.187   6.596  1.00  0.00     0.074 A 
ATOM     48  C   UNL     1       2.300  -0.262   5.958  1.00  0.00     0.031 C 
ATOM     49  C   UNL     1       7.641  -1.819   1.885  1.00  0.00     0.029 A 
ATOM     50  C   UNL     1       7.974  -1.384   3.240  1.00  0.00     0.049 A 
ATOM     51  H   UNL     1       6.649  -0.871   4.764  1.00  0.00     0.167 HD
ATOM     52  C   UNL     1       3.776   0.186   7.885  1.00  0.00     0.034 A 
ATOM     53  C   UNL     1       9.221  -1.244   3.732  1.00  0.00     0.034 A 
ATOM     54  C   UNL     1       5.057   0.216   8.535  1.00  0.00     0.049 A 
ATOM     55  C   UNL     1       9.401  -0.865   5.178  1.00  0.00     0.074 A 
ATOM     56  C   UNL     1       5.343   0.498   9.859  1.00  0.00     0.029 A 
ATOM     57  N   UNL     1       6.267  -0.033   7.907  1.00  0.00    -0.354 N 
ATOM     58  N   UNL     1       8.489  -0.631   6.091  1.00  0.00    -0.248 NA
ATOM     59  C   UNL     1      10.782  -0.774   5.675  1.00  0.00     0.031 C 
ATOM     60  C   UNL     1       6.731   0.455  10.023  1.00  0.00     0.029 A 
ATOM     61  C   UNL     1       7.306   0.105   8.811  1.00  0.00     0.049 A 
ATOM     62  H   UNL     1       6.372  -0.272   6.958  1.00  0.00     0.167 HD
ATOM     63  C   UNL     1       9.182  -0.400   7.274  1.00  0.00     0.074 A 
ATOM     64  C   UNL     1      10.590  -0.546   6.967  1.00  0.00     0.031 C 
ATOM     65  C   UNL     1       8.699  -0.085   8.502  1.00  0.00     0.034 A 
BRANCH  52  66
ATOM     66  C   UNL     1       2.555   0.550   8.693  1.00  0.00     0.023 A 
ATOM     67  C   UNL     1       1.629  -0.451   9.054  1.00  0.00     0.012 A 
ATOM     68  C   UNL     1       2.350   1.870   9.138  1.00  0.00     0.148 A 
ATOM     69  C   UNL     1       0.499  -0.137   9.809  1.00  0.00     0.002 A 
ATOM     70  C   UNL     1       1.250   2.166   9.934  1.00  0.00     0.091 A 
ATOM     71  F   UNL     1       3.229   2.813   8.768  1.00  0.00    -0.205 F 
ATOM     72  C   UNL     1       0.316   1.168  10.258  1.00  0.00     0.022 A 
BRANCH  70  73
ATOM     73  S   UNL     1       0.970   3.796  10.634  1.00  0.00     0.127 S 
ATOM     74  O   UNL     1      -0.203   4.243   9.885  1.00  0.00    -0.237 OA
ATOM     75  O   UNL     1       0.713   3.485  12.041  1.00  0.00    -0.237 OA
ATOM     76  O   UNL     1       2.190   4.553  10.392  1.00  0.00    -0.744 OA
ENDBRANCH  70  73
ENDBRANCH  52  66
BRANCH  53  77
ATOM     77  C   UNL     1      10.398  -1.528   2.862  1.00  0.00     0.023 A 
ATOM     78  C   UNL     1      11.202  -2.656   3.115  1.00  0.00     0.012 A 
ATOM     79  C   UNL     1      10.703  -0.699   1.766  1.00  0.00     0.148 A 
ATOM     80  C   UNL     1      12.308  -2.936   2.310  1.00  0.00     0.002 A 
ATOM     81  C   UNL     1      11.768  -1.017   0.932  1.00  0.00     0.091 A 
ATOM     82  F   UNL     1       9.932   0.376   1.551  1.00  0.00    -0.205 F 
ATOM     83  C   UNL     1      12.584  -2.124   1.213  1.00  0.00     0.022 A 
BRANCH  81  84
ATOM     84  S   UNL     1      12.108  -0.109  -0.579  1.00  0.00     0.127 S 
ATOM     85  O   UNL     1      13.363   0.562  -0.250  1.00  0.00    -0.237 OA
ATOM     86  O   UNL     1      12.224  -1.190  -1.559  1.00  0.00    -0.237 OA
ATOM     87  O   UNL     1      10.959   0.762  -0.783  1.00  0.00    -0.744 OA
ENDBRANCH  81  84
ENDBRANCH  53  77
BRANCH  65  88
ATOM     88  C   UNL     1       9.692   0.090   9.622  1.00  0.00     0.023 A 
ATOM     89  C   UNL     1      10.537   1.217   9.645  1.00  0.00     0.012 A 
ATOM     90  C   UNL     1       9.735  -0.829  10.689  1.00  0.00     0.148 A 
ATOM     91  C   UNL     1      11.438   1.405  10.693  1.00  0.00     0.002 A 
ATOM     92  C   UNL     1      10.597  -0.606  11.756  1.00  0.00     0.091 A 
ATOM     93  F   UNL     1       8.933  -1.902  10.642  1.00  0.00    -0.205 F 
ATOM     94  C   UNL     1      11.460   0.501  11.752  1.00  0.00     0.022 A 
BRANCH  92  95
ATOM     95  S   UNL     1      10.623  -1.662  13.209  1.00  0.00     0.127 S 
ATOM     96  O   UNL     1      11.902  -2.354  13.051  1.00  0.00    -0.237 OA
ATOM     97  O   UNL     1      10.589  -0.687  14.300  1.00  0.00    -0.237 OA
ATOM     98  O   UNL     1       9.440  -2.506  13.115  1.00  0.00    -0.744 OA
ENDBRANCH  92  95
ENDBRANCH  65  88
ENDBRANCH  39  40
ENDBRANCH  32  34
ENDBRANCH  31  32
ENDBRANCH  30  31
ENDBRANCH   1  30
TORSDOF 19
