REMARK SMILES O=C(OCCOCCOC(=O)c1ccccc1C(=O)N1CCOCCOCCOCC1)c1ccc(-c2c3nc(c(-c4cccc(S(=O)(=O)[O-])c4F)c4ccc([nH]4)c(-c4cccc(S(=O)(=O)[O-])c4F)c4nc(c(-c5cccc(S(=O)(=O)[O-])c5F)c5ccc2[nH]5)C=C4)C=C3)cc1
REMARK SMILES IDX 8 1 7 2 6 3 5 4 4 5 3 6 2 7 1 8 32 9 33 10 94 11 34 12 93 13
REMARK SMILES IDX 35 14 36 15 37 16 87 17 38 18 92 19 86 20 88 21 39 22 91 23
REMARK SMILES IDX 85 24 84 25 40 27 72 28 52 29 71 30 53 31 56 32 70 33 89 34
REMARK SMILES IDX 54 35 55 36 69 38 90 39 57 40 41 41 42 42 50 43 43 44 45 45
REMARK SMILES IDX 51 46 44 47 46 48 47 49 48 50 49 51 73 52 74 53 82 54 75 55
REMARK SMILES IDX 77 56 83 57 76 58 78 59 79 60 80 61 81 62 58 63 59 64 67 65
REMARK SMILES IDX 60 66 62 67 68 68 61 69 63 70 64 71 65 72 66 73 9 74 10 75
REMARK SMILES IDX 11 76 12 77 13 78 17 79 14 80 16 81 15 82 18 83 19 84 20 85
REMARK SMILES IDX 21 86 22 87 23 88 24 89 25 90 26 91 27 92 31 94 30 95 29 96
REMARK SMILES IDX 28 97
REMARK H PARENT 88 26 56 37
REMARK Flexibility Score: 60.00
ROOT
ATOM      1  C   UNL     1       2.997   2.464  -1.250  1.00  0.00     0.261 C 
ENDROOT
BRANCH   1   2
ATOM      2  C   UNL     1       3.002   1.132  -0.551  1.00  0.00     0.202 C 
BRANCH   2   3
ATOM      3  O   UNL     1       4.350   0.649  -0.548  1.00  0.00    -0.374 OA
BRANCH   3   4
ATOM      4  C   UNL     1       4.546  -0.622  -1.160  1.00  0.00     0.202 C 
BRANCH   4   5
ATOM      5  C   UNL     1       4.248  -1.808  -0.236  1.00  0.00     0.261 C 
BRANCH   5   6
ATOM      6  O   UNL     1       2.876  -1.808   0.201  1.00  0.00    -0.460 OA
BRANCH   6   7
ATOM      7  C   UNL     1       2.323  -1.306   1.332  1.00  0.00     0.338 C 
ATOM      8  O   UNL     1       1.112  -1.460   1.490  1.00  0.00    -0.246 OA
BRANCH   7   9
ATOM      9  C   UNL     1       3.067  -0.519   2.373  1.00  0.00     0.060 A 
ATOM     10  C   UNL     1       4.346   0.017   2.217  1.00  0.00     0.016 A 
ATOM     11  C   UNL     1       2.377  -0.212   3.562  1.00  0.00     0.016 A 
ATOM     12  C   UNL     1       4.923   0.834   3.167  1.00  0.00     0.010 A 
ATOM     13  C   UNL     1       2.969   0.572   4.560  1.00  0.00     0.010 A 
ATOM     14  C   UNL     1       4.256   1.074   4.359  1.00  0.00    -0.014 A 
BRANCH  14  15
ATOM     15  C   UNL     1       5.097   1.605   5.436  1.00  0.00     0.031 A 
ATOM     16  C   UNL     1       5.798   0.595   6.294  1.00  0.00     0.074 A 
ATOM     17  C   UNL     1       5.408   2.911   5.454  1.00  0.00     0.049 A 
ATOM     18  N   UNL     1       6.681   0.776   7.232  1.00  0.00    -0.248 NA
ATOM     19  C   UNL     1       5.493  -0.824   6.018  1.00  0.00     0.031 C 
ATOM     20  C   UNL     1       4.897   3.911   4.513  1.00  0.00     0.029 A 
ATOM     21  N   UNL     1       6.260   3.611   6.260  1.00  0.00    -0.354 N 
ATOM     22  C   UNL     1       6.998  -0.496   7.692  1.00  0.00     0.074 A 
ATOM     23  C   UNL     1       6.247  -1.445   6.907  1.00  0.00     0.031 C 
ATOM     24  C   UNL     1       5.447   5.102   4.801  1.00  0.00     0.029 A 
ATOM     25  C   UNL     1       6.303   4.954   5.973  1.00  0.00     0.049 A 
ATOM     26  H   UNL     1       6.791   3.194   6.976  1.00  0.00     0.167 HD
ATOM     27  C   UNL     1       7.832  -0.831   8.700  1.00  0.00     0.034 A 
ATOM     28  C   UNL     1       6.946   5.942   6.621  1.00  0.00     0.034 A 
ATOM     29  C   UNL     1       8.545   0.148   9.466  1.00  0.00     0.049 A 
ATOM     30  C   UNL     1       7.785   5.552   7.809  1.00  0.00     0.074 A 
ATOM     31  C   UNL     1       9.354  -0.035  10.569  1.00  0.00     0.029 A 
ATOM     32  N   UNL     1       8.510   1.513   9.207  1.00  0.00    -0.354 N 
ATOM     33  N   UNL     1       8.066   4.351   8.262  1.00  0.00    -0.248 NA
ATOM     34  C   UNL     1       8.403   6.642   8.572  1.00  0.00     0.031 C 
ATOM     35  C   UNL     1       9.777   1.227  11.000  1.00  0.00     0.029 A 
ATOM     36  C   UNL     1       9.269   2.191  10.138  1.00  0.00     0.049 A 
ATOM     37  H   UNL     1       8.017   1.934   8.466  1.00  0.00     0.167 HD
ATOM     38  C   UNL     1       8.915   4.536   9.344  1.00  0.00     0.074 A 
ATOM     39  C   UNL     1       9.119   5.969   9.463  1.00  0.00     0.031 C 
ATOM     40  C   UNL     1       9.469   3.619  10.177  1.00  0.00     0.034 A 
BRANCH  27  41
ATOM     41  C   UNL     1       7.910  -2.288   9.060  1.00  0.00     0.023 A 
ATOM     42  C   UNL     1       8.585  -3.200   8.223  1.00  0.00     0.012 A 
ATOM     43  C   UNL     1       7.240  -2.765  10.204  1.00  0.00     0.148 A 
ATOM     44  C   UNL     1       8.554  -4.569   8.497  1.00  0.00     0.002 A 
ATOM     45  C   UNL     1       7.249  -4.123  10.492  1.00  0.00     0.091 A 
ATOM     46  F   UNL     1       6.571  -1.886  10.963  1.00  0.00    -0.205 F 
ATOM     47  C   UNL     1       7.891  -5.029   9.632  1.00  0.00     0.022 A 
BRANCH  45  48
ATOM     48  S   UNL     1       6.463  -4.804  11.955  1.00  0.00     0.127 S 
ATOM     49  O   UNL     1       5.348  -5.549  11.371  1.00  0.00    -0.237 OA
ATOM     50  O   UNL     1       7.528  -5.638  12.513  1.00  0.00    -0.237 OA
ATOM     51  O   UNL     1       6.087  -3.664  12.779  1.00  0.00    -0.744 OA
ENDBRANCH  45  48
ENDBRANCH  27  41
BRANCH  28  52
ATOM     52  C   UNL     1       6.809   7.361   6.182  1.00  0.00     0.023 A 
ATOM     53  C   UNL     1       7.936   8.068   5.721  1.00  0.00     0.012 A 
ATOM     54  C   UNL     1       5.561   8.018   6.216  1.00  0.00     0.148 A 
ATOM     55  C   UNL     1       7.828   9.406   5.332  1.00  0.00     0.002 A 
ATOM     56  C   UNL     1       5.449   9.332   5.777  1.00  0.00     0.091 A 
ATOM     57  F   UNL     1       4.500   7.341   6.679  1.00  0.00    -0.205 F 
ATOM     58  C   UNL     1       6.586  10.035   5.351  1.00  0.00     0.022 A 
BRANCH  56  59
ATOM     59  S   UNL     1       3.869  10.180   5.662  1.00  0.00     0.127 S 
ATOM     60  O   UNL     1       3.974  11.156   6.743  1.00  0.00    -0.237 OA
ATOM     61  O   UNL     1       3.925  10.745   4.314  1.00  0.00    -0.237 OA
ATOM     62  O   UNL     1       2.855   9.149   5.837  1.00  0.00    -0.744 OA
ENDBRANCH  56  59
ENDBRANCH  28  52
BRANCH  40  63
ATOM     63  C   UNL     1      10.378   4.138  11.254  1.00  0.00     0.023 A 
ATOM     64  C   UNL     1       9.838   4.799  12.373  1.00  0.00     0.012 A 
ATOM     65  C   UNL     1      11.760   3.878  11.194  1.00  0.00     0.148 A 
ATOM     66  C   UNL     1      10.670   5.224  13.406  1.00  0.00     0.002 A 
ATOM     67  C   UNL     1      12.573   4.251  12.253  1.00  0.00     0.091 A 
ATOM     68  F   UNL     1      12.250   3.265  10.106  1.00  0.00    -0.205 F 
ATOM     69  C   UNL     1      12.033   4.936  13.354  1.00  0.00     0.022 A 
BRANCH  67  70
ATOM     70  S   UNL     1      14.312   3.812  12.318  1.00  0.00     0.127 S 
ATOM     71  O   UNL     1      14.953   5.094  12.031  1.00  0.00    -0.237 OA
ATOM     72  O   UNL     1      14.463   3.348  13.698  1.00  0.00    -0.237 OA
ATOM     73  O   UNL     1      14.501   2.776  11.312  1.00  0.00    -0.744 OA
ENDBRANCH  67  70
ENDBRANCH  40  63
ENDBRANCH  14  15
ENDBRANCH   7   9
ENDBRANCH   6   7
ENDBRANCH   5   6
ENDBRANCH   4   5
ENDBRANCH   3   4
ENDBRANCH   2   3
ENDBRANCH   1   2
BRANCH   1  74
ATOM     74  O   UNL     1       3.433   2.184  -2.583  1.00  0.00    -0.460 OA
BRANCH  74  75
ATOM     75  C   UNL     1       4.686   2.574  -2.887  1.00  0.00     0.339 C 
ATOM     76  O   UNL     1       5.486   3.189  -2.206  1.00  0.00    -0.246 OA
BRANCH  75  77
ATOM     77  C   UNL     1       5.006   1.987  -4.181  1.00  0.00     0.072 A 
ATOM     78  C   UNL     1       6.085   1.076  -4.141  1.00  0.00     0.016 A 
ATOM     79  C   UNL     1       4.273   2.202  -5.353  1.00  0.00     0.054 A 
ATOM     80  C   UNL     1       6.421   0.324  -5.259  1.00  0.00     0.001 A 
ATOM     81  C   UNL     1       4.659   1.439  -6.480  1.00  0.00     0.015 A 
ATOM     82  C   UNL     1       5.704   0.505  -6.432  1.00  0.00     0.001 A 
BRANCH  79  83
ATOM     83  C   UNL     1       3.029   3.037  -5.540  1.00  0.00     0.254 C 
ATOM     84  O   UNL     1       2.426   2.920  -6.611  1.00  0.00    -0.269 OA
ATOM     85  N   UNL     1       2.417   3.729  -4.505  1.00  0.00    -0.334 N 
BRANCH  85  86
ATOM     86  C   UNL     1       1.094   3.234  -4.094  1.00  0.00     0.148 C 
BRANCH  86  87
ATOM     87  C   UNL     1      -0.097   3.659  -4.958  1.00  0.00     0.181 C 
BRANCH  87  88
ATOM     88  O   UNL     1      -0.923   4.609  -4.271  1.00  0.00    -0.377 OA
BRANCH  88  89
ATOM     89  C   UNL     1      -0.763   5.958  -4.715  1.00  0.00     0.188 C 
BRANCH  89  90
ATOM     90  C   UNL     1      -0.166   6.837  -3.610  1.00  0.00     0.188 C 
BRANCH  90  91
ATOM     91  O   UNL     1       0.998   7.453  -4.167  1.00  0.00    -0.377 OA
BRANCH  91  92
ATOM     92  C   UNL     1       1.923   7.964  -3.201  1.00  0.00     0.188 CG0
ATOM     93  G   UNL     1       3.288   8.072  -3.900  1.00  0.00     0.000 G0
ENDBRANCH  91  92
ENDBRANCH  90  91
ENDBRANCH  89  90
ENDBRANCH  88  89
ENDBRANCH  87  88
ENDBRANCH  86  87
ENDBRANCH  85  86
BRANCH  85  94
ATOM     94  C   UNL     1       2.924   4.898  -3.783  1.00  0.00     0.148 C 
BRANCH  94  95
ATOM     95  C   UNL     1       3.981   5.792  -4.415  1.00  0.00     0.181 C 
BRANCH  95  96
ATOM     96  O   UNL     1       4.177   6.977  -3.627  1.00  0.00    -0.377 OA
BRANCH  96  97
ATOM     97  C   UNL     1       3.288   8.072  -3.900  1.00  0.00     0.188 CG0
ATOM     98  G   UNL     1       1.923   7.964  -3.201  1.00  0.00     0.000 G0
ENDBRANCH  96  97
ENDBRANCH  95  96
ENDBRANCH  94  95
ENDBRANCH  85  94
ENDBRANCH  79  83
ENDBRANCH  75  77
ENDBRANCH  74  75
ENDBRANCH   1  74
TORSDOF 18
