REMARK SMILES [NH3+][C@H](CS[C@@H]1CC(=O)N(c2ccc3ccccc3c2)C1=O)C(=O)OCCOCCOC(=O)c1ccc(-c2c3nc(c(-c4cccc(S(=O)(=O)[O-])c4F)c4ccc([nH]4)c(-c4cccc(S(=O)(=O)[O-])c4F)c4nc(c(-c5cccc(S(=O)(=O)[O-])c5F)c5ccc2[nH]5)C=C4)C=C3)cc1
REMARK SMILES IDX 26 1 25 2 24 3 22 4 23 5 2 6 1 7 3 11 4 12 5 13 6 14 20 15
REMARK SMILES IDX 7 16 9 17 21 18 8 19 10 20 11 21 19 22 12 23 18 24 13 25
REMARK SMILES IDX 17 26 14 27 16 28 15 29 27 30 28 31 29 32 30 33 31 34 32 35
REMARK SMILES IDX 33 36 34 37 95 38 35 39 94 40 36 41 37 42 38 43 88 44 39 45
REMARK SMILES IDX 93 46 87 47 89 48 40 49 92 50 86 51 85 52 41 54 73 55 53 56
REMARK SMILES IDX 72 57 54 58 57 59 71 60 90 61 55 62 56 63 70 65 91 66 58 67
REMARK SMILES IDX 42 68 43 69 51 70 44 71 46 72 52 73 45 74 47 75 48 76 49 77
REMARK SMILES IDX 50 78 74 79 75 80 83 81 76 82 78 83 84 84 77 85 79 86 80 87
REMARK SMILES IDX 81 88 82 89 59 90 60 91 68 92 61 93 63 94 69 95 62 96 64 97
REMARK SMILES IDX 65 98 66 99 67 100
REMARK H PARENT 1 8 1 9 1 10 89 53 57 64
REMARK Flexibility Score: inf
ROOT
ATOM      1  C   UNL     1      -1.924  -0.554  -1.544  1.00  0.00     0.202 C 
ENDROOT
BRANCH   1   2
ATOM      2  C   UNL     1      -2.000  -2.071  -1.318  1.00  0.00     0.261 C 
BRANCH   2   3
ATOM      3  O   UNL     1      -0.897  -2.439  -0.464  1.00  0.00    -0.459 OA
BRANCH   3   4
ATOM      4  C   UNL     1       0.287  -2.573  -1.125  1.00  0.00     0.365 C 
ATOM      5  O   UNL     1       0.394  -2.916  -2.295  1.00  0.00    -0.245 OA
BRANCH   4   6
ATOM      6  C   UNL     1       1.466  -2.176  -0.220  1.00  0.00     0.301 C 
BRANCH   6   7
ATOM      7  N   UNL     1       1.799  -3.268   0.714  1.00  0.00    -0.345 N 
ATOM      8  H   UNL     1       1.947  -4.131   0.189  1.00  0.00     0.345 HD
ATOM      9  H   UNL     1       1.032  -3.399   1.373  1.00  0.00     0.345 HD
ATOM     10  H   UNL     1       2.650  -3.031   1.224  1.00  0.00     0.345 HD
ENDBRANCH   6   7
BRANCH   6  11
ATOM     11  C   UNL     1       1.211  -0.792   0.432  1.00  0.00     0.147 C 
BRANCH  11  12
ATOM     12  S   UNL     1       1.780  -0.540   2.164  1.00  0.00    -0.141 SA
BRANCH  12  13
ATOM     13  C   UNL     1       0.236  -0.485   3.172  1.00  0.00     0.146 C 
ATOM     14  C   UNL     1      -0.096  -1.805   3.827  1.00  0.00     0.125 C 
ATOM     15  C   UNL     1      -1.045  -0.074   2.486  1.00  0.00     0.247 C 
ATOM     16  C   UNL     1      -1.592  -1.909   3.716  1.00  0.00     0.235 C 
ATOM     17  N   UNL     1      -2.069  -0.895   2.925  1.00  0.00    -0.250 N 
ATOM     18  O   UNL     1      -1.117   0.877   1.730  1.00  0.00    -0.273 OA
ATOM     19  O   UNL     1      -2.215  -2.868   4.157  1.00  0.00    -0.274 OA
BRANCH  17  20
ATOM     20  C   UNL     1      -3.440  -0.793   2.531  1.00  0.00     0.052 A 
ATOM     21  C   UNL     1      -4.495  -1.054   3.401  1.00  0.00     0.027 A 
ATOM     22  C   UNL     1      -3.791  -0.456   1.225  1.00  0.00     0.035 A 
ATOM     23  C   UNL     1      -5.828  -0.816   3.004  1.00  0.00     0.011 A 
ATOM     24  C   UNL     1      -5.119  -0.413   0.745  1.00  0.00    -0.016 A 
ATOM     25  C   UNL     1      -6.157  -0.476   1.677  1.00  0.00    -0.018 A 
ATOM     26  C   UNL     1      -5.444  -0.270  -0.621  1.00  0.00     0.009 A 
ATOM     27  C   UNL     1      -7.467  -0.178   1.241  1.00  0.00     0.009 A 
ATOM     28  C   UNL     1      -6.745  -0.039  -1.052  1.00  0.00     0.001 A 
ATOM     29  C   UNL     1      -7.752   0.065  -0.109  1.00  0.00     0.001 A 
ENDBRANCH  17  20
ENDBRANCH  12  13
ENDBRANCH  11  12
ENDBRANCH   6  11
ENDBRANCH   4   6
ENDBRANCH   3   4
ENDBRANCH   2   3
ENDBRANCH   1   2
BRANCH   1  30
ATOM     30  O   UNL     1      -1.074  -0.126  -2.589  1.00  0.00    -0.374 OA
BRANCH  30  31
ATOM     31  C   UNL     1      -0.530   1.184  -2.336  1.00  0.00     0.202 C 
BRANCH  31  32
ATOM     32  C   UNL     1      -1.499   2.325  -1.913  1.00  0.00     0.261 C 
BRANCH  32  33
ATOM     33  O   UNL     1      -1.918   2.310  -0.514  1.00  0.00    -0.460 OA
BRANCH  33  34
ATOM     34  C   UNL     1      -3.102   2.949  -0.258  1.00  0.00     0.338 C 
ATOM     35  O   UNL     1      -3.828   3.411  -1.132  1.00  0.00    -0.246 OA
BRANCH  34  36
ATOM     36  C   UNL     1      -3.528   3.009   1.184  1.00  0.00     0.060 A 
ATOM     37  C   UNL     1      -4.888   2.804   1.466  1.00  0.00     0.016 A 
ATOM     38  C   UNL     1      -2.694   3.370   2.248  1.00  0.00     0.016 A 
ATOM     39  C   UNL     1      -5.399   2.906   2.775  1.00  0.00     0.010 A 
ATOM     40  C   UNL     1      -3.215   3.506   3.565  1.00  0.00     0.010 A 
ATOM     41  C   UNL     1      -4.577   3.279   3.845  1.00  0.00    -0.014 A 
BRANCH  41  42
ATOM     42  C   UNL     1      -5.202   3.574   5.181  1.00  0.00     0.031 A 
ATOM     43  C   UNL     1      -5.732   4.960   5.453  1.00  0.00     0.074 A 
ATOM     44  C   UNL     1      -5.379   2.638   6.138  1.00  0.00     0.049 A 
ATOM     45  N   UNL     1      -6.379   5.414   6.497  1.00  0.00    -0.248 NA
ATOM     46  C   UNL     1      -5.500   5.963   4.404  1.00  0.00     0.031 C 
ATOM     47  C   UNL     1      -4.926   1.259   6.050  1.00  0.00     0.029 A 
ATOM     48  N   UNL     1      -5.983   2.704   7.379  1.00  0.00    -0.354 N 
ATOM     49  C   UNL     1      -6.633   6.755   6.236  1.00  0.00     0.074 A 
ATOM     50  C   UNL     1      -6.051   7.043   4.941  1.00  0.00     0.031 C 
ATOM     51  C   UNL     1      -5.265   0.600   7.172  1.00  0.00     0.029 A 
ATOM     52  C   UNL     1      -5.929   1.524   8.093  1.00  0.00     0.049 A 
ATOM     53  H   UNL     1      -6.413   3.519   7.723  1.00  0.00     0.167 HD
ATOM     54  C   UNL     1      -7.296   7.667   6.989  1.00  0.00     0.034 A 
ATOM     55  C   UNL     1      -6.338   1.222   9.346  1.00  0.00     0.034 A 
ATOM     56  C   UNL     1      -7.856   7.417   8.291  1.00  0.00     0.049 A 
ATOM     57  C   UNL     1      -7.022   2.274  10.190  1.00  0.00     0.074 A 
ATOM     58  C   UNL     1      -8.538   8.298   9.115  1.00  0.00     0.029 A 
ATOM     59  N   UNL     1      -7.785   6.214   8.972  1.00  0.00    -0.354 N 
ATOM     60  N   UNL     1      -7.345   3.504   9.877  1.00  0.00    -0.248 NA
ATOM     61  C   UNL     1      -7.423   1.886  11.554  1.00  0.00     0.031 C 
ATOM     62  C   UNL     1      -8.851   7.636  10.307  1.00  0.00     0.029 A 
ATOM     63  C   UNL     1      -8.404   6.330  10.208  1.00  0.00     0.049 A 
ATOM     64  H   UNL     1      -7.359   5.396   8.629  1.00  0.00     0.167 HD
ATOM     65  C   UNL     1      -8.017   4.020  10.983  1.00  0.00     0.074 A 
ATOM     66  C   UNL     1      -8.079   2.961  11.966  1.00  0.00     0.031 C 
ATOM     67  C   UNL     1      -8.521   5.265  11.171  1.00  0.00     0.034 A 
BRANCH  54  68
ATOM     68  C   UNL     1      -7.467   9.044   6.402  1.00  0.00     0.023 A 
ATOM     69  C   UNL     1      -8.368   9.236   5.334  1.00  0.00     0.012 A 
ATOM     70  C   UNL     1      -6.775  10.150   6.931  1.00  0.00     0.148 A 
ATOM     71  C   UNL     1      -8.550  10.501   4.778  1.00  0.00     0.002 A 
ATOM     72  C   UNL     1      -6.995  11.416   6.401  1.00  0.00     0.091 A 
ATOM     73  F   UNL     1      -5.912   9.943   7.936  1.00  0.00    -0.205 F 
ATOM     74  C   UNL     1      -7.871  11.590   5.316  1.00  0.00     0.022 A 
BRANCH  72  75
ATOM     75  S   UNL     1      -6.229  12.895   7.070  1.00  0.00     0.127 S 
ATOM     76  O   UNL     1      -5.336  13.283   5.978  1.00  0.00    -0.237 OA
ATOM     77  O   UNL     1      -7.380  13.778   7.258  1.00  0.00    -0.237 OA
ATOM     78  O   UNL     1      -5.565  12.486   8.300  1.00  0.00    -0.744 OA
ENDBRANCH  72  75
ENDBRANCH  54  68
BRANCH  55  79
ATOM     79  C   UNL     1      -6.106  -0.142   9.921  1.00  0.00     0.023 A 
ATOM     80  C   UNL     1      -7.199  -0.963  10.265  1.00  0.00     0.012 A 
ATOM     81  C   UNL     1      -4.801  -0.602  10.184  1.00  0.00     0.148 A 
ATOM     82  C   UNL     1      -6.999  -2.191  10.902  1.00  0.00     0.002 A 
ATOM     83  C   UNL     1      -4.606  -1.853  10.759  1.00  0.00     0.091 A 
ATOM     84  F   UNL     1      -3.772   0.200   9.879  1.00  0.00    -0.205 F 
ATOM     85  C   UNL     1      -5.703  -2.640  11.140  1.00  0.00     0.022 A 
BRANCH  83  86
ATOM     86  S   UNL     1      -2.970  -2.557  10.988  1.00  0.00     0.127 S 
ATOM     87  O   UNL     1      -2.818  -2.500  12.439  1.00  0.00    -0.237 OA
ATOM     88  O   UNL     1      -3.140  -3.902  10.437  1.00  0.00    -0.237 OA
ATOM     89  O   UNL     1      -2.067  -1.706  10.222  1.00  0.00    -0.744 OA
ENDBRANCH  83  86
ENDBRANCH  55  79
BRANCH  67  90
ATOM     90  C   UNL     1      -9.243   5.553  12.466  1.00  0.00     0.023 A 
ATOM     91  C   UNL     1      -8.528   5.628  13.679  1.00  0.00     0.012 A 
ATOM     92  C   UNL     1     -10.630   5.807  12.472  1.00  0.00     0.148 A 
ATOM     93  C   UNL     1      -9.187   5.908  14.878  1.00  0.00     0.002 A 
ATOM     94  C   UNL     1     -11.271   6.137  13.662  1.00  0.00     0.091 A 
ATOM     95  F   UNL     1     -11.301   5.715  11.315  1.00  0.00    -0.205 F 
ATOM     96  C   UNL     1     -10.554   6.173  14.868  1.00  0.00     0.022 A 
BRANCH  94  97
ATOM     97  S   UNL     1     -13.009   6.588  13.730  1.00  0.00     0.127 S 
ATOM     98  O   UNL     1     -13.594   5.420  14.386  1.00  0.00    -0.237 OA
ATOM     99  O   UNL     1     -12.983   7.799  14.550  1.00  0.00    -0.237 OA
ATOM    100  O   UNL     1     -13.423   6.802  12.350  1.00  0.00    -0.744 OA
ENDBRANCH  94  97
ENDBRANCH  67  90
ENDBRANCH  41  42
ENDBRANCH  34  36
ENDBRANCH  33  34
ENDBRANCH  32  33
ENDBRANCH  31  32
ENDBRANCH  30  31
ENDBRANCH   1  30
TORSDOF 22
