REMARK SMILES COc1cc(S(=O)(=O)CCO)cc(C(=O)OCCOCCOC(=O)c2ccc(-c3c4nc(c(-c5cccc(S(=O)(=O)[O-])c5F)c5ccc([nH]5)c(-c5cccc(S(=O)(=O)[O-])c5F)c5nc(c(-c6cccc(S(=O)(=O)[O-])c6F)c6ccc3[nH]6)C=C5)C=C4)cc2)c1OC
REMARK SMILES IDX 18 1 17 2 16 3 14 4 15 5 13 6 3 7 4 8 88 9 5 10 12 11 2 12
REMARK SMILES IDX 1 13 89 14 90 15 6 16 7 17 8 18 9 19 10 20 11 21 19 23 20 24
REMARK SMILES IDX 21 25 22 26 23 27 24 28 25 29 26 30 87 31 27 32 86 33 28 34
REMARK SMILES IDX 29 35 30 36 80 37 31 38 85 39 79 40 81 41 32 42 84 43 78 44
REMARK SMILES IDX 77 45 33 47 65 48 45 49 64 50 46 51 49 52 63 53 82 54 47 55
REMARK SMILES IDX 48 56 62 58 83 59 50 60 34 61 35 62 43 63 36 64 38 65 44 66
REMARK SMILES IDX 37 67 39 68 40 69 41 70 42 71 66 72 67 73 75 74 68 75 70 76
REMARK SMILES IDX 76 77 69 78 71 79 72 80 73 81 74 82 51 83 52 84 60 85 53 86
REMARK SMILES IDX 55 87 61 88 54 89 56 90 57 91 58 92 59 93
REMARK H PARENT 11 22 81 46 49 57
REMARK Flexibility Score: inf
ROOT
ATOM      1  C   UNL     1       6.688  -3.838   2.713  1.00  0.00     0.202 C 
ENDROOT
BRANCH   1   2
ATOM      2  C   UNL     1       5.870  -4.215   1.477  1.00  0.00     0.261 C 
BRANCH   2   3
ATOM      3  O   UNL     1       4.666  -3.436   1.439  1.00  0.00    -0.460 OA
BRANCH   3   4
ATOM      4  C   UNL     1       3.514  -4.137   1.351  1.00  0.00     0.342 C 
ATOM      5  O   UNL     1       3.397  -5.343   1.190  1.00  0.00    -0.246 OA
BRANCH   4   6
ATOM      6  C   UNL     1       2.374  -3.292   1.773  1.00  0.00     0.107 A 
ATOM      7  C   UNL     1       0.972  -1.346   1.728  1.00  0.00     0.162 A 
ATOM      8  C   UNL     1       0.138  -1.934   2.699  1.00  0.00     0.070 A 
ATOM      9  C   UNL     1       2.115  -2.013   1.255  1.00  0.00     0.175 A 
ATOM     10  C   UNL     1       0.430  -3.202   3.210  1.00  0.00     0.072 A 
ATOM     11  C   UNL     1       1.562  -3.864   2.767  1.00  0.00     0.040 A 
BRANCH   7  12
ATOM     12  O   UNL     1       0.635  -0.072   1.357  1.00  0.00    -0.493 OA
ATOM     13  C   UNL     1      -0.033  -0.025   0.096  1.00  0.00     0.278 C 
ENDBRANCH   7  12
BRANCH   9  14
ATOM     14  O   UNL     1       2.990  -1.589   0.300  1.00  0.00    -0.492 OA
ATOM     15  C   UNL     1       3.158  -0.202   0.042  1.00  0.00     0.278 C 
ENDBRANCH   9  14
BRANCH  10  16
ATOM     16  S   UNL     1      -0.663  -3.921   4.413  1.00  0.00     0.180 S 
ATOM     17  O   UNL     1      -0.935  -2.869   5.377  1.00  0.00    -0.224 OA
ATOM     18  O   UNL     1      -1.751  -4.524   3.665  1.00  0.00    -0.224 OA
BRANCH  16  19
ATOM     19  C   UNL     1       0.190  -5.201   5.306  1.00  0.00     0.170 C 
BRANCH  19  20
ATOM     20  C   UNL     1       0.049  -6.587   4.704  1.00  0.00     0.172 C 
BRANCH  20  21
ATOM     21  O   UNL     1       0.986  -6.812   3.663  1.00  0.00    -0.395 OA
ATOM     22  H   UNL     1       0.836  -6.172   2.950  1.00  0.00     0.210 HD
ENDBRANCH  20  21
ENDBRANCH  19  20
ENDBRANCH  16  19
ENDBRANCH  10  16
ENDBRANCH   4   6
ENDBRANCH   3   4
ENDBRANCH   2   3
ENDBRANCH   1   2
BRANCH   1  23
ATOM     23  O   UNL     1       6.138  -4.220   3.977  1.00  0.00    -0.374 OA
BRANCH  23  24
ATOM     24  C   UNL     1       5.048  -3.449   4.479  1.00  0.00     0.202 C 
BRANCH  24  25
ATOM     25  C   UNL     1       5.382  -2.096   5.122  1.00  0.00     0.261 C 
BRANCH  25  26
ATOM     26  O   UNL     1       5.878  -1.140   4.173  1.00  0.00    -0.460 OA
BRANCH  26  27
ATOM     27  C   UNL     1       7.213  -0.926   4.224  1.00  0.00     0.338 C 
ATOM     28  O   UNL     1       8.014  -1.427   5.005  1.00  0.00    -0.246 OA
BRANCH  27  29
ATOM     29  C   UNL     1       7.628  -0.124   3.062  1.00  0.00     0.060 A 
ATOM     30  C   UNL     1       8.653  -0.625   2.247  1.00  0.00     0.016 A 
ATOM     31  C   UNL     1       7.067   1.129   2.815  1.00  0.00     0.016 A 
ATOM     32  C   UNL     1       9.158   0.149   1.205  1.00  0.00     0.010 A 
ATOM     33  C   UNL     1       7.581   1.907   1.778  1.00  0.00     0.010 A 
ATOM     34  C   UNL     1       8.653   1.437   0.996  1.00  0.00    -0.014 A 
BRANCH  34  35
ATOM     35  C   UNL     1       9.341   2.375   0.081  1.00  0.00     0.031 A 
ATOM     36  C   UNL     1      10.207   3.447   0.679  1.00  0.00     0.074 A 
ATOM     37  C   UNL     1       9.147   2.315  -1.247  1.00  0.00     0.049 A 
ATOM     38  N   UNL     1      10.771   4.475   0.103  1.00  0.00    -0.248 NA
ATOM     39  C   UNL     1      10.454   3.355   2.128  1.00  0.00     0.031 C 
ATOM     40  C   UNL     1       8.344   1.310  -1.937  1.00  0.00     0.029 A 
ATOM     41  N   UNL     1       9.576   3.154  -2.244  1.00  0.00    -0.354 N 
ATOM     42  C   UNL     1      11.392   5.183   1.125  1.00  0.00     0.074 A 
ATOM     43  C   UNL     1      11.139   4.465   2.355  1.00  0.00     0.031 C 
ATOM     44  C   UNL     1       8.293   1.619  -3.244  1.00  0.00     0.029 A 
ATOM     45  C   UNL     1       9.026   2.864  -3.470  1.00  0.00     0.049 A 
ATOM     46  H   UNL     1      10.213   3.890  -2.097  1.00  0.00     0.167 HD
ATOM     47  C   UNL     1      12.109   6.328   1.043  1.00  0.00     0.034 A 
ATOM     48  C   UNL     1       9.070   3.550  -4.630  1.00  0.00     0.034 A 
ATOM     49  C   UNL     1      12.368   7.022  -0.188  1.00  0.00     0.049 A 
ATOM     50  C   UNL     1       9.858   4.832  -4.698  1.00  0.00     0.074 A 
ATOM     51  C   UNL     1      13.133   8.156  -0.390  1.00  0.00     0.029 A 
ATOM     52  N   UNL     1      11.853   6.659  -1.423  1.00  0.00    -0.354 N 
ATOM     53  N   UNL     1      10.526   5.441  -3.747  1.00  0.00    -0.248 NA
ATOM     54  C   UNL     1       9.926   5.507  -6.003  1.00  0.00     0.031 C 
ATOM     55  C   UNL     1      13.047   8.502  -1.742  1.00  0.00     0.029 A 
ATOM     56  C   UNL     1      12.270   7.555  -2.390  1.00  0.00     0.049 A 
ATOM     57  H   UNL     1      11.276   5.878  -1.586  1.00  0.00     0.167 HD
ATOM     58  C   UNL     1      11.130   6.541  -4.346  1.00  0.00     0.074 A 
ATOM     59  C   UNL     1      10.748   6.517  -5.743  1.00  0.00     0.031 C 
ATOM     60  C   UNL     1      11.929   7.484  -3.789  1.00  0.00     0.034 A 
BRANCH  47  61
ATOM     61  C   UNL     1      12.654   6.902   2.324  1.00  0.00     0.023 A 
ATOM     62  C   UNL     1      13.702   6.249   3.003  1.00  0.00     0.012 A 
ATOM     63  C   UNL     1      12.146   8.111   2.838  1.00  0.00     0.148 A 
ATOM     64  C   UNL     1      14.203   6.764   4.198  1.00  0.00     0.002 A 
ATOM     65  C   UNL     1      12.685   8.645   4.002  1.00  0.00     0.091 A 
ATOM     66  F   UNL     1      11.133   8.707   2.193  1.00  0.00    -0.205 F 
ATOM     67  C   UNL     1      13.702   7.966   4.692  1.00  0.00     0.022 A 
BRANCH  65  68
ATOM     68  S   UNL     1      12.162  10.229   4.667  1.00  0.00     0.127 S 
ATOM     69  O   UNL     1      11.389   9.818   5.838  1.00  0.00    -0.237 OA
ATOM     70  O   UNL     1      13.441  10.871   4.975  1.00  0.00    -0.237 OA
ATOM     71  O   UNL     1      11.401  10.877   3.608  1.00  0.00    -0.744 OA
ENDBRANCH  65  68
ENDBRANCH  47  61
BRANCH  48  72
ATOM     72  C   UNL     1       8.353   3.019  -5.822  1.00  0.00     0.023 A 
ATOM     73  C   UNL     1       9.089   2.495  -6.901  1.00  0.00     0.012 A 
ATOM     74  C   UNL     1       6.945   2.981  -5.864  1.00  0.00     0.148 A 
ATOM     75  C   UNL     1       8.436   1.961  -8.012  1.00  0.00     0.002 A 
ATOM     76  C   UNL     1       6.301   2.397  -6.948  1.00  0.00     0.091 A 
ATOM     77  F   UNL     1       6.265   3.494  -4.829  1.00  0.00    -0.205 F 
ATOM     78  C   UNL     1       7.044   1.900  -8.030  1.00  0.00     0.022 A 
BRANCH  76  79
ATOM     79  S   UNL     1       4.522   2.153  -6.999  1.00  0.00     0.127 S 
ATOM     80  O   UNL     1       4.133   3.019  -8.108  1.00  0.00    -0.237 OA
ATOM     81  O   UNL     1       4.426   0.719  -7.272  1.00  0.00    -0.237 OA
ATOM     82  O   UNL     1       4.028   2.551  -5.687  1.00  0.00    -0.744 OA
ENDBRANCH  76  79
ENDBRANCH  48  72
BRANCH  60  83
ATOM     83  C   UNL     1      12.519   8.541  -4.686  1.00  0.00     0.023 A 
ATOM     84  C   UNL     1      11.718   9.595  -5.164  1.00  0.00     0.012 A 
ATOM     85  C   UNL     1      13.905   8.551  -4.941  1.00  0.00     0.148 A 
ATOM     86  C   UNL     1      12.288  10.637  -5.897  1.00  0.00     0.002 A 
ATOM     87  C   UNL     1      14.473   9.617  -5.626  1.00  0.00     0.091 A 
ATOM     88  F   UNL     1      14.644   7.527  -4.489  1.00  0.00    -0.205 F 
ATOM     89  C   UNL     1      13.665  10.656  -6.114  1.00  0.00     0.022 A 
BRANCH  87  90
ATOM     90  S   UNL     1      16.247   9.780  -5.858  1.00  0.00     0.127 S 
ATOM     91  O   UNL     1      16.375   9.612  -7.305  1.00  0.00    -0.237 OA
ATOM     92  O   UNL     1      16.497  11.138  -5.377  1.00  0.00    -0.237 OA
ATOM     93  O   UNL     1      16.859   8.729  -5.056  1.00  0.00    -0.744 OA
ENDBRANCH  87  90
ENDBRANCH  60  83
ENDBRANCH  34  35
ENDBRANCH  27  29
ENDBRANCH  26  27
ENDBRANCH  25  26
ENDBRANCH  24  25
ENDBRANCH  23  24
ENDBRANCH   1  23
TORSDOF 23
