REMARK SMILES CC1CC[NH+]([C@H](c2ccc(F)cc2)c2ccc([C@@H](C)C(=O)OCCOCCOC(=O)c3ccc(-c4c5nc(c(-c6cccc(S(=O)(=O)[O-])c6F)c6ccc([nH]6)c(-c6cccc(S(=O)(=O)[O-])c6F)c6nc(c(-c7cccc(S(=O)(=O)[O-])c7F)c7ccc4[nH]7)C=C6)C=C5)cc3)cc2-c2ccc(C(F)(F)F)cc2)CC1
REMARK SMILES IDX 25 1 24 2 23 3 22 4 20 5 21 6 18 7 19 8 17 9 14 10 15 11
REMARK SMILES IDX 95 12 16 13 94 14 6 15 5 16 1 17 2 18 3 19 107 20 4 21
REMARK SMILES IDX 106 22 7 24 8 25 13 26 9 27 12 28 10 29 11 30 96 31 97 32
REMARK SMILES IDX 105 33 98 34 104 35 99 36 100 37 101 38 102 39 103 40 26 41
REMARK SMILES IDX 27 42 28 43 29 44 30 45 31 46 32 47 93 48 33 49 92 50 34 51
REMARK SMILES IDX 35 52 36 53 86 54 37 55 91 56 85 57 87 58 38 59 90 60 84 61
REMARK SMILES IDX 83 62 39 64 71 65 51 66 70 67 52 68 55 69 69 70 88 71 53 72
REMARK SMILES IDX 54 73 68 75 89 76 56 77 40 78 41 79 49 80 42 81 44 82 50 83
REMARK SMILES IDX 43 84 45 85 46 86 47 87 48 88 72 89 73 90 81 91 74 92 76 93
REMARK SMILES IDX 82 94 75 95 77 96 78 97 79 98 80 99 57 100 58 101 66 102
REMARK SMILES IDX 59 103 61 104 67 105 60 106 62 107 63 108 64 109 65 110
REMARK H PARENT 5 23 87 63 55 74
REMARK Flexibility Score: inf
ROOT
ATOM      1  O   UNL     1       3.512   7.254  -0.941  1.00  0.00    -0.374 OA
ENDROOT
BRANCH   1   2
ATOM      2  C   UNL     1       2.651   7.607  -2.026  1.00  0.00     0.202 C 
BRANCH   2   3
ATOM      3  C   UNL     1       3.303   7.598  -3.411  1.00  0.00     0.261 C 
BRANCH   3   4
ATOM      4  O   UNL     1       3.571   6.250  -3.839  1.00  0.00    -0.463 OA
BRANCH   4   5
ATOM      5  C   UNL     1       4.875   5.891  -3.953  1.00  0.00     0.313 C 
ATOM      6  O   UNL     1       5.822   6.663  -3.835  1.00  0.00    -0.252 OA
BRANCH   5   7
ATOM      7  C   UNL     1       5.069   4.416  -4.285  1.00  0.00     0.126 C 
ATOM      8  C   UNL     1       5.041   4.229  -5.800  1.00  0.00     0.025 C 
BRANCH   7   9
ATOM      9  C   UNL     1       4.173   3.412  -3.564  1.00  0.00    -0.033 A 
ATOM     10  C   UNL     1       2.563   1.387  -2.295  1.00  0.00     0.022 A 
ATOM     11  C   UNL     1       2.007   2.415  -3.084  1.00  0.00     0.011 A 
ATOM     12  C   UNL     1       3.975   1.417  -2.106  1.00  0.00    -0.009 A 
ATOM     13  C   UNL     1       2.789   3.386  -3.724  1.00  0.00     0.005 A 
ATOM     14  C   UNL     1       4.742   2.431  -2.737  1.00  0.00     0.013 A 
BRANCH  10  15
ATOM     15  C   UNL     1       1.687   0.243  -1.692  1.00  0.00     0.247 C 
BRANCH  15  16
ATOM     16  N   UNL     1       0.279   0.066  -2.171  1.00  0.00    -0.325 N 
ATOM     17  C   UNL     1      -3.386   1.211  -4.331  1.00  0.00     0.008 C 
ATOM     18  C   UNL     1      -2.001   1.094  -3.705  1.00  0.00    -0.003 C 
ATOM     19  C   UNL     1      -1.250  -0.143  -4.196  1.00  0.00     0.065 C 
ATOM     20  C   UNL     1      -2.087   0.983  -2.189  1.00  0.00     0.065 C 
ATOM     21  C   UNL     1       0.167  -0.203  -3.610  1.00  0.00     0.263 C 
ATOM     22  C   UNL     1      -0.690   0.981  -1.575  1.00  0.00     0.263 C 
ATOM     23  H   UNL     1      -0.036  -0.820  -1.775  1.00  0.00     0.348 HD
ENDBRANCH  15  16
BRANCH  15  24
ATOM     24  C   UNL     1       1.763   0.163  -0.154  1.00  0.00     0.014 A 
ATOM     25  C   UNL     1       1.592   1.302   0.657  1.00  0.00     0.013 A 
ATOM     26  C   UNL     1       1.983  -1.078   0.473  1.00  0.00     0.013 A 
ATOM     27  C   UNL     1       1.655   1.205   2.048  1.00  0.00     0.040 A 
ATOM     28  C   UNL     1       2.067  -1.170   1.864  1.00  0.00     0.040 A 
ATOM     29  C   UNL     1       1.901  -0.029   2.637  1.00  0.00     0.123 A 
ATOM     30  F   UNL     1       1.976  -0.119   3.971  1.00  0.00    -0.207 F 
ENDBRANCH  15  24
ENDBRANCH  10  15
BRANCH  12  31
ATOM     31  C   UNL     1       4.707   0.449  -1.265  1.00  0.00    -0.018 A 
ATOM     32  C   UNL     1       5.252   0.854  -0.035  1.00  0.00     0.009 A 
ATOM     33  C   UNL     1       4.882  -0.885  -1.660  1.00  0.00     0.009 A 
ATOM     34  C   UNL     1       5.912  -0.057   0.795  1.00  0.00     0.014 A 
ATOM     35  C   UNL     1       5.532  -1.801  -0.826  1.00  0.00     0.014 A 
ATOM     36  C   UNL     1       6.042  -1.399   0.417  1.00  0.00     0.056 A 
BRANCH  36  37
ATOM     37  C   UNL     1       6.733  -2.378   1.333  1.00  0.00     0.416 C 
ATOM     38  F   UNL     1       8.081  -2.185   1.378  1.00  0.00    -0.166 F 
ATOM     39  F   UNL     1       6.302  -2.292   2.623  1.00  0.00    -0.166 F 
ATOM     40  F   UNL     1       6.558  -3.681   0.971  1.00  0.00    -0.166 F 
ENDBRANCH  36  37
ENDBRANCH  12  31
ENDBRANCH   7   9
ENDBRANCH   5   7
ENDBRANCH   4   5
ENDBRANCH   3   4
ENDBRANCH   2   3
ENDBRANCH   1   2
BRANCH   1  41
ATOM     41  C   UNL     1       3.728   5.860  -0.730  1.00  0.00     0.202 C 
BRANCH  41  42
ATOM     42  C   UNL     1       2.648   5.125   0.071  1.00  0.00     0.261 C 
BRANCH  42  43
ATOM     43  O   UNL     1       1.382   5.096  -0.610  1.00  0.00    -0.460 OA
BRANCH  43  44
ATOM     44  C   UNL     1       0.450   5.954  -0.129  1.00  0.00     0.338 C 
ATOM     45  O   UNL     1       0.551   6.670   0.859  1.00  0.00    -0.246 OA
BRANCH  44  46
ATOM     46  C   UNL     1      -0.695   6.032  -1.058  1.00  0.00     0.060 A 
ATOM     47  C   UNL     1      -1.195   7.293  -1.396  1.00  0.00     0.016 A 
ATOM     48  C   UNL     1      -1.312   4.882  -1.548  1.00  0.00     0.016 A 
ATOM     49  C   UNL     1      -2.343   7.402  -2.183  1.00  0.00     0.010 A 
ATOM     50  C   UNL     1      -2.452   4.989  -2.348  1.00  0.00     0.010 A 
ATOM     51  C   UNL     1      -3.001   6.249  -2.633  1.00  0.00    -0.014 A 
BRANCH  51  52
ATOM     52  C   UNL     1      -4.332   6.347  -3.283  1.00  0.00     0.031 A 
ATOM     53  C   UNL     1      -5.562   5.978  -2.495  1.00  0.00     0.074 A 
ATOM     54  C   UNL     1      -4.446   6.750  -4.562  1.00  0.00     0.049 A 
ATOM     55  N   UNL     1      -6.815   5.985  -2.870  1.00  0.00    -0.248 NA
ATOM     56  C   UNL     1      -5.356   5.537  -1.104  1.00  0.00     0.031 C 
ATOM     57  C   UNL     1      -3.330   7.111  -5.435  1.00  0.00     0.029 A 
ATOM     58  N   UNL     1      -5.557   6.906  -5.354  1.00  0.00    -0.354 N 
ATOM     59  C   UNL     1      -7.542   5.535  -1.774  1.00  0.00     0.074 A 
ATOM     60  C   UNL     1      -6.591   5.237  -0.727  1.00  0.00     0.031 C 
ATOM     61  C   UNL     1      -3.813   7.437  -6.647  1.00  0.00     0.029 A 
ATOM     62  C   UNL     1      -5.268   7.291  -6.642  1.00  0.00     0.049 A 
ATOM     63  H   UNL     1      -6.474   6.756  -5.030  1.00  0.00     0.167 HD
ATOM     64  C   UNL     1      -8.883   5.410  -1.641  1.00  0.00     0.034 A 
ATOM     65  C   UNL     1      -6.082   7.497  -7.697  1.00  0.00     0.034 A 
ATOM     66  C   UNL     1      -9.831   5.744  -2.667  1.00  0.00     0.049 A 
ATOM     67  C   UNL     1      -7.572   7.348  -7.521  1.00  0.00     0.074 A 
ATOM     68  C   UNL     1     -11.213   5.704  -2.602  1.00  0.00     0.029 A 
ATOM     69  N   UNL     1      -9.501   6.179  -3.940  1.00  0.00    -0.354 N 
ATOM     70  N   UNL     1      -8.248   7.044  -6.439  1.00  0.00    -0.248 NA
ATOM     71  C   UNL     1      -8.415   7.602  -8.700  1.00  0.00     0.031 C 
ATOM     72  C   UNL     1     -11.719   6.097  -3.843  1.00  0.00     0.029 A 
ATOM     73  C   UNL     1     -10.653   6.404  -4.673  1.00  0.00     0.049 A 
ATOM     74  H   UNL     1      -8.584   6.308  -4.274  1.00  0.00     0.167 HD
ATOM     75  C   UNL     1      -9.591   7.107  -6.796  1.00  0.00     0.074 A 
ATOM     76  C   UNL     1      -9.635   7.494  -8.191  1.00  0.00     0.031 C 
ATOM     77  C   UNL     1     -10.687   6.852  -6.041  1.00  0.00     0.034 A 
BRANCH  64  78
ATOM     78  C   UNL     1      -9.426   4.949  -0.314  1.00  0.00     0.023 A 
ATOM     79  C   UNL     1      -9.438   5.846   0.773  1.00  0.00     0.012 A 
ATOM     80  C   UNL     1     -10.028   3.684  -0.176  1.00  0.00     0.148 A 
ATOM     81  C   UNL     1     -10.030   5.486   1.982  1.00  0.00     0.002 A 
ATOM     82  C   UNL     1     -10.654   3.348   1.018  1.00  0.00     0.091 A 
ATOM     83  F   UNL     1      -9.990   2.841  -1.219  1.00  0.00    -0.205 F 
ATOM     84  C   UNL     1     -10.649   4.245   2.100  1.00  0.00     0.022 A 
BRANCH  82  85
ATOM     85  S   UNL     1     -11.552   1.809   1.248  1.00  0.00     0.127 S 
ATOM     86  O   UNL     1     -10.733   1.138   2.257  1.00  0.00    -0.237 OA
ATOM     87  O   UNL     1     -12.850   2.281   1.731  1.00  0.00    -0.237 OA
ATOM     88  O   UNL     1     -11.583   1.161  -0.056  1.00  0.00    -0.744 OA
ENDBRANCH  82  85
ENDBRANCH  64  78
BRANCH  65  89
ATOM     89  C   UNL     1      -5.507   7.932  -9.002  1.00  0.00     0.023 A 
ATOM     90  C   UNL     1      -5.749   9.241  -9.463  1.00  0.00     0.012 A 
ATOM     91  C   UNL     1      -4.697   7.074  -9.770  1.00  0.00     0.148 A 
ATOM     92  C   UNL     1      -5.214   9.680 -10.675  1.00  0.00     0.002 A 
ATOM     93  C   UNL     1      -4.120   7.536 -10.948  1.00  0.00     0.091 A 
ATOM     94  F   UNL     1      -4.495   5.825  -9.327  1.00  0.00    -0.205 F 
ATOM     95  C   UNL     1      -4.390   8.832 -11.411  1.00  0.00     0.022 A 
BRANCH  93  96
ATOM     96  S   UNL     1      -2.935   6.561 -11.882  1.00  0.00     0.127 S 
ATOM     97  O   UNL     1      -3.716   6.185 -13.058  1.00  0.00    -0.237 OA
ATOM     98  O   UNL     1      -1.871   7.534 -12.133  1.00  0.00    -0.237 OA
ATOM     99  O   UNL     1      -2.547   5.467 -11.001  1.00  0.00    -0.744 OA
ENDBRANCH  93  96
ENDBRANCH  65  89
BRANCH  77 100
ATOM    100  C   UNL     1     -12.044   7.005  -6.676  1.00  0.00     0.023 A 
ATOM    101  C   UNL     1     -12.501   6.032  -7.586  1.00  0.00     0.012 A 
ATOM    102  C   UNL     1     -12.915   8.038  -6.272  1.00  0.00     0.148 A 
ATOM    103  C   UNL     1     -13.797   6.093  -8.097  1.00  0.00     0.002 A 
ATOM    104  C   UNL     1     -14.220   8.066  -6.749  1.00  0.00     0.091 A 
ATOM    105  F   UNL     1     -12.455   8.962  -5.416  1.00  0.00    -0.205 F 
ATOM    106  C   UNL     1     -14.659   7.100  -7.668  1.00  0.00     0.022 A 
BRANCH 104 107
ATOM    107  S   UNL     1     -15.432   9.261  -6.175  1.00  0.00     0.127 S 
ATOM    108  O   UNL     1     -15.587  10.116  -7.351  1.00  0.00    -0.237 OA
ATOM    109  O   UNL     1     -16.589   8.414  -5.881  1.00  0.00    -0.237 OA
ATOM    110  O   UNL     1     -14.842   9.905  -5.009  1.00  0.00    -0.744 OA
ENDBRANCH 104 107
ENDBRANCH  77 100
ENDBRANCH  51  52
ENDBRANCH  44  46
ENDBRANCH  43  44
ENDBRANCH  42  43
ENDBRANCH  41  42
ENDBRANCH   1  41
TORSDOF 23
