REMARK SMILES C[C@H]1[C@H](C(=O)OCCOCCOC(=O)c2ccc(-c3c4nc(c(-c5cccc(S(=O)(=O)[O-])c5F)c5ccc([nH]5)c(-c5cccc(S(=O)(=O)[O-])c5F)c5nc(c(-c6cccc(S(=O)(=O)[O-])c6F)c6ccc3[nH]6)C=C5)C=C4)cc2)CC[N@@H+]1Cc1ccc(C(F)(F)F)cc1
REMARK SMILES IDX 9 1 8 2 7 3 6 4 4 5 5 6 3 7 1 8 2 9 80 10 78 11 79 12 81 14
REMARK SMILES IDX 82 15 83 16 91 17 84 18 90 19 85 20 86 21 87 22 88 23 89 24
REMARK SMILES IDX 10 25 11 26 12 27 13 28 14 29 15 30 16 31 77 32 17 33 76 34
REMARK SMILES IDX 18 35 19 36 20 37 70 38 21 39 75 40 69 41 71 42 22 43 74 44
REMARK SMILES IDX 68 45 67 46 23 48 55 49 35 50 54 51 36 52 39 53 53 54 72 55
REMARK SMILES IDX 37 56 38 57 52 59 73 60 40 61 24 62 25 63 33 64 26 65 28 66
REMARK SMILES IDX 34 67 27 68 29 69 30 70 31 71 32 72 56 73 57 74 65 75 58 76
REMARK SMILES IDX 60 77 66 78 59 79 61 80 62 81 63 82 64 83 41 84 42 85 50 86
REMARK SMILES IDX 43 87 45 88 51 89 44 90 46 91 47 92 48 93 49 94
REMARK H PARENT 80 13 71 47 39 58
REMARK Flexibility Score: inf
ROOT
ATOM      1  O   UNL     1       1.618   4.256   2.529  1.00  0.00    -0.374 OA
ENDROOT
BRANCH   1   2
ATOM      2  C   UNL     1       0.517   3.853   3.349  1.00  0.00     0.202 C 
BRANCH   2   3
ATOM      3  C   UNL     1      -0.786   3.556   2.602  1.00  0.00     0.261 C 
BRANCH   3   4
ATOM      4  O   UNL     1      -0.642   2.362   1.812  1.00  0.00    -0.463 OA
BRANCH   4   5
ATOM      5  C   UNL     1      -0.911   2.468   0.491  1.00  0.00     0.315 C 
ATOM      6  O   UNL     1      -1.400   3.457  -0.047  1.00  0.00    -0.252 OA
BRANCH   5   7
ATOM      7  C   UNL     1      -0.544   1.230  -0.305  1.00  0.00     0.162 C 
ATOM      8  C   UNL     1       1.690   0.047  -0.367  1.00  0.00     0.076 C 
ATOM      9  C   UNL     1       0.348   0.172   0.370  1.00  0.00     0.195 C 
ATOM     10  N   UNL     1      -0.343  -1.120   0.229  1.00  0.00    -0.328 N 
ATOM     11  C   UNL     1      -1.811   0.500  -0.720  1.00  0.00     0.083 C 
ATOM     12  C   UNL     1      -1.424  -0.964  -0.734  1.00  0.00     0.263 C 
ATOM     13  H   UNL     1       0.322  -1.798  -0.144  1.00  0.00     0.348 HD
BRANCH  10  14
ATOM     14  C   UNL     1      -0.697  -1.797   1.486  1.00  0.00     0.299 C 
BRANCH  14  15
ATOM     15  C   UNL     1      -1.458  -0.999   2.523  1.00  0.00     0.006 A 
ATOM     16  C   UNL     1      -0.818  -0.596   3.704  1.00  0.00     0.010 A 
ATOM     17  C   UNL     1      -2.806  -0.662   2.350  1.00  0.00     0.010 A 
ATOM     18  C   UNL     1      -1.489   0.180   4.653  1.00  0.00     0.013 A 
ATOM     19  C   UNL     1      -3.472   0.134   3.286  1.00  0.00     0.013 A 
ATOM     20  C   UNL     1      -2.812   0.584   4.436  1.00  0.00     0.056 A 
BRANCH  20  21
ATOM     21  C   UNL     1      -3.502   1.488   5.427  1.00  0.00     0.416 C 
ATOM     22  F   UNL     1      -3.960   0.835   6.524  1.00  0.00    -0.166 F 
ATOM     23  F   UNL     1      -2.667   2.465   5.891  1.00  0.00    -0.166 F 
ATOM     24  F   UNL     1      -4.568   2.151   4.896  1.00  0.00    -0.166 F 
ENDBRANCH  20  21
ENDBRANCH  14  15
ENDBRANCH  10  14
ENDBRANCH   5   7
ENDBRANCH   4   5
ENDBRANCH   3   4
ENDBRANCH   2   3
ENDBRANCH   1   2
BRANCH   1  25
ATOM     25  C   UNL     1       2.281   3.236   1.786  1.00  0.00     0.202 C 
BRANCH  25  26
ATOM     26  C   UNL     1       3.307   2.390   2.550  1.00  0.00     0.261 C 
BRANCH  26  27
ATOM     27  O   UNL     1       2.723   1.650   3.636  1.00  0.00    -0.460 OA
BRANCH  27  28
ATOM     28  C   UNL     1       3.019   2.142   4.862  1.00  0.00     0.338 C 
ATOM     29  O   UNL     1       3.762   3.085   5.115  1.00  0.00    -0.246 OA
BRANCH  28  30
ATOM     30  C   UNL     1       2.209   1.488   5.905  1.00  0.00     0.060 A 
ATOM     31  C   UNL     1       1.576   2.321   6.836  1.00  0.00     0.016 A 
ATOM     32  C   UNL     1       2.152   0.099   6.045  1.00  0.00     0.016 A 
ATOM     33  C   UNL     1       0.957   1.773   7.955  1.00  0.00     0.010 A 
ATOM     34  C   UNL     1       1.518  -0.451   7.167  1.00  0.00     0.010 A 
ATOM     35  C   UNL     1       0.970   0.386   8.157  1.00  0.00    -0.014 A 
BRANCH  35  36
ATOM     36  C   UNL     1       0.572  -0.147   9.485  1.00  0.00     0.031 A 
ATOM     37  C   UNL     1       1.646  -0.565  10.455  1.00  0.00     0.074 A 
ATOM     38  C   UNL     1      -0.722  -0.206   9.851  1.00  0.00     0.049 A 
ATOM     39  N   UNL     1       1.530  -0.978  11.690  1.00  0.00    -0.248 NA
ATOM     40  C   UNL     1       3.036  -0.510   9.970  1.00  0.00     0.031 C 
ATOM     41  C   UNL     1      -1.854   0.163   9.006  1.00  0.00     0.029 A 
ATOM     42  N   UNL     1      -1.299  -0.607  11.030  1.00  0.00    -0.354 N 
ATOM     43  C   UNL     1       2.822  -1.250  12.123  1.00  0.00     0.074 A 
ATOM     44  C   UNL     1       3.706  -0.984  11.009  1.00  0.00     0.031 C 
ATOM     45  C   UNL     1      -2.994  -0.045   9.686  1.00  0.00     0.029 A 
ATOM     46  C   UNL     1      -2.673  -0.562  11.014  1.00  0.00     0.049 A 
ATOM     47  H   UNL     1      -0.778  -0.898  11.813  1.00  0.00     0.167 HD
ATOM     48  C   UNL     1       3.244  -1.655  13.344  1.00  0.00     0.034 A 
ATOM     49  C   UNL     1      -3.569  -0.895  11.965  1.00  0.00     0.034 A 
ATOM     50  C   UNL     1       2.372  -1.888  14.463  1.00  0.00     0.049 A 
ATOM     51  C   UNL     1      -3.075  -1.336  13.319  1.00  0.00     0.074 A 
ATOM     52  C   UNL     1       2.707  -2.252  15.755  1.00  0.00     0.029 A 
ATOM     53  N   UNL     1       0.990  -1.784  14.423  1.00  0.00    -0.354 N 
ATOM     54  N   UNL     1      -1.842  -1.454  13.751  1.00  0.00    -0.248 NA
ATOM     55  C   UNL     1      -4.096  -1.642  14.332  1.00  0.00     0.031 C 
ATOM     56  C   UNL     1       1.526  -2.386  16.492  1.00  0.00     0.029 A 
ATOM     57  C   UNL     1       0.456  -2.084  15.664  1.00  0.00     0.049 A 
ATOM     58  H   UNL     1       0.465  -1.534  13.628  1.00  0.00     0.167 HD
ATOM     59  C   UNL     1      -1.939  -1.810  15.092  1.00  0.00     0.074 A 
ATOM     60  C   UNL     1      -3.352  -1.867  15.407  1.00  0.00     0.031 C 
ATOM     61  C   UNL     1      -0.949  -2.081  15.979  1.00  0.00     0.034 A 
BRANCH  48  62
ATOM     62  C   UNL     1       4.726  -1.833  13.544  1.00  0.00     0.023 A 
ATOM     63  C   UNL     1       5.556  -0.697  13.633  1.00  0.00     0.012 A 
ATOM     64  C   UNL     1       5.290  -3.115  13.686  1.00  0.00     0.148 A 
ATOM     65  C   UNL     1       6.929  -0.834  13.827  1.00  0.00     0.002 A 
ATOM     66  C   UNL     1       6.654  -3.242  13.922  1.00  0.00     0.091 A 
ATOM     67  F   UNL     1       4.489  -4.183  13.572  1.00  0.00    -0.205 F 
ATOM     68  C   UNL     1       7.476  -2.105  13.982  1.00  0.00     0.022 A 
BRANCH  66  69
ATOM     69  S   UNL     1       7.441  -4.832  14.206  1.00  0.00     0.127 S 
ATOM     70  O   UNL     1       8.178  -5.023  12.957  1.00  0.00    -0.237 OA
ATOM     71  O   UNL     1       8.280  -4.558  15.373  1.00  0.00    -0.237 OA
ATOM     72  O   UNL     1       6.359  -5.777  14.445  1.00  0.00    -0.744 OA
ENDBRANCH  66  69
ENDBRANCH  48  62
BRANCH  49  73
ATOM     73  C   UNL     1      -5.028  -0.760  11.692  1.00  0.00     0.023 A 
ATOM     74  C   UNL     1      -5.769   0.243  12.347  1.00  0.00     0.012 A 
ATOM     75  C   UNL     1      -5.681  -1.611  10.779  1.00  0.00     0.148 A 
ATOM     76  C   UNL     1      -7.139   0.376  12.122  1.00  0.00     0.002 A 
ATOM     77  C   UNL     1      -7.037  -1.439  10.520  1.00  0.00     0.091 A 
ATOM     78  F   UNL     1      -4.964  -2.572  10.181  1.00  0.00    -0.205 F 
ATOM     79  C   UNL     1      -7.771  -0.457  11.202  1.00  0.00     0.022 A 
BRANCH  77  80
ATOM     80  S   UNL     1      -7.904  -2.390   9.267  1.00  0.00     0.127 S 
ATOM     81  O   UNL     1      -8.728  -3.279  10.083  1.00  0.00    -0.237 OA
ATOM     82  O   UNL     1      -8.644  -1.349   8.552  1.00  0.00    -0.237 OA
ATOM     83  O   UNL     1      -6.866  -3.037   8.476  1.00  0.00    -0.744 OA
ENDBRANCH  77  80
ENDBRANCH  49  73
BRANCH  61  84
ATOM     84  C   UNL     1      -1.351  -2.432  17.389  1.00  0.00     0.023 A 
ATOM     85  C   UNL     1      -1.940  -3.683  17.659  1.00  0.00     0.012 A 
ATOM     86  C   UNL     1      -1.084  -1.551  18.456  1.00  0.00     0.148 A 
ATOM     87  C   UNL     1      -2.291  -4.037  18.961  1.00  0.00     0.002 A 
ATOM     88  C   UNL     1      -1.393  -1.930  19.758  1.00  0.00     0.091 A 
ATOM     89  F   UNL     1      -0.541  -0.356  18.181  1.00  0.00    -0.205 F 
ATOM     90  C   UNL     1      -2.007  -3.166  20.011  1.00  0.00     0.022 A 
BRANCH  88  91
ATOM     91  S   UNL     1      -0.972  -0.908  21.175  1.00  0.00     0.127 S 
ATOM     92  O   UNL     1      -2.260  -0.296  21.495  1.00  0.00    -0.237 OA
ATOM     93  O   UNL     1      -0.507  -1.897  22.149  1.00  0.00    -0.237 OA
ATOM     94  O   UNL     1       0.063   0.006  20.709  1.00  0.00    -0.744 OA
ENDBRANCH  88  91
ENDBRANCH  61  84
ENDBRANCH  35  36
ENDBRANCH  28  30
ENDBRANCH  27  28
ENDBRANCH  26  27
ENDBRANCH  25  26
ENDBRANCH   1  25
TORSDOF 20
