REMARK SMILES CCCCCCNC(=O)Oc1cccc(-c2ccc([C@@H](C)C(=O)OCCOCCOC(=O)c3ccc(-c4c5nc(c(-c6cccc(S(=O)(=O)[O-])c6F)c6ccc([nH]6)c(-c6cccc(S(=O)(=O)[O-])c6F)c6nc(c(-c7cccc(S(=O)(=O)[O-])c7F)c7ccc4[nH]7)C=C6)C=C5)cc3)cc2O)c1
REMARK SMILES IDX 24 1 22 2 23 3 20 4 21 5 19 6 16 7 17 8 97 9 18 10 96 11
REMARK SMILES IDX 15 12 11 13 12 14 99 15 13 16 14 17 10 18 8 19 7 20 9 22
REMARK SMILES IDX 6 23 5 24 4 25 3 26 2 27 1 28 98 29 25 31 26 32 27 33 28 34
REMARK SMILES IDX 29 35 30 36 31 37 32 38 33 39 34 40 95 41 35 42 94 43 36 44
REMARK SMILES IDX 37 45 38 46 88 47 39 48 93 49 87 50 89 51 40 52 92 53 86 54
REMARK SMILES IDX 85 55 41 57 73 58 53 59 72 60 54 61 57 62 71 63 90 64 55 65
REMARK SMILES IDX 56 66 70 68 91 69 58 70 42 71 43 72 51 73 44 74 46 75 52 76
REMARK SMILES IDX 45 77 47 78 48 79 49 80 50 81 74 82 75 83 83 84 76 85 78 86
REMARK SMILES IDX 84 87 77 88 79 89 80 90 81 91 82 92 59 93 60 94 68 95 61 96
REMARK SMILES IDX 63 97 69 98 62 99 64 100 65 101 66 102 67 103
REMARK H PARENT 7 21 98 30 89 56 57 67
REMARK Flexibility Score: inf
ROOT
ATOM      1  O   UNL     1      -3.719 -12.489   8.239  1.00  0.00    -0.463 OA
ENDROOT
BRANCH   1   2
ATOM      2  C   UNL     1      -4.251 -11.679   9.188  1.00  0.00     0.313 C 
ATOM      3  O   UNL     1      -3.983 -11.742  10.386  1.00  0.00    -0.252 OA
BRANCH   2   4
ATOM      4  C   UNL     1      -5.258 -10.679   8.647  1.00  0.00     0.126 C 
ATOM      5  C   UNL     1      -6.668 -11.237   8.822  1.00  0.00     0.025 C 
BRANCH   4   6
ATOM      6  C   UNL     1      -5.037 -10.121   7.245  1.00  0.00    -0.030 A 
ATOM      7  C   UNL     1      -4.920  -8.927   4.647  1.00  0.00     0.024 A 
ATOM      8  C   UNL     1      -5.095 -10.312   4.815  1.00  0.00     0.013 A 
ATOM      9  C   UNL     1      -4.754  -8.164   5.815  1.00  0.00     0.123 A 
ATOM     10  C   UNL     1      -5.161 -10.900   6.089  1.00  0.00     0.005 A 
ATOM     11  C   UNL     1      -4.793  -8.748   7.086  1.00  0.00     0.051 A 
BRANCH   7  12
ATOM     12  C   UNL     1      -4.996  -8.327   3.297  1.00  0.00    -0.011 A 
ATOM     13  C   UNL     1      -4.145  -6.856   1.559  1.00  0.00     0.133 A 
ATOM     14  C   UNL     1      -5.285  -7.063   0.785  1.00  0.00     0.047 A 
ATOM     15  C   UNL     1      -3.990  -7.480   2.801  1.00  0.00     0.056 A 
ATOM     16  C   UNL     1      -6.275  -7.922   1.248  1.00  0.00     0.004 A 
ATOM     17  C   UNL     1      -6.133  -8.542   2.493  1.00  0.00     0.009 A 
BRANCH  13  18
ATOM     18  O   UNL     1      -3.242  -5.883   1.093  1.00  0.00    -0.410 OA
BRANCH  18  19
ATOM     19  C   UNL     1      -1.890  -6.179   1.056  1.00  0.00     0.412 C 
ATOM     20  N   UNL     1      -1.121  -5.141   0.614  1.00  0.00    -0.321 N 
ATOM     21  H   UNL     1      -0.153  -5.310   0.549  1.00  0.00     0.167 HD
ATOM     22  O   UNL     1      -1.376  -7.248   1.379  1.00  0.00    -0.224 OA
BRANCH  20  23
ATOM     23  C   UNL     1      -1.571  -3.817   0.231  1.00  0.00     0.119 C 
BRANCH  23  24
ATOM     24  C   UNL     1      -0.985  -2.731   1.135  1.00  0.00     0.021 C 
BRANCH  24  25
ATOM     25  C   UNL     1       0.544  -2.609   1.091  1.00  0.00     0.002 C 
BRANCH  25  26
ATOM     26  C   UNL     1       1.142  -2.287  -0.283  1.00  0.00    -0.000 C 
BRANCH  26  27
ATOM     27  C   UNL     1       0.672  -0.974  -0.914  1.00  0.00    -0.003 C 
ATOM     28  C   UNL     1       1.060   0.255  -0.107  1.00  0.00     0.004 C 
ENDBRANCH  26  27
ENDBRANCH  25  26
ENDBRANCH  24  25
ENDBRANCH  23  24
ENDBRANCH  20  23
ENDBRANCH  18  19
ENDBRANCH  13  18
ENDBRANCH   7  12
BRANCH   9  29
ATOM     29  O   UNL     1      -4.614  -6.799   5.805  1.00  0.00    -0.507 OA
ATOM     30  H   UNL     1      -4.580  -6.338   4.990  1.00  0.00     0.293 HD
ENDBRANCH   9  29
ENDBRANCH   4   6
ENDBRANCH   2   4
ENDBRANCH   1   2
BRANCH   1  31
ATOM     31  C   UNL     1      -2.676 -13.376   8.679  1.00  0.00     0.261 C 
BRANCH  31  32
ATOM     32  C   UNL     1      -1.330 -13.009   8.050  1.00  0.00     0.202 C 
BRANCH  32  33
ATOM     33  O   UNL     1      -0.769 -11.755   8.437  1.00  0.00    -0.374 OA
BRANCH  33  34
ATOM     34  C   UNL     1      -1.314 -10.579   7.836  1.00  0.00     0.202 C 
BRANCH  34  35
ATOM     35  C   UNL     1      -0.908 -10.285   6.386  1.00  0.00     0.261 C 
BRANCH  35  36
ATOM     36  O   UNL     1      -1.458 -11.233   5.457  1.00  0.00    -0.460 OA
BRANCH  36  37
ATOM     37  C   UNL     1      -0.560 -12.088   4.911  1.00  0.00     0.338 C 
ATOM     38  O   UNL     1       0.645 -12.114   5.101  1.00  0.00    -0.246 OA
BRANCH  37  39
ATOM     39  C   UNL     1      -1.272 -13.152   4.177  1.00  0.00     0.060 A 
ATOM     40  C   UNL     1      -0.939 -14.482   4.473  1.00  0.00     0.016 A 
ATOM     41  C   UNL     1      -2.193 -12.856   3.172  1.00  0.00     0.016 A 
ATOM     42  C   UNL     1      -1.486 -15.523   3.725  1.00  0.00     0.010 A 
ATOM     43  C   UNL     1      -2.733 -13.901   2.418  1.00  0.00     0.010 A 
ATOM     44  C   UNL     1      -2.353 -15.234   2.665  1.00  0.00    -0.014 A 
BRANCH  44  45
ATOM     45  C   UNL     1      -2.734 -16.291   1.698  1.00  0.00     0.031 A 
ATOM     46  C   UNL     1      -2.025 -16.338   0.373  1.00  0.00     0.074 A 
ATOM     47  C   UNL     1      -3.722 -17.160   1.974  1.00  0.00     0.049 A 
ATOM     48  N   UNL     1      -2.286 -17.064  -0.681  1.00  0.00    -0.248 NA
ATOM     49  C   UNL     1      -0.869 -15.438   0.213  1.00  0.00     0.031 C 
ATOM     50  C   UNL     1      -4.463 -17.228   3.232  1.00  0.00     0.029 A 
ATOM     51  N   UNL     1      -4.301 -18.127   1.188  1.00  0.00    -0.354 N 
ATOM     52  C   UNL     1      -1.363 -16.675  -1.644  1.00  0.00     0.074 A 
ATOM     53  C   UNL     1      -0.529 -15.655  -1.049  1.00  0.00     0.031 C 
ATOM     54  C   UNL     1      -5.433 -18.151   3.116  1.00  0.00     0.029 A 
ATOM     55  C   UNL     1      -5.404 -18.711   1.766  1.00  0.00     0.049 A 
ATOM     56  H   UNL     1      -3.960 -18.377   0.299  1.00  0.00     0.167 HD
ATOM     57  C   UNL     1      -1.223 -17.130  -2.911  1.00  0.00     0.034 A 
ATOM     58  C   UNL     1      -6.311 -19.564   1.247  1.00  0.00     0.034 A 
ATOM     59  C   UNL     1      -2.037 -18.164  -3.487  1.00  0.00     0.049 A 
ATOM     60  C   UNL     1      -6.147 -20.038  -0.175  1.00  0.00     0.074 A 
ATOM     61  C   UNL     1      -1.942 -18.731  -4.745  1.00  0.00     0.029 A 
ATOM     62  N   UNL     1      -3.101 -18.779  -2.847  1.00  0.00    -0.354 N 
ATOM     63  N   UNL     1      -5.211 -19.737  -1.042  1.00  0.00    -0.248 NA
ATOM     64  C   UNL     1      -7.149 -20.987  -0.685  1.00  0.00     0.031 C 
ATOM     65  C   UNL     1      -2.968 -19.671  -4.877  1.00  0.00     0.029 A 
ATOM     66  C   UNL     1      -3.679 -19.713  -3.688  1.00  0.00     0.049 A 
ATOM     67  H   UNL     1      -3.401 -18.581  -1.931  1.00  0.00     0.167 HD
ATOM     68  C   UNL     1      -5.482 -20.494  -2.178  1.00  0.00     0.074 A 
ATOM     69  C   UNL     1      -6.669 -21.270  -1.889  1.00  0.00     0.031 C 
ATOM     70  C   UNL     1      -4.814 -20.534  -3.356  1.00  0.00     0.034 A 
BRANCH  57  71
ATOM     71  C   UNL     1      -0.139 -16.526  -3.762  1.00  0.00     0.023 A 
ATOM     72  C   UNL     1       1.209 -16.859  -3.519  1.00  0.00     0.012 A 
ATOM     73  C   UNL     1      -0.462 -15.689  -4.848  1.00  0.00     0.148 A 
ATOM     74  C   UNL     1       2.221 -16.347  -4.330  1.00  0.00     0.002 A 
ATOM     75  C   UNL     1       0.548 -15.218  -5.677  1.00  0.00     0.091 A 
ATOM     76  F   UNL     1      -1.748 -15.368  -5.047  1.00  0.00    -0.205 F 
ATOM     77  C   UNL     1       1.891 -15.537  -5.414  1.00  0.00     0.022 A 
BRANCH  75  78
ATOM     78  S   UNL     1       0.217 -14.236  -7.144  1.00  0.00     0.127 S 
ATOM     79  O   UNL     1       0.737 -12.928  -6.749  1.00  0.00    -0.237 OA
ATOM     80  O   UNL     1       1.012 -14.925  -8.161  1.00  0.00    -0.237 OA
ATOM     81  O   UNL     1      -1.222 -14.298  -7.355  1.00  0.00    -0.744 OA
ENDBRANCH  75  78
ENDBRANCH  57  71
BRANCH  58  82
ATOM     82  C   UNL     1      -7.453 -20.037   2.081  1.00  0.00     0.023 A 
ATOM     83  C   UNL     1      -7.509 -21.385   2.483  1.00  0.00     0.012 A 
ATOM     84  C   UNL     1      -8.476 -19.157   2.485  1.00  0.00     0.148 A 
ATOM     85  C   UNL     1      -8.579 -21.856   3.245  1.00  0.00     0.002 A 
ATOM     86  C   UNL     1      -9.509 -19.619   3.291  1.00  0.00     0.091 A 
ATOM     87  F   UNL     1      -8.416 -17.881   2.076  1.00  0.00    -0.205 F 
ATOM     88  C   UNL     1      -9.573 -20.972   3.658  1.00  0.00     0.022 A 
BRANCH  86  89
ATOM     89  S   UNL     1     -10.759 -18.524   3.974  1.00  0.00     0.127 S 
ATOM     90  O   UNL     1     -11.939 -18.896   3.198  1.00  0.00    -0.237 OA
ATOM     91  O   UNL     1     -10.789 -18.936   5.378  1.00  0.00    -0.237 OA
ATOM     92  O   UNL     1     -10.257 -17.174   3.757  1.00  0.00    -0.744 OA
ENDBRANCH  86  89
ENDBRANCH  58  82
BRANCH  70  93
ATOM     93  C   UNL     1      -5.290 -21.494  -4.414  1.00  0.00     0.023 A 
ATOM     94  C   UNL     1      -6.443 -21.199  -5.166  1.00  0.00     0.012 A 
ATOM     95  C   UNL     1      -4.511 -22.621  -4.749  1.00  0.00     0.148 A 
ATOM     96  C   UNL     1      -6.823 -22.021  -6.227  1.00  0.00     0.002 A 
ATOM     97  C   UNL     1      -4.869 -23.406  -5.837  1.00  0.00     0.091 A 
ATOM     98  F   UNL     1      -3.425 -22.888  -4.010  1.00  0.00    -0.205 F 
ATOM     99  C   UNL     1      -6.029 -23.113  -6.572  1.00  0.00     0.022 A 
BRANCH  97 100
ATOM    100  S   UNL     1      -3.854 -24.770  -6.419  1.00  0.00     0.127 S 
ATOM    101  O   UNL     1      -4.700 -25.922  -6.113  1.00  0.00    -0.237 OA
ATOM    102  O   UNL     1      -3.724 -24.471  -7.846  1.00  0.00    -0.237 OA
ATOM    103  O   UNL     1      -2.609 -24.698  -5.668  1.00  0.00    -0.744 OA
ENDBRANCH  97 100
ENDBRANCH  70  93
ENDBRANCH  44  45
ENDBRANCH  37  39
ENDBRANCH  36  37
ENDBRANCH  35  36
ENDBRANCH  34  35
ENDBRANCH  33  34
ENDBRANCH  32  33
ENDBRANCH  31  32
ENDBRANCH   1  31
TORSDOF 27
