REMARK SMILES Cc1ccc(NC(=O)NC[C@@H]2CC[C@@H](C(=O)OCCOCCOC(=O)c3ccc(-c4c5nc(c(-c6cccc(S(=O)(=O)[O-])c6F)c6ccc([nH]6)c(-c6cccc(S(=O)(=O)[O-])c6F)c6nc(c(-c7cccc(S(=O)(=O)[O-])c7F)c7ccc4[nH]7)C=C6)C=C5)cc3)O2)c(F)c1
REMARK SMILES IDX 20 1 19 2 18 3 17 4 15 5 16 6 14 7 11 8 12 9 89 10 13 11
REMARK SMILES IDX 10 12 9 13 6 14 7 15 8 17 5 19 1 20 2 21 3 22 92 23 4 24
REMARK SMILES IDX 90 25 91 26 21 27 22 28 23 29 24 30 25 31 26 32 27 33 88 34
REMARK SMILES IDX 28 35 87 36 29 37 30 38 31 39 81 40 32 41 86 42 80 43 82 44
REMARK SMILES IDX 33 45 85 46 79 47 78 48 34 50 66 51 46 52 65 53 47 54 50 55
REMARK SMILES IDX 64 56 83 57 48 58 49 59 63 61 84 62 51 63 35 64 36 65 44 66
REMARK SMILES IDX 37 67 39 68 45 69 38 70 40 71 41 72 42 73 43 74 67 75 68 76
REMARK SMILES IDX 76 77 69 78 71 79 77 80 70 81 72 82 73 83 74 84 75 85 52 86
REMARK SMILES IDX 53 87 61 88 54 89 56 90 62 91 55 92 57 93 58 94 59 95 60 96
REMARK H PARENT 6 16 9 18 82 49 50 60
REMARK Flexibility Score: inf
ROOT
ATOM      1  O   UNL     1      -4.511   6.678  -4.942  1.00  0.00    -0.374 OA
ENDROOT
BRANCH   1   2
ATOM      2  C   UNL     1      -5.853   6.289  -4.633  1.00  0.00     0.202 C 
BRANCH   2   3
ATOM      3  C   UNL     1      -6.048   4.840  -4.180  1.00  0.00     0.261 C 
BRANCH   3   4
ATOM      4  O   UNL     1      -5.550   4.696  -2.841  1.00  0.00    -0.461 OA
BRANCH   4   5
ATOM      5  C   UNL     1      -4.763   3.610  -2.607  1.00  0.00     0.335 C 
ATOM      6  O   UNL     1      -4.575   2.690  -3.393  1.00  0.00    -0.249 OA
BRANCH   5   7
ATOM      7  C   UNL     1      -4.027   3.781  -1.274  1.00  0.00     0.228 C 
ATOM      8  C   UNL     1      -2.954   1.854  -0.603  1.00  0.00     0.138 C 
ATOM      9  C   UNL     1      -1.879   2.919  -0.641  1.00  0.00     0.037 C 
ATOM     10  O   UNL     1      -4.170   2.607  -0.463  1.00  0.00    -0.361 OA
ATOM     11  C   UNL     1      -2.525   3.967  -1.520  1.00  0.00     0.047 C 
BRANCH   8  12
ATOM     12  C   UNL     1      -2.826   0.840   0.533  1.00  0.00     0.149 C 
BRANCH  12  13
ATOM     13  N   UNL     1      -3.476  -0.408   0.149  1.00  0.00    -0.335 N 
ATOM     14  N   UNL     1      -1.794  -2.088   0.115  1.00  0.00    -0.305 N 
ATOM     15  C   UNL     1      -3.071  -1.675  -0.001  1.00  0.00     0.319 C 
ATOM     16  H   UNL     1      -1.724  -3.035   0.372  1.00  0.00     0.171 HD
ATOM     17  O   UNL     1      -3.937  -2.545  -0.129  1.00  0.00    -0.249 OA
ATOM     18  H   UNL     1      -4.434  -0.291  -0.046  1.00  0.00     0.165 HD
BRANCH  14  19
ATOM     19  C   UNL     1      -0.543  -1.478  -0.046  1.00  0.00     0.078 A 
ATOM     20  C   UNL     1       3.262   0.545   0.078  1.00  0.00     0.044 C 
ATOM     21  C   UNL     1       1.983  -0.224  -0.062  1.00  0.00    -0.048 A 
ATOM     22  C   UNL     1       1.770  -1.386   0.687  1.00  0.00     0.006 A 
ATOM     23  C   UNL     1       0.955   0.243  -0.883  1.00  0.00     0.045 A 
ATOM     24  C   UNL     1       0.522  -2.018   0.680  1.00  0.00     0.029 A 
ATOM     25  C   UNL     1      -0.282  -0.404  -0.894  1.00  0.00     0.147 A 
ATOM     26  F   UNL     1      -1.203   0.022  -1.765  1.00  0.00    -0.205 F 
ENDBRANCH  14  19
ENDBRANCH  12  13
ENDBRANCH   8  12
ENDBRANCH   5   7
ENDBRANCH   4   5
ENDBRANCH   3   4
ENDBRANCH   2   3
ENDBRANCH   1   2
BRANCH   1  27
ATOM     27  C   UNL     1      -3.557   6.687  -3.883  1.00  0.00     0.202 C 
BRANCH  27  28
ATOM     28  C   UNL     1      -3.619   7.859  -2.895  1.00  0.00     0.261 C 
BRANCH  28  29
ATOM     29  O   UNL     1      -4.868   7.938  -2.192  1.00  0.00    -0.460 OA
BRANCH  29  30
ATOM     30  C   UNL     1      -5.623   9.018  -2.518  1.00  0.00     0.338 C 
ATOM     31  O   UNL     1      -5.326   9.920  -3.282  1.00  0.00    -0.246 OA
BRANCH  30  32
ATOM     32  C   UNL     1      -6.973   8.892  -1.941  1.00  0.00     0.060 A 
ATOM     33  C   UNL     1      -8.054   8.886  -2.831  1.00  0.00     0.016 A 
ATOM     34  C   UNL     1      -7.186   8.888  -0.561  1.00  0.00     0.016 A 
ATOM     35  C   UNL     1      -9.357   8.918  -2.344  1.00  0.00     0.010 A 
ATOM     36  C   UNL     1      -8.498   8.931  -0.074  1.00  0.00     0.010 A 
ATOM     37  C   UNL     1      -9.586   8.983  -0.964  1.00  0.00    -0.014 A 
BRANCH  37  38
ATOM     38  C   UNL     1     -10.961   9.243  -0.477  1.00  0.00     0.031 A 
ATOM     39  C   UNL     1     -11.360  10.648  -0.120  1.00  0.00     0.074 A 
ATOM     40  C   UNL     1     -11.855   8.242  -0.387  1.00  0.00     0.049 A 
ATOM     41  N   UNL     1     -12.522  11.104   0.270  1.00  0.00    -0.248 NA
ATOM     42  C   UNL     1     -10.312  11.678  -0.214  1.00  0.00     0.031 C 
ATOM     43  C   UNL     1     -11.583   6.839  -0.695  1.00  0.00     0.029 A 
ATOM     44  N   UNL     1     -13.169   8.254   0.005  1.00  0.00    -0.354 N 
ATOM     45  C   UNL     1     -12.344  12.465   0.485  1.00  0.00     0.074 A 
ATOM     46  C   UNL     1     -10.957  12.760   0.198  1.00  0.00     0.031 C 
ATOM     47  C   UNL     1     -12.692   6.118  -0.456  1.00  0.00     0.029 A 
ATOM     48  C   UNL     1     -13.747   7.007   0.029  1.00  0.00     0.049 A 
ATOM     49  H   UNL     1     -13.652   9.076   0.247  1.00  0.00     0.167 HD
ATOM     50  C   UNL     1     -13.256  13.389   0.867  1.00  0.00     0.034 A 
ATOM     51  C   UNL     1     -14.984   6.627   0.406  1.00  0.00     0.034 A 
ATOM     52  C   UNL     1     -14.640  13.099   1.129  1.00  0.00     0.049 A 
ATOM     53  C   UNL     1     -15.980   7.676   0.828  1.00  0.00     0.074 A 
ATOM     54  C   UNL     1     -15.655  13.977   1.465  1.00  0.00     0.029 A 
ATOM     55  N   UNL     1     -15.202  11.832   1.096  1.00  0.00    -0.354 N 
ATOM     56  N   UNL     1     -15.834   8.978   0.884  1.00  0.00    -0.248 NA
ATOM     57  C   UNL     1     -17.323   7.206   1.200  1.00  0.00     0.031 C 
ATOM     58  C   UNL     1     -16.828  13.238   1.655  1.00  0.00     0.029 A 
ATOM     59  C   UNL     1     -16.546  11.902   1.419  1.00  0.00     0.049 A 
ATOM     60  H   UNL     1     -14.716  11.005   0.876  1.00  0.00     0.167 HD
ATOM     61  C   UNL     1     -17.071   9.485   1.267  1.00  0.00     0.074 A 
ATOM     62  C   UNL     1     -17.962   8.351   1.405  1.00  0.00     0.031 C 
ATOM     63  C   UNL     1     -17.434  10.771   1.500  1.00  0.00     0.034 A 
BRANCH  50  64
ATOM     64  C   UNL     1     -12.794  14.816   0.988  1.00  0.00     0.023 A 
ATOM     65  C   UNL     1     -12.560  15.571  -0.180  1.00  0.00     0.012 A 
ATOM     66  C   UNL     1     -12.646  15.427   2.248  1.00  0.00     0.148 A 
ATOM     67  C   UNL     1     -12.162  16.904  -0.095  1.00  0.00     0.002 A 
ATOM     68  C   UNL     1     -12.285  16.767   2.324  1.00  0.00     0.091 A 
ATOM     69  F   UNL     1     -12.848  14.685   3.346  1.00  0.00    -0.205 F 
ATOM     70  C   UNL     1     -12.035  17.505   1.155  1.00  0.00     0.022 A 
BRANCH  68  71
ATOM     71  S   UNL     1     -12.163  17.647   3.885  1.00  0.00     0.127 S 
ATOM     72  O   UNL     1     -10.715  17.785   4.033  1.00  0.00    -0.237 OA
ATOM     73  O   UNL     1     -12.867  18.896   3.593  1.00  0.00    -0.237 OA
ATOM     74  O   UNL     1     -12.816  16.801   4.873  1.00  0.00    -0.744 OA
ENDBRANCH  68  71
ENDBRANCH  50  64
BRANCH  51  75
ATOM     75  C   UNL     1     -15.364   5.188   0.356  1.00  0.00     0.023 A 
ATOM     76  C   UNL     1     -16.291   4.744  -0.607  1.00  0.00     0.012 A 
ATOM     77  C   UNL     1     -14.796   4.254   1.244  1.00  0.00     0.148 A 
ATOM     78  C   UNL     1     -16.664   3.401  -0.668  1.00  0.00     0.002 A 
ATOM     79  C   UNL     1     -15.132   2.909   1.143  1.00  0.00     0.091 A 
ATOM     80  F   UNL     1     -13.933   4.700   2.168  1.00  0.00    -0.205 F 
ATOM     81  C   UNL     1     -16.077   2.482   0.198  1.00  0.00     0.022 A 
BRANCH  79  82
ATOM     82  S   UNL     1     -14.328   1.646   2.136  1.00  0.00     0.127 S 
ATOM     83  O   UNL     1     -15.370   1.319   3.105  1.00  0.00    -0.237 OA
ATOM     84  O   UNL     1     -14.059   0.605   1.144  1.00  0.00    -0.237 OA
ATOM     85  O   UNL     1     -13.132   2.280   2.676  1.00  0.00    -0.744 OA
ENDBRANCH  79  82
ENDBRANCH  51  75
BRANCH  63  86
ATOM     86  C   UNL     1     -18.860  11.031   1.909  1.00  0.00     0.023 A 
ATOM     87  C   UNL     1     -19.286  10.688   3.208  1.00  0.00     0.012 A 
ATOM     88  C   UNL     1     -19.757  11.679   1.037  1.00  0.00     0.148 A 
ATOM     89  C   UNL     1     -20.591  10.956   3.621  1.00  0.00     0.002 A 
ATOM     90  C   UNL     1     -21.042  11.984   1.471  1.00  0.00     0.091 A 
ATOM     91  F   UNL     1     -19.342  11.980  -0.202  1.00  0.00    -0.205 F 
ATOM     92  C   UNL     1     -21.464  11.614   2.758  1.00  0.00     0.022 A 
BRANCH  90  93
ATOM     93  S   UNL     1     -22.198  12.913   0.456  1.00  0.00     0.127 S 
ATOM     94  O   UNL     1     -23.078  11.856  -0.038  1.00  0.00    -0.237 OA
ATOM     95  O   UNL     1     -22.816  13.816   1.428  1.00  0.00    -0.237 OA
ATOM     96  O   UNL     1     -21.388  13.583  -0.553  1.00  0.00    -0.744 OA
ENDBRANCH  90  93
ENDBRANCH  63  86
ENDBRANCH  37  38
ENDBRANCH  30  32
ENDBRANCH  29  30
ENDBRANCH  28  29
ENDBRANCH  27  28
ENDBRANCH   1  27
TORSDOF 20
