REMARK SMILES CN1C(=O)C[C@@H](C(=O)OCCOCCOC(=O)c2ccc(-c3c4nc(c(-c5cccc(S(=O)(=O)[O-])c5F)c5ccc([nH]5)c(-c5cccc(S(=O)(=O)[O-])c5F)c5nc(c(-c6cccc(S(=O)(=O)[O-])c6F)c6ccc3[nH]6)C=C5)C=C4)cc2)C12CCN(S(=O)(=O)c1ccccc1F)CC2
REMARK SMILES IDX 13 1 12 2 11 3 10 4 9 5 7 6 8 7 6 8 1 9 2 10 3 11 81 12 4 13
REMARK SMILES IDX 5 14 82 15 96 16 83 17 95 18 84 19 85 20 86 21 87 22 88 23
REMARK SMILES IDX 89 24 93 25 90 26 92 27 94 28 91 29 14 30 15 31 16 32 17 33
REMARK SMILES IDX 18 34 19 35 80 36 20 37 79 38 21 39 22 40 23 41 73 42 24 43
REMARK SMILES IDX 78 44 72 45 74 46 25 47 77 48 71 49 70 50 26 52 58 53 38 54
REMARK SMILES IDX 57 55 39 56 42 57 56 58 75 59 40 60 41 61 55 63 76 64 43 65
REMARK SMILES IDX 27 66 28 67 36 68 29 69 31 70 37 71 30 72 32 73 33 74 34 75
REMARK SMILES IDX 35 76 59 77 60 78 68 79 61 80 63 81 69 82 62 83 64 84 65 85
REMARK SMILES IDX 66 86 67 87 44 88 45 89 53 90 46 91 48 92 54 93 47 94 49 95
REMARK SMILES IDX 50 96 51 97 52 98
REMARK H PARENT 74 51 42 62
REMARK Flexibility Score: inf
ROOT
ATOM      1  C   UNL     1      -4.883  -2.042   2.866  1.00  0.00     0.202 C 
ENDROOT
BRANCH   1   2
ATOM      2  O   UNL     1      -4.914  -1.581   4.214  1.00  0.00    -0.374 OA
BRANCH   2   3
ATOM      3  C   UNL     1      -4.093  -0.466   4.554  1.00  0.00     0.202 C 
BRANCH   3   4
ATOM      4  C   UNL     1      -2.572  -0.686   4.608  1.00  0.00     0.261 C 
BRANCH   4   5
ATOM      5  O   UNL     1      -1.921  -1.023   3.361  1.00  0.00    -0.463 OA
BRANCH   5   6
ATOM      6  C   UNL     1      -1.497  -2.304   3.253  1.00  0.00     0.311 C 
ATOM      7  O   UNL     1      -1.834  -3.204   4.019  1.00  0.00    -0.252 OA
BRANCH   6   8
ATOM      8  C   UNL     1      -0.466  -2.582   2.169  1.00  0.00     0.134 C 
ATOM      9  C   UNL     1       1.065   0.314   0.321  1.00  0.00     0.147 C 
ATOM     10  N   UNL     1       0.723  -0.823   1.164  1.00  0.00    -0.339 N 
ATOM     11  C   UNL     1       1.468  -1.168   2.276  1.00  0.00     0.223 C 
ATOM     12  C   UNL     1      -0.335  -1.789   0.842  1.00  0.00     0.059 C 
ATOM     13  O   UNL     1       2.452  -0.594   2.710  1.00  0.00    -0.275 OA
ATOM     14  C   UNL     1       0.909  -2.442   2.842  1.00  0.00     0.118 C 
ATOM     15  C   UNL     1      -1.608  -1.098   0.340  1.00  0.00     0.046 C 
ATOM     16  C   UNL     1       0.203  -2.742  -0.283  1.00  0.00     0.046 C 
ATOM     17  C   UNL     1      -2.607  -2.080  -0.240  1.00  0.00     0.105 C 
ATOM     18  C   UNL     1      -0.861  -3.607  -0.969  1.00  0.00     0.105 C 
ATOM     19  N   UNL     1      -2.044  -2.807  -1.395  1.00  0.00    -0.198 NA
BRANCH  19  20
ATOM     20  S   UNL     1      -1.860  -2.001  -2.904  1.00  0.00     0.245 S 
ATOM     21  O   UNL     1      -0.864  -0.961  -2.757  1.00  0.00    -0.207 OA
ATOM     22  O   UNL     1      -1.654  -3.048  -3.886  1.00  0.00    -0.207 OA
BRANCH  20  23
ATOM     23  C   UNL     1      -3.411  -1.235  -3.272  1.00  0.00     0.118 A 
ATOM     24  C   UNL     1      -4.215  -1.730  -4.306  1.00  0.00     0.025 A 
ATOM     25  C   UNL     1      -3.787  -0.066  -2.615  1.00  0.00     0.143 A 
ATOM     26  C   UNL     1      -5.408  -1.076  -4.633  1.00  0.00     0.002 A 
ATOM     27  C   UNL     1      -4.992   0.564  -2.913  1.00  0.00     0.041 A 
ATOM     28  F   UNL     1      -3.030   0.476  -1.655  1.00  0.00    -0.206 F 
ATOM     29  C   UNL     1      -5.804   0.060  -3.926  1.00  0.00     0.003 A 
ENDBRANCH  20  23
ENDBRANCH  19  20
ENDBRANCH   6   8
ENDBRANCH   5   6
ENDBRANCH   4   5
ENDBRANCH   3   4
ENDBRANCH   2   3
ENDBRANCH   1   2
BRANCH   1  30
ATOM     30  C   UNL     1      -5.405  -1.066   1.809  1.00  0.00     0.261 C 
BRANCH  30  31
ATOM     31  O   UNL     1      -4.600   0.122   1.770  1.00  0.00    -0.460 OA
BRANCH  31  32
ATOM     32  C   UNL     1      -5.238   1.189   1.237  1.00  0.00     0.338 C 
ATOM     33  O   UNL     1      -6.236   1.164   0.539  1.00  0.00    -0.246 OA
BRANCH  32  34
ATOM     34  C   UNL     1      -4.644   2.433   1.758  1.00  0.00     0.060 A 
ATOM     35  C   UNL     1      -5.176   2.984   2.931  1.00  0.00     0.016 A 
ATOM     36  C   UNL     1      -3.685   3.126   1.019  1.00  0.00     0.016 A 
ATOM     37  C   UNL     1      -4.799   4.268   3.328  1.00  0.00     0.010 A 
ATOM     38  C   UNL     1      -3.300   4.410   1.428  1.00  0.00     0.010 A 
ATOM     39  C   UNL     1      -3.894   5.010   2.554  1.00  0.00    -0.014 A 
BRANCH  39  40
ATOM     40  C   UNL     1      -3.700   6.456   2.848  1.00  0.00     0.031 A 
ATOM     41  C   UNL     1      -4.395   7.484   1.990  1.00  0.00     0.074 A 
ATOM     42  C   UNL     1      -2.954   6.855   3.895  1.00  0.00     0.049 A 
ATOM     43  N   UNL     1      -4.431   8.786   2.120  1.00  0.00    -0.248 NA
ATOM     44  C   UNL     1      -5.153   6.979   0.832  1.00  0.00     0.031 C 
ATOM     45  C   UNL     1      -2.218   5.966   4.792  1.00  0.00     0.029 A 
ATOM     46  N   UNL     1      -2.686   8.114   4.374  1.00  0.00    -0.354 N 
ATOM     47  C   UNL     1      -5.196   9.256   1.058  1.00  0.00     0.074 A 
ATOM     48  C   UNL     1      -5.587   8.102   0.278  1.00  0.00     0.031 C 
ATOM     49  C   UNL     1      -1.574   6.708   5.710  1.00  0.00     0.029 A 
ATOM     50  C   UNL     1      -1.840   8.123   5.459  1.00  0.00     0.049 A 
ATOM     51  H   UNL     1      -3.063   8.932   3.978  1.00  0.00     0.167 HD
ATOM     52  C   UNL     1      -5.562  10.528   0.769  1.00  0.00     0.034 A 
ATOM     53  C   UNL     1      -1.336   9.155   6.167  1.00  0.00     0.034 A 
ATOM     54  C   UNL     1      -5.191  11.675   1.554  1.00  0.00     0.049 A 
ATOM     55  C   UNL     1      -1.752  10.561   5.819  1.00  0.00     0.074 A 
ATOM     56  C   UNL     1      -5.554  12.997   1.370  1.00  0.00     0.029 A 
ATOM     57  N   UNL     1      -4.362  11.639   2.664  1.00  0.00    -0.354 N 
ATOM     58  N   UNL     1      -2.590  10.972   4.898  1.00  0.00    -0.248 NA
ATOM     59  C   UNL     1      -1.181  11.645   6.633  1.00  0.00     0.031 C 
ATOM     60  C   UNL     1      -4.923  13.765   2.354  1.00  0.00     0.029 A 
ATOM     61  C   UNL     1      -4.189  12.917   3.168  1.00  0.00     0.049 A 
ATOM     62  H   UNL     1      -3.954  10.825   3.038  1.00  0.00     0.167 HD
ATOM     63  C   UNL     1      -2.672  12.353   5.043  1.00  0.00     0.074 A 
ATOM     64  C   UNL     1      -1.819  12.707   6.158  1.00  0.00     0.031 C 
ATOM     65  C   UNL     1      -3.378  13.250   4.310  1.00  0.00     0.034 A 
BRANCH  52  66
ATOM     66  C   UNL     1      -6.444  10.747  -0.434  1.00  0.00     0.023 A 
ATOM     67  C   UNL     1      -7.802  10.372  -0.377  1.00  0.00     0.012 A 
ATOM     68  C   UNL     1      -5.949  11.377  -1.593  1.00  0.00     0.148 A 
ATOM     69  C   UNL     1      -8.646  10.592  -1.465  1.00  0.00     0.002 A 
ATOM     70  C   UNL     1      -6.806  11.630  -2.658  1.00  0.00     0.091 A 
ATOM     71  F   UNL     1      -4.651  11.709  -1.635  1.00  0.00    -0.205 F 
ATOM     72  C   UNL     1      -8.151  11.229  -2.600  1.00  0.00     0.022 A 
BRANCH  70  73
ATOM     73  S   UNL     1      -6.285  12.509  -4.135  1.00  0.00     0.127 S 
ATOM     74  O   UNL     1      -6.299  11.440  -5.133  1.00  0.00    -0.237 OA
ATOM     75  O   UNL     1      -7.348  13.502  -4.293  1.00  0.00    -0.237 OA
ATOM     76  O   UNL     1      -4.974  13.064  -3.832  1.00  0.00    -0.744 OA
ENDBRANCH  70  73
ENDBRANCH  52  66
BRANCH  53  77
ATOM     77  C   UNL     1      -0.415   8.897   7.311  1.00  0.00     0.023 A 
ATOM     78  C   UNL     1      -0.842   9.165   8.627  1.00  0.00     0.012 A 
ATOM     79  C   UNL     1       0.879   8.381   7.102  1.00  0.00     0.148 A 
ATOM     80  C   UNL     1       0.013   8.954   9.710  1.00  0.00     0.002 A 
ATOM     81  C   UNL     1       1.705   8.121   8.189  1.00  0.00     0.091 A 
ATOM     82  F   UNL     1       1.276   8.154   5.842  1.00  0.00    -0.205 F 
ATOM     83  C   UNL     1       1.282   8.422   9.492  1.00  0.00     0.022 A 
BRANCH  81  84
ATOM     84  S   UNL     1       3.303   7.319   8.011  1.00  0.00     0.127 S 
ATOM     85  O   UNL     1       4.222   8.421   8.283  1.00  0.00    -0.237 OA
ATOM     86  O   UNL     1       3.244   6.294   9.053  1.00  0.00    -0.237 OA
ATOM     87  O   UNL     1       3.326   6.794   6.653  1.00  0.00    -0.744 OA
ENDBRANCH  81  84
ENDBRANCH  53  77
BRANCH  65  88
ATOM     88  C   UNL     1      -3.286  14.703   4.702  1.00  0.00     0.023 A 
ATOM     89  C   UNL     1      -2.102  15.423   4.447  1.00  0.00     0.012 A 
ATOM     90  C   UNL     1      -4.397  15.372   5.254  1.00  0.00     0.148 A 
ATOM     91  C   UNL     1      -2.013  16.778   4.767  1.00  0.00     0.002 A 
ATOM     92  C   UNL     1      -4.317  16.733   5.525  1.00  0.00     0.091 A 
ATOM     93  F   UNL     1      -5.509  14.667   5.506  1.00  0.00    -0.205 F 
ATOM     94  C   UNL     1      -3.123  17.435   5.294  1.00  0.00     0.022 A 
BRANCH  92  95
ATOM     95  S   UNL     1      -5.726  17.681   6.113  1.00  0.00     0.127 S 
ATOM     96  O   UNL     1      -5.367  17.910   7.512  1.00  0.00    -0.237 OA
ATOM     97  O   UNL     1      -5.674  18.874   5.267  1.00  0.00    -0.237 OA
ATOM     98  O   UNL     1      -6.894  16.839   5.896  1.00  0.00    -0.744 OA
ENDBRANCH  92  95
ENDBRANCH  65  88
ENDBRANCH  39  40
ENDBRANCH  32  34
ENDBRANCH  31  32
ENDBRANCH  30  31
ENDBRANCH   1  30
TORSDOF 19
