REMARK SMILES O=C(CCC(=O)OCCOCCOC(=O)c1ccc(-c2c3nc(c(-c4cccc(S(=O)(=O)[O-])c4F)c4ccc([nH]4)c(-c4cccc(S(=O)(=O)[O-])c4F)c4nc(c(-c5cccc(S(=O)(=O)[O-])c5F)c5ccc2[nH]5)C=C4)C=C3)cc1)Nc1ccccc1C(=O)N1CCN(c2ccc(Cl)cc2)CC1
REMARK SMILES IDX 9 1 8 2 7 3 5 4 6 5 4 6 3 7 2 8 1 9 79 10 80 12 81 13 85 14
REMARK SMILES IDX 82 15 84 16 83 17 86 18 87 19 88 20 89 21 100 22 90 23 99 24
REMARK SMILES IDX 91 25 92 26 93 27 98 28 94 29 97 30 95 31 96 32 10 33 11 34
REMARK SMILES IDX 12 35 13 36 14 37 15 38 16 39 17 40 78 41 18 42 77 43 19 44
REMARK SMILES IDX 20 45 21 46 71 47 22 48 76 49 70 50 72 51 23 52 75 53 69 54
REMARK SMILES IDX 68 55 24 57 56 58 36 59 55 60 37 61 40 62 54 63 73 64 38 65
REMARK SMILES IDX 39 66 53 68 74 69 41 70 25 71 26 72 34 73 27 74 29 75 35 76
REMARK SMILES IDX 28 77 30 78 31 79 32 80 33 81 57 82 58 83 66 84 59 85 61 86
REMARK SMILES IDX 67 87 60 88 62 89 63 90 64 91 65 92 42 93 43 94 51 95 44 96
REMARK SMILES IDX 46 97 52 98 45 99 47 100 48 101 49 102 50 103
REMARK H PARENT 79 11 72 56 40 67
REMARK Flexibility Score: inf
ROOT
ATOM      1  C   UNL     1       6.588   0.779  -2.043  1.00  0.00     0.202 C 
ENDROOT
BRANCH   1   2
ATOM      2  C   UNL     1       6.124  -0.444  -2.825  1.00  0.00     0.261 C 
BRANCH   2   3
ATOM      3  O   UNL     1       4.991  -1.049  -2.175  1.00  0.00    -0.463 OA
BRANCH   3   4
ATOM      4  C   UNL     1       5.227  -2.233  -1.551  1.00  0.00     0.306 C 
ATOM      5  O   UNL     1       6.319  -2.768  -1.427  1.00  0.00    -0.252 OA
BRANCH   4   6
ATOM      6  C   UNL     1       3.940  -2.846  -1.067  1.00  0.00     0.132 C 
BRANCH   6   7
ATOM      7  C   UNL     1       3.180  -1.947  -0.111  1.00  0.00     0.112 C 
BRANCH   7   8
ATOM      8  C   UNL     1       2.148  -1.056  -0.777  1.00  0.00     0.224 C 
ATOM      9  O   UNL     1       1.036  -1.496  -1.049  1.00  0.00    -0.275 OA
ATOM     10  N   UNL     1       2.573   0.244  -1.012  1.00  0.00    -0.325 N 
ATOM     11  H   UNL     1       3.428   0.563  -0.642  1.00  0.00     0.169 HD
BRANCH  10  12
ATOM     12  C   UNL     1       1.764   1.105  -1.790  1.00  0.00     0.054 A 
ATOM     13  C   UNL     1       1.954   0.979  -3.171  1.00  0.00     0.027 A 
ATOM     14  C   UNL     1       0.785   1.998  -1.295  1.00  0.00     0.063 A 
ATOM     15  C   UNL     1       1.128   1.657  -4.056  1.00  0.00     0.002 A 
ATOM     16  C   UNL     1       0.029   2.745  -2.221  1.00  0.00     0.016 A 
ATOM     17  C   UNL     1       0.190   2.567  -3.592  1.00  0.00     0.001 A 
BRANCH  14  18
ATOM     18  C   UNL     1       0.429   2.254   0.139  1.00  0.00     0.256 C 
ATOM     19  O   UNL     1      -0.398   3.105   0.458  1.00  0.00    -0.269 OA
ATOM     20  N   UNL     1       1.034   1.476   1.099  1.00  0.00    -0.335 N 
ATOM     21  C   UNL     1       0.173   0.686   1.961  1.00  0.00     0.141 C 
ATOM     22  C   UNL     1       2.184   2.010   1.799  1.00  0.00     0.141 C 
ATOM     23  C   UNL     1       0.931  -0.533   2.484  1.00  0.00     0.138 C 
ATOM     24  C   UNL     1       3.038   0.891   2.402  1.00  0.00     0.138 C 
ATOM     25  N   UNL     1       2.257  -0.188   3.057  1.00  0.00    -0.368 N 
BRANCH  25  26
ATOM     26  C   UNL     1       2.992  -1.194   3.691  1.00  0.00     0.037 A 
ATOM     27  C   UNL     1       2.767  -2.562   3.459  1.00  0.00     0.027 A 
ATOM     28  C   UNL     1       3.996  -0.865   4.614  1.00  0.00     0.027 A 
ATOM     29  C   UNL     1       3.522  -3.554   4.096  1.00  0.00     0.022 A 
ATOM     30  C   UNL     1       4.741  -1.848   5.275  1.00  0.00     0.022 A 
ATOM     31  C   UNL     1       4.502  -3.191   5.010  1.00  0.00     0.041 A 
ATOM     32  Cl  UNL     1       5.404  -4.403   5.830  1.00  0.00    -0.084 Cl
ENDBRANCH  25  26
ENDBRANCH  14  18
ENDBRANCH  10  12
ENDBRANCH   7   8
ENDBRANCH   6   7
ENDBRANCH   4   6
ENDBRANCH   3   4
ENDBRANCH   2   3
ENDBRANCH   1   2
BRANCH   1  33
ATOM     33  O   UNL     1       7.224   0.458  -0.807  1.00  0.00    -0.374 OA
BRANCH  33  34
ATOM     34  C   UNL     1       6.405   0.589   0.357  1.00  0.00     0.202 C 
BRANCH  34  35
ATOM     35  C   UNL     1       6.218   2.038   0.828  1.00  0.00     0.261 C 
BRANCH  35  36
ATOM     36  O   UNL     1       5.268   2.732  -0.013  1.00  0.00    -0.460 OA
BRANCH  36  37
ATOM     37  C   UNL     1       5.787   3.750  -0.751  1.00  0.00     0.338 C 
ATOM     38  O   UNL     1       6.912   4.204  -0.670  1.00  0.00    -0.246 OA
BRANCH  37  39
ATOM     39  C   UNL     1       4.866   4.106  -1.855  1.00  0.00     0.060 A 
ATOM     40  C   UNL     1       5.379   4.062  -3.160  1.00  0.00     0.016 A 
ATOM     41  C   UNL     1       3.559   4.532  -1.636  1.00  0.00     0.016 A 
ATOM     42  C   UNL     1       4.601   4.477  -4.245  1.00  0.00     0.010 A 
ATOM     43  C   UNL     1       2.782   4.941  -2.731  1.00  0.00     0.010 A 
ATOM     44  C   UNL     1       3.299   4.945  -4.045  1.00  0.00    -0.014 A 
BRANCH  44  45
ATOM     45  C   UNL     1       2.498   5.523  -5.168  1.00  0.00     0.031 A 
ATOM     46  C   UNL     1       2.112   6.980  -5.133  1.00  0.00     0.074 A 
ATOM     47  C   UNL     1       2.064   4.773  -6.202  1.00  0.00     0.049 A 
ATOM     48  N   UNL     1       1.343   7.650  -5.952  1.00  0.00    -0.248 NA
ATOM     49  C   UNL     1       2.692   7.795  -4.053  1.00  0.00     0.031 C 
ATOM     50  C   UNL     1       2.408   3.377  -6.448  1.00  0.00     0.029 A 
ATOM     51  N   UNL     1       1.159   5.066  -7.199  1.00  0.00    -0.354 N 
ATOM     52  C   UNL     1       1.356   8.963  -5.500  1.00  0.00     0.074 A 
ATOM     53  C   UNL     1       2.155   8.982  -4.293  1.00  0.00     0.031 C 
ATOM     54  C   UNL     1       1.606   2.888  -7.410  1.00  0.00     0.029 A 
ATOM     55  C   UNL     1       0.714   3.947  -7.866  1.00  0.00     0.049 A 
ATOM     56  H   UNL     1       0.862   5.980  -7.412  1.00  0.00     0.167 HD
ATOM     57  C   UNL     1       0.803  10.064  -6.063  1.00  0.00     0.034 A 
ATOM     58  C   UNL     1      -0.318   3.773  -8.717  1.00  0.00     0.034 A 
ATOM     59  C   UNL     1       0.016  10.053  -7.267  1.00  0.00     0.049 A 
ATOM     60  C   UNL     1      -1.050   4.976  -9.239  1.00  0.00     0.074 A 
ATOM     61  C   UNL     1      -0.502  11.128  -7.968  1.00  0.00     0.029 A 
ATOM     62  N   UNL     1      -0.403   8.910  -7.928  1.00  0.00    -0.354 N 
ATOM     63  N   UNL     1      -0.887   6.236  -8.919  1.00  0.00    -0.248 NA
ATOM     64  C   UNL     1      -2.036   4.750 -10.306  1.00  0.00     0.031 C 
ATOM     65  C   UNL     1      -1.276  10.633  -9.023  1.00  0.00     0.029 A 
ATOM     66  C   UNL     1      -1.206   9.249  -9.005  1.00  0.00     0.049 A 
ATOM     67  H   UNL     1      -0.165   7.990  -7.671  1.00  0.00     0.167 HD
ATOM     68  C   UNL     1      -1.690   6.958  -9.794  1.00  0.00     0.074 A 
ATOM     69  C   UNL     1      -2.352   5.993 -10.648  1.00  0.00     0.031 C 
ATOM     70  C   UNL     1      -1.842   8.302  -9.886  1.00  0.00     0.034 A 
BRANCH  57  71
ATOM     71  C   UNL     1       1.072  11.388  -5.397  1.00  0.00     0.023 A 
ATOM     72  C   UNL     1       2.373  11.935  -5.434  1.00  0.00     0.012 A 
ATOM     73  C   UNL     1       0.039  12.107  -4.767  1.00  0.00     0.148 A 
ATOM     74  C   UNL     1       2.652  13.150  -4.811  1.00  0.00     0.002 A 
ATOM     75  C   UNL     1       0.315  13.340  -4.189  1.00  0.00     0.091 A 
ATOM     76  F   UNL     1      -1.186  11.565  -4.728  1.00  0.00    -0.205 F 
ATOM     77  C   UNL     1       1.622  13.856  -4.196  1.00  0.00     0.022 A 
BRANCH  75  78
ATOM     78  S   UNL     1      -0.958  14.363  -3.443  1.00  0.00     0.127 S 
ATOM     79  O   UNL     1      -0.640  14.238  -2.021  1.00  0.00    -0.237 OA
ATOM     80  O   UNL     1      -0.672  15.678  -4.018  1.00  0.00    -0.237 OA
ATOM     81  O   UNL     1      -2.229  13.785  -3.855  1.00  0.00    -0.744 OA
ENDBRANCH  75  78
ENDBRANCH  57  71
BRANCH  58  82
ATOM     82  C   UNL     1      -0.686   2.401  -9.165  1.00  0.00     0.023 A 
ATOM     83  C   UNL     1      -0.348   1.972 -10.460  1.00  0.00     0.012 A 
ATOM     84  C   UNL     1      -1.360   1.516  -8.297  1.00  0.00     0.148 A 
ATOM     85  C   UNL     1      -0.699   0.694 -10.898  1.00  0.00     0.002 A 
ATOM     86  C   UNL     1      -1.678   0.234  -8.729  1.00  0.00     0.091 A 
ATOM     87  F   UNL     1      -1.662   1.947  -7.064  1.00  0.00    -0.205 F 
ATOM     88  C   UNL     1      -1.360  -0.175 -10.033  1.00  0.00     0.022 A 
BRANCH  86  89
ATOM     89  S   UNL     1      -2.458  -0.991  -7.670  1.00  0.00     0.127 S 
ATOM     90  O   UNL     1      -3.701  -1.260  -8.389  1.00  0.00    -0.237 OA
ATOM     91  O   UNL     1      -1.477  -2.076  -7.708  1.00  0.00    -0.237 OA
ATOM     92  O   UNL     1      -2.613  -0.350  -6.373  1.00  0.00    -0.744 OA
ENDBRANCH  86  89
ENDBRANCH  58  82
BRANCH  70  93
ATOM     93  C   UNL     1      -2.727   8.841 -10.981  1.00  0.00     0.023 A 
ATOM     94  C   UNL     1      -4.124   8.681 -10.905  1.00  0.00     0.012 A 
ATOM     95  C   UNL     1      -2.174   9.575 -12.051  1.00  0.00     0.148 A 
ATOM     96  C   UNL     1      -4.955   9.218 -11.888  1.00  0.00     0.002 A 
ATOM     97  C   UNL     1      -3.011  10.152 -12.999  1.00  0.00     0.091 A 
ATOM     98  F   UNL     1      -0.841   9.700 -12.119  1.00  0.00    -0.205 F 
ATOM     99  C   UNL     1      -4.400   9.964 -12.927  1.00  0.00     0.022 A 
BRANCH  97 100
ATOM    100  S   UNL     1      -2.399  11.208 -14.318  1.00  0.00     0.127 S 
ATOM    101  O   UNL     1      -2.680  10.399 -15.503  1.00  0.00    -0.237 OA
ATOM    102  O   UNL     1      -3.242  12.396 -14.177  1.00  0.00    -0.237 OA
ATOM    103  O   UNL     1      -0.987  11.428 -14.038  1.00  0.00    -0.744 OA
ENDBRANCH  97 100
ENDBRANCH  70  93
ENDBRANCH  44  45
ENDBRANCH  37  39
ENDBRANCH  36  37
ENDBRANCH  35  36
ENDBRANCH  34  35
ENDBRANCH  33  34
ENDBRANCH   1  33
TORSDOF 22
