REMARK SMILES O=C(OCCOCCOC(=O)[C@H](CO)NC(=O)[C@H]1CC(=O)N(CC(F)(F)F)C1)c1ccc(-c2c3nc(c(-c4cccc(S(=O)(=O)[O-])c4F)c4ccc([nH]4)c(-c4cccc(S(=O)(=O)[O-])c4F)c4nc(c(-c5cccc(S(=O)(=O)[O-])c5F)c5ccc2[nH]5)C=C4)C=C3)cc1
REMARK SMILES IDX 7 1 6 2 5 3 4 4 3 5 2 6 1 7 29 8 30 9 91 10 31 11 90 12
REMARK SMILES IDX 32 13 33 14 34 15 84 16 35 17 89 18 83 19 85 20 36 21 88 22
REMARK SMILES IDX 82 23 81 24 37 26 69 27 49 28 68 29 50 30 53 31 67 32 86 33
REMARK SMILES IDX 51 34 52 35 66 37 87 38 54 39 38 40 39 41 47 42 40 43 42 44
REMARK SMILES IDX 48 45 41 46 43 47 44 48 45 49 46 50 70 51 71 52 79 53 72 54
REMARK SMILES IDX 74 55 80 56 73 57 75 58 76 59 77 60 78 61 55 62 56 63 64 64
REMARK SMILES IDX 57 65 59 66 65 67 58 68 60 69 61 70 62 71 63 72 8 73 9 74
REMARK SMILES IDX 10 75 11 76 12 77 15 78 16 79 17 81 18 82 19 83 28 84 20 85
REMARK SMILES IDX 22 86 21 87 23 88 24 89 25 90 26 91 27 92 13 93 14 94
REMARK H PARENT 85 25 53 36 15 80 14 95
REMARK Flexibility Score: inf
ROOT
ATOM      1  C   UNL     1       6.106  -4.805   3.911  1.00  0.00     0.202 C 
ENDROOT
BRANCH   1   2
ATOM      2  O   UNL     1       7.442  -4.718   3.392  1.00  0.00    -0.374 OA
BRANCH   2   3
ATOM      3  C   UNL     1       7.774  -3.652   2.500  1.00  0.00     0.202 C 
BRANCH   3   4
ATOM      4  C   UNL     1       7.043  -3.488   1.163  1.00  0.00     0.261 C 
BRANCH   4   5
ATOM      5  O   UNL     1       5.629  -3.685   1.294  1.00  0.00    -0.460 OA
BRANCH   5   6
ATOM      6  C   UNL     1       4.943  -4.716   0.731  1.00  0.00     0.338 C 
ATOM      7  O   UNL     1       3.721  -4.661   0.647  1.00  0.00    -0.246 OA
BRANCH   6   8
ATOM      8  C   UNL     1       5.664  -5.928   0.249  1.00  0.00     0.060 A 
ATOM      9  C   UNL     1       6.828  -6.393   0.861  1.00  0.00     0.016 A 
ATOM     10  C   UNL     1       5.118  -6.676  -0.796  1.00  0.00     0.016 A 
ATOM     11  C   UNL     1       7.512  -7.492   0.405  1.00  0.00     0.010 A 
ATOM     12  C   UNL     1       5.743  -7.860  -1.200  1.00  0.00     0.010 A 
ATOM     13  C   UNL     1       6.938  -8.265  -0.589  1.00  0.00    -0.014 A 
BRANCH  13  14
ATOM     14  C   UNL     1       7.631  -9.512  -0.923  1.00  0.00     0.031 A 
ATOM     15  C   UNL     1       8.343  -9.606  -2.225  1.00  0.00     0.074 A 
ATOM     16  C   UNL     1       7.679 -10.485   0.007  1.00  0.00     0.049 A 
ATOM     17  N   UNL     1       8.936 -10.635  -2.754  1.00  0.00    -0.248 NA
ATOM     18  C   UNL     1       8.411  -8.377  -3.037  1.00  0.00     0.031 C 
ATOM     19  C   UNL     1       7.100 -10.398   1.355  1.00  0.00     0.029 A 
ATOM     20  N   UNL     1       8.236 -11.733  -0.029  1.00  0.00    -0.354 N 
ATOM     21  C   UNL     1       9.373 -10.208  -3.997  1.00  0.00     0.074 A 
ATOM     22  C   UNL     1       9.030  -8.810  -4.125  1.00  0.00     0.031 C 
ATOM     23  C   UNL     1       7.317 -11.549   2.006  1.00  0.00     0.029 A 
ATOM     24  C   UNL     1       7.960 -12.480   1.093  1.00  0.00     0.049 A 
ATOM     25  H   UNL     1       8.780 -12.063  -0.781  1.00  0.00     0.167 HD
ATOM     26  C   UNL     1       9.979 -10.947  -4.949  1.00  0.00     0.034 A 
ATOM     27  C   UNL     1       8.137 -13.795   1.314  1.00  0.00     0.034 A 
ATOM     28  C   UNL     1      10.307 -12.332  -4.770  1.00  0.00     0.049 A 
ATOM     29  C   UNL     1       8.756 -14.599   0.205  1.00  0.00     0.074 A 
ATOM     30  C   UNL     1      10.927 -13.191  -5.656  1.00  0.00     0.029 A 
ATOM     31  N   UNL     1      10.013 -13.066  -3.629  1.00  0.00    -0.354 N 
ATOM     32  N   UNL     1       9.217 -14.184  -0.952  1.00  0.00    -0.248 NA
ATOM     33  C   UNL     1       8.882 -16.044   0.423  1.00  0.00     0.031 C 
ATOM     34  C   UNL     1      10.961 -14.458  -5.069  1.00  0.00     0.029 A 
ATOM     35  C   UNL     1      10.405 -14.379  -3.799  1.00  0.00     0.049 A 
ATOM     36  H   UNL     1       9.587 -12.705  -2.818  1.00  0.00     0.167 HD
ATOM     37  C   UNL     1       9.701 -15.313  -1.596  1.00  0.00     0.074 A 
ATOM     38  C   UNL     1       9.511 -16.423  -0.681  1.00  0.00     0.031 C 
ATOM     39  C   UNL     1      10.231 -15.437  -2.837  1.00  0.00     0.034 A 
BRANCH  26  40
ATOM     40  C   UNL     1      10.241 -10.300  -6.275  1.00  0.00     0.023 A 
ATOM     41  C   UNL     1      11.286  -9.369  -6.430  1.00  0.00     0.012 A 
ATOM     42  C   UNL     1       9.452 -10.653  -7.387  1.00  0.00     0.148 A 
ATOM     43  C   UNL     1      11.531  -8.786  -7.674  1.00  0.00     0.002 A 
ATOM     44  C   UNL     1       9.729 -10.103  -8.630  1.00  0.00     0.091 A 
ATOM     45  F   UNL     1       8.441 -11.513  -7.202  1.00  0.00    -0.205 F 
ATOM     46  C   UNL     1      10.761  -9.162  -8.774  1.00  0.00     0.022 A 
BRANCH  44  47
ATOM     47  S   UNL     1       8.838 -10.572 -10.115  1.00  0.00     0.127 S 
ATOM     48  O   UNL     1       8.228  -9.301 -10.506  1.00  0.00    -0.237 OA
ATOM     49  O   UNL     1       9.922 -11.023 -10.986  1.00  0.00    -0.237 OA
ATOM     50  O   UNL     1       7.897 -11.608  -9.714  1.00  0.00    -0.744 OA
ENDBRANCH  44  47
ENDBRANCH  26  40
BRANCH  27  51
ATOM     51  C   UNL     1       7.658 -14.433   2.574  1.00  0.00     0.023 A 
ATOM     52  C   UNL     1       8.576 -15.048   3.445  1.00  0.00     0.012 A 
ATOM     53  C   UNL     1       6.286 -14.452   2.905  1.00  0.00     0.148 A 
ATOM     54  C   UNL     1       8.135 -15.708   4.593  1.00  0.00     0.002 A 
ATOM     55  C   UNL     1       5.860 -15.056   4.082  1.00  0.00     0.091 A 
ATOM     56  F   UNL     1       5.417 -13.880   2.059  1.00  0.00    -0.205 F 
ATOM     57  C   UNL     1       6.780 -15.706   4.916  1.00  0.00     0.022 A 
BRANCH  55  58
ATOM     58  S   UNL     1       4.152 -14.983   4.631  1.00  0.00     0.127 S 
ATOM     59  O   UNL     1       3.692 -16.343   4.362  1.00  0.00    -0.237 OA
ATOM     60  O   UNL     1       4.301 -14.652   6.049  1.00  0.00    -0.237 OA
ATOM     61  O   UNL     1       3.531 -13.931   3.837  1.00  0.00    -0.744 OA
ENDBRANCH  55  58
ENDBRANCH  27  51
BRANCH  39  62
ATOM     62  C   UNL     1      10.663 -16.811  -3.260  1.00  0.00     0.023 A 
ATOM     63  C   UNL     1       9.694 -17.775  -3.596  1.00  0.00     0.012 A 
ATOM     64  C   UNL     1      12.030 -17.102  -3.425  1.00  0.00     0.148 A 
ATOM     65  C   UNL     1      10.083 -19.025  -4.071  1.00  0.00     0.002 A 
ATOM     66  C   UNL     1      12.407 -18.327  -3.954  1.00  0.00     0.091 A 
ATOM     67  F   UNL     1      12.928 -16.168  -3.082  1.00  0.00    -0.205 F 
ATOM     68  C   UNL     1      11.436 -19.294  -4.265  1.00  0.00     0.022 A 
BRANCH  66  69
ATOM     69  S   UNL     1      14.114 -18.718  -4.345  1.00  0.00     0.127 S 
ATOM     70  O   UNL     1      14.403 -19.780  -3.382  1.00  0.00    -0.237 OA
ATOM     71  O   UNL     1      14.015 -19.163  -5.735  1.00  0.00    -0.237 OA
ATOM     72  O   UNL     1      14.867 -17.486  -4.153  1.00  0.00    -0.744 OA
ENDBRANCH  66  69
ENDBRANCH  39  62
ENDBRANCH  13  14
ENDBRANCH   6   8
ENDBRANCH   5   6
ENDBRANCH   4   5
ENDBRANCH   3   4
ENDBRANCH   2   3
ENDBRANCH   1   2
BRANCH   1  73
ATOM     73  C   UNL     1       6.122  -5.530   5.271  1.00  0.00     0.261 C 
BRANCH  73  74
ATOM     74  O   UNL     1       6.823  -4.705   6.216  1.00  0.00    -0.462 OA
BRANCH  74  75
ATOM     75  C   UNL     1       8.183  -4.771   6.059  1.00  0.00     0.331 C 
ATOM     76  O   UNL     1       8.809  -5.793   5.818  1.00  0.00    -0.250 OA
BRANCH  75  77
ATOM     77  C   UNL     1       8.718  -3.345   5.901  1.00  0.00     0.218 C 
BRANCH  77  78
ATOM     78  N   UNL     1       8.414  -2.503   7.056  1.00  0.00    -0.341 N 
ATOM     79  C   UNL     1       7.628  -1.423   7.246  1.00  0.00     0.226 C 
ATOM     80  H   UNL     1       8.885  -2.785   7.873  1.00  0.00     0.164 HD
ATOM     81  O   UNL     1       7.454  -1.093   8.427  1.00  0.00    -0.275 OA
BRANCH  79  82
ATOM     82  C   UNL     1       6.952  -0.588   6.163  1.00  0.00     0.107 C 
ATOM     83  C   UNL     1       7.284   0.893   6.424  1.00  0.00     0.115 C 
ATOM     84  C   UNL     1       7.289  -0.738   4.697  1.00  0.00     0.133 C 
ATOM     85  C   UNL     1       7.150   1.559   5.079  1.00  0.00     0.223 C 
ATOM     86  N   UNL     1       7.086   0.565   4.123  1.00  0.00    -0.333 N 
ATOM     87  O   UNL     1       7.152   2.756   4.870  1.00  0.00    -0.275 OA
BRANCH  86  88
ATOM     88  C   UNL     1       7.074   0.815   2.674  1.00  0.00     0.234 C 
BRANCH  88  89
ATOM     89  C   UNL     1       8.397   0.555   1.953  1.00  0.00     0.406 C 
ATOM     90  F   UNL     1       8.757  -0.749   2.069  1.00  0.00    -0.169 F 
ATOM     91  F   UNL     1       8.292   0.821   0.632  1.00  0.00    -0.169 F 
ATOM     92  F   UNL     1       9.407   1.298   2.450  1.00  0.00    -0.169 F 
ENDBRANCH  88  89
ENDBRANCH  86  88
ENDBRANCH  79  82
ENDBRANCH  77  78
BRANCH  77  93
ATOM     93  C   UNL     1      10.194  -3.348   5.482  1.00  0.00     0.193 C 
BRANCH  93  94
ATOM     94  O   UNL     1      10.857  -2.125   5.803  1.00  0.00    -0.394 OA
ATOM     95  H   UNL     1      10.434  -1.393   5.328  1.00  0.00     0.210 HD
ENDBRANCH  93  94
ENDBRANCH  77  93
ENDBRANCH  75  77
ENDBRANCH  74  75
ENDBRANCH  73  74
ENDBRANCH   1  73
TORSDOF 23
