REMARK SMILES CC[NH2+][C@]1(C(=O)OCCOCCOC(=O)c2ccc(-c3c4nc(c(-c5cccc(S(=O)(=O)[O-])c5F)c5ccc([nH]5)c(-c5cccc(S(=O)(=O)[O-])c5F)c5nc(c(-c6cccc(S(=O)(=O)[O-])c6F)c6ccc3[nH]6)C=C5)C=C4)cc2)CCC[C@@H]([N@@H+](C)CC2CCCC2)C1
REMARK SMILES IDX 10 1 9 2 8 3 7 4 5 5 6 6 4 7 79 8 91 9 80 10 82 11 81 12
REMARK SMILES IDX 3 13 2 16 1 17 83 18 84 19 85 21 86 22 87 23 90 24 88 25
REMARK SMILES IDX 89 26 11 27 12 28 13 29 14 30 15 31 16 32 17 33 78 34 18 35
REMARK SMILES IDX 77 36 19 37 20 38 21 39 71 40 22 41 76 42 70 43 72 44 23 45
REMARK SMILES IDX 75 46 69 47 68 48 24 50 56 51 36 52 55 53 37 54 40 55 54 56
REMARK SMILES IDX 73 57 38 58 39 59 53 61 74 62 41 63 25 64 26 65 34 66 27 67
REMARK SMILES IDX 29 68 35 69 28 70 30 71 31 72 32 73 33 74 57 75 58 76 66 77
REMARK SMILES IDX 59 78 61 79 67 80 60 81 62 82 63 83 64 84 65 85 42 86 43 87
REMARK SMILES IDX 51 88 44 89 46 90 52 91 45 92 47 93 48 94 49 95 50 96
REMARK H PARENT 3 14 3 15 83 20 72 49 40 60
REMARK Flexibility Score: inf
ROOT
ATOM      1  O   UNL     1       2.513  -0.026   2.814  1.00  0.00    -0.374 OA
ENDROOT
BRANCH   1   2
ATOM      2  C   UNL     1       1.971   0.607   1.656  1.00  0.00     0.202 C 
BRANCH   2   3
ATOM      3  C   UNL     1       1.725  -0.252   0.408  1.00  0.00     0.261 C 
BRANCH   3   4
ATOM      4  O   UNL     1       0.829  -1.357   0.629  1.00  0.00    -0.459 OA
BRANCH   4   5
ATOM      5  C   UNL     1       1.425  -2.588   0.667  1.00  0.00     0.368 C 
ATOM      6  O   UNL     1       2.635  -2.767   0.572  1.00  0.00    -0.245 OA
BRANCH   5   7
ATOM      7  C   UNL     1       0.411  -3.737   0.940  1.00  0.00     0.200 C 
ATOM      8  C   UNL     1       1.020  -5.039   0.388  1.00  0.00     0.081 C 
ATOM      9  C   UNL     1       0.288  -3.916   2.474  1.00  0.00     0.146 C 
ATOM     10  C   UNL     1       0.120  -6.242   0.618  1.00  0.00     0.013 C 
ATOM     11  C   UNL     1      -0.480  -5.170   2.935  1.00  0.00     0.190 C 
ATOM     12  C   UNL     1      -0.338  -6.425   2.060  1.00  0.00     0.065 C 
BRANCH   7  13
ATOM     13  N   UNL     1      -0.939  -3.446   0.384  1.00  0.00    -0.332 N 
ATOM     14  H   UNL     1      -1.589  -4.136   0.760  1.00  0.00     0.347 HD
ATOM     15  H   UNL     1      -1.154  -2.487   0.656  1.00  0.00     0.347 HD
BRANCH  13  16
ATOM     16  C   UNL     1      -1.040  -3.482  -1.077  1.00  0.00     0.257 C 
ATOM     17  C   UNL     1      -2.506  -3.525  -1.479  1.00  0.00     0.071 C 
ENDBRANCH  13  16
ENDBRANCH   7  13
BRANCH  11  18
ATOM     18  N   UNL     1      -0.324  -5.450   4.383  1.00  0.00    -0.334 N 
ATOM     19  C   UNL     1      -1.331  -6.359   4.916  1.00  0.00     0.332 C 
ATOM     20  H   UNL     1      -0.515  -4.505   4.715  1.00  0.00     0.348 HD
BRANCH  18  21
ATOM     21  C   UNL     1       0.997  -5.553   5.019  1.00  0.00     0.265 C 
BRANCH  21  22
ATOM     22  C   UNL     1       2.048  -6.665   4.758  1.00  0.00     0.044 C 
ATOM     23  C   UNL     1       1.589  -8.117   4.886  1.00  0.00     0.009 C 
ATOM     24  C   UNL     1       2.829  -6.575   3.444  1.00  0.00     0.009 C 
ATOM     25  C   UNL     1       2.515  -8.914   3.975  1.00  0.00     0.001 C 
ATOM     26  C   UNL     1       2.850  -7.971   2.834  1.00  0.00     0.001 C 
ENDBRANCH  21  22
ENDBRANCH  18  21
ENDBRANCH  11  18
ENDBRANCH   5   7
ENDBRANCH   4   5
ENDBRANCH   3   4
ENDBRANCH   2   3
ENDBRANCH   1   2
BRANCH   1  27
ATOM     27  C   UNL     1       1.619  -0.834   3.576  1.00  0.00     0.202 C 
BRANCH  27  28
ATOM     28  C   UNL     1       0.637  -0.131   4.520  1.00  0.00     0.261 C 
BRANCH  28  29
ATOM     29  O   UNL     1      -0.293   0.706   3.814  1.00  0.00    -0.460 OA
BRANCH  29  30
ATOM     30  C   UNL     1      -0.053   2.035   3.939  1.00  0.00     0.338 C 
ATOM     31  O   UNL     1       0.794   2.567   4.634  1.00  0.00    -0.246 OA
BRANCH  30  32
ATOM     32  C   UNL     1      -0.848   2.783   2.946  1.00  0.00     0.060 A 
ATOM     33  C   UNL     1      -0.155   3.673   2.115  1.00  0.00     0.016 A 
ATOM     34  C   UNL     1      -2.237   2.674   2.873  1.00  0.00     0.016 A 
ATOM     35  C   UNL     1      -0.856   4.509   1.252  1.00  0.00     0.010 A 
ATOM     36  C   UNL     1      -2.940   3.519   2.009  1.00  0.00     0.010 A 
ATOM     37  C   UNL     1      -2.255   4.469   1.229  1.00  0.00    -0.014 A 
BRANCH  37  38
ATOM     38  C   UNL     1      -2.998   5.526   0.503  1.00  0.00     0.031 A 
ATOM     39  C   UNL     1      -3.620   6.650   1.285  1.00  0.00     0.074 A 
ATOM     40  C   UNL     1      -3.098   5.495  -0.838  1.00  0.00     0.049 A 
ATOM     41  N   UNL     1      -4.322   7.667   0.859  1.00  0.00    -0.248 NA
ATOM     42  C   UNL     1      -3.428   6.621   2.745  1.00  0.00     0.031 C 
ATOM     43  C   UNL     1      -2.525   4.465  -1.702  1.00  0.00     0.029 A 
ATOM     44  N   UNL     1      -3.735   6.347  -1.703  1.00  0.00    -0.354 N 
ATOM     45  C   UNL     1      -4.683   8.381   1.995  1.00  0.00     0.074 A 
ATOM     46  C   UNL     1      -4.135   7.673   3.132  1.00  0.00     0.031 C 
ATOM     47  C   UNL     1      -2.857   4.732  -2.976  1.00  0.00     0.029 A 
ATOM     48  C   UNL     1      -3.688   5.934  -3.013  1.00  0.00     0.049 A 
ATOM     49  H   UNL     1      -4.183   7.175  -1.414  1.00  0.00     0.167 HD
ATOM     50  C   UNL     1      -5.393   9.531   2.084  1.00  0.00     0.034 A 
ATOM     51  C   UNL     1      -4.271   6.454  -4.111  1.00  0.00     0.034 A 
ATOM     52  C   UNL     1      -5.923  10.237   0.949  1.00  0.00     0.049 A 
ATOM     53  C   UNL     1      -5.086   7.714  -3.983  1.00  0.00     0.074 A 
ATOM     54  C   UNL     1      -6.615  11.435   0.927  1.00  0.00     0.029 A 
ATOM     55  N   UNL     1      -5.835   9.803  -0.365  1.00  0.00    -0.354 N 
ATOM     56  N   UNL     1      -5.325   8.438  -2.916  1.00  0.00    -0.248 NA
ATOM     57  C   UNL     1      -5.685   8.245  -5.215  1.00  0.00     0.031 C 
ATOM     58  C   UNL     1      -6.980  11.704  -0.396  1.00  0.00     0.029 A 
ATOM     59  C   UNL     1      -6.477  10.697  -1.204  1.00  0.00     0.049 A 
ATOM     60  H   UNL     1      -5.382   8.979  -0.658  1.00  0.00     0.167 HD
ATOM     61  C   UNL     1      -6.070   9.529  -3.353  1.00  0.00     0.074 A 
ATOM     62  C   UNL     1      -6.225   9.378  -4.786  1.00  0.00     0.031 C 
ATOM     63  C   UNL     1      -6.587  10.556  -2.635  1.00  0.00     0.034 A 
BRANCH  50  64
ATOM     64  C   UNL     1      -5.632  10.100   3.460  1.00  0.00     0.023 A 
ATOM     65  C   UNL     1      -4.561  10.665   4.183  1.00  0.00     0.012 A 
ATOM     66  C   UNL     1      -6.924  10.110   4.020  1.00  0.00     0.148 A 
ATOM     67  C   UNL     1      -4.765  11.195   5.457  1.00  0.00     0.002 A 
ATOM     68  C   UNL     1      -7.128  10.684   5.270  1.00  0.00     0.091 A 
ATOM     69  F   UNL     1      -7.926   9.549   3.329  1.00  0.00    -0.205 F 
ATOM     70  C   UNL     1      -6.049  11.213   5.995  1.00  0.00     0.022 A 
BRANCH  68  71
ATOM     71  S   UNL     1      -8.757  10.828   6.014  1.00  0.00     0.127 S 
ATOM     72  O   UNL     1      -8.667   9.864   7.109  1.00  0.00    -0.237 OA
ATOM     73  O   UNL     1      -8.778  12.229   6.436  1.00  0.00    -0.237 OA
ATOM     74  O   UNL     1      -9.710  10.495   4.965  1.00  0.00    -0.744 OA
ENDBRANCH  68  71
ENDBRANCH  50  64
BRANCH  51  75
ATOM     75  C   UNL     1      -4.078   5.796  -5.434  1.00  0.00     0.023 A 
ATOM     76  C   UNL     1      -3.316   6.440  -6.428  1.00  0.00     0.012 A 
ATOM     77  C   UNL     1      -4.626   4.527  -5.703  1.00  0.00     0.148 A 
ATOM     78  C   UNL     1      -3.126   5.844  -7.675  1.00  0.00     0.002 A 
ATOM     79  C   UNL     1      -4.385   3.913  -6.926  1.00  0.00     0.091 A 
ATOM     80  F   UNL     1      -5.359   3.937  -4.748  1.00  0.00    -0.205 F 
ATOM     81  C   UNL     1      -3.651   4.578  -7.920  1.00  0.00     0.022 A 
BRANCH  79  82
ATOM     82  S   UNL     1      -4.909   2.233  -7.283  1.00  0.00     0.127 S 
ATOM     83  O   UNL     1      -5.907   2.446  -8.328  1.00  0.00    -0.237 OA
ATOM     84  O   UNL     1      -3.660   1.621  -7.738  1.00  0.00    -0.237 OA
ATOM     85  O   UNL     1      -5.416   1.700  -6.026  1.00  0.00    -0.744 OA
ENDBRANCH  79  82
ENDBRANCH  51  75
BRANCH  63  86
ATOM     86  C   UNL     1      -7.339  11.627  -3.385  1.00  0.00     0.023 A 
ATOM     87  C   UNL     1      -8.610  11.349  -3.926  1.00  0.00     0.012 A 
ATOM     88  C   UNL     1      -6.814  12.931  -3.490  1.00  0.00     0.148 A 
ATOM     89  C   UNL     1      -9.329  12.341  -4.592  1.00  0.00     0.002 A 
ATOM     90  C   UNL     1      -7.559  13.927  -4.107  1.00  0.00     0.091 A 
ATOM     91  F   UNL     1      -5.596  13.172  -2.982  1.00  0.00    -0.205 F 
ATOM     92  C   UNL     1      -8.810  13.631  -4.672  1.00  0.00     0.022 A 
BRANCH  90  93
ATOM     93  S   UNL     1      -7.016  15.639  -4.171  1.00  0.00     0.127 S 
ATOM     94  O   UNL     1      -6.706  15.800  -5.590  1.00  0.00    -0.237 OA
ATOM     95  O   UNL     1      -8.209  16.358  -3.722  1.00  0.00    -0.237 OA
ATOM     96  O   UNL     1      -5.877  15.734  -3.269  1.00  0.00    -0.744 OA
ENDBRANCH  90  93
ENDBRANCH  63  86
ENDBRANCH  37  38
ENDBRANCH  30  32
ENDBRANCH  29  30
ENDBRANCH  28  29
ENDBRANCH  27  28
ENDBRANCH   1  27
TORSDOF 22
