REMARK SMILES Cc1cccc(N2C(=O)/C(=C/c3ccc(C(=O)OCCOCCOC(=O)c4ccc(-c5c6nc(c(-c7cccc(S(=O)(=O)[O-])c7F)c7ccc([nH]7)c(-c7cccc(S(=O)(=O)[O-])c7F)c7nc(c(-c8cccc(S(=O)(=O)[O-])c8F)c8ccc5[nH]8)C=C7)C=C6)cc4)cc3)c3ccccc3C2=O)c1
REMARK SMILES IDX 22 1 21 2 20 3 19 4 18 5 16 6 17 7 15 8 12 9 13 10 91 11
REMARK SMILES IDX 14 12 90 13 11 14 7 15 8 16 98 17 9 18 10 19 97 20 99 21
REMARK SMILES IDX 92 22 96 23 93 24 95 25 94 26 6 27 1 28 2 29 3 30 100 31
REMARK SMILES IDX 4 32 5 33 23 34 24 35 25 36 26 37 27 38 28 39 89 40 29 41
REMARK SMILES IDX 88 42 30 43 31 44 32 45 82 46 33 47 87 48 81 49 83 50 34 51
REMARK SMILES IDX 86 52 80 53 79 54 35 56 67 57 47 58 66 59 48 60 51 61 65 62
REMARK SMILES IDX 84 63 49 64 50 65 64 67 85 68 52 69 36 70 37 71 45 72 38 73
REMARK SMILES IDX 40 74 46 75 39 76 41 77 42 78 43 79 44 80 68 81 69 82 77 83
REMARK SMILES IDX 70 84 72 85 78 86 71 87 73 88 74 89 75 90 76 91 53 92 54 93
REMARK SMILES IDX 62 94 55 95 57 96 63 97 56 98 58 99 59 100 60 101 61 102
REMARK H PARENT 83 55 51 66
REMARK Flexibility Score: inf
ROOT
ATOM      1  C   UNL     1      -1.611  12.612   1.319  1.00  0.00     0.202 C 
ENDROOT
BRANCH   1   2
ATOM      2  O   UNL     1      -2.944  12.469   0.910  1.00  0.00    -0.374 OA
BRANCH   2   3
ATOM      3  C   UNL     1      -3.867  12.009   1.870  1.00  0.00     0.202 C 
BRANCH   3   4
ATOM      4  C   UNL     1      -4.982  11.422   1.065  1.00  0.00     0.261 C 
BRANCH   4   5
ATOM      5  O   UNL     1      -4.539  10.340   0.198  1.00  0.00    -0.460 OA
BRANCH   5   6
ATOM      6  C   UNL     1      -3.822  10.569  -0.951  1.00  0.00     0.338 C 
ATOM      7  O   UNL     1      -3.483  11.589  -1.478  1.00  0.00    -0.246 OA
BRANCH   6   8
ATOM      8  C   UNL     1      -3.322   9.267  -1.407  1.00  0.00     0.060 A 
ATOM      9  C   UNL     1      -2.095   6.830  -1.373  1.00  0.00    -0.025 A 
ATOM     10  C   UNL     1      -1.346   7.959  -1.719  1.00  0.00     0.009 A 
ATOM     11  C   UNL     1      -3.492   6.891  -1.323  1.00  0.00     0.009 A 
ATOM     12  C   UNL     1      -1.972   9.195  -1.756  1.00  0.00     0.016 A 
ATOM     13  C   UNL     1      -4.110   8.126  -1.292  1.00  0.00     0.016 A 
BRANCH   9  14
ATOM     14  C   UNL     1      -1.387   5.633  -0.933  1.00  0.00     0.022 C 
ATOM     15  N   UNL     1      -1.623   2.516   0.512  1.00  0.00    -0.242 N 
ATOM     16  C   UNL     1      -0.860   3.680   0.296  1.00  0.00     0.265 C 
ATOM     17  C   UNL     1      -2.981   2.606   0.913  1.00  0.00     0.265 C 
ATOM     18  O   UNL     1       0.356   3.802   0.168  1.00  0.00    -0.268 OA
ATOM     19  C   UNL     1      -1.677   4.912   0.172  1.00  0.00     0.049 C 
ATOM     20  C   UNL     1      -3.457   3.910   1.450  1.00  0.00     0.048 A 
ATOM     21  O   UNL     1      -3.824   1.711   0.909  1.00  0.00    -0.268 OA
ATOM     22  C   UNL     1      -2.767   5.075   1.131  1.00  0.00    -0.000 A 
ATOM     23  C   UNL     1      -4.597   3.963   2.267  1.00  0.00     0.014 A 
ATOM     24  C   UNL     1      -3.161   6.286   1.718  1.00  0.00     0.010 A 
ATOM     25  C   UNL     1      -5.021   5.181   2.799  1.00  0.00     0.001 A 
ATOM     26  C   UNL     1      -4.295   6.340   2.536  1.00  0.00     0.001 A 
BRANCH  15  27
ATOM     27  C   UNL     1      -0.999   1.209   0.306  1.00  0.00     0.053 A 
ATOM     28  C   UNL     1       2.527  -0.257  -0.039  1.00  0.00     0.044 C 
ATOM     29  C   UNL     1       1.030  -0.183   0.031  1.00  0.00    -0.049 A 
ATOM     30  C   UNL     1       0.252  -1.330  -0.075  1.00  0.00     0.003 A 
ATOM     31  C   UNL     1       0.399   1.055   0.233  1.00  0.00     0.030 A 
ATOM     32  C   UNL     1      -1.131  -1.224  -0.010  1.00  0.00     0.002 A 
ATOM     33  C   UNL     1      -1.742   0.025   0.168  1.00  0.00     0.027 A 
ENDBRANCH  15  27
ENDBRANCH   9  14
ENDBRANCH   6   8
ENDBRANCH   5   6
ENDBRANCH   4   5
ENDBRANCH   3   4
ENDBRANCH   2   3
ENDBRANCH   1   2
BRANCH   1  34
ATOM     34  C   UNL     1      -1.487  13.739   2.337  1.00  0.00     0.261 C 
BRANCH  34  35
ATOM     35  O   UNL     1      -1.859  14.989   1.714  1.00  0.00    -0.460 OA
BRANCH  35  36
ATOM     36  C   UNL     1      -3.148  15.384   1.943  1.00  0.00     0.338 C 
ATOM     37  O   UNL     1      -3.623  15.531   3.058  1.00  0.00    -0.246 OA
BRANCH  36  38
ATOM     38  C   UNL     1      -3.938  15.359   0.672  1.00  0.00     0.060 A 
ATOM     39  C   UNL     1      -5.343  15.374   0.725  1.00  0.00     0.016 A 
ATOM     40  C   UNL     1      -3.303  14.988  -0.509  1.00  0.00     0.016 A 
ATOM     41  C   UNL     1      -6.098  14.807  -0.314  1.00  0.00     0.010 A 
ATOM     42  C   UNL     1      -4.051  14.363  -1.491  1.00  0.00     0.010 A 
ATOM     43  C   UNL     1      -5.444  14.190  -1.367  1.00  0.00    -0.014 A 
BRANCH  43  44
ATOM     44  C   UNL     1      -6.069  13.386  -2.428  1.00  0.00     0.031 A 
ATOM     45  C   UNL     1      -5.978  13.943  -3.796  1.00  0.00     0.074 A 
ATOM     46  C   UNL     1      -6.391  12.071  -2.279  1.00  0.00     0.049 A 
ATOM     47  N   UNL     1      -6.396  13.335  -4.848  1.00  0.00    -0.248 NA
ATOM     48  C   UNL     1      -5.427  15.268  -4.092  1.00  0.00     0.031 C 
ATOM     49  C   UNL     1      -6.212  11.008  -3.278  1.00  0.00     0.029 A 
ATOM     50  N   UNL     1      -6.884  11.356  -1.181  1.00  0.00    -0.354 N 
ATOM     51  C   UNL     1      -5.817  13.962  -5.922  1.00  0.00     0.074 A 
ATOM     52  C   UNL     1      -5.387  15.241  -5.427  1.00  0.00     0.031 C 
ATOM     53  C   UNL     1      -6.791   9.873  -2.851  1.00  0.00     0.029 A 
ATOM     54  C   UNL     1      -7.525  10.199  -1.643  1.00  0.00     0.049 A 
ATOM     55  H   UNL     1      -6.795  11.623  -0.238  1.00  0.00     0.167 HD
ATOM     56  C   UNL     1      -5.623  13.233  -7.051  1.00  0.00     0.034 A 
ATOM     57  C   UNL     1      -8.827   9.934  -1.350  1.00  0.00     0.034 A 
ATOM     58  C   UNL     1      -6.350  11.949  -6.973  1.00  0.00     0.049 A 
ATOM     59  C   UNL     1      -9.612   9.889  -2.631  1.00  0.00     0.074 A 
ATOM     60  C   UNL     1      -5.960  10.628  -6.843  1.00  0.00     0.029 A 
ATOM     61  N   UNL     1      -7.727  11.969  -6.729  1.00  0.00    -0.354 N 
ATOM     62  N   UNL     1      -9.079  10.240  -3.767  1.00  0.00    -0.248 NA
ATOM     63  C   UNL     1     -10.980   9.420  -2.800  1.00  0.00     0.031 C 
ATOM     64  C   UNL     1      -7.098   9.877  -6.412  1.00  0.00     0.029 A 
ATOM     65  C   UNL     1      -8.194  10.725  -6.333  1.00  0.00     0.049 A 
ATOM     66  H   UNL     1      -8.294  12.768  -6.826  1.00  0.00     0.167 HD
ATOM     67  C   UNL     1      -9.958  10.116  -4.782  1.00  0.00     0.074 A 
ATOM     68  C   UNL     1     -11.141   9.569  -4.131  1.00  0.00     0.031 C 
ATOM     69  C   UNL     1      -9.621  10.524  -6.042  1.00  0.00     0.034 A 
BRANCH  56  70
ATOM     70  C   UNL     1      -4.655  13.590  -8.167  1.00  0.00     0.023 A 
ATOM     71  C   UNL     1      -4.676  12.765  -9.312  1.00  0.00     0.012 A 
ATOM     72  C   UNL     1      -3.669  14.615  -8.159  1.00  0.00     0.148 A 
ATOM     73  C   UNL     1      -3.792  12.944 -10.383  1.00  0.00     0.002 A 
ATOM     74  C   UNL     1      -2.839  14.843  -9.262  1.00  0.00     0.091 A 
ATOM     75  F   UNL     1      -3.445  15.329  -7.053  1.00  0.00    -0.205 F 
ATOM     76  C   UNL     1      -2.888  13.996 -10.370  1.00  0.00     0.022 A 
BRANCH  74  77
ATOM     77  S   UNL     1      -1.685  16.229  -9.350  1.00  0.00     0.127 S 
ATOM     78  O   UNL     1      -0.387  15.555  -9.334  1.00  0.00    -0.237 OA
ATOM     79  O   UNL     1      -2.031  16.845 -10.632  1.00  0.00    -0.237 OA
ATOM     80  O   UNL     1      -1.960  17.067  -8.189  1.00  0.00    -0.744 OA
ENDBRANCH  74  77
ENDBRANCH  56  70
BRANCH  57  81
ATOM     81  C   UNL     1      -9.213  10.468  -0.005  1.00  0.00     0.023 A 
ATOM     82  C   UNL     1      -8.634   9.816   1.119  1.00  0.00     0.012 A 
ATOM     83  C   UNL     1      -9.634  11.802   0.139  1.00  0.00     0.148 A 
ATOM     84  C   UNL     1      -8.345  10.520   2.294  1.00  0.00     0.002 A 
ATOM     85  C   UNL     1      -9.305  12.506   1.299  1.00  0.00     0.091 A 
ATOM     86  F   UNL     1     -10.270  12.383  -0.887  1.00  0.00    -0.205 F 
ATOM     87  C   UNL     1      -8.627  11.879   2.359  1.00  0.00     0.022 A 
BRANCH  85  88
ATOM     88  S   UNL     1      -9.571  14.280   1.438  1.00  0.00     0.127 S 
ATOM     89  O   UNL     1     -10.809  14.333   2.211  1.00  0.00    -0.237 OA
ATOM     90  O   UNL     1      -8.379  14.722   2.165  1.00  0.00    -0.237 OA
ATOM     91  O   UNL     1      -9.652  14.767   0.069  1.00  0.00    -0.744 OA
ENDBRANCH  85  88
ENDBRANCH  57  81
BRANCH  69  92
ATOM     92  C   UNL     1     -10.637  10.793  -7.118  1.00  0.00     0.023 A 
ATOM     93  C   UNL     1     -11.989  11.045  -6.815  1.00  0.00     0.012 A 
ATOM     94  C   UNL     1     -10.226  10.996  -8.456  1.00  0.00     0.148 A 
ATOM     95  C   UNL     1     -12.906  11.411  -7.800  1.00  0.00     0.002 A 
ATOM     96  C   UNL     1     -11.109  11.499  -9.399  1.00  0.00     0.091 A 
ATOM     97  F   UNL     1      -8.973  10.695  -8.828  1.00  0.00    -0.205 F 
ATOM     98  C   UNL     1     -12.460  11.668  -9.087  1.00  0.00     0.022 A 
BRANCH  96  99
ATOM     99  S   UNL     1     -10.517  12.124 -10.974  1.00  0.00     0.127 S 
ATOM    100  O   UNL     1     -10.800  11.002 -11.866  1.00  0.00    -0.237 OA
ATOM    101  O   UNL     1     -11.367  13.299 -11.178  1.00  0.00    -0.237 OA
ATOM    102  O   UNL     1      -9.110  12.436 -10.762  1.00  0.00    -0.744 OA
ENDBRANCH  96  99
ENDBRANCH  69  92
ENDBRANCH  43  44
ENDBRANCH  36  38
ENDBRANCH  35  36
ENDBRANCH  34  35
ENDBRANCH   1  34
TORSDOF 19
