REMARK SMILES CO[C@H]1C[C@@H](C(=O)OCCOCCOC(=O)c2ccc(-c3c4nc(c(-c5cccc(S(=O)(=O)[O-])c5F)c5ccc([nH]5)c(-c5cccc(S(=O)(=O)[O-])c5F)c5nc(c(-c6cccc(S(=O)(=O)[O-])c6F)c6ccc3[nH]6)C=C5)C=C4)cc2)N(C(=O)CSc2cccs2)C1
REMARK SMILES IDX 10 1 9 2 8 3 6 4 7 5 5 6 3 7 4 8 90 9 80 10 2 11 1 12 81 13
REMARK SMILES IDX 82 14 83 15 84 16 85 17 86 18 89 19 87 20 88 21 11 22 12 23
REMARK SMILES IDX 13 24 14 25 15 26 16 27 17 28 18 29 79 30 19 31 78 32 20 33
REMARK SMILES IDX 21 34 22 35 72 36 23 37 77 38 71 39 73 40 24 41 76 42 70 43
REMARK SMILES IDX 69 44 25 46 57 47 37 48 56 49 38 50 41 51 55 52 74 53 39 54
REMARK SMILES IDX 40 55 54 57 75 58 42 59 26 60 27 61 35 62 28 63 30 64 36 65
REMARK SMILES IDX 29 66 31 67 32 68 33 69 34 70 58 71 59 72 67 73 60 74 62 75
REMARK SMILES IDX 68 76 61 77 63 78 64 79 65 80 66 81 43 82 44 83 52 84 45 85
REMARK SMILES IDX 47 86 53 87 46 88 48 89 49 90 50 91 51 92
REMARK H PARENT 73 45 41 56
REMARK Flexibility Score: inf
ROOT
ATOM      1  C   UNL     1       7.097  -2.331   1.400  1.00  0.00     0.202 C 
ENDROOT
BRANCH   1   2
ATOM      2  C   UNL     1       6.505  -1.146   0.633  1.00  0.00     0.261 C 
BRANCH   2   3
ATOM      3  O   UNL     1       5.118  -0.970   0.940  1.00  0.00    -0.462 OA
BRANCH   3   4
ATOM      4  C   UNL     1       4.293  -0.941  -0.136  1.00  0.00     0.329 C 
ATOM      5  O   UNL     1       4.675  -0.851  -1.296  1.00  0.00    -0.250 OA
BRANCH   4   6
ATOM      6  C   UNL     1       2.820  -1.139   0.228  1.00  0.00     0.197 C 
ATOM      7  C   UNL     1       1.011  -0.828   1.743  1.00  0.00     0.140 C 
ATOM      8  C   UNL     1       2.463  -0.418   1.535  1.00  0.00     0.071 C 
ATOM      9  C   UNL     1       1.025  -2.299   1.313  1.00  0.00     0.152 C 
ATOM     10  N   UNL     1       2.184  -2.462   0.432  1.00  0.00    -0.325 N 
BRANCH   7  11
ATOM     11  O   UNL     1       0.639  -0.653   3.103  1.00  0.00    -0.380 OA
ATOM     12  C   UNL     1      -0.772  -0.577   3.269  1.00  0.00     0.195 C 
ENDBRANCH   7  11
BRANCH  10  13
ATOM     13  C   UNL     1       2.273  -3.634  -0.298  1.00  0.00     0.233 C 
ATOM     14  O   UNL     1       1.355  -4.464  -0.252  1.00  0.00    -0.274 OA
BRANCH  13  15
ATOM     15  C   UNL     1       3.569  -4.021  -0.987  1.00  0.00     0.175 C 
BRANCH  15  16
ATOM     16  S   UNL     1       3.773  -3.430  -2.666  1.00  0.00    -0.105 SA
BRANCH  16  17
ATOM     17  C   UNL     1       2.280  -3.872  -3.436  1.00  0.00     0.060 A 
ATOM     18  C   UNL     1       1.833  -5.146  -3.705  1.00  0.00     0.027 A 
ATOM     19  S   UNL     1       1.219  -2.675  -4.029  1.00  0.00    -0.137 S 
ATOM     20  C   UNL     1       0.611  -5.133  -4.439  1.00  0.00     0.013 A 
ATOM     21  C   UNL     1       0.170  -3.851  -4.685  1.00  0.00     0.066 A 
ENDBRANCH  16  17
ENDBRANCH  15  16
ENDBRANCH  13  15
ENDBRANCH  10  13
ENDBRANCH   4   6
ENDBRANCH   3   4
ENDBRANCH   2   3
ENDBRANCH   1   2
BRANCH   1  22
ATOM     22  O   UNL     1       6.383  -3.567   1.396  1.00  0.00    -0.374 OA
BRANCH  22  23
ATOM     23  C   UNL     1       5.146  -3.651   2.105  1.00  0.00     0.202 C 
BRANCH  23  24
ATOM     24  C   UNL     1       5.132  -3.625   3.633  1.00  0.00     0.261 C 
BRANCH  24  25
ATOM     25  O   UNL     1       5.650  -2.407   4.171  1.00  0.00    -0.460 OA
BRANCH  25  26
ATOM     26  C   UNL     1       6.892  -2.524   4.701  1.00  0.00     0.338 C 
ATOM     27  O   UNL     1       7.573  -3.530   4.778  1.00  0.00    -0.246 OA
BRANCH  26  28
ATOM     28  C   UNL     1       7.410  -1.178   4.986  1.00  0.00     0.060 A 
ATOM     29  C   UNL     1       8.659  -0.838   4.450  1.00  0.00     0.016 A 
ATOM     30  C   UNL     1       6.705  -0.291   5.800  1.00  0.00     0.016 A 
ATOM     31  C   UNL     1       9.240   0.379   4.776  1.00  0.00     0.010 A 
ATOM     32  C   UNL     1       7.294   0.924   6.136  1.00  0.00     0.010 A 
ATOM     33  C   UNL     1       8.580   1.238   5.661  1.00  0.00    -0.014 A 
BRANCH  33  34
ATOM     34  C   UNL     1       9.316   2.382   6.231  1.00  0.00     0.031 A 
ATOM     35  C   UNL     1       9.878   2.250   7.616  1.00  0.00     0.074 A 
ATOM     36  C   UNL     1       9.470   3.509   5.520  1.00  0.00     0.049 A 
ATOM     37  N   UNL     1      10.517   3.131   8.336  1.00  0.00    -0.248 NA
ATOM     38  C   UNL     1       9.684   0.951   8.284  1.00  0.00     0.031 C 
ATOM     39  C   UNL     1       8.958   3.728   4.168  1.00  0.00     0.029 A 
ATOM     40  N   UNL     1      10.075   4.692   5.853  1.00  0.00    -0.354 N 
ATOM     41  C   UNL     1      10.767   2.511   9.553  1.00  0.00     0.074 A 
ATOM     42  C   UNL     1      10.203   1.182   9.480  1.00  0.00     0.031 C 
ATOM     43  C   UNL     1       9.234   4.991   3.801  1.00  0.00     0.029 A 
ATOM     44  C   UNL     1       9.914   5.669   4.902  1.00  0.00     0.049 A 
ATOM     45  H   UNL     1      10.574   4.828   6.691  1.00  0.00     0.167 HD
ATOM     46  C   UNL     1      11.418   3.006  10.631  1.00  0.00     0.034 A 
ATOM     47  C   UNL     1      10.248   6.973   4.938  1.00  0.00     0.034 A 
ATOM     48  C   UNL     1      11.982   4.327  10.680  1.00  0.00     0.049 A 
ATOM     49  C   UNL     1      10.963   7.504   6.150  1.00  0.00     0.074 A 
ATOM     50  C   UNL     1      12.714   4.914  11.695  1.00  0.00     0.029 A 
ATOM     51  N   UNL     1      11.854   5.276   9.676  1.00  0.00    -0.354 N 
ATOM     52  N   UNL     1      11.305   6.874   7.249  1.00  0.00    -0.248 NA
ATOM     53  C   UNL     1      11.372   8.914   6.114  1.00  0.00     0.031 C 
ATOM     54  C   UNL     1      12.993   6.233  11.322  1.00  0.00     0.029 A 
ATOM     55  C   UNL     1      12.475   6.453  10.054  1.00  0.00     0.049 A 
ATOM     56  H   UNL     1      11.388   5.134   8.820  1.00  0.00     0.167 HD
ATOM     57  C   UNL     1      11.997   7.799   8.022  1.00  0.00     0.074 A 
ATOM     58  C   UNL     1      12.041   9.028   7.254  1.00  0.00     0.031 C 
ATOM     59  C   UNL     1      12.539   7.652   9.256  1.00  0.00     0.034 A 
BRANCH  46  60
ATOM     60  C   UNL     1      11.550   2.114  11.837  1.00  0.00     0.023 A 
ATOM     61  C   UNL     1      12.389   0.981  11.791  1.00  0.00     0.012 A 
ATOM     62  C   UNL     1      10.860   2.413  13.028  1.00  0.00     0.148 A 
ATOM     63  C   UNL     1      12.506   0.138  12.897  1.00  0.00     0.002 A 
ATOM     64  C   UNL     1      11.021   1.597  14.141  1.00  0.00     0.091 A 
ATOM     65  F   UNL     1      10.045   3.477  13.045  1.00  0.00    -0.205 F 
ATOM     66  C   UNL     1      11.831   0.452  14.073  1.00  0.00     0.022 A 
BRANCH  64  67
ATOM     67  S   UNL     1      10.257   1.962  15.725  1.00  0.00     0.127 S 
ATOM     68  O   UNL     1       9.244   0.912  15.814  1.00  0.00    -0.237 OA
ATOM     69  O   UNL     1      11.381   1.805  16.650  1.00  0.00    -0.237 OA
ATOM     70  O   UNL     1       9.743   3.320  15.620  1.00  0.00    -0.744 OA
ENDBRANCH  64  67
ENDBRANCH  46  60
BRANCH  47  71
ATOM     71  C   UNL     1       9.917   7.848   3.780  1.00  0.00     0.023 A 
ATOM     72  C   UNL     1      10.945   8.338   2.954  1.00  0.00     0.012 A 
ATOM     73  C   UNL     1       8.577   8.153   3.469  1.00  0.00     0.148 A 
ATOM     74  C   UNL     1      10.646   9.140   1.852  1.00  0.00     0.002 A 
ATOM     75  C   UNL     1       8.283   8.904   2.338  1.00  0.00     0.091 A 
ATOM     76  F   UNL     1       7.615   7.683   4.276  1.00  0.00    -0.205 F 
ATOM     77  C   UNL     1       9.316   9.413   1.538  1.00  0.00     0.022 A 
BRANCH  75  78
ATOM     78  S   UNL     1       6.599   9.188   1.782  1.00  0.00     0.127 S 
ATOM     79  O   UNL     1       6.455  10.627   1.987  1.00  0.00    -0.237 OA
ATOM     80  O   UNL     1       6.672   8.769   0.382  1.00  0.00    -0.237 OA
ATOM     81  O   UNL     1       5.757   8.344   2.619  1.00  0.00    -0.744 OA
ENDBRANCH  75  78
ENDBRANCH  47  71
BRANCH  59  82
ATOM     82  C   UNL     1      13.264   8.835   9.844  1.00  0.00     0.023 A 
ATOM     83  C   UNL     1      12.540   9.959  10.286  1.00  0.00     0.012 A 
ATOM     84  C   UNL     1      14.661   8.795  10.024  1.00  0.00     0.148 A 
ATOM     85  C   UNL     1      13.200  11.041  10.867  1.00  0.00     0.002 A 
ATOM     86  C   UNL     1      15.305   9.852  10.653  1.00  0.00     0.091 A 
ATOM     87  F   UNL     1      15.333   7.722   9.581  1.00  0.00    -0.205 F 
ATOM     88  C   UNL     1      14.579  10.983  11.062  1.00  0.00     0.022 A 
BRANCH  86  89
ATOM     89  S   UNL     1      17.059   9.820  11.039  1.00  0.00     0.127 S 
ATOM     90  O   UNL     1      17.587  10.813  10.104  1.00  0.00    -0.237 OA
ATOM     91  O   UNL     1      17.074  10.234  12.442  1.00  0.00    -0.237 OA
ATOM     92  O   UNL     1      17.497   8.451  10.807  1.00  0.00    -0.744 OA
ENDBRANCH  86  89
ENDBRANCH  59  82
ENDBRANCH  33  34
ENDBRANCH  26  28
ENDBRANCH  25  26
ENDBRANCH  24  25
ENDBRANCH  23  24
ENDBRANCH  22  23
ENDBRANCH   1  22
TORSDOF 22
