REMARK SMILES O=C(OCCOCCOC(=O)c1ccc(-c2c3nc(c(-c4cccc(S(=O)(=O)[O-])c4F)c4ccc([nH]4)c(-c4cccc(S(=O)(=O)[O-])c4F)c4nc(c(-c5cccc(S(=O)(=O)[O-])c5F)c5ccc2[nH]5)C=C4)C=C3)cc1)C1=Cc2cc(Cl)c(Cl)c(Cl)c2O[C@@H]1C(F)(F)F
REMARK SMILES IDX 7 1 6 2 5 3 4 4 3 5 2 6 1 7 75 8 76 9 87 10 77 11 86 12
REMARK SMILES IDX 78 13 85 14 79 15 83 16 80 17 81 18 84 19 82 20 88 21 89 22
REMARK SMILES IDX 90 23 91 24 8 25 9 26 10 27 11 28 12 29 13 30 74 31 14 32
REMARK SMILES IDX 73 33 15 34 16 35 17 36 67 37 18 38 72 39 66 40 68 41 19 42
REMARK SMILES IDX 71 43 65 44 64 45 20 47 52 48 32 49 51 50 33 51 36 52 50 53
REMARK SMILES IDX 69 54 34 55 35 56 49 58 70 59 37 60 21 61 22 62 30 63 23 64
REMARK SMILES IDX 25 65 31 66 24 67 26 68 27 69 28 70 29 71 53 72 54 73 62 74
REMARK SMILES IDX 55 75 57 76 63 77 56 78 58 79 59 80 60 81 61 82 38 83 39 84
REMARK SMILES IDX 47 85 40 86 42 87 48 88 41 89 43 90 44 91 45 92 46 93
REMARK H PARENT 68 46 36 57
REMARK Flexibility Score: inf
ROOT
ATOM      1  C   UNL     1       2.723  -1.617   2.663  1.00  0.00     0.202 C 
ENDROOT
BRANCH   1   2
ATOM      2  O   UNL     1       3.892  -1.756   1.843  1.00  0.00    -0.374 OA
BRANCH   2   3
ATOM      3  C   UNL     1       4.340  -1.197   0.418  1.00  0.00     0.202 C 
BRANCH   3   4
ATOM      4  C   UNL     1       3.498   0.316  -0.913  1.00  0.00     0.261 C 
BRANCH   4   5
ATOM      5  O   UNL     1       2.551   0.068  -2.099  1.00  0.00    -0.460 OA
BRANCH   5   6
ATOM      6  C   UNL     1       2.704  -1.141  -2.644  1.00  0.00     0.338 C 
ATOM      7  O   UNL     1       2.074  -1.681  -3.516  1.00  0.00    -0.246 OA
BRANCH   6   8
ATOM      8  C   UNL     1       3.573  -1.655  -1.609  1.00  0.00     0.087 C 
ATOM      9  C   UNL     1       4.964  -1.169  -1.775  1.00  0.00     0.027 C 
ATOM     10  C   UNL     1       2.416  -1.208  -0.123  1.00  0.00     0.316 C 
ATOM     11  C   UNL     1       5.716   0.089  -0.708  1.00  0.00     0.020 A 
ATOM     12  O   UNL     1       3.176   0.187   0.979  1.00  0.00    -0.474 OA
ATOM     13  C   UNL     1       6.944   0.578  -1.048  1.00  0.00     0.034 A 
ATOM     14  C   UNL     1       4.827   0.861   0.566  1.00  0.00     0.148 A 
ATOM     15  C   UNL     1       7.337   1.746  -0.372  1.00  0.00     0.062 A 
ATOM     16  C   UNL     1       5.201   2.102   1.020  1.00  0.00     0.103 A 
ATOM     17  Cl  UNL     1       8.947   2.288  -0.785  1.00  0.00    -0.083 Cl
ATOM     18  C   UNL     1       6.491   2.513   0.551  1.00  0.00     0.082 A 
ATOM     19  Cl  UNL     1       4.060   3.165   1.723  1.00  0.00    -0.079 Cl
ATOM     20  Cl  UNL     1       7.100   4.083   1.002  1.00  0.00    -0.081 Cl
BRANCH  10  21
ATOM     21  C   UNL     1       1.944  -2.691   0.207  1.00  0.00     0.430 C 
ATOM     22  F   UNL     1       1.043  -2.820   1.196  1.00  0.00    -0.167 F 
ATOM     23  F   UNL     1       1.297  -3.159  -0.906  1.00  0.00    -0.167 F 
ATOM     24  F   UNL     1       2.947  -3.577   0.406  1.00  0.00    -0.167 F 
ENDBRANCH  10  21
ENDBRANCH   6   8
ENDBRANCH   5   6
ENDBRANCH   4   5
ENDBRANCH   3   4
ENDBRANCH   2   3
ENDBRANCH   1   2
BRANCH   1  25
ATOM     25  C   UNL     1       2.889  -1.077   4.073  1.00  0.00     0.261 C 
BRANCH  25  26
ATOM     26  O   UNL     1       3.435   0.225   4.084  1.00  0.00    -0.460 OA
BRANCH  26  27
ATOM     27  C   UNL     1       4.771   0.249   4.260  1.00  0.00     0.338 C 
ATOM     28  O   UNL     1       5.546  -0.690   4.236  1.00  0.00    -0.246 OA
BRANCH  27  29
ATOM     29  C   UNL     1       5.167   1.646   4.482  1.00  0.00     0.060 A 
ATOM     30  C   UNL     1       6.473   2.006   4.147  1.00  0.00     0.016 A 
ATOM     31  C   UNL     1       4.254   2.589   4.982  1.00  0.00     0.016 A 
ATOM     32  C   UNL     1       6.870   3.325   4.308  1.00  0.00     0.010 A 
ATOM     33  C   UNL     1       4.646   3.912   5.124  1.00  0.00     0.010 A 
ATOM     34  C   UNL     1       5.962   4.270   4.809  1.00  0.00    -0.014 A 
BRANCH  34  35
ATOM     35  C   UNL     1       6.487   5.561   5.271  1.00  0.00     0.031 A 
ATOM     36  C   UNL     1       6.933   5.625   6.696  1.00  0.00     0.074 A 
ATOM     37  C   UNL     1       6.593   6.613   4.447  1.00  0.00     0.049 A 
ATOM     38  N   UNL     1       7.533   6.592   7.328  1.00  0.00    -0.248 NA
ATOM     39  C   UNL     1       6.660   4.434   7.522  1.00  0.00     0.031 C 
ATOM     40  C   UNL     1       6.156   6.645   3.057  1.00  0.00     0.029 A 
ATOM     41  N   UNL     1       7.111   7.860   4.667  1.00  0.00    -0.354 N 
ATOM     42  C   UNL     1       7.692   6.137   8.627  1.00  0.00     0.074 A 
ATOM     43  C   UNL     1       7.108   4.819   8.703  1.00  0.00     0.031 C 
ATOM     44  C   UNL     1       6.466   7.840   2.526  1.00  0.00     0.029 A 
ATOM     45  C   UNL     1       7.064   8.675   3.562  1.00  0.00     0.049 A 
ATOM     46  H   UNL     1       7.481   8.146   5.533  1.00  0.00     0.167 HD
ATOM     47  C   UNL     1       8.280   6.766   9.666  1.00  0.00     0.034 A 
ATOM     48  C   UNL     1       7.452   9.956   3.422  1.00  0.00     0.034 A 
ATOM     49  C   UNL     1       8.812   8.094   9.582  1.00  0.00     0.049 A 
ATOM     50  C   UNL     1       8.059  10.652   4.612  1.00  0.00     0.074 A 
ATOM     51  C   UNL     1       9.442   8.831  10.565  1.00  0.00     0.029 A 
ATOM     52  N   UNL     1       8.735   8.901   8.456  1.00  0.00    -0.354 N 
ATOM     53  N   UNL     1       8.307  10.179   5.811  1.00  0.00    -0.248 NA
ATOM     54  C   UNL     1       8.469  12.049   4.422  1.00  0.00     0.031 C 
ATOM     55  C   UNL     1       9.687  10.108  10.052  1.00  0.00     0.029 A 
ATOM     56  C   UNL     1       9.285  10.139   8.725  1.00  0.00     0.049 A 
ATOM     57  H   UNL     1       8.345   8.631   7.593  1.00  0.00     0.167 HD
ATOM     58  C   UNL     1       8.948  11.201   6.502  1.00  0.00     0.074 A 
ATOM     59  C   UNL     1       9.054  12.316   5.582  1.00  0.00     0.031 C 
ATOM     60  C   UNL     1       9.411  11.217   7.777  1.00  0.00     0.034 A 
BRANCH  47  61
ATOM     61  C   UNL     1       8.312   6.030  10.975  1.00  0.00     0.023 A 
ATOM     62  C   UNL     1       9.095   4.866  11.121  1.00  0.00     0.012 A 
ATOM     63  C   UNL     1       7.531   6.480  12.055  1.00  0.00     0.148 A 
ATOM     64  C   UNL     1       9.059   4.132  12.306  1.00  0.00     0.002 A 
ATOM     65  C   UNL     1       7.546   5.778  13.251  1.00  0.00     0.091 A 
ATOM     66  F   UNL     1       6.766   7.566  11.881  1.00  0.00    -0.205 F 
ATOM     67  C   UNL     1       8.292   4.594  13.373  1.00  0.00     0.022 A 
BRANCH  65  68
ATOM     68  S   UNL     1       6.654   6.336  14.703  1.00  0.00     0.127 S 
ATOM     69  O   UNL     1       5.630   5.302  14.836  1.00  0.00    -0.237 OA
ATOM     70  O   UNL     1       7.696   6.300  15.729  1.00  0.00    -0.237 OA
ATOM     71  O   UNL     1       6.157   7.668  14.386  1.00  0.00    -0.744 OA
ENDBRANCH  65  68
ENDBRANCH  47  61
BRANCH  48  72
ATOM     72  C   UNL     1       7.311  10.652   2.113  1.00  0.00     0.023 A 
ATOM     73  C   UNL     1       8.463  11.031   1.397  1.00  0.00     0.012 A 
ATOM     74  C   UNL     1       6.042  10.943   1.575  1.00  0.00     0.148 A 
ATOM     75  C   UNL     1       8.355  11.725   0.190  1.00  0.00     0.002 A 
ATOM     76  C   UNL     1       5.941  11.586   0.348  1.00  0.00     0.091 A 
ATOM     77  F   UNL     1       4.959  10.576   2.274  1.00  0.00    -0.205 F 
ATOM     78  C   UNL     1       7.095  11.996  -0.337  1.00  0.00     0.022 A 
BRANCH  76  79
ATOM     79  S   UNL     1       4.366  11.888  -0.460  1.00  0.00     0.127 S 
ATOM     80  O   UNL     1       4.327  13.348  -0.504  1.00  0.00    -0.237 OA
ATOM     81  O   UNL     1       4.567  11.237  -1.754  1.00  0.00    -0.237 OA
ATOM     82  O   UNL     1       3.358  11.262   0.384  1.00  0.00    -0.744 OA
ENDBRANCH  76  79
ENDBRANCH  48  72
BRANCH  60  83
ATOM     83  C   UNL     1      10.152  12.447   8.233  1.00  0.00     0.023 A 
ATOM     84  C   UNL     1       9.475  13.667   8.428  1.00  0.00     0.012 A 
ATOM     85  C   UNL     1      11.525  12.360   8.537  1.00  0.00     0.148 A 
ATOM     86  C   UNL     1      10.167  14.793   8.874  1.00  0.00     0.002 A 
ATOM     87  C   UNL     1      12.192  13.467   9.042  1.00  0.00     0.091 A 
ATOM     88  F   UNL     1      12.153  11.193   8.331  1.00  0.00    -0.205 F 
ATOM     89  C   UNL     1      11.520  14.690   9.193  1.00  0.00     0.022 A 
BRANCH  87  90
ATOM     90  S   UNL     1      13.901  13.392   9.584  1.00  0.00     0.127 S 
ATOM     91  O   UNL     1      14.574  14.182   8.554  1.00  0.00    -0.237 OA
ATOM     92  O   UNL     1      13.836  14.030  10.898  1.00  0.00    -0.237 OA
ATOM     93  O   UNL     1      14.255  11.979   9.615  1.00  0.00    -0.744 OA
ENDBRANCH  87  90
ENDBRANCH  60  83
ENDBRANCH  34  35
ENDBRANCH  27  29
ENDBRANCH  26  27
ENDBRANCH  25  26
ENDBRANCH   1  25
TORSDOF 18
