REMARK SMILES C[C@@H](C(=O)OCCOCCOC(=O)c1ccc(-c2c3nc(c(-c4cccc(S(=O)(=O)[O-])c4F)c4ccc([nH]4)c(-c4cccc(S(=O)(=O)[O-])c4F)c4nc(c(-c5cccc(S(=O)(=O)[O-])c5F)c5ccc2[nH]5)C=C4)C=C3)cc1)N(C)c1ccc(C(N)=O)nn1
REMARK SMILES IDX 8 1 7 2 6 3 5 4 3 5 4 6 2 7 1 8 77 9 78 10 79 11 80 12 87 13
REMARK SMILES IDX 81 14 86 15 82 16 83 17 84 18 85 19 9 22 10 23 11 24 12 25
REMARK SMILES IDX 13 26 14 27 15 28 76 29 16 30 75 31 17 32 18 33 19 34 69 35
REMARK SMILES IDX 20 36 74 37 68 38 70 39 21 40 73 41 67 42 66 43 22 45 54 46
REMARK SMILES IDX 34 47 53 48 35 49 38 50 52 51 71 52 36 53 37 54 51 56 72 57
REMARK SMILES IDX 39 58 23 59 24 60 32 61 25 62 27 63 33 64 26 65 28 66 29 67
REMARK SMILES IDX 30 68 31 69 55 70 56 71 64 72 57 73 59 74 65 75 58 76 60 77
REMARK SMILES IDX 61 78 62 79 63 80 40 81 41 82 49 83 42 84 44 85 50 86 43 87
REMARK SMILES IDX 45 88 46 89 47 90 48 91
REMARK H PARENT 84 20 84 21 70 44 38 55
REMARK Flexibility Score: inf
ROOT
ATOM      1  O   UNL     1       1.072   1.361   4.654  1.00  0.00    -0.374 OA
ENDROOT
BRANCH   1   2
ATOM      2  C   UNL     1       2.259   0.564   4.600  1.00  0.00     0.202 C 
BRANCH   2   3
ATOM      3  C   UNL     1       2.059  -0.893   4.173  1.00  0.00     0.261 C 
BRANCH   3   4
ATOM      4  O   UNL     1       1.772  -0.960   2.763  1.00  0.00    -0.462 OA
BRANCH   4   5
ATOM      5  C   UNL     1       0.634  -1.617   2.405  1.00  0.00     0.328 C 
ATOM      6  O   UNL     1      -0.056  -2.273   3.178  1.00  0.00    -0.250 OA
BRANCH   5   7
ATOM      7  C   UNL     1       0.330  -1.469   0.893  1.00  0.00     0.190 C 
ATOM      8  C   UNL     1       1.249  -0.506   0.140  1.00  0.00     0.044 C 
BRANCH   7   9
ATOM      9  N   UNL     1      -1.123  -1.219   0.620  1.00  0.00    -0.345 N 
ATOM     10  C   UNL     1      -1.995  -2.379   0.830  1.00  0.00     0.146 C 
BRANCH   9  11
ATOM     11  C   UNL     1      -1.720  -0.019   1.016  1.00  0.00     0.151 A 
ATOM     12  C   UNL     1      -1.453   1.170   0.342  1.00  0.00     0.051 A 
ATOM     13  N   UNL     1      -2.643   0.001   2.006  1.00  0.00    -0.132 NA
ATOM     14  C   UNL     1      -2.103   2.355   0.701  1.00  0.00     0.040 A 
ATOM     15  N   UNL     1      -3.296   1.163   2.380  1.00  0.00    -0.143 NA
ATOM     16  C   UNL     1      -3.020   2.312   1.731  1.00  0.00     0.150 A 
BRANCH  16  17
ATOM     17  C   UNL     1      -3.749   3.534   2.171  1.00  0.00     0.269 C 
ATOM     18  N   UNL     1      -4.651   3.373   3.189  1.00  0.00    -0.364 N 
ATOM     19  O   UNL     1      -3.557   4.629   1.656  1.00  0.00    -0.268 OA
ATOM     20  H   UNL     1      -4.789   2.483   3.588  1.00  0.00     0.160 HD
ATOM     21  H   UNL     1      -5.162   4.146   3.521  1.00  0.00     0.160 HD
ENDBRANCH  16  17
ENDBRANCH   9  11
ENDBRANCH   7   9
ENDBRANCH   5   7
ENDBRANCH   4   5
ENDBRANCH   3   4
ENDBRANCH   2   3
ENDBRANCH   1   2
BRANCH   1  22
ATOM     22  C   UNL     1       0.505   1.763   3.409  1.00  0.00     0.202 C 
BRANCH  22  23
ATOM     23  C   UNL     1       1.124   2.999   2.746  1.00  0.00     0.261 C 
BRANCH  23  24
ATOM     24  O   UNL     1       2.526   2.836   2.485  1.00  0.00    -0.460 OA
BRANCH  24  25
ATOM     25  C   UNL     1       3.327   3.538   3.321  1.00  0.00     0.338 C 
ATOM     26  O   UNL     1       2.977   4.345   4.173  1.00  0.00    -0.246 OA
BRANCH  25  27
ATOM     27  C   UNL     1       4.722   3.082   3.198  1.00  0.00     0.060 A 
ATOM     28  C   UNL     1       5.394   2.765   4.385  1.00  0.00     0.016 A 
ATOM     29  C   UNL     1       5.384   3.030   1.968  1.00  0.00     0.016 A 
ATOM     30  C   UNL     1       6.750   2.458   4.356  1.00  0.00     0.010 A 
ATOM     31  C   UNL     1       6.749   2.725   1.942  1.00  0.00     0.010 A 
ATOM     32  C   UNL     1       7.445   2.481   3.140  1.00  0.00    -0.014 A 
BRANCH  32  33
ATOM     33  C   UNL     1       8.924   2.397   3.153  1.00  0.00     0.031 A 
ATOM     34  C   UNL     1       9.728   3.663   3.033  1.00  0.00     0.074 A 
ATOM     35  C   UNL     1       9.542   1.211   3.300  1.00  0.00     0.049 A 
ATOM     36  N   UNL     1      11.025   3.823   3.038  1.00  0.00    -0.248 NA
ATOM     37  C   UNL     1       8.968   4.916   2.886  1.00  0.00     0.031 C 
ATOM     38  C   UNL     1       8.868  -0.080   3.428  1.00  0.00     0.029 A 
ATOM     39  N   UNL     1      10.877   0.902   3.348  1.00  0.00    -0.354 N 
ATOM     40  C   UNL     1      11.239   5.186   2.874  1.00  0.00     0.074 A 
ATOM     41  C   UNL     1       9.939   5.808   2.754  1.00  0.00     0.031 C 
ATOM     42  C   UNL     1       9.796  -1.048   3.515  1.00  0.00     0.029 A 
ATOM     43  C   UNL     1      11.126  -0.447   3.431  1.00  0.00     0.049 A 
ATOM     44  H   UNL     1      11.589   1.582   3.325  1.00  0.00     0.167 HD
ATOM     45  C   UNL     1      12.412   5.862   2.846  1.00  0.00     0.034 A 
ATOM     46  C   UNL     1      12.294  -1.119   3.424  1.00  0.00     0.034 A 
ATOM     47  C   UNL     1      13.701   5.243   2.987  1.00  0.00     0.049 A 
ATOM     48  C   UNL     1      13.586  -0.344   3.375  1.00  0.00     0.074 A 
ATOM     49  C   UNL     1      14.946   5.846   3.018  1.00  0.00     0.029 A 
ATOM     50  N   UNL     1      13.914   3.879   3.112  1.00  0.00    -0.354 N 
ATOM     51  N   UNL     1      13.770   0.954   3.344  1.00  0.00    -0.248 NA
ATOM     52  C   UNL     1      14.832  -1.125   3.397  1.00  0.00     0.031 C 
ATOM     53  C   UNL     1      15.914   4.842   3.138  1.00  0.00     0.029 A 
ATOM     54  C   UNL     1      15.269   3.617   3.208  1.00  0.00     0.049 A 
ATOM     55  H   UNL     1      13.204   3.197   3.129  1.00  0.00     0.167 HD
ATOM     56  C   UNL     1      15.147   1.147   3.377  1.00  0.00     0.074 A 
ATOM     57  C   UNL     1      15.749  -0.169   3.451  1.00  0.00     0.031 C 
ATOM     58  C   UNL     1      15.850   2.305   3.335  1.00  0.00     0.034 A 
BRANCH  45  59
ATOM     59  C   UNL     1      12.351   7.358   2.686  1.00  0.00     0.023 A 
ATOM     60  C   UNL     1      11.925   8.157   3.767  1.00  0.00     0.012 A 
ATOM     61  C   UNL     1      12.762   7.976   1.489  1.00  0.00     0.148 A 
ATOM     62  C   UNL     1      11.881   9.545   3.650  1.00  0.00     0.002 A 
ATOM     63  C   UNL     1      12.754   9.363   1.394  1.00  0.00     0.091 A 
ATOM     64  F   UNL     1      13.139   7.199   0.464  1.00  0.00    -0.205 F 
ATOM     65  C   UNL     1      12.305  10.148   2.469  1.00  0.00     0.022 A 
BRANCH  63  66
ATOM     66  S   UNL     1      13.349  10.236  -0.059  1.00  0.00     0.127 S 
ATOM     67  O   UNL     1      12.101  10.730  -0.638  1.00  0.00    -0.237 OA
ATOM     68  O   UNL     1      14.200  11.271   0.528  1.00  0.00    -0.237 OA
ATOM     69  O   UNL     1      14.061   9.246  -0.857  1.00  0.00    -0.744 OA
ENDBRANCH  63  66
ENDBRANCH  45  59
BRANCH  46  70
ATOM     70  C   UNL     1      12.294  -2.606   3.504  1.00  0.00     0.023 A 
ATOM     71  C   UNL     1      12.763  -3.242   4.670  1.00  0.00     0.012 A 
ATOM     72  C   UNL     1      11.807  -3.392   2.442  1.00  0.00     0.148 A 
ATOM     73  C   UNL     1      12.772  -4.634   4.765  1.00  0.00     0.002 A 
ATOM     74  C   UNL     1      11.766  -4.776   2.565  1.00  0.00     0.091 A 
ATOM     75  F   UNL     1      11.383  -2.769   1.333  1.00  0.00    -0.205 F 
ATOM     76  C   UNL     1      12.263  -5.400   3.719  1.00  0.00     0.022 A 
BRANCH  74  77
ATOM     77  S   UNL     1      11.005  -5.828   1.324  1.00  0.00     0.127 S 
ATOM     78  O   UNL     1      12.169  -6.470   0.720  1.00  0.00    -0.237 OA
ATOM     79  O   UNL     1      10.170  -6.708   2.143  1.00  0.00    -0.237 OA
ATOM     80  O   UNL     1      10.253  -4.930   0.457  1.00  0.00    -0.744 OA
ENDBRANCH  74  77
ENDBRANCH  46  70
BRANCH  58  81
ATOM     81  C   UNL     1      17.353   2.215   3.398  1.00  0.00     0.023 A 
ATOM     82  C   UNL     1      18.073   1.757   2.277  1.00  0.00     0.012 A 
ATOM     83  C   UNL     1      18.054   2.661   4.536  1.00  0.00     0.148 A 
ATOM     84  C   UNL     1      19.467   1.715   2.299  1.00  0.00     0.002 A 
ATOM     85  C   UNL     1      19.444   2.661   4.533  1.00  0.00     0.091 A 
ATOM     86  F   UNL     1      17.350   3.076   5.599  1.00  0.00    -0.205 F 
ATOM     87  C   UNL     1      20.151   2.178   3.421  1.00  0.00     0.022 A 
BRANCH  85  88
ATOM     88  S   UNL     1      20.408   3.326   5.896  1.00  0.00     0.127 S 
ATOM     89  O   UNL     1      20.916   2.108   6.524  1.00  0.00    -0.237 OA
ATOM     90  O   UNL     1      21.420   4.123   5.201  1.00  0.00    -0.237 OA
ATOM     91  O   UNL     1      19.477   4.105   6.701  1.00  0.00    -0.744 OA
ENDBRANCH  85  88
ENDBRANCH  58  81
ENDBRANCH  32  33
ENDBRANCH  25  27
ENDBRANCH  24  25
ENDBRANCH  23  24
ENDBRANCH  22  23
ENDBRANCH   1  22
TORSDOF 20
