REMARK SMILES CCCCCCNC(=O)Oc1cccc(-c2ccc([C@@H](C)C(=O)OCCOCCOC(=O)c3ccc(-c4c5nc(c(-c6cccc(S(=O)(=O)[O-])c6F)c6ccc([nH]6)c(-c6cccc(S(=O)(=O)[O-])c6F)c6nc(c(-c7cccc(S(=O)(=O)[O-])c7F)c7ccc4[nH]7)C=C6)C=C5)cc3)cc2)c1
REMARK SMILES IDX 24 1 22 2 23 3 20 4 21 5 19 6 16 7 17 8 97 9 18 10 96 11
REMARK SMILES IDX 15 12 11 13 12 14 98 15 13 16 14 17 10 18 8 19 7 20 9 22
REMARK SMILES IDX 6 23 5 24 4 25 3 26 2 27 1 28 25 29 26 30 27 31 28 32 29 33
REMARK SMILES IDX 30 34 31 35 32 36 33 37 34 38 95 39 35 40 94 41 36 42 37 43
REMARK SMILES IDX 38 44 88 45 39 46 93 47 87 48 89 49 40 50 92 51 86 52 85 53
REMARK SMILES IDX 41 55 73 56 53 57 72 58 54 59 57 60 71 61 90 62 55 63 56 64
REMARK SMILES IDX 70 66 91 67 58 68 42 69 43 70 51 71 44 72 46 73 52 74 45 75
REMARK SMILES IDX 47 76 48 77 49 78 50 79 74 80 75 81 83 82 76 83 78 84 84 85
REMARK SMILES IDX 77 86 79 87 80 88 81 89 82 90 59 91 60 92 68 93 61 94 63 95
REMARK SMILES IDX 69 96 62 97 64 98 65 99 66 100 67 101
REMARK H PARENT 7 21 89 54 57 65
REMARK Flexibility Score: inf
ROOT
ATOM      1  O   UNL     1      -2.981  14.580  -2.692  1.00  0.00    -0.463 OA
ENDROOT
BRANCH   1   2
ATOM      2  C   UNL     1      -3.557  14.308  -3.891  1.00  0.00     0.313 C 
ATOM      3  O   UNL     1      -3.176  14.764  -4.966  1.00  0.00    -0.252 OA
BRANCH   2   4
ATOM      4  C   UNL     1      -4.764  13.386  -3.800  1.00  0.00     0.126 C 
ATOM      5  C   UNL     1      -6.039  14.223  -3.777  1.00  0.00     0.025 C 
BRANCH   4   6
ATOM      6  C   UNL     1      -4.761  12.309  -2.720  1.00  0.00    -0.034 A 
ATOM      7  C   UNL     1      -4.929  10.228  -0.778  1.00  0.00    -0.018 A 
ATOM      8  C   UNL     1      -4.931  11.578  -0.398  1.00  0.00     0.009 A 
ATOM      9  C   UNL     1      -4.816   9.937  -2.145  1.00  0.00     0.009 A 
ATOM     10  C   UNL     1      -4.849  12.604  -1.352  1.00  0.00     0.005 A 
ATOM     11  C   UNL     1      -4.733  10.957  -3.099  1.00  0.00     0.005 A 
BRANCH   7  12
ATOM     12  C   UNL     1      -5.068   9.144   0.210  1.00  0.00    -0.015 A 
ATOM     13  C   UNL     1      -4.282   7.071   1.207  1.00  0.00     0.133 A 
ATOM     14  C   UNL     1      -5.393   7.019   2.045  1.00  0.00     0.047 A 
ATOM     15  C   UNL     1      -4.122   8.108   0.285  1.00  0.00     0.056 A 
ATOM     16  C   UNL     1      -6.338   8.039   1.984  1.00  0.00     0.004 A 
ATOM     17  C   UNL     1      -6.175   9.093   1.077  1.00  0.00     0.009 A 
BRANCH  13  18
ATOM     18  O   UNL     1      -3.395   5.982   1.254  1.00  0.00    -0.410 OA
BRANCH  18  19
ATOM     19  C   UNL     1      -2.049   6.255   1.426  1.00  0.00     0.412 C 
ATOM     20  N   UNL     1      -1.261   5.140   1.444  1.00  0.00    -0.321 N 
ATOM     21  H   UNL     1      -0.297   5.287   1.573  1.00  0.00     0.167 HD
ATOM     22  O   UNL     1      -1.547   7.373   1.555  1.00  0.00    -0.224 OA
BRANCH  20  23
ATOM     23  C   UNL     1      -1.688   3.763   1.292  1.00  0.00     0.119 C 
BRANCH  23  24
ATOM     24  C   UNL     1      -1.086   3.114   0.045  1.00  0.00     0.021 C 
BRANCH  24  25
ATOM     25  C   UNL     1       0.444   2.998   0.052  1.00  0.00     0.002 C 
BRANCH  25  26
ATOM     26  C   UNL     1       1.041   2.174   1.198  1.00  0.00    -0.000 C 
BRANCH  26  27
ATOM     27  C   UNL     1       0.575   0.718   1.273  1.00  0.00    -0.003 C 
ATOM     28  C   UNL     1       0.968  -0.105   0.055  1.00  0.00     0.004 C 
ENDBRANCH  26  27
ENDBRANCH  25  26
ENDBRANCH  24  25
ENDBRANCH  23  24
ENDBRANCH  20  23
ENDBRANCH  18  19
ENDBRANCH  13  18
ENDBRANCH   7  12
ENDBRANCH   4   6
ENDBRANCH   2   4
ENDBRANCH   1   2
BRANCH   1  29
ATOM     29  C   UNL     1      -1.766  15.349  -2.735  1.00  0.00     0.261 C 
BRANCH  29  30
ATOM     30  C   UNL     1      -0.562  14.524  -2.273  1.00  0.00     0.202 C 
BRANCH  30  31
ATOM     31  O   UNL     1      -0.185  13.420  -3.098  1.00  0.00    -0.374 OA
BRANCH  31  32
ATOM     32  C   UNL     1      -0.990  12.243  -3.028  1.00  0.00     0.202 C 
BRANCH  32  33
ATOM     33  C   UNL     1      -0.822  11.344  -1.797  1.00  0.00     0.261 C 
BRANCH  33  34
ATOM     34  O   UNL     1      -1.209  11.992  -0.575  1.00  0.00    -0.460 OA
BRANCH  34  35
ATOM     35  C   UNL     1      -0.176  12.305   0.244  1.00  0.00     0.338 C 
ATOM     36  O   UNL     1       1.006  12.057   0.065  1.00  0.00    -0.246 OA
BRANCH  35  37
ATOM     37  C   UNL     1      -0.637  13.189   1.332  1.00  0.00     0.060 A 
ATOM     38  C   UNL     1       0.103  14.357   1.558  1.00  0.00     0.016 A 
ATOM     39  C   UNL     1      -1.704  12.852   2.168  1.00  0.00     0.016 A 
ATOM     40  C   UNL     1      -0.170  15.153   2.667  1.00  0.00     0.010 A 
ATOM     41  C   UNL     1      -1.978  13.655   3.282  1.00  0.00     0.010 A 
ATOM     42  C   UNL     1      -1.179  14.779   3.564  1.00  0.00    -0.014 A 
BRANCH  42  43
ATOM     43  C   UNL     1      -1.270  15.477   4.871  1.00  0.00     0.031 A 
ATOM     44  C   UNL     1      -0.701  14.811   6.096  1.00  0.00     0.074 A 
ATOM     45  C   UNL     1      -1.799  16.710   4.959  1.00  0.00     0.049 A 
ATOM     46  N   UNL     1      -0.624  15.258   7.323  1.00  0.00    -0.248 NA
ATOM     47  C   UNL     1      -0.143  13.461   5.913  1.00  0.00     0.031 C 
ATOM     48  C   UNL     1      -2.365  17.468   3.844  1.00  0.00     0.029 A 
ATOM     49  N   UNL     1      -1.949  17.541   6.042  1.00  0.00    -0.354 N 
ATOM     50  C   UNL     1      -0.030  14.241   8.061  1.00  0.00     0.074 A 
ATOM     51  C   UNL     1       0.209  13.143   7.150  1.00  0.00     0.031 C 
ATOM     52  C   UNL     1      -2.806  18.652   4.301  1.00  0.00     0.029 A 
ATOM     53  C   UNL     1      -2.574  18.728   5.743  1.00  0.00     0.049 A 
ATOM     54  H   UNL     1      -1.639  17.308   6.946  1.00  0.00     0.167 HD
ATOM     55  C   UNL     1       0.310  14.227   9.373  1.00  0.00     0.034 A 
ATOM     56  C   UNL     1      -2.922  19.755   6.543  1.00  0.00     0.034 A 
ATOM     57  C   UNL     1       0.087  15.325  10.274  1.00  0.00     0.049 A 
ATOM     58  C   UNL     1      -2.574  19.699   8.008  1.00  0.00     0.074 A 
ATOM     59  C   UNL     1       0.426  15.425  11.612  1.00  0.00     0.029 A 
ATOM     60  N   UNL     1      -0.544  16.512   9.933  1.00  0.00    -0.354 N 
ATOM     61  N   UNL     1      -1.914  18.777   8.666  1.00  0.00    -0.248 NA
ATOM     62  C   UNL     1      -2.991  20.842   8.833  1.00  0.00     0.031 C 
ATOM     63  C   UNL     1      -0.026  16.661  12.087  1.00  0.00     0.029 A 
ATOM     64  C   UNL     1      -0.618  17.345  11.037  1.00  0.00     0.049 A 
ATOM     65  H   UNL     1      -0.888  16.731   9.037  1.00  0.00     0.167 HD
ATOM     66  C   UNL     1      -1.799  19.246   9.971  1.00  0.00     0.074 A 
ATOM     67  C   UNL     1      -2.447  20.542  10.005  1.00  0.00     0.031 C 
ATOM     68  C   UNL     1      -1.220  18.655  11.046  1.00  0.00     0.034 A 
BRANCH  55  69
ATOM     69  C   UNL     1       0.985  12.987   9.901  1.00  0.00     0.023 A 
ATOM     70  C   UNL     1       2.310  12.697   9.517  1.00  0.00     0.012 A 
ATOM     71  C   UNL     1       0.323  12.124  10.796  1.00  0.00     0.148 A 
ATOM     72  C   UNL     1       2.950  11.547   9.979  1.00  0.00     0.002 A 
ATOM     73  C   UNL     1       0.983  11.004  11.289  1.00  0.00     0.091 A 
ATOM     74  F   UNL     1      -0.945  12.402  11.134  1.00  0.00    -0.205 F 
ATOM     75  C   UNL     1       2.291  10.707  10.871  1.00  0.00     0.022 A 
BRANCH  73  76
ATOM     76  S   UNL     1       0.244   9.905  12.503  1.00  0.00     0.127 S 
ATOM     77  O   UNL     1      -0.074   8.734  11.687  1.00  0.00    -0.237 OA
ATOM     78  O   UNL     1       1.343   9.706  13.450  1.00  0.00    -0.237 OA
ATOM     79  O   UNL     1      -0.900  10.622  13.047  1.00  0.00    -0.744 OA
ENDBRANCH  73  76
ENDBRANCH  55  69
BRANCH  56  80
ATOM     80  C   UNL     1      -3.591  20.955   5.964  1.00  0.00     0.023 A 
ATOM     81  C   UNL     1      -2.892  22.177   5.908  1.00  0.00     0.012 A 
ATOM     82  C   UNL     1      -4.901  20.889   5.452  1.00  0.00     0.148 A 
ATOM     83  C   UNL     1      -3.494  23.317   5.376  1.00  0.00     0.002 A 
ATOM     84  C   UNL     1      -5.476  22.016   4.875  1.00  0.00     0.091 A 
ATOM     85  F   UNL     1      -5.554  19.722   5.529  1.00  0.00    -0.205 F 
ATOM     86  C   UNL     1      -4.781  23.235   4.851  1.00  0.00     0.022 A 
BRANCH  84  87
ATOM     87  S   UNL     1      -7.079  21.975   4.064  1.00  0.00     0.127 S 
ATOM     88  O   UNL     1      -7.886  22.803   4.956  1.00  0.00    -0.237 OA
ATOM     89  O   UNL     1      -6.774  22.581   2.768  1.00  0.00    -0.237 OA
ATOM     90  O   UNL     1      -7.453  20.569   3.999  1.00  0.00    -0.744 OA
ENDBRANCH  84  87
ENDBRANCH  56  80
BRANCH  68  91
ATOM     91  C   UNL     1      -1.218  19.414  12.348  1.00  0.00     0.023 A 
ATOM     92  C   UNL     1      -2.415  19.562  13.077  1.00  0.00     0.012 A 
ATOM     93  C   UNL     1      -0.016  19.915  12.887  1.00  0.00     0.148 A 
ATOM     94  C   UNL     1      -2.422  20.227  14.303  1.00  0.00     0.002 A 
ATOM     95  C   UNL     1      -0.021  20.532  14.133  1.00  0.00     0.091 A 
ATOM     96  F   UNL     1       1.111  19.780  12.172  1.00  0.00    -0.205 F 
ATOM     97  C   UNL     1      -1.225  20.700  14.836  1.00  0.00     0.022 A 
BRANCH  95  98
ATOM     98  S   UNL     1       1.484  21.086  14.942  1.00  0.00     0.127 S 
ATOM     99  O   UNL     1       1.365  22.539  14.832  1.00  0.00    -0.237 OA
ATOM    100  O   UNL     1       1.319  20.561  16.298  1.00  0.00    -0.237 OA
ATOM    101  O   UNL     1       2.584  20.491  14.194  1.00  0.00    -0.744 OA
ENDBRANCH  95  98
ENDBRANCH  68  91
ENDBRANCH  42  43
ENDBRANCH  35  37
ENDBRANCH  34  35
ENDBRANCH  33  34
ENDBRANCH  32  33
ENDBRANCH  31  32
ENDBRANCH  30  31
ENDBRANCH  29  30
ENDBRANCH   1  29
TORSDOF 26
