REMARK SMILES COc1cc(/C=C2\SC(=S)N([C@H](C)C(=O)Nc3ccc(C(=O)OCCOCCOC(=O)c4ccc(-c5c6nc(c(-c7cccc(S(=O)(=O)[O-])c7F)c7ccc([nH]7)c(-c7cccc(S(=O)(=O)[O-])c7F)c7nc(c(-c8cccc(S(=O)(=O)[O-])c8F)c8ccc5[nH]8)C=C7)C=C6)cc4)cc3)C2=O)ccc1O
REMARK SMILES IDX 25 1 24 2 23 3 21 4 22 5 20 6 17 7 18 8 96 9 19 10 95 11
REMARK SMILES IDX 16 12 14 13 15 14 12 16 13 17 11 18 6 19 7 20 8 21 97 22
REMARK SMILES IDX 9 23 98 24 10 25 5 26 3 27 4 28 101 29 100 30 99 31 2 32
REMARK SMILES IDX 1 33 102 34 26 36 27 37 28 38 29 39 30 40 31 41 32 42 33 43
REMARK SMILES IDX 94 44 34 45 93 46 35 47 36 48 37 49 87 50 38 51 92 52 86 53
REMARK SMILES IDX 88 54 39 55 91 56 85 57 84 58 40 60 72 61 52 62 71 63 53 64
REMARK SMILES IDX 56 65 70 66 89 67 54 68 55 69 69 71 90 72 57 73 41 74 42 75
REMARK SMILES IDX 50 76 43 77 45 78 51 79 44 80 46 81 47 82 48 83 49 84 73 85
REMARK SMILES IDX 74 86 82 87 75 88 77 89 83 90 76 91 78 92 79 93 80 94 81 95
REMARK SMILES IDX 58 96 59 97 67 98 60 99 62 100 68 101 61 102 63 103 64 104
REMARK SMILES IDX 65 105 66 106
REMARK H PARENT 16 15 102 35 88 59 56 70
REMARK Flexibility Score: inf
ROOT
ATOM      1  C   UNL     1       1.933   4.364  -4.635  1.00  0.00     0.202 C 
ENDROOT
BRANCH   1   2
ATOM      2  C   UNL     1       0.467   4.753  -4.841  1.00  0.00     0.261 C 
BRANCH   2   3
ATOM      3  O   UNL     1      -0.200   3.794  -5.669  1.00  0.00    -0.460 OA
BRANCH   3   4
ATOM      4  C   UNL     1      -0.480   4.212  -6.925  1.00  0.00     0.338 C 
ATOM      5  O   UNL     1      -0.355   5.341  -7.368  1.00  0.00    -0.246 OA
BRANCH   4   6
ATOM      6  C   UNL     1      -0.878   3.061  -7.772  1.00  0.00     0.060 A 
ATOM      7  C   UNL     1      -1.891   1.081  -9.440  1.00  0.00     0.041 A 
ATOM      8  C   UNL     1      -1.393   2.253  -9.999  1.00  0.00     0.027 A 
ATOM      9  C   UNL     1      -1.702   0.818  -8.086  1.00  0.00     0.027 A 
ATOM     10  C   UNL     1      -0.913   3.256  -9.159  1.00  0.00     0.018 A 
ATOM     11  C   UNL     1      -1.200   1.808  -7.244  1.00  0.00     0.018 A 
BRANCH   7  12
ATOM     12  N   UNL     1      -2.538   0.174 -10.269  1.00  0.00    -0.324 N 
ATOM     13  C   UNL     1      -3.710  -0.494 -10.057  1.00  0.00     0.247 C 
ATOM     14  O   UNL     1      -3.905  -1.515 -10.729  1.00  0.00    -0.272 OA
ATOM     15  H   UNL     1      -2.091  -0.013 -11.126  1.00  0.00     0.170 HD
BRANCH  13  16
ATOM     16  C   UNL     1      -4.774  -0.036  -9.014  1.00  0.00     0.178 C 
ATOM     17  C   UNL     1      -4.666  -0.832  -7.716  1.00  0.00     0.042 C 
BRANCH  16  18
ATOM     18  N   UNL     1      -5.083   1.421  -8.953  1.00  0.00    -0.280 N 
ATOM     19  C   UNL     1      -7.269   3.666 -10.730  1.00  0.00     0.029 C 
ATOM     20  C   UNL     1      -6.343   3.216  -9.868  1.00  0.00     0.081 C 
ATOM     21  S   UNL     1      -5.989   3.761  -8.293  1.00  0.00    -0.054 SA
ATOM     22  C   UNL     1      -5.611   1.950 -10.131  1.00  0.00     0.266 C 
ATOM     23  C   UNL     1      -5.151   2.266  -7.859  1.00  0.00     0.149 C 
ATOM     24  O   UNL     1      -5.555   1.434 -11.240  1.00  0.00    -0.268 OA
ATOM     25  S   UNL     1      -4.632   2.086  -6.288  1.00  0.00    -0.052 S 
BRANCH  19  26
ATOM     26  C   UNL     1      -8.303   4.682 -10.472  1.00  0.00    -0.020 A 
ATOM     27  C   UNL     1     -10.707   5.211 -10.500  1.00  0.00     0.161 A 
ATOM     28  C   UNL     1      -9.635   4.342 -10.762  1.00  0.00     0.058 A 
ATOM     29  C   UNL     1     -10.419   6.454  -9.935  1.00  0.00     0.157 A 
ATOM     30  C   UNL     1      -9.096   6.814  -9.658  1.00  0.00     0.051 A 
ATOM     31  C   UNL     1      -8.040   5.944  -9.944  1.00  0.00     0.012 A 
BRANCH  27  32
ATOM     32  O   UNL     1     -11.907   4.666 -10.859  1.00  0.00    -0.493 OA
ATOM     33  C   UNL     1     -13.124   5.285 -10.488  1.00  0.00     0.278 C 
ENDBRANCH  27  32
BRANCH  29  34
ATOM     34  O   UNL     1     -11.342   7.410  -9.626  1.00  0.00    -0.504 OA
ATOM     35  H   UNL     1     -12.253   7.250  -9.781  1.00  0.00     0.293 HD
ENDBRANCH  29  34
ENDBRANCH  19  26
ENDBRANCH  16  18
ENDBRANCH  13  16
ENDBRANCH   7  12
ENDBRANCH   4   6
ENDBRANCH   3   4
ENDBRANCH   2   3
ENDBRANCH   1   2
BRANCH   1  36
ATOM     36  O   UNL     1       2.746   4.292  -5.808  1.00  0.00    -0.374 OA
BRANCH  36  37
ATOM     37  C   UNL     1       2.664   3.097  -6.588  1.00  0.00     0.202 C 
BRANCH  37  38
ATOM     38  C   UNL     1       3.419   1.869  -6.067  1.00  0.00     0.261 C 
BRANCH  38  39
ATOM     39  O   UNL     1       2.847   1.351  -4.855  1.00  0.00    -0.460 OA
BRANCH  39  40
ATOM     40  C   UNL     1       3.581   1.581  -3.738  1.00  0.00     0.338 C 
ATOM     41  O   UNL     1       4.674   2.116  -3.672  1.00  0.00    -0.246 OA
BRANCH  40  42
ATOM     42  C   UNL     1       2.779   1.253  -2.545  1.00  0.00     0.060 A 
ATOM     43  C   UNL     1       2.639   2.243  -1.562  1.00  0.00     0.016 A 
ATOM     44  C   UNL     1       2.228  -0.015  -2.361  1.00  0.00     0.016 A 
ATOM     45  C   UNL     1       1.983   1.954  -0.368  1.00  0.00     0.010 A 
ATOM     46  C   UNL     1       1.580  -0.307  -1.159  1.00  0.00     0.010 A 
ATOM     47  C   UNL     1       1.485   0.665  -0.145  1.00  0.00    -0.014 A 
BRANCH  47  48
ATOM     48  C   UNL     1       0.984   0.279   1.195  1.00  0.00     0.031 A 
ATOM     49  C   UNL     1       1.870  -0.538   2.091  1.00  0.00     0.074 A 
ATOM     50  C   UNL     1      -0.260   0.610   1.584  1.00  0.00     0.049 A 
ATOM     51  N   UNL     1       1.601  -1.083   3.248  1.00  0.00    -0.248 NA
ATOM     52  C   UNL     1       3.242  -0.783   1.614  1.00  0.00     0.031 C 
ATOM     53  C   UNL     1      -1.206   1.401   0.801  1.00  0.00     0.029 A 
ATOM     54  N   UNL     1      -0.953   0.280   2.722  1.00  0.00    -0.354 N 
ATOM     55  C   UNL     1       2.749  -1.773   3.616  1.00  0.00     0.074 A 
ATOM     56  C   UNL     1       3.720  -1.577   2.562  1.00  0.00     0.031 C 
ATOM     57  C   UNL     1      -2.376   1.455   1.460  1.00  0.00     0.029 A 
ATOM     58  C   UNL     1      -2.269   0.677   2.692  1.00  0.00     0.049 A 
ATOM     59  H   UNL     1      -0.548  -0.194   3.484  1.00  0.00     0.167 HD
ATOM     60  C   UNL     1       2.975  -2.501   4.735  1.00  0.00     0.034 A 
ATOM     61  C   UNL     1      -3.280   0.408   3.542  1.00  0.00     0.034 A 
ATOM     62  C   UNL     1       2.014  -2.670   5.790  1.00  0.00     0.049 A 
ATOM     63  C   UNL     1      -3.009  -0.414   4.775  1.00  0.00     0.074 A 
ATOM     64  C   UNL     1       2.172  -3.328   6.997  1.00  0.00     0.029 A 
ATOM     65  N   UNL     1       0.713  -2.196   5.758  1.00  0.00    -0.354 N 
ATOM     66  N   UNL     1      -1.883  -0.955   5.173  1.00  0.00    -0.248 NA
ATOM     67  C   UNL     1      -4.138  -0.641   5.690  1.00  0.00     0.031 C 
ATOM     68  C   UNL     1       0.952  -3.281   7.680  1.00  0.00     0.029 A 
ATOM     69  C   UNL     1       0.048  -2.563   6.914  1.00  0.00     0.049 A 
ATOM     70  H   UNL     1       0.319  -1.675   5.021  1.00  0.00     0.167 HD
ATOM     71  C   UNL     1      -2.157  -1.552   6.400  1.00  0.00     0.074 A 
ATOM     72  C   UNL     1      -3.554  -1.298   6.684  1.00  0.00     0.031 C 
ATOM     73  C   UNL     1      -1.328  -2.253   7.212  1.00  0.00     0.034 A 
BRANCH  60  74
ATOM     74  C   UNL     1       4.319  -3.162   4.882  1.00  0.00     0.023 A 
ATOM     75  C   UNL     1       5.460  -2.382   5.158  1.00  0.00     0.012 A 
ATOM     76  C   UNL     1       4.442  -4.563   4.800  1.00  0.00     0.148 A 
ATOM     77  C   UNL     1       6.708  -2.983   5.318  1.00  0.00     0.002 A 
ATOM     78  C   UNL     1       5.681  -5.158   5.005  1.00  0.00     0.091 A 
ATOM     79  F   UNL     1       3.350  -5.285   4.512  1.00  0.00    -0.205 F 
ATOM     80  C   UNL     1       6.816  -4.370   5.252  1.00  0.00     0.022 A 
BRANCH  78  81
ATOM     81  S   UNL     1       5.904  -6.940   5.018  1.00  0.00     0.127 S 
ATOM     82  O   UNL     1       6.607  -7.159   3.755  1.00  0.00    -0.237 OA
ATOM     83  O   UNL     1       6.725  -7.139   6.214  1.00  0.00    -0.237 OA
ATOM     84  O   UNL     1       4.567  -7.511   5.099  1.00  0.00    -0.744 OA
ENDBRANCH  78  81
ENDBRANCH  60  74
BRANCH  61  85
ATOM     85  C   UNL     1      -4.642   0.941   3.258  1.00  0.00     0.023 A 
ATOM     86  C   UNL     1      -5.171   1.966   4.064  1.00  0.00     0.012 A 
ATOM     87  C   UNL     1      -5.398   0.460   2.170  1.00  0.00     0.148 A 
ATOM     88  C   UNL     1      -6.439   2.488   3.806  1.00  0.00     0.002 A 
ATOM     89  C   UNL     1      -6.637   1.022   1.886  1.00  0.00     0.091 A 
ATOM     90  F   UNL     1      -4.881  -0.527   1.425  1.00  0.00    -0.205 F 
ATOM     91  C   UNL     1      -7.166   2.025   2.712  1.00  0.00     0.022 A 
BRANCH  89  92
ATOM     92  S   UNL     1      -7.586   0.577   0.428  1.00  0.00     0.127 S 
ATOM     93  O   UNL     1      -8.728  -0.119   1.016  1.00  0.00    -0.237 OA
ATOM     94  O   UNL     1      -7.891   1.889  -0.143  1.00  0.00    -0.237 OA
ATOM     95  O   UNL     1      -6.699  -0.243  -0.386  1.00  0.00    -0.744 OA
ENDBRANCH  89  92
ENDBRANCH  61  85
BRANCH  73  96
ATOM     96  C   UNL     1      -1.878  -2.764   8.518  1.00  0.00     0.023 A 
ATOM     97  C   UNL     1      -2.745  -3.874   8.530  1.00  0.00     0.012 A 
ATOM     98  C   UNL     1      -1.437  -2.215   9.739  1.00  0.00     0.148 A 
ATOM     99  C   UNL     1      -3.180  -4.418   9.738  1.00  0.00     0.002 A 
ATOM    100  C   UNL     1      -1.835  -2.793  10.938  1.00  0.00     0.091 A 
ATOM    101  F   UNL     1      -0.624  -1.150   9.703  1.00  0.00    -0.205 F 
ATOM    102  C   UNL     1      -2.714  -3.888  10.940  1.00  0.00     0.022 A 
BRANCH 100 103
ATOM    103  S   UNL     1      -1.208  -2.245  12.530  1.00  0.00     0.127 S 
ATOM    104  O   UNL     1      -2.402  -1.656  13.134  1.00  0.00    -0.237 OA
ATOM    105  O   UNL     1      -0.772  -3.501  13.140  1.00  0.00    -0.237 OA
ATOM    106  O   UNL     1      -0.132  -1.306  12.239  1.00  0.00    -0.744 OA
ENDBRANCH 100 103
ENDBRANCH  73  96
ENDBRANCH  47  48
ENDBRANCH  40  42
ENDBRANCH  39  40
ENDBRANCH  38  39
ENDBRANCH  37  38
ENDBRANCH  36  37
ENDBRANCH   1  36
TORSDOF 23
