REMARK SMILES C[C@@H](Cn1cccn1)NC(=O)N(CC(=O)OCCOCCOC(=O)c1ccc(-c2c3nc(c(-c4cccc(S(=O)(=O)[O-])c4F)c4ccc([nH]4)c(-c4cccc(S(=O)(=O)[O-])c4F)c4nc(c(-c5cccc(S(=O)(=O)[O-])c5F)c5ccc2[nH]5)C=C4)C=C3)cc1)C(C)(C)C
REMARK SMILES IDX 18 1 17 2 16 3 14 4 15 5 13 6 12 7 10 8 9 9 11 11 2 12 1 13
REMARK SMILES IDX 3 14 4 15 5 16 8 17 6 18 7 19 88 20 89 21 90 22 91 23 19 24
REMARK SMILES IDX 20 25 21 26 22 27 23 28 24 29 25 30 26 31 87 32 27 33 86 34
REMARK SMILES IDX 28 35 29 36 30 37 80 38 31 39 85 40 79 41 81 42 32 43 84 44
REMARK SMILES IDX 78 45 77 46 33 48 65 49 45 50 64 51 46 52 49 53 63 54 82 55
REMARK SMILES IDX 47 56 48 57 62 59 83 60 50 61 34 62 35 63 43 64 36 65 38 66
REMARK SMILES IDX 44 67 37 68 39 69 40 70 41 71 42 72 66 73 67 74 75 75 68 76
REMARK SMILES IDX 70 77 76 78 69 79 71 80 72 81 73 82 74 83 51 84 52 85 60 86
REMARK SMILES IDX 53 87 55 88 61 89 54 90 56 91 57 92 58 93 59 94
REMARK H PARENT 9 10 81 47 49 58
REMARK Flexibility Score: inf
ROOT
ATOM      1  C   UNL     1       1.762  -5.239   5.027  1.00  0.00     0.202 C 
ENDROOT
BRANCH   1   2
ATOM      2  C   UNL     1       1.715  -3.874   4.321  1.00  0.00     0.261 C 
BRANCH   2   3
ATOM      3  O   UNL     1       0.865  -3.788   3.153  1.00  0.00    -0.462 OA
BRANCH   3   4
ATOM      4  C   UNL     1       1.525  -3.597   1.977  1.00  0.00     0.325 C 
ATOM      5  O   UNL     1       2.751  -3.542   1.883  1.00  0.00    -0.250 OA
BRANCH   4   6
ATOM      6  C   UNL     1       0.647  -3.532   0.711  1.00  0.00     0.244 C 
BRANCH   6   7
ATOM      7  N   UNL     1      -0.798  -3.289   0.782  1.00  0.00    -0.309 N 
BRANCH   7   8
ATOM      8  C   UNL     1      -1.335  -2.044   1.006  1.00  0.00     0.318 C 
ATOM      9  N   UNL     1      -0.623  -0.920   1.163  1.00  0.00    -0.334 N 
ATOM     10  H   UNL     1      -1.234  -0.152   1.244  1.00  0.00     0.165 HD
ATOM     11  O   UNL     1      -2.549  -1.841   1.074  1.00  0.00    -0.249 OA
BRANCH   9  12
ATOM     12  C   UNL     1       0.763  -0.457   1.252  1.00  0.00     0.102 C 
ATOM     13  C   UNL     1       1.152   0.271  -0.032  1.00  0.00     0.033 C 
BRANCH  12  14
ATOM     14  C   UNL     1       1.007   0.347   2.541  1.00  0.00     0.168 C 
BRANCH  14  15
ATOM     15  N   UNL     1       0.474   1.692   2.530  1.00  0.00    -0.271 N 
ATOM     16  C   UNL     1      -0.826   2.066   2.707  1.00  0.00     0.108 A 
ATOM     17  N   UNL     1       1.310   2.735   2.348  1.00  0.00    -0.181 NA
ATOM     18  C   UNL     1      -0.845   3.436   2.591  1.00  0.00     0.042 A 
ATOM     19  C   UNL     1       0.498   3.795   2.387  1.00  0.00     0.135 A 
ENDBRANCH  14  15
ENDBRANCH  12  14
ENDBRANCH   9  12
ENDBRANCH   7   8
BRANCH   7  20
ATOM     20  C   UNL     1      -1.771  -4.435   0.511  1.00  0.00     0.037 C 
ATOM     21  C   UNL     1      -2.643  -4.672   1.755  1.00  0.00     0.034 C 
ATOM     22  C   UNL     1      -2.692  -4.144  -0.700  1.00  0.00     0.034 C 
ATOM     23  C   UNL     1      -1.090  -5.780   0.161  1.00  0.00     0.034 C 
ENDBRANCH   7  20
ENDBRANCH   6   7
ENDBRANCH   4   6
ENDBRANCH   3   4
ENDBRANCH   2   3
ENDBRANCH   1   2
BRANCH   1  24
ATOM     24  O   UNL     1       2.023  -6.412   4.263  1.00  0.00    -0.374 OA
BRANCH  24  25
ATOM     25  C   UNL     1       1.121  -6.770   3.223  1.00  0.00     0.202 C 
BRANCH  25  26
ATOM     26  C   UNL     1      -0.317  -7.116   3.594  1.00  0.00     0.261 C 
BRANCH  26  27
ATOM     27  O   UNL     1      -0.950  -6.086   4.335  1.00  0.00    -0.460 OA
BRANCH  27  28
ATOM     28  C   UNL     1      -1.138  -6.370   5.648  1.00  0.00     0.338 C 
ATOM     29  O   UNL     1      -0.605  -7.254   6.288  1.00  0.00    -0.246 OA
BRANCH  28  30
ATOM     30  C   UNL     1      -2.278  -5.568   6.114  1.00  0.00     0.060 A 
ATOM     31  C   UNL     1      -2.992  -6.157   7.151  1.00  0.00     0.016 A 
ATOM     32  C   UNL     1      -2.841  -4.597   5.276  1.00  0.00     0.016 A 
ATOM     33  C   UNL     1      -4.355  -6.021   7.129  1.00  0.00     0.010 A 
ATOM     34  C   UNL     1      -4.209  -4.500   5.217  1.00  0.00     0.010 A 
ATOM     35  C   UNL     1      -4.947  -5.286   6.092  1.00  0.00    -0.014 A 
BRANCH  35  36
ATOM     36  C   UNL     1      -6.385  -5.204   6.106  1.00  0.00     0.031 A 
ATOM     37  C   UNL     1      -6.844  -4.337   7.213  1.00  0.00     0.074 A 
ATOM     38  C   UNL     1      -7.178  -5.820   5.215  1.00  0.00     0.049 A 
ATOM     39  N   UNL     1      -7.382  -4.714   8.324  1.00  0.00    -0.248 NA
ATOM     40  C   UNL     1      -6.413  -2.930   7.194  1.00  0.00     0.031 C 
ATOM     41  C   UNL     1      -6.832  -6.439   3.935  1.00  0.00     0.029 A 
ATOM     42  N   UNL     1      -8.530  -5.894   5.234  1.00  0.00    -0.354 N 
ATOM     43  C   UNL     1      -7.559  -3.545   9.054  1.00  0.00     0.074 A 
ATOM     44  C   UNL     1      -6.741  -2.545   8.426  1.00  0.00     0.031 C 
ATOM     45  C   UNL     1      -7.961  -6.558   3.194  1.00  0.00     0.029 A 
ATOM     46  C   UNL     1      -9.102  -6.140   3.995  1.00  0.00     0.049 A 
ATOM     47  H   UNL     1      -9.061  -5.782   6.056  1.00  0.00     0.167 HD
ATOM     48  C   UNL     1      -8.571  -3.428   9.954  1.00  0.00     0.034 A 
ATOM     49  C   UNL     1     -10.392  -5.877   3.662  1.00  0.00     0.034 A 
ATOM     50  C   UNL     1      -9.101  -4.720  10.312  1.00  0.00     0.049 A 
ATOM     51  C   UNL     1     -11.155  -5.751   4.936  1.00  0.00     0.074 A 
ATOM     52  C   UNL     1      -8.568  -5.856  10.889  1.00  0.00     0.029 A 
ATOM     53  N   UNL     1     -10.256  -5.119   9.681  1.00  0.00    -0.354 N 
ATOM     54  N   UNL     1     -11.346  -6.748   5.756  1.00  0.00    -0.248 NA
ATOM     55  C   UNL     1     -11.268  -4.424   5.527  1.00  0.00     0.031 C 
ATOM     56  C   UNL     1      -9.152  -6.938  10.167  1.00  0.00     0.029 A 
ATOM     57  C   UNL     1     -10.059  -6.405   9.248  1.00  0.00     0.049 A 
ATOM     58  H   UNL     1     -11.072  -4.582   9.562  1.00  0.00     0.167 HD
ATOM     59  C   UNL     1     -11.152  -6.202   7.020  1.00  0.00     0.074 A 
ATOM     60  C   UNL     1     -11.190  -4.752   6.821  1.00  0.00     0.031 C 
ATOM     61  C   UNL     1     -10.670  -6.951   8.056  1.00  0.00     0.034 A 
BRANCH  48  62
ATOM     62  C   UNL     1      -9.335  -2.152  10.210  1.00  0.00     0.023 A 
ATOM     63  C   UNL     1     -10.296  -2.181  11.243  1.00  0.00     0.012 A 
ATOM     64  C   UNL     1      -9.367  -1.039   9.336  1.00  0.00     0.148 A 
ATOM     65  C   UNL     1     -11.279  -1.192  11.356  1.00  0.00     0.002 A 
ATOM     66  C   UNL     1     -10.297  -0.021   9.498  1.00  0.00     0.091 A 
ATOM     67  F   UNL     1      -8.589  -1.005   8.253  1.00  0.00    -0.205 F 
ATOM     68  C   UNL     1     -11.278  -0.110  10.485  1.00  0.00     0.022 A 
BRANCH  66  69
ATOM     69  S   UNL     1     -10.311   1.418   8.421  1.00  0.00     0.127 S 
ATOM     70  O   UNL     1     -11.497   1.164   7.609  1.00  0.00    -0.237 OA
ATOM     71  O   UNL     1     -10.440   2.510   9.386  1.00  0.00    -0.237 OA
ATOM     72  O   UNL     1      -9.036   1.397   7.715  1.00  0.00    -0.744 OA
ENDBRANCH  66  69
ENDBRANCH  48  62
BRANCH  49  73
ATOM     73  C   UNL     1     -10.934  -5.378   2.372  1.00  0.00     0.023 A 
ATOM     74  C   UNL     1     -12.319  -5.450   2.117  1.00  0.00     0.012 A 
ATOM     75  C   UNL     1     -10.145  -4.587   1.506  1.00  0.00     0.148 A 
ATOM     76  C   UNL     1     -12.898  -4.741   1.054  1.00  0.00     0.002 A 
ATOM     77  C   UNL     1     -10.722  -3.894   0.445  1.00  0.00     0.091 A 
ATOM     78  F   UNL     1      -8.844  -4.429   1.777  1.00  0.00    -0.205 F 
ATOM     79  C   UNL     1     -12.102  -3.960   0.222  1.00  0.00     0.022 A 
BRANCH  77  80
ATOM     80  S   UNL     1      -9.748  -2.854  -0.651  1.00  0.00     0.127 S 
ATOM     81  O   UNL     1     -10.258  -3.237  -1.969  1.00  0.00    -0.237 OA
ATOM     82  O   UNL     1     -10.129  -1.514  -0.213  1.00  0.00    -0.237 OA
ATOM     83  O   UNL     1      -8.359  -3.230  -0.419  1.00  0.00    -0.744 OA
ENDBRANCH  77  80
ENDBRANCH  49  73
BRANCH  61  84
ATOM     84  C   UNL     1     -10.523  -8.441   7.862  1.00  0.00     0.023 A 
ATOM     85  C   UNL     1      -9.648  -8.999   6.906  1.00  0.00     0.012 A 
ATOM     86  C   UNL     1     -11.124  -9.290   8.806  1.00  0.00     0.148 A 
ATOM     87  C   UNL     1      -9.391 -10.373   6.883  1.00  0.00     0.002 A 
ATOM     88  C   UNL     1     -10.829 -10.647   8.812  1.00  0.00     0.091 A 
ATOM     89  F   UNL     1     -11.949  -8.744   9.712  1.00  0.00    -0.205 F 
ATOM     90  C   UNL     1      -9.970 -11.195   7.847  1.00  0.00     0.022 A 
BRANCH  88  91
ATOM     91  S   UNL     1     -11.435 -11.727  10.108  1.00  0.00     0.127 S 
ATOM     92  O   UNL     1     -12.483 -12.475   9.416  1.00  0.00    -0.237 OA
ATOM     93  O   UNL     1     -10.246 -12.511  10.448  1.00  0.00    -0.237 OA
ATOM     94  O   UNL     1     -11.893 -10.851  11.180  1.00  0.00    -0.744 OA
ENDBRANCH  88  91
ENDBRANCH  61  84
ENDBRANCH  35  36
ENDBRANCH  28  30
ENDBRANCH  27  28
ENDBRANCH  26  27
ENDBRANCH  25  26
ENDBRANCH  24  25
ENDBRANCH   1  24
TORSDOF 23
