REMARK SMILES O=C(OCCOCCOC(=O)[C@H](c1c[nH]c2ccc(Cl)cc12)[NH+]1CCN(c2cccc(Cl)c2)CC1)c1ccc(-c2c3nc(c(-c4cccc(S(=O)(=O)[O-])c4F)c4ccc([nH]4)c(-c4cccc(S(=O)(=O)[O-])c4F)c4nc(c(-c5cccc(S(=O)(=O)[O-])c5F)c5ccc2[nH]5)C=C4)C=C3)cc1
REMARK SMILES IDX 5 1 4 2 3 3 2 4 1 5 36 6 37 7 98 8 38 9 97 10 39 11 40 12
REMARK SMILES IDX 41 13 91 14 42 15 96 16 90 17 92 18 43 19 95 20 89 21 88 22
REMARK SMILES IDX 44 24 76 25 56 26 75 27 57 28 60 29 74 30 93 31 58 32 59 33
REMARK SMILES IDX 73 35 94 36 61 37 45 38 46 39 54 40 47 41 49 42 55 43 48 44
REMARK SMILES IDX 50 45 51 46 52 47 53 48 77 49 78 50 86 51 79 52 81 53 87 54
REMARK SMILES IDX 80 55 82 56 83 57 84 58 85 59 62 60 63 61 71 62 64 63 66 64
REMARK SMILES IDX 72 65 65 66 67 67 68 68 69 69 70 70 6 71 7 72 8 73 9 74
REMARK SMILES IDX 10 75 11 76 12 77 23 78 24 79 35 80 25 82 34 83 26 84 27 85
REMARK SMILES IDX 28 86 33 87 29 88 31 89 30 90 32 91 13 92 14 93 22 94 15 95
REMARK SMILES IDX 16 96 21 97 17 99 19 100 18 101 20 102
REMARK H PARENT 92 23 60 34 23 81 15 98
REMARK Flexibility Score: inf
ROOT
ATOM      1  C   UNL     1       5.027   1.734   1.063  1.00  0.00     0.202 C 
ENDROOT
BRANCH   1   2
ATOM      2  C   UNL     1       5.132   1.851  -0.452  1.00  0.00     0.261 C 
BRANCH   2   3
ATOM      3  O   UNL     1       5.834   3.048  -0.799  1.00  0.00    -0.460 OA
BRANCH   3   4
ATOM      4  C   UNL     1       5.266   4.229  -1.141  1.00  0.00     0.338 C 
ATOM      5  O   UNL     1       5.993   5.199  -1.344  1.00  0.00    -0.246 OA
BRANCH   4   6
ATOM      6  C   UNL     1       3.795   4.393  -1.326  1.00  0.00     0.060 A 
ATOM      7  C   UNL     1       2.827   3.813  -0.504  1.00  0.00     0.016 A 
ATOM      8  C   UNL     1       3.366   5.279  -2.322  1.00  0.00     0.016 A 
ATOM      9  C   UNL     1       1.485   4.083  -0.641  1.00  0.00     0.010 A 
ATOM     10  C   UNL     1       2.010   5.593  -2.449  1.00  0.00     0.010 A 
ATOM     11  C   UNL     1       1.078   5.007  -1.585  1.00  0.00    -0.014 A 
BRANCH  11  12
ATOM     12  C   UNL     1      -0.357   5.290  -1.636  1.00  0.00     0.031 A 
ATOM     13  C   UNL     1      -1.151   4.703  -2.749  1.00  0.00     0.074 A 
ATOM     14  C   UNL     1      -0.919   5.955  -0.609  1.00  0.00     0.049 A 
ATOM     15  N   UNL     1      -2.405   4.882  -3.038  1.00  0.00    -0.248 NA
ATOM     16  C   UNL     1      -0.442   3.775  -3.650  1.00  0.00     0.031 C 
ATOM     17  C   UNL     1      -0.205   6.427   0.585  1.00  0.00     0.029 A 
ATOM     18  N   UNL     1      -2.212   6.341  -0.394  1.00  0.00    -0.354 N 
ATOM     19  C   UNL     1      -2.620   4.160  -4.201  1.00  0.00     0.074 A 
ATOM     20  C   UNL     1      -1.385   3.493  -4.537  1.00  0.00     0.031 C 
ATOM     21  C   UNL     1      -1.070   7.055   1.396  1.00  0.00     0.029 A 
ATOM     22  C   UNL     1      -2.367   7.107   0.739  1.00  0.00     0.049 A 
ATOM     23  H   UNL     1      -2.957   6.097  -0.990  1.00  0.00     0.167 HD
ATOM     24  C   UNL     1      -3.755   4.101  -4.927  1.00  0.00     0.034 A 
ATOM     25  C   UNL     1      -3.427   7.827   1.146  1.00  0.00     0.034 A 
ATOM     26  C   UNL     1      -4.961   4.776  -4.541  1.00  0.00     0.049 A 
ATOM     27  C   UNL     1      -4.653   7.791   0.275  1.00  0.00     0.074 A 
ATOM     28  C   UNL     1      -6.175   4.810  -5.196  1.00  0.00     0.029 A 
ATOM     29  N   UNL     1      -5.090   5.556  -3.400  1.00  0.00    -0.354 N 
ATOM     30  N   UNL     1      -4.868   7.088  -0.813  1.00  0.00    -0.248 NA
ATOM     31  C   UNL     1      -5.779   8.639   0.679  1.00  0.00     0.031 C 
ATOM     32  C   UNL     1      -7.026   5.649  -4.471  1.00  0.00     0.029 A 
ATOM     33  C   UNL     1      -6.356   6.101  -3.342  1.00  0.00     0.049 A 
ATOM     34  H   UNL     1      -4.382   5.700  -2.730  1.00  0.00     0.167 HD
ATOM     35  C   UNL     1      -6.159   7.395  -1.216  1.00  0.00     0.074 A 
ATOM     36  C   UNL     1      -6.689   8.319  -0.230  1.00  0.00     0.031 C 
ATOM     37  C   UNL     1      -6.844   6.980  -2.310  1.00  0.00     0.034 A 
BRANCH  24  38
ATOM     38  C   UNL     1      -3.710   3.358  -6.228  1.00  0.00     0.023 A 
ATOM     39  C   UNL     1      -3.698   1.950  -6.255  1.00  0.00     0.012 A 
ATOM     40  C   UNL     1      -3.699   4.078  -7.438  1.00  0.00     0.148 A 
ATOM     41  C   UNL     1      -3.658   1.270  -7.472  1.00  0.00     0.002 A 
ATOM     42  C   UNL     1      -3.705   3.394  -8.645  1.00  0.00     0.091 A 
ATOM     43  F   UNL     1      -3.673   5.417  -7.382  1.00  0.00    -0.205 F 
ATOM     44  C   UNL     1      -3.673   1.990  -8.665  1.00  0.00     0.022 A 
BRANCH  42  45
ATOM     45  S   UNL     1      -3.788   4.231 -10.231  1.00  0.00     0.127 S 
ATOM     46  O   UNL     1      -2.533   3.809 -10.853  1.00  0.00    -0.237 OA
ATOM     47  O   UNL     1      -4.989   3.641 -10.819  1.00  0.00    -0.237 OA
ATOM     48  O   UNL     1      -3.880   5.654  -9.936  1.00  0.00    -0.744 OA
ENDBRANCH  42  45
ENDBRANCH  24  38
BRANCH  25  49
ATOM     49  C   UNL     1      -3.355   8.684   2.365  1.00  0.00     0.023 A 
ATOM     50  C   UNL     1      -4.216   8.434   3.451  1.00  0.00     0.012 A 
ATOM     51  C   UNL     1      -2.455   9.767   2.446  1.00  0.00     0.148 A 
ATOM     52  C   UNL     1      -4.215   9.272   4.568  1.00  0.00     0.002 A 
ATOM     53  C   UNL     1      -2.417  10.561   3.587  1.00  0.00     0.091 A 
ATOM     54  F   UNL     1      -1.655  10.011   1.398  1.00  0.00    -0.205 F 
ATOM     55  C   UNL     1      -3.312  10.329   4.640  1.00  0.00     0.022 A 
BRANCH  53  56
ATOM     56  S   UNL     1      -1.199  11.863   3.807  1.00  0.00     0.127 S 
ATOM     57  O   UNL     1      -2.004  13.064   3.596  1.00  0.00    -0.237 OA
ATOM     58  O   UNL     1      -0.767  11.647   5.189  1.00  0.00    -0.237 OA
ATOM     59  O   UNL     1      -0.167  11.605   2.812  1.00  0.00    -0.744 OA
ENDBRANCH  53  56
ENDBRANCH  25  49
BRANCH  37  60
ATOM     60  C   UNL     1      -8.243   7.500  -2.473  1.00  0.00     0.023 A 
ATOM     61  C   UNL     1      -8.452   8.838  -2.857  1.00  0.00     0.012 A 
ATOM     62  C   UNL     1      -9.341   6.630  -2.336  1.00  0.00     0.148 A 
ATOM     63  C   UNL     1      -9.742   9.312  -3.076  1.00  0.00     0.002 A 
ATOM     64  C   UNL     1     -10.617   7.094  -2.615  1.00  0.00     0.091 A 
ATOM     65  F   UNL     1      -9.111   5.366  -1.953  1.00  0.00    -0.205 F 
ATOM     66  C   UNL     1     -10.822   8.438  -2.971  1.00  0.00     0.022 A 
BRANCH  64  67
ATOM     67  S   UNL     1     -12.049   6.013  -2.618  1.00  0.00     0.127 S 
ATOM     68  O   UNL     1     -12.787   6.494  -1.451  1.00  0.00    -0.237 OA
ATOM     69  O   UNL     1     -12.668   6.326  -3.906  1.00  0.00    -0.237 OA
ATOM     70  O   UNL     1     -11.531   4.655  -2.510  1.00  0.00    -0.744 OA
ENDBRANCH  64  67
ENDBRANCH  37  60
ENDBRANCH  11  12
ENDBRANCH   4   6
ENDBRANCH   3   4
ENDBRANCH   2   3
ENDBRANCH   1   2
BRANCH   1  71
ATOM     71  O   UNL     1       4.416   2.844   1.701  1.00  0.00    -0.374 OA
BRANCH  71  72
ATOM     72  C   UNL     1       5.242   3.892   2.193  1.00  0.00     0.202 C 
BRANCH  72  73
ATOM     73  C   UNL     1       4.843   4.116   3.651  1.00  0.00     0.261 C 
BRANCH  73  74
ATOM     74  O   UNL     1       5.050   2.871   4.337  1.00  0.00    -0.459 OA
BRANCH  74  75
ATOM     75  C   UNL     1       4.016   1.956   4.231  1.00  0.00     0.370 C 
ATOM     76  O   UNL     1       2.849   2.236   4.013  1.00  0.00    -0.245 OA
BRANCH  75  77
ATOM     77  C   UNL     1       4.615   0.550   4.464  1.00  0.00     0.328 C 
BRANCH  77  78
ATOM     78  N   UNL     1       4.384   0.148   5.883  1.00  0.00    -0.316 N 
ATOM     79  C   UNL     1       4.823  -1.234   6.178  1.00  0.00     0.284 C 
ATOM     80  C   UNL     1       5.154   1.048   6.792  1.00  0.00     0.284 C 
ATOM     81  H   UNL     1       3.377   0.214   6.030  1.00  0.00     0.349 HD
ATOM     82  C   UNL     1       6.340  -1.486   6.032  1.00  0.00     0.178 C 
ATOM     83  C   UNL     1       6.691   0.930   6.645  1.00  0.00     0.178 C 
ATOM     84  N   UNL     1       7.118  -0.470   6.758  1.00  0.00    -0.360 N 
BRANCH  84  85
ATOM     85  C   UNL     1       7.827  -0.896   7.865  1.00  0.00     0.038 A 
ATOM     86  C   UNL     1       7.525  -0.440   9.153  1.00  0.00     0.026 A 
ATOM     87  C   UNL     1       8.869  -1.818   7.712  1.00  0.00     0.046 A 
ATOM     88  C   UNL     1       8.243  -0.885  10.262  1.00  0.00     0.004 A 
ATOM     89  C   UNL     1       9.595  -2.254   8.816  1.00  0.00     0.043 A 
ATOM     90  C   UNL     1       9.286  -1.791  10.092  1.00  0.00     0.020 A 
ATOM     91  Cl  UNL     1      10.888  -3.370   8.601  1.00  0.00    -0.084 Cl
ENDBRANCH  84  85
ENDBRANCH  77  78
BRANCH  77  92
ATOM     92  C   UNL     1       4.131  -0.489   3.467  1.00  0.00     0.046 A 
ATOM     93  C   UNL     1       2.833  -0.869   3.180  1.00  0.00     0.094 A 
ATOM     94  C   UNL     1       4.979  -1.288   2.605  1.00  0.00     0.011 A 
ATOM     95  N   UNL     1       2.860  -1.858   2.233  1.00  0.00    -0.361 N 
ATOM     96  C   UNL     1       4.158  -2.155   1.885  1.00  0.00     0.046 A 
ATOM     97  C   UNL     1       6.373  -1.343   2.365  1.00  0.00     0.031 A 
ATOM     98  H   UNL     1       2.063  -2.296   1.855  1.00  0.00     0.166 HD
ATOM     99  C   UNL     1       4.660  -3.108   0.987  1.00  0.00     0.028 A 
ATOM    100  C   UNL     1       6.887  -2.292   1.478  1.00  0.00     0.041 A 
ATOM    101  C   UNL     1       6.046  -3.171   0.806  1.00  0.00     0.022 A 
ATOM    102  Cl  UNL     1       8.589  -2.376   1.224  1.00  0.00    -0.084 Cl
ENDBRANCH  77  92
ENDBRANCH  75  77
ENDBRANCH  74  75
ENDBRANCH  73  74
ENDBRANCH  72  73
ENDBRANCH  71  72
ENDBRANCH   1  71
TORSDOF 20
