REMARK SMILES CSC[C@H](C(=O)OCCOCCOC(=O)c1ccc(-c2c3nc(c(-c4cccc(S(=O)(=O)[O-])c4F)c4ccc([nH]4)c(-c4cccc(S(=O)(=O)[O-])c4F)c4nc(c(-c5cccc(S(=O)(=O)[O-])c5F)c5ccc2[nH]5)C=C4)C=C3)cc1)c1ccccc1
REMARK SMILES IDX 11 1 10 2 9 3 8 4 7 5 5 6 6 7 4 8 3 9 2 10 1 11 79 12 80 13
REMARK SMILES IDX 84 14 81 15 83 16 82 17 12 18 13 19 14 20 15 21 16 22 17 23
REMARK SMILES IDX 78 24 18 25 77 26 19 27 20 28 21 29 71 30 22 31 76 32 70 33
REMARK SMILES IDX 72 34 23 35 75 36 69 37 68 38 24 40 56 41 36 42 55 43 37 44
REMARK SMILES IDX 40 45 54 46 73 47 38 48 39 49 53 51 74 52 41 53 25 54 26 55
REMARK SMILES IDX 34 56 27 57 29 58 35 59 28 60 30 61 31 62 32 63 33 64 57 65
REMARK SMILES IDX 58 66 66 67 59 68 61 69 67 70 60 71 62 72 63 73 64 74 65 75
REMARK SMILES IDX 42 76 43 77 51 78 44 79 46 80 52 81 45 82 47 83 48 84 49 85
REMARK SMILES IDX 50 86
REMARK H PARENT 72 39 40 50
REMARK Flexibility Score: inf
ROOT
ATOM      1  C   UNL     1      -0.003   4.148  -2.934  1.00  0.00     0.202 C 
ENDROOT
BRANCH   1   2
ATOM      2  O   UNL     1       0.890   3.653  -3.928  1.00  0.00    -0.374 OA
BRANCH   2   3
ATOM      3  C   UNL     1       1.322   2.294  -3.818  1.00  0.00     0.202 C 
BRANCH   3   4
ATOM      4  C   UNL     1       2.231   1.964  -2.630  1.00  0.00     0.261 C 
BRANCH   4   5
ATOM      5  O   UNL     1       1.491   2.027  -1.399  1.00  0.00    -0.463 OA
BRANCH   5   6
ATOM      6  C   UNL     1       2.073   2.747  -0.393  1.00  0.00     0.314 C 
ATOM      7  O   UNL     1       3.210   3.200  -0.431  1.00  0.00    -0.252 OA
BRANCH   6   8
ATOM      8  C   UNL     1       1.063   2.976   0.734  1.00  0.00     0.139 C 
BRANCH   8   9
ATOM      9  C   UNL     1       1.046   1.887   1.828  1.00  0.00     0.089 C 
BRANCH   9  10
ATOM     10  S   UNL     1       2.359   0.616   1.784  1.00  0.00    -0.164 SA
ATOM     11  C   UNL     1       1.554  -0.609   0.710  1.00  0.00     0.085 C 
ENDBRANCH   9  10
ENDBRANCH   8   9
BRANCH   8  12
ATOM     12  C   UNL     1       1.202   4.406   1.265  1.00  0.00    -0.033 A 
ATOM     13  C   UNL     1       2.199   4.753   2.189  1.00  0.00     0.004 A 
ATOM     14  C   UNL     1       0.393   5.430   0.739  1.00  0.00     0.004 A 
ATOM     15  C   UNL     1       2.379   6.083   2.576  1.00  0.00     0.000 A 
ATOM     16  C   UNL     1       0.586   6.760   1.115  1.00  0.00     0.000 A 
ATOM     17  C   UNL     1       1.579   7.087   2.034  1.00  0.00     0.000 A 
ENDBRANCH   8  12
ENDBRANCH   6   8
ENDBRANCH   5   6
ENDBRANCH   4   5
ENDBRANCH   3   4
ENDBRANCH   2   3
ENDBRANCH   1   2
BRANCH   1  18
ATOM     18  C   UNL     1      -1.471   3.712  -3.029  1.00  0.00     0.261 C 
BRANCH  18  19
ATOM     19  O   UNL     1      -1.660   2.291  -2.935  1.00  0.00    -0.460 OA
BRANCH  19  20
ATOM     20  C   UNL     1      -2.028   1.701  -4.099  1.00  0.00     0.338 C 
ATOM     21  O   UNL     1      -2.206   2.248  -5.180  1.00  0.00    -0.246 OA
BRANCH  20  22
ATOM     22  C   UNL     1      -2.071   0.237  -3.952  1.00  0.00     0.060 A 
ATOM     23  C   UNL     1      -1.259  -0.529  -4.798  1.00  0.00     0.016 A 
ATOM     24  C   UNL     1      -2.999  -0.376  -3.107  1.00  0.00     0.016 A 
ATOM     25  C   UNL     1      -1.411  -1.914  -4.844  1.00  0.00     0.010 A 
ATOM     26  C   UNL     1      -3.156  -1.764  -3.163  1.00  0.00     0.010 A 
ATOM     27  C   UNL     1      -2.393  -2.533  -4.061  1.00  0.00    -0.014 A 
BRANCH  27  28
ATOM     28  C   UNL     1      -2.740  -3.954  -4.301  1.00  0.00     0.031 A 
ATOM     29  C   UNL     1      -3.936  -4.276  -5.157  1.00  0.00     0.074 A 
ATOM     30  C   UNL     1      -2.012  -4.943  -3.754  1.00  0.00     0.049 A 
ATOM     31  N   UNL     1      -4.457  -5.439  -5.447  1.00  0.00    -0.248 NA
ATOM     32  C   UNL     1      -4.638  -3.133  -5.766  1.00  0.00     0.031 C 
ATOM     33  C   UNL     1      -0.828  -4.755  -2.917  1.00  0.00     0.029 A 
ATOM     34  N   UNL     1      -2.182  -6.304  -3.800  1.00  0.00    -0.354 N 
ATOM     35  C   UNL     1      -5.564  -5.169  -6.243  1.00  0.00     0.074 A 
ATOM     36  C   UNL     1      -5.643  -3.732  -6.388  1.00  0.00     0.031 C 
ATOM     37  C   UNL     1      -0.398  -5.958  -2.498  1.00  0.00     0.029 A 
ATOM     38  C   UNL     1      -1.287  -6.995  -3.019  1.00  0.00     0.049 A 
ATOM     39  H   UNL     1      -2.878  -6.743  -4.341  1.00  0.00     0.167 HD
ATOM     40  C   UNL     1      -6.428  -6.040  -6.815  1.00  0.00     0.034 A 
ATOM     41  C   UNL     1      -1.209  -8.312  -2.740  1.00  0.00     0.034 A 
ATOM     42  C   UNL     1      -6.332  -7.469  -6.693  1.00  0.00     0.049 A 
ATOM     43  C   UNL     1      -2.192  -9.260  -3.378  1.00  0.00     0.074 A 
ATOM     44  C   UNL     1      -7.138  -8.437  -7.265  1.00  0.00     0.029 A 
ATOM     45  N   UNL     1      -5.374  -8.134  -5.946  1.00  0.00    -0.354 N 
ATOM     46  N   UNL     1      -3.165  -8.998  -4.216  1.00  0.00    -0.248 NA
ATOM     47  C   UNL     1      -2.046 -10.688  -3.059  1.00  0.00     0.031 C 
ATOM     48  C   UNL     1      -6.673  -9.690  -6.853  1.00  0.00     0.029 A 
ATOM     49  C   UNL     1      -5.568  -9.501  -6.038  1.00  0.00     0.049 A 
ATOM     50  H   UNL     1      -4.660  -7.699  -5.425  1.00  0.00     0.167 HD
ATOM     51  C   UNL     1      -3.718 -10.228  -4.558  1.00  0.00     0.074 A 
ATOM     52  C   UNL     1      -2.965 -11.237  -3.842  1.00  0.00     0.031 C 
ATOM     53  C   UNL     1      -4.763 -10.496  -5.378  1.00  0.00     0.034 A 
BRANCH  40  54
ATOM     54  C   UNL     1      -7.537  -5.472  -7.659  1.00  0.00     0.023 A 
ATOM     55  C   UNL     1      -7.245  -4.978  -8.946  1.00  0.00     0.012 A 
ATOM     56  C   UNL     1      -8.870  -5.480  -7.205  1.00  0.00     0.148 A 
ATOM     57  C   UNL     1      -8.260  -4.477  -9.760  1.00  0.00     0.002 A 
ATOM     58  C   UNL     1      -9.882  -5.013  -8.037  1.00  0.00     0.091 A 
ATOM     59  F   UNL     1      -9.123  -5.929  -5.968  1.00  0.00    -0.205 F 
ATOM     60  C   UNL     1      -9.578  -4.504  -9.311  1.00  0.00     0.022 A 
BRANCH  58  61
ATOM     61  S   UNL     1     -11.616  -5.072  -7.571  1.00  0.00     0.127 S 
ATOM     62  O   UNL     1     -11.887  -3.669  -7.263  1.00  0.00    -0.237 OA
ATOM     63  O   UNL     1     -12.251  -5.560  -8.796  1.00  0.00    -0.237 OA
ATOM     64  O   UNL     1     -11.694  -5.990  -6.444  1.00  0.00    -0.744 OA
ENDBRANCH  58  61
ENDBRANCH  40  54
BRANCH  41  65
ATOM     65  C   UNL     1      -0.133  -8.817  -1.842  1.00  0.00     0.023 A 
ATOM     66  C   UNL     1       0.914  -9.588  -2.381  1.00  0.00     0.012 A 
ATOM     67  C   UNL     1      -0.127  -8.515  -0.467  1.00  0.00     0.148 A 
ATOM     68  C   UNL     1       1.935 -10.072  -1.562  1.00  0.00     0.002 A 
ATOM     69  C   UNL     1       0.921  -8.955   0.334  1.00  0.00     0.091 A 
ATOM     70  F   UNL     1      -1.144  -7.798   0.032  1.00  0.00    -0.205 F 
ATOM     71  C   UNL     1       1.946  -9.745  -0.208  1.00  0.00     0.022 A 
BRANCH  69  72
ATOM     72  S   UNL     1       1.076  -8.467   2.056  1.00  0.00     0.127 S 
ATOM     73  O   UNL     1       0.674  -9.687   2.750  1.00  0.00    -0.237 OA
ATOM     74  O   UNL     1       2.499  -8.140   2.155  1.00  0.00    -0.237 OA
ATOM     75  O   UNL     1       0.190  -7.321   2.215  1.00  0.00    -0.744 OA
ENDBRANCH  69  72
ENDBRANCH  41  65
BRANCH  53  76
ATOM     76  C   UNL     1      -5.136 -11.938  -5.600  1.00  0.00     0.023 A 
ATOM     77  C   UNL     1      -5.830 -12.642  -4.598  1.00  0.00     0.012 A 
ATOM     78  C   UNL     1      -4.891 -12.558  -6.841  1.00  0.00     0.148 A 
ATOM     79  C   UNL     1      -6.258 -13.951  -4.821  1.00  0.00     0.002 A 
ATOM     80  C   UNL     1      -5.359 -13.846  -7.072  1.00  0.00     0.091 A 
ATOM     81  F   UNL     1      -4.212 -11.875  -7.775  1.00  0.00    -0.205 F 
ATOM     82  C   UNL     1      -6.035 -14.547  -6.060  1.00  0.00     0.022 A 
BRANCH  80  83
ATOM     83  S   UNL     1      -5.199 -14.654  -8.669  1.00  0.00     0.127 S 
ATOM     84  O   UNL     1      -4.138 -15.624  -8.407  1.00  0.00    -0.237 OA
ATOM     85  O   UNL     1      -6.527 -15.239  -8.858  1.00  0.00    -0.237 OA
ATOM     86  O   UNL     1      -4.865 -13.600  -9.618  1.00  0.00    -0.744 OA
ENDBRANCH  80  83
ENDBRANCH  53  76
ENDBRANCH  27  28
ENDBRANCH  20  22
ENDBRANCH  19  20
ENDBRANCH  18  19
ENDBRANCH   1  18
TORSDOF 20
