REMARK SMILES O=C(OCCOCCOC(=O)[C@@H](Cc1ccccc1)N1C(=O)/C(=C/c2ccc3ncccc3c2)SC1=S)c1ccc(-c2c3nc(c(-c4cccc(S(=O)(=O)[O-])c4F)c4ccc([nH]4)c(-c4cccc(S(=O)(=O)[O-])c4F)c4nc(c(-c5cccc(S(=O)(=O)[O-])c5F)c5ccc2[nH]5)C=C4)C=C3)cc1
REMARK SMILES IDX 5 1 4 2 3 3 2 4 1 5 38 6 39 7 100 8 40 9 99 10 41 11 42 12
REMARK SMILES IDX 43 13 93 14 44 15 98 16 92 17 94 18 45 19 97 20 91 21 90 22
REMARK SMILES IDX 46 24 78 25 58 26 77 27 59 28 62 29 76 30 95 31 60 32 61 33
REMARK SMILES IDX 75 35 96 36 63 37 47 38 48 39 56 40 49 41 51 42 57 43 50 44
REMARK SMILES IDX 52 45 53 46 54 47 55 48 79 49 80 50 88 51 81 52 83 53 89 54
REMARK SMILES IDX 82 55 84 56 85 57 86 58 87 59 64 60 65 61 73 62 66 63 68 64
REMARK SMILES IDX 74 65 67 66 69 67 70 68 71 69 72 70 6 71 7 72 8 73 9 74
REMARK SMILES IDX 10 75 11 76 12 77 13 78 14 79 15 80 19 81 16 82 18 83 17 84
REMARK SMILES IDX 20 85 21 86 36 87 22 88 23 89 35 90 37 91 24 92 25 93 26 94
REMARK SMILES IDX 34 95 27 96 33 97 28 98 32 99 29 100 31 101 30 102
REMARK H PARENT 94 23 62 34
REMARK Flexibility Score: inf
ROOT
ATOM      1  C   UNL     1       4.848  -0.501   0.917  1.00  0.00     0.202 C 
ENDROOT
BRANCH   1   2
ATOM      2  C   UNL     1       4.247   0.866   0.567  1.00  0.00     0.261 C 
BRANCH   2   3
ATOM      3  O   UNL     1       2.811   0.852   0.472  1.00  0.00    -0.460 OA
BRANCH   3   4
ATOM      4  C   UNL     1       2.096   0.897  -0.688  1.00  0.00     0.338 C 
ATOM      5  O   UNL     1       0.889   1.105  -0.663  1.00  0.00    -0.246 OA
BRANCH   4   6
ATOM      6  C   UNL     1       2.779   0.696  -1.994  1.00  0.00     0.060 A 
ATOM      7  C   UNL     1       3.844  -0.183  -2.116  1.00  0.00     0.016 A 
ATOM      8  C   UNL     1       2.341   1.346  -3.145  1.00  0.00     0.016 A 
ATOM      9  C   UNL     1       4.601  -0.299  -3.243  1.00  0.00     0.010 A 
ATOM     10  C   UNL     1       3.011   1.126  -4.357  1.00  0.00     0.010 A 
ATOM     11  C   UNL     1       4.154   0.311  -4.391  1.00  0.00    -0.014 A 
BRANCH  11  12
ATOM     12  C   UNL     1       5.010   0.102  -5.558  1.00  0.00     0.031 A 
ATOM     13  C   UNL     1       5.826   1.254  -6.026  1.00  0.00     0.074 A 
ATOM     14  C   UNL     1       5.190  -1.155  -6.011  1.00  0.00     0.049 A 
ATOM     15  N   UNL     1       6.607   1.333  -7.061  1.00  0.00    -0.248 NA
ATOM     16  C   UNL     1       5.768   2.483  -5.210  1.00  0.00     0.031 C 
ATOM     17  C   UNL     1       4.562  -2.361  -5.447  1.00  0.00     0.029 A 
ATOM     18  N   UNL     1       5.981  -1.639  -7.011  1.00  0.00    -0.354 N 
ATOM     19  C   UNL     1       7.063   2.642  -7.076  1.00  0.00     0.074 A 
ATOM     20  C   UNL     1       6.507   3.314  -5.926  1.00  0.00     0.031 C 
ATOM     21  C   UNL     1       5.005  -3.441  -6.104  1.00  0.00     0.029 A 
ATOM     22  C   UNL     1       5.853  -2.996  -7.197  1.00  0.00     0.049 A 
ATOM     23  H   UNL     1       6.584  -1.074  -7.547  1.00  0.00     0.167 HD
ATOM     24  C   UNL     1       7.860   3.218  -7.999  1.00  0.00     0.034 A 
ATOM     25  C   UNL     1       6.320  -3.770  -8.191  1.00  0.00     0.034 A 
ATOM     26  C   UNL     1       8.391   2.490  -9.115  1.00  0.00     0.049 A 
ATOM     27  C   UNL     1       7.126  -3.082  -9.256  1.00  0.00     0.074 A 
ATOM     28  C   UNL     1       9.152   2.954 -10.168  1.00  0.00     0.029 A 
ATOM     29  N   UNL     1       8.201   1.127  -9.318  1.00  0.00    -0.354 N 
ATOM     30  N   UNL     1       7.510  -1.827  -9.312  1.00  0.00    -0.248 NA
ATOM     31  C   UNL     1       7.564  -3.901 -10.389  1.00  0.00     0.031 C 
ATOM     32  C   UNL     1       9.392   1.875 -11.026  1.00  0.00     0.029 A 
ATOM     33  C   UNL     1       8.822   0.731 -10.484  1.00  0.00     0.049 A 
ATOM     34  H   UNL     1       7.696   0.533  -8.717  1.00  0.00     0.167 HD
ATOM     35  C   UNL     1       8.259  -1.708 -10.472  1.00  0.00     0.074 A 
ATOM     36  C   UNL     1       8.292  -3.030 -11.074  1.00  0.00     0.031 C 
ATOM     37  C   UNL     1       8.855  -0.614 -11.006  1.00  0.00     0.034 A 
BRANCH  24  38
ATOM     38  C   UNL     1       8.107   4.692  -7.862  1.00  0.00     0.023 A 
ATOM     39  C   UNL     1       8.933   5.191  -6.835  1.00  0.00     0.012 A 
ATOM     40  C   UNL     1       7.471   5.592  -8.738  1.00  0.00     0.148 A 
ATOM     41  C   UNL     1       9.089   6.566  -6.658  1.00  0.00     0.002 A 
ATOM     42  C   UNL     1       7.669   6.958  -8.585  1.00  0.00     0.091 A 
ATOM     43  F   UNL     1       6.658   5.097  -9.682  1.00  0.00    -0.205 F 
ATOM     44  C   UNL     1       8.465   7.447  -7.537  1.00  0.00     0.022 A 
BRANCH  42  45
ATOM     45  S   UNL     1       6.955   8.169  -9.701  1.00  0.00     0.127 S 
ATOM     46  O   UNL     1       6.044   8.889  -8.811  1.00  0.00    -0.237 OA
ATOM     47  O   UNL     1       8.134   8.931 -10.113  1.00  0.00    -0.237 OA
ATOM     48  O   UNL     1       6.312   7.412 -10.765  1.00  0.00    -0.744 OA
ENDBRANCH  42  45
ENDBRANCH  24  38
BRANCH  25  49
ATOM     49  C   UNL     1       5.999  -5.225  -8.248  1.00  0.00     0.023 A 
ATOM     50  C   UNL     1       7.034  -6.174  -8.157  1.00  0.00     0.012 A 
ATOM     51  C   UNL     1       4.669  -5.678  -8.380  1.00  0.00     0.148 A 
ATOM     52  C   UNL     1       6.757  -7.541  -8.232  1.00  0.00     0.002 A 
ATOM     53  C   UNL     1       4.393  -7.041  -8.398  1.00  0.00     0.091 A 
ATOM     54  F   UNL     1       3.692  -4.765  -8.480  1.00  0.00    -0.205 F 
ATOM     55  C   UNL     1       5.438  -7.974  -8.344  1.00  0.00     0.022 A 
BRANCH  53  56
ATOM     56  S   UNL     1       2.717  -7.688  -8.420  1.00  0.00     0.127 S 
ATOM     57  O   UNL     1       2.636  -8.262  -9.760  1.00  0.00    -0.237 OA
ATOM     58  O   UNL     1       2.756  -8.665  -7.331  1.00  0.00    -0.237 OA
ATOM     59  O   UNL     1       1.849  -6.545  -8.169  1.00  0.00    -0.744 OA
ENDBRANCH  53  56
ENDBRANCH  25  49
BRANCH  37  60
ATOM     60  C   UNL     1       9.635  -0.821 -12.271  1.00  0.00     0.023 A 
ATOM     61  C   UNL     1       8.962  -1.031 -13.489  1.00  0.00     0.012 A 
ATOM     62  C   UNL     1      11.038  -0.711 -12.253  1.00  0.00     0.148 A 
ATOM     63  C   UNL     1       9.682  -1.160 -14.673  1.00  0.00     0.002 A 
ATOM     64  C   UNL     1      11.743  -0.779 -13.444  1.00  0.00     0.091 A 
ATOM     65  F   UNL     1      11.651  -0.531 -11.073  1.00  0.00    -0.205 F 
ATOM     66  C   UNL     1      11.069  -1.018 -14.653  1.00  0.00     0.022 A 
BRANCH  64  67
ATOM     67  S   UNL     1      13.511  -0.488 -13.524  1.00  0.00     0.127 S 
ATOM     68  O   UNL     1      14.019  -1.826 -13.820  1.00  0.00    -0.237 OA
ATOM     69  O   UNL     1      13.615   0.465 -14.630  1.00  0.00    -0.237 OA
ATOM     70  O   UNL     1      13.891   0.051 -12.225  1.00  0.00    -0.744 OA
ENDBRANCH  64  67
ENDBRANCH  37  60
ENDBRANCH  11  12
ENDBRANCH   4   6
ENDBRANCH   3   4
ENDBRANCH   2   3
ENDBRANCH   1   2
BRANCH   1  71
ATOM     71  O   UNL     1       4.281  -1.680   0.363  1.00  0.00    -0.374 OA
BRANCH  71  72
ATOM     72  C   UNL     1       2.935  -2.044   0.654  1.00  0.00     0.202 C 
BRANCH  72  73
ATOM     73  C   UNL     1       2.926  -3.520   1.054  1.00  0.00     0.261 C 
BRANCH  73  74
ATOM     74  O   UNL     1       3.394  -3.633   2.411  1.00  0.00    -0.462 OA
BRANCH  74  75
ATOM     75  C   UNL     1       4.688  -3.273   2.620  1.00  0.00     0.329 C 
ATOM     76  O   UNL     1       5.583  -3.364   1.789  1.00  0.00    -0.250 OA
BRANCH  75  77
ATOM     77  C   UNL     1       4.925  -2.801   4.071  1.00  0.00     0.206 C 
BRANCH  77  78
ATOM     78  C   UNL     1       4.159  -1.490   4.403  1.00  0.00     0.073 C 
BRANCH  78  79
ATOM     79  C   UNL     1       2.657  -1.311   4.241  1.00  0.00    -0.045 A 
ATOM     80  C   UNL     1       2.159  -0.003   4.081  1.00  0.00     0.004 A 
ATOM     81  C   UNL     1       1.723  -2.354   4.287  1.00  0.00     0.004 A 
ATOM     82  C   UNL     1       0.788   0.244   3.951  1.00  0.00     0.000 A 
ATOM     83  C   UNL     1       0.354  -2.111   4.136  1.00  0.00     0.000 A 
ATOM     84  C   UNL     1      -0.115  -0.812   3.974  1.00  0.00     0.000 A 
ENDBRANCH  78  79
ENDBRANCH  77  78
BRANCH  77  85
ATOM     85  N   UNL     1       4.760  -3.990   4.921  1.00  0.00    -0.278 N 
ATOM     86  C   UNL     1       5.475  -5.108   4.511  1.00  0.00     0.267 C 
ATOM     87  C   UNL     1       4.211  -4.129   6.173  1.00  0.00     0.149 C 
ATOM     88  O   UNL     1       6.453  -5.135   3.773  1.00  0.00    -0.268 OA
ATOM     89  C   UNL     1       4.913  -6.303   5.139  1.00  0.00     0.081 C 
ATOM     90  S   UNL     1       4.060  -5.844   6.551  1.00  0.00    -0.054 SA
ATOM     91  S   UNL     1       3.753  -2.997   7.305  1.00  0.00    -0.052 S 
ATOM     92  C   UNL     1       5.024  -7.506   4.563  1.00  0.00     0.029 C 
BRANCH  92  93
ATOM     93  C   UNL     1       4.393  -8.681   5.146  1.00  0.00    -0.024 A 
ATOM     94  C   UNL     1       5.181  -9.619   5.802  1.00  0.00     0.010 A 
ATOM     95  C   UNL     1       3.000  -8.779   5.192  1.00  0.00     0.018 A 
ATOM     96  C   UNL     1       4.570 -10.617   6.562  1.00  0.00     0.029 A 
ATOM     97  C   UNL     1       2.397  -9.755   5.992  1.00  0.00     0.001 A 
ATOM     98  C   UNL     1       3.189 -10.687   6.696  1.00  0.00     0.070 A 
ATOM     99  C   UNL     1       1.008  -9.800   6.154  1.00  0.00     0.012 A 
ATOM    100  N   UNL     1       2.651 -11.611   7.507  1.00  0.00    -0.256 NA
ATOM    101  C   UNL     1       0.452 -10.743   7.006  1.00  0.00     0.021 A 
ATOM    102  C   UNL     1       1.307 -11.617   7.651  1.00  0.00     0.112 A 
ENDBRANCH  92  93
ENDBRANCH  77  85
ENDBRANCH  75  77
ENDBRANCH  74  75
ENDBRANCH  73  74
ENDBRANCH  72  73
ENDBRANCH  71  72
ENDBRANCH   1  71
TORSDOF 21
