REMARK SMILES Cc1nc(C)c(C(=O)N[C@@H](Cc2ccccc2)C(=O)OCCOCCOC(=O)c2ccc(-c3c4nc(c(-c5cccc(S(=O)(=O)[O-])c5F)c5ccc([nH]5)c(-c5cccc(S(=O)(=O)[O-])c5F)c5nc(c(-c6cccc(S(=O)(=O)[O-])c6F)c6ccc3[nH]6)C=C5)C=C4)cc2)s1
REMARK SMILES IDX 24 1 23 2 22 3 21 4 20 5 18 6 19 7 10 8 9 9 7 10 8 11 6 13
REMARK SMILES IDX 1 14 2 15 3 16 92 17 4 18 5 19 11 20 12 21 13 22 17 23 14 24
REMARK SMILES IDX 16 25 15 26 25 27 26 28 27 29 28 30 29 31 30 32 91 33 31 34
REMARK SMILES IDX 90 35 32 36 33 37 34 38 84 39 35 40 89 41 83 42 85 43 36 44
REMARK SMILES IDX 88 45 82 46 81 47 37 49 69 50 49 51 68 52 50 53 53 54 67 55
REMARK SMILES IDX 86 56 51 57 52 58 66 60 87 61 54 62 38 63 39 64 47 65 40 66
REMARK SMILES IDX 42 67 48 68 41 69 43 70 44 71 45 72 46 73 70 74 71 75 79 76
REMARK SMILES IDX 72 77 74 78 80 79 73 80 75 81 76 82 77 83 78 84 55 85 56 86
REMARK SMILES IDX 64 87 57 88 59 89 65 90 58 91 60 92 61 93 62 94 63 95
REMARK H PARENT 9 12 85 48 53 59
REMARK Flexibility Score: inf
ROOT
ATOM      1  C   UNL     1       0.252  -3.503  -3.439  1.00  0.00     0.202 C 
ENDROOT
BRANCH   1   2
ATOM      2  O   UNL     1       1.274  -4.273  -4.073  1.00  0.00    -0.374 OA
BRANCH   2   3
ATOM      3  C   UNL     1       1.365  -5.655  -3.729  1.00  0.00     0.202 C 
BRANCH   3   4
ATOM      4  C   UNL     1       1.904  -5.982  -2.333  1.00  0.00     0.261 C 
BRANCH   4   5
ATOM      5  O   UNL     1       1.162  -5.314  -1.301  1.00  0.00    -0.462 OA
BRANCH   5   6
ATOM      6  C   UNL     1       1.897  -4.664  -0.355  1.00  0.00     0.329 C 
ATOM      7  O   UNL     1       3.120  -4.696  -0.270  1.00  0.00    -0.250 OA
BRANCH   6   8
ATOM      8  C   UNL     1       1.011  -3.958   0.685  1.00  0.00     0.197 C 
BRANCH   8   9
ATOM      9  N   UNL     1      -0.364  -3.705   0.224  1.00  0.00    -0.338 N 
ATOM     10  C   UNL     1      -1.065  -2.573  -0.119  1.00  0.00     0.263 C 
ATOM     11  O   UNL     1      -2.232  -2.776  -0.467  1.00  0.00    -0.268 OA
ATOM     12  H   UNL     1      -0.900  -4.527   0.145  1.00  0.00     0.164 HD
BRANCH  10  13
ATOM     13  C   UNL     1      -0.515  -1.224  -0.074  1.00  0.00     0.115 A 
ATOM     14  C   UNL     1       1.949   1.795  -0.090  1.00  0.00     0.079 C 
ATOM     15  C   UNL     1       0.836   0.808  -0.101  1.00  0.00     0.091 A 
ATOM     16  N   UNL     1      -0.422   1.121   0.097  1.00  0.00    -0.246 NA
ATOM     17  S   UNL     1       1.127  -0.845  -0.409  1.00  0.00    -0.113 S 
ATOM     18  C   UNL     1      -1.213  -0.024   0.069  1.00  0.00     0.061 A 
ATOM     19  C   UNL     1      -2.681   0.196   0.202  1.00  0.00     0.068 C 
ENDBRANCH  10  13
ENDBRANCH   8   9
BRANCH   8  20
ATOM     20  C   UNL     1       1.048  -4.755   2.001  1.00  0.00     0.072 C 
BRANCH  20  21
ATOM     21  C   UNL     1       0.490  -6.155   1.912  1.00  0.00    -0.045 A 
ATOM     22  C   UNL     1      -0.864  -6.399   2.174  1.00  0.00     0.004 A 
ATOM     23  C   UNL     1       1.320  -7.231   1.561  1.00  0.00     0.004 A 
ATOM     24  C   UNL     1      -1.376  -7.694   2.089  1.00  0.00     0.000 A 
ATOM     25  C   UNL     1       0.804  -8.524   1.475  1.00  0.00     0.000 A 
ATOM     26  C   UNL     1      -0.543  -8.755   1.741  1.00  0.00     0.000 A 
ENDBRANCH  20  21
ENDBRANCH   8  20
ENDBRANCH   6   8
ENDBRANCH   5   6
ENDBRANCH   4   5
ENDBRANCH   3   4
ENDBRANCH   2   3
ENDBRANCH   1   2
BRANCH   1  27
ATOM     27  C   UNL     1      -1.205  -3.798  -3.823  1.00  0.00     0.261 C 
BRANCH  27  28
ATOM     28  O   UNL     1      -1.631  -5.127  -3.470  1.00  0.00    -0.460 OA
BRANCH  28  29
ATOM     29  C   UNL     1      -1.998  -5.899  -4.522  1.00  0.00     0.338 C 
ATOM     30  O   UNL     1      -2.021  -5.573  -5.703  1.00  0.00    -0.246 OA
BRANCH  29  31
ATOM     31  C   UNL     1      -2.223  -7.292  -4.101  1.00  0.00     0.060 A 
ATOM     32  C   UNL     1      -1.452  -8.287  -4.716  1.00  0.00     0.016 A 
ATOM     33  C   UNL     1      -3.253  -7.634  -3.223  1.00  0.00     0.016 A 
ATOM     34  C   UNL     1      -1.744  -9.632  -4.496  1.00  0.00     0.010 A 
ATOM     35  C   UNL     1      -3.549  -8.986  -3.010  1.00  0.00     0.010 A 
ATOM     36  C   UNL     1      -2.821  -9.990  -3.675  1.00  0.00    -0.014 A 
BRANCH  36  37
ATOM     37  C   UNL     1      -3.259 -11.407  -3.620  1.00  0.00     0.031 A 
ATOM     38  C   UNL     1      -4.431 -11.851  -4.455  1.00  0.00     0.074 A 
ATOM     39  C   UNL     1      -2.610 -12.295  -2.845  1.00  0.00     0.049 A 
ATOM     40  N   UNL     1      -4.973 -13.037  -4.555  1.00  0.00    -0.248 NA
ATOM     41  C   UNL     1      -5.077 -10.822  -5.287  1.00  0.00     0.031 C 
ATOM     42  C   UNL     1      -1.461 -11.989  -1.994  1.00  0.00     0.029 A 
ATOM     43  N   UNL     1      -2.841 -13.632  -2.635  1.00  0.00    -0.354 N 
ATOM     44  C   UNL     1      -6.035 -12.896  -5.441  1.00  0.00     0.074 A 
ATOM     45  C   UNL     1      -6.069 -11.505  -5.840  1.00  0.00     0.031 C 
ATOM     46  C   UNL     1      -1.102 -13.103  -1.333  1.00  0.00     0.029 A 
ATOM     47  C   UNL     1      -2.006 -14.193  -1.698  1.00  0.00     0.049 A 
ATOM     48  H   UNL     1      -3.537 -14.140  -3.110  1.00  0.00     0.167 HD
ATOM     49  C   UNL     1      -6.893 -13.840  -5.895  1.00  0.00     0.034 A 
ATOM     50  C   UNL     1      -1.985 -15.438  -1.182  1.00  0.00     0.034 A 
ATOM     51  C   UNL     1      -6.846 -15.227  -5.517  1.00  0.00     0.049 A 
ATOM     52  C   UNL     1      -2.966 -16.464  -1.688  1.00  0.00     0.074 A 
ATOM     53  C   UNL     1      -7.643 -16.267  -5.962  1.00  0.00     0.029 A 
ATOM     54  N   UNL     1      -5.963 -15.766  -4.595  1.00  0.00    -0.354 N 
ATOM     55  N   UNL     1      -3.880 -16.345  -2.621  1.00  0.00    -0.248 NA
ATOM     56  C   UNL     1      -2.893 -17.807  -1.091  1.00  0.00     0.031 C 
ATOM     57  C   UNL     1      -7.253 -17.433  -5.294  1.00  0.00     0.029 A 
ATOM     58  C   UNL     1      -6.201 -17.122  -4.447  1.00  0.00     0.049 A 
ATOM     59  H   UNL     1      -5.268 -15.260  -4.116  1.00  0.00     0.167 HD
ATOM     60  C   UNL     1      -4.465 -17.600  -2.747  1.00  0.00     0.074 A 
ATOM     61  C   UNL     1      -3.788 -18.472  -1.809  1.00  0.00     0.031 C 
ATOM     62  C   UNL     1      -5.483 -17.992  -3.553  1.00  0.00     0.034 A 
BRANCH  49  63
ATOM     63  C   UNL     1      -7.940 -13.413  -6.890  1.00  0.00     0.023 A 
ATOM     64  C   UNL     1      -7.564 -13.156  -8.223  1.00  0.00     0.012 A 
ATOM     65  C   UNL     1      -9.297 -13.329  -6.524  1.00  0.00     0.148 A 
ATOM     66  C   UNL     1      -8.519 -12.796  -9.173  1.00  0.00     0.002 A 
ATOM     67  C   UNL     1     -10.249 -13.008  -7.486  1.00  0.00     0.091 A 
ATOM     68  F   UNL     1      -9.631 -13.556  -5.246  1.00  0.00    -0.205 F 
ATOM     69  C   UNL     1      -9.861 -12.732  -8.807  1.00  0.00     0.022 A 
BRANCH  67  70
ATOM     70  S   UNL     1     -12.010 -12.970  -7.129  1.00  0.00     0.127 S 
ATOM     71  O   UNL     1     -12.284 -11.534  -7.150  1.00  0.00    -0.237 OA
ATOM     72  O   UNL     1     -12.570 -13.714  -8.257  1.00  0.00    -0.237 OA
ATOM     73  O   UNL     1     -12.170 -13.619  -5.835  1.00  0.00    -0.744 OA
ENDBRANCH  67  70
ENDBRANCH  49  63
BRANCH  50  74
ATOM     74  C   UNL     1      -0.974 -15.797  -0.149  1.00  0.00     0.023 A 
ATOM     75  C   UNL     1       0.059 -16.698  -0.469  1.00  0.00     0.012 A 
ATOM     76  C   UNL     1      -1.021 -15.237   1.143  1.00  0.00     0.148 A 
ATOM     77  C   UNL     1       1.011 -17.057   0.487  1.00  0.00     0.002 A 
ATOM     78  C   UNL     1      -0.037 -15.554   2.071  1.00  0.00     0.091 A 
ATOM     79  F   UNL     1      -2.026 -14.400   1.437  1.00  0.00    -0.205 F 
ATOM     80  C   UNL     1       0.970 -16.477   1.752  1.00  0.00     0.022 A 
BRANCH  78  81
ATOM     81  S   UNL     1       0.060 -14.742   3.671  1.00  0.00     0.127 S 
ATOM     82  O   UNL     1      -0.437 -15.783   4.566  1.00  0.00    -0.237 OA
ATOM     83  O   UNL     1       1.492 -14.461   3.784  1.00  0.00    -0.237 OA
ATOM     84  O   UNL     1      -0.772 -13.551   3.550  1.00  0.00    -0.744 OA
ENDBRANCH  78  81
ENDBRANCH  50  74
BRANCH  62  85
ATOM     85  C   UNL     1      -5.918 -19.433  -3.483  1.00  0.00     0.023 A 
ATOM     86  C   UNL     1      -6.654 -19.886  -2.371  1.00  0.00     0.012 A 
ATOM     87  C   UNL     1      -5.667 -20.316  -4.553  1.00  0.00     0.148 A 
ATOM     88  C   UNL     1      -7.109 -21.203  -2.310  1.00  0.00     0.002 A 
ATOM     89  C   UNL     1      -6.163 -21.615  -4.505  1.00  0.00     0.091 A 
ATOM     90  F   UNL     1      -4.948 -19.873  -5.594  1.00  0.00    -0.205 F 
ATOM     91  C   UNL     1      -6.875 -22.062  -3.381  1.00  0.00     0.022 A 
BRANCH  89  92
ATOM     92  S   UNL     1      -5.987 -22.761  -5.878  1.00  0.00     0.127 S 
ATOM     93  O   UNL     1      -4.946 -23.660  -5.384  1.00  0.00    -0.237 OA
ATOM     94  O   UNL     1      -7.320 -23.358  -5.960  1.00  0.00    -0.237 OA
ATOM     95  O   UNL     1      -5.619 -21.949  -7.030  1.00  0.00    -0.744 OA
ENDBRANCH  89  92
ENDBRANCH  62  85
ENDBRANCH  36  37
ENDBRANCH  29  31
ENDBRANCH  28  29
ENDBRANCH  27  28
ENDBRANCH   1  27
TORSDOF 21
