REMARK SMILES C[C@@H](C(=O)OCCOCCOC(=O)c1ccc(-c2c3nc(c(-c4cccc(S(=O)(=O)[O-])c4F)c4ccc([nH]4)c(-c4cccc(S(=O)(=O)[O-])c4F)c4nc(c(-c5cccc(S(=O)(=O)[O-])c5F)c5ccc2[nH]5)C=C4)C=C3)cc1)c1ccc(-c2ccc3[nH]ccc3c2)cc1
REMARK SMILES IDX 9 1 8 2 7 3 6 4 5 5 3 6 4 7 2 8 1 9 77 10 78 11 91 12 79 13
REMARK SMILES IDX 90 14 80 15 81 16 82 17 89 18 83 19 88 20 84 21 87 22 85 23
REMARK SMILES IDX 86 24 10 26 11 27 12 28 13 29 14 30 15 31 76 32 16 33 75 34
REMARK SMILES IDX 17 35 18 36 19 37 69 38 20 39 74 40 68 41 70 42 21 43 73 44
REMARK SMILES IDX 67 45 66 46 22 48 54 49 34 50 53 51 35 52 38 53 52 54 71 55
REMARK SMILES IDX 36 56 37 57 51 59 72 60 39 61 23 62 24 63 32 64 25 65 27 66
REMARK SMILES IDX 33 67 26 68 28 69 29 70 30 71 31 72 55 73 56 74 64 75 57 76
REMARK SMILES IDX 59 77 65 78 58 79 60 80 61 81 62 82 63 83 40 84 41 85 49 86
REMARK SMILES IDX 42 87 44 88 50 89 43 90 45 91 46 92 47 93 48 94
REMARK H PARENT 85 25 70 47 38 58
REMARK Flexibility Score: inf
ROOT
ATOM      1  C   UNL     1       0.343   3.221  -1.357  1.00  0.00     0.202 C 
ENDROOT
BRANCH   1   2
ATOM      2  O   UNL     1       0.730   4.490  -0.823  1.00  0.00    -0.374 OA
BRANCH   2   3
ATOM      3  C   UNL     1       2.017   4.578  -0.206  1.00  0.00     0.202 C 
BRANCH   3   4
ATOM      4  C   UNL     1       2.146   3.924   1.174  1.00  0.00     0.261 C 
BRANCH   4   5
ATOM      5  O   UNL     1       1.877   2.516   1.092  1.00  0.00    -0.463 OA
BRANCH   5   6
ATOM      6  C   UNL     1       1.176   1.986   2.131  1.00  0.00     0.313 C 
ATOM      7  O   UNL     1       0.966   2.570   3.190  1.00  0.00    -0.252 OA
BRANCH   6   8
ATOM      8  C   UNL     1       0.548   0.634   1.780  1.00  0.00     0.126 C 
ATOM      9  C   UNL     1       1.241  -0.078   0.610  1.00  0.00     0.025 C 
BRANCH   8  10
ATOM     10  C   UNL     1      -0.969   0.698   1.575  1.00  0.00    -0.034 A 
ATOM     11  C   UNL     1      -1.667   1.909   1.437  1.00  0.00     0.005 A 
ATOM     12  C   UNL     1      -1.714  -0.492   1.537  1.00  0.00     0.005 A 
ATOM     13  C   UNL     1      -3.058   1.928   1.282  1.00  0.00     0.009 A 
ATOM     14  C   UNL     1      -3.107  -0.471   1.383  1.00  0.00     0.009 A 
ATOM     15  C   UNL     1      -3.799   0.741   1.262  1.00  0.00    -0.018 A 
BRANCH  15  16
ATOM     16  C   UNL     1      -5.261   0.779   1.152  1.00  0.00    -0.018 A 
ATOM     17  C   UNL     1      -5.882   1.055  -0.074  1.00  0.00     0.011 A 
ATOM     18  C   UNL     1      -6.061   0.576   2.293  1.00  0.00     0.019 A 
ATOM     19  C   UNL     1      -7.276   1.137  -0.196  1.00  0.00     0.027 A 
ATOM     20  C   UNL     1      -7.464   0.666   2.200  1.00  0.00    -0.000 A 
ATOM     21  C   UNL     1      -8.038   0.943   0.961  1.00  0.00     0.045 A 
ATOM     22  C   UNL     1      -8.527   0.546   3.138  1.00  0.00     0.028 A 
ATOM     23  N   UNL     1      -9.402   0.980   1.146  1.00  0.00    -0.361 N 
ATOM     24  C   UNL     1      -9.708   0.748   2.461  1.00  0.00     0.083 A 
ATOM     25  H   UNL     1     -10.062   1.150   0.435  1.00  0.00     0.166 HD
ENDBRANCH  15  16
ENDBRANCH   8  10
ENDBRANCH   6   8
ENDBRANCH   5   6
ENDBRANCH   4   5
ENDBRANCH   3   4
ENDBRANCH   2   3
ENDBRANCH   1   2
BRANCH   1  26
ATOM     26  C   UNL     1       1.033   2.771  -2.650  1.00  0.00     0.261 C 
BRANCH  26  27
ATOM     27  O   UNL     1       2.441   2.529  -2.473  1.00  0.00    -0.460 OA
BRANCH  27  28
ATOM     28  C   UNL     1       3.249   3.326  -3.212  1.00  0.00     0.338 C 
ATOM     29  O   UNL     1       2.905   4.154  -4.046  1.00  0.00    -0.246 OA
BRANCH  28  30
ATOM     30  C   UNL     1       4.648   3.205  -2.763  1.00  0.00     0.060 A 
ATOM     31  C   UNL     1       5.304   4.381  -2.377  1.00  0.00     0.016 A 
ATOM     32  C   UNL     1       5.337   1.992  -2.812  1.00  0.00     0.016 A 
ATOM     33  C   UNL     1       6.667   4.359  -2.089  1.00  0.00     0.010 A 
ATOM     34  C   UNL     1       6.709   1.973  -2.530  1.00  0.00     0.010 A 
ATOM     35  C   UNL     1       7.387   3.162  -2.205  1.00  0.00    -0.014 A 
BRANCH  35  36
ATOM     36  C   UNL     1       8.868   3.192  -2.121  1.00  0.00     0.031 A 
ATOM     37  C   UNL     1       9.676   3.202  -3.390  1.00  0.00     0.074 A 
ATOM     38  C   UNL     1       9.487   3.223  -0.927  1.00  0.00     0.049 A 
ATOM     39  N   UNL     1      10.974   3.234  -3.545  1.00  0.00    -0.248 NA
ATOM     40  C   UNL     1       8.920   3.173  -4.654  1.00  0.00     0.031 C 
ATOM     41  C   UNL     1       8.816   3.217   0.372  1.00  0.00     0.029 A 
ATOM     42  N   UNL     1      10.824   3.247  -0.617  1.00  0.00    -0.354 N 
ATOM     43  C   UNL     1      11.194   3.207  -4.917  1.00  0.00     0.074 A 
ATOM     44  C   UNL     1       9.895   3.143  -5.552  1.00  0.00     0.031 C 
ATOM     45  C   UNL     1       9.747   3.209   1.342  1.00  0.00     0.029 A 
ATOM     46  C   UNL     1      11.076   3.194   0.733  1.00  0.00     0.049 A 
ATOM     47  H   UNL     1      11.535   3.298  -1.296  1.00  0.00     0.167 HD
ATOM     48  C   UNL     1      12.368   3.251  -5.589  1.00  0.00     0.034 A 
ATOM     49  C   UNL     1      12.246   3.125   1.401  1.00  0.00     0.034 A 
ATOM     50  C   UNL     1      13.658   3.339  -4.959  1.00  0.00     0.049 A 
ATOM     51  C   UNL     1      13.539   3.159   0.628  1.00  0.00     0.074 A 
ATOM     52  C   UNL     1      14.902   3.440  -5.557  1.00  0.00     0.029 A 
ATOM     53  N   UNL     1      13.872   3.328  -3.590  1.00  0.00    -0.354 N 
ATOM     54  N   UNL     1      13.726   3.266  -0.665  1.00  0.00    -0.248 NA
ATOM     55  C   UNL     1      14.784   3.098   1.410  1.00  0.00     0.031 C 
ATOM     56  C   UNL     1      15.870   3.470  -4.548  1.00  0.00     0.029 A 
ATOM     57  C   UNL     1      15.228   3.407  -3.322  1.00  0.00     0.049 A 
ATOM     58  H   UNL     1      13.164   3.271  -2.909  1.00  0.00     0.167 HD
ATOM     59  C   UNL     1      15.104   3.319  -0.849  1.00  0.00     0.074 A 
ATOM     60  C   UNL     1      15.704   3.252   0.467  1.00  0.00     0.031 C 
ATOM     61  C   UNL     1      15.810   3.398  -2.005  1.00  0.00     0.034 A 
BRANCH  48  62
ATOM     62  C   UNL     1      12.312   3.242  -7.093  1.00  0.00     0.023 A 
ATOM     63  C   UNL     1      11.912   4.408  -7.778  1.00  0.00     0.012 A 
ATOM     64  C   UNL     1      12.709   2.109  -7.828  1.00  0.00     0.148 A 
ATOM     65  C   UNL     1      11.883   4.437  -9.171  1.00  0.00     0.002 A 
ATOM     66  C   UNL     1      12.713   2.158  -9.218  1.00  0.00     0.091 A 
ATOM     67  F   UNL     1      13.061   1.002  -7.158  1.00  0.00    -0.205 F 
ATOM     68  C   UNL     1      12.293   3.317  -9.890  1.00  0.00     0.022 A 
BRANCH  66  69
ATOM     69  S   UNL     1      13.289   0.790 -10.230  1.00  0.00     0.127 S 
ATOM     70  O   UNL     1      12.032   0.270 -10.766  1.00  0.00    -0.237 OA
ATOM     71  O   UNL     1      14.136   1.467 -11.213  1.00  0.00    -0.237 OA
ATOM     72  O   UNL     1      14.004  -0.102  -9.328  1.00  0.00    -0.744 OA
ENDBRANCH  66  69
ENDBRANCH  48  62
BRANCH  49  73
ATOM     73  C   UNL     1      12.247   3.061   2.889  1.00  0.00     0.023 A 
ATOM     74  C   UNL     1      12.706   4.166   3.632  1.00  0.00     0.012 A 
ATOM     75  C   UNL     1      11.778   1.922   3.571  1.00  0.00     0.148 A 
ATOM     76  C   UNL     1      12.721   4.128   5.027  1.00  0.00     0.002 A 
ATOM     77  C   UNL     1      11.745   1.911   4.961  1.00  0.00     0.091 A 
ATOM     78  F   UNL     1      11.367   0.871   2.847  1.00  0.00    -0.205 F 
ATOM     79  C   UNL     1      12.230   3.007   5.691  1.00  0.00     0.022 A 
BRANCH  77  80
ATOM     80  S   UNL     1      11.011   0.561   5.891  1.00  0.00     0.127 S 
ATOM     81  O   UNL     1      12.192  -0.113   6.423  1.00  0.00    -0.237 OA
ATOM     82  O   UNL     1      10.208   1.275   6.884  1.00  0.00    -0.237 OA
ATOM     83  O   UNL     1      10.228  -0.197   4.923  1.00  0.00    -0.744 OA
ENDBRANCH  77  80
ENDBRANCH  49  73
BRANCH  61  84
ATOM     84  C   UNL     1      17.312   3.447  -1.908  1.00  0.00     0.023 A 
ATOM     85  C   UNL     1      18.027   2.277  -1.586  1.00  0.00     0.012 A 
ATOM     86  C   UNL     1      18.019   4.626  -2.218  1.00  0.00     0.148 A 
ATOM     87  C   UNL     1      19.422   2.286  -1.546  1.00  0.00     0.002 A 
ATOM     88  C   UNL     1      19.409   4.616  -2.219  1.00  0.00     0.091 A 
ATOM     89  F   UNL     1      17.320   5.735  -2.503  1.00  0.00    -0.205 F 
ATOM     90  C   UNL     1      20.112   3.451  -1.874  1.00  0.00     0.022 A 
BRANCH  88  91
ATOM     91  S   UNL     1      20.377   6.045  -2.720  1.00  0.00     0.127 S 
ATOM     92  O   UNL     1      20.855   6.548  -1.433  1.00  0.00    -0.237 OA
ATOM     93  O   UNL     1      21.413   5.443  -3.561  1.00  0.00    -0.237 OA
ATOM     94  O   UNL     1      19.456   6.920  -3.433  1.00  0.00    -0.744 OA
ENDBRANCH  88  91
ENDBRANCH  61  84
ENDBRANCH  35  36
ENDBRANCH  28  30
ENDBRANCH  27  28
ENDBRANCH  26  27
ENDBRANCH   1  26
TORSDOF 19
