REMARK SMILES CC(=O)Nc1ccc(/C(=C\c2ccc(S(C)(=O)=O)cc2)C(=O)OCCOCCOC(=O)c2ccc(-c3c4nc(c(-c5cccc(S(=O)(=O)[O-])c5F)c5ccc([nH]5)c(-c5cccc(S(=O)(=O)[O-])c5F)c5nc(c(-c6cccc(S(=O)(=O)[O-])c6F)c6ccc3[nH]6)C=C5)C=C4)cc2)cc1
REMARK SMILES IDX 27 1 26 2 25 3 24 4 23 5 21 6 22 7 9 8 10 9 8 10 5 11 6 12
REMARK SMILES IDX 96 13 7 14 95 15 4 16 1 17 2 18 3 19 11 21 12 22 20 23 13 24
REMARK SMILES IDX 19 25 14 26 15 27 16 28 17 29 18 30 28 31 29 32 30 33 31 34
REMARK SMILES IDX 32 35 33 36 94 37 34 38 93 39 35 40 36 41 37 42 87 43 38 44
REMARK SMILES IDX 92 45 86 46 88 47 39 48 91 49 85 50 84 51 40 53 72 54 52 55
REMARK SMILES IDX 71 56 53 57 56 58 70 59 89 60 54 61 55 62 69 64 90 65 57 66
REMARK SMILES IDX 41 67 42 68 50 69 43 70 45 71 51 72 44 73 46 74 47 75 48 76
REMARK SMILES IDX 49 77 73 78 74 79 82 80 75 81 77 82 83 83 76 84 78 85 79 86
REMARK SMILES IDX 80 87 81 88 58 89 59 90 67 91 60 92 62 93 68 94 61 95 63 96
REMARK SMILES IDX 64 97 65 98 66 99
REMARK H PARENT 4 20 88 52 56 63
REMARK Flexibility Score: inf
ROOT
ATOM      1  C   UNL     1       4.808   4.202  -1.685  1.00  0.00     0.202 C 
ENDROOT
BRANCH   1   2
ATOM      2  O   UNL     1       6.177   4.048  -1.308  1.00  0.00    -0.374 OA
BRANCH   2   3
ATOM      3  C   UNL     1       7.168   4.557  -2.202  1.00  0.00     0.202 C 
BRANCH   3   4
ATOM      4  C   UNL     1       7.492   3.703  -3.432  1.00  0.00     0.261 C 
BRANCH   4   5
ATOM      5  O   UNL     1       6.321   3.492  -4.235  1.00  0.00    -0.460 OA
BRANCH   5   6
ATOM      6  C   UNL     1       5.932   2.197  -4.367  1.00  0.00     0.338 C 
ATOM      7  O   UNL     1       6.576   1.217  -4.022  1.00  0.00    -0.246 OA
BRANCH   6   8
ATOM      8  C   UNL     1       4.506   2.112  -4.835  1.00  0.00     0.067 C 
ATOM      9  C   UNL     1       4.147   2.968  -5.823  1.00  0.00     0.024 C 
BRANCH   8  10
ATOM     10  C   UNL     1       3.615   1.130  -4.147  1.00  0.00    -0.011 A 
ATOM     11  C   UNL     1       1.768  -0.450  -2.667  1.00  0.00     0.041 A 
ATOM     12  C   UNL     1       1.705  -0.386  -4.061  1.00  0.00     0.027 A 
ATOM     13  C   UNL     1       2.830   0.179  -2.029  1.00  0.00     0.027 A 
ATOM     14  C   UNL     1       2.627   0.379  -4.791  1.00  0.00     0.011 A 
ATOM     15  C   UNL     1       3.736   0.956  -2.759  1.00  0.00     0.011 A 
BRANCH  11  16
ATOM     16  N   UNL     1       0.776  -1.191  -2.006  1.00  0.00    -0.326 N 
ATOM     17  C   UNL     1       0.776  -0.123   0.253  1.00  0.00     0.114 C 
ATOM     18  C   UNL     1       0.350  -1.199  -0.709  1.00  0.00     0.221 C 
ATOM     19  O   UNL     1      -0.443  -2.074  -0.350  1.00  0.00    -0.275 OA
ATOM     20  H   UNL     1       0.297  -1.826  -2.587  1.00  0.00     0.169 HD
ENDBRANCH  11  16
ENDBRANCH   8  10
BRANCH   9  21
ATOM     21  C   UNL     1       2.873   2.967  -6.557  1.00  0.00    -0.025 A 
ATOM     22  C   UNL     1       2.926   2.583  -7.904  1.00  0.00     0.009 A 
ATOM     23  C   UNL     1       1.629   3.160  -5.941  1.00  0.00     0.009 A 
ATOM     24  C   UNL     1       1.760   2.250  -8.589  1.00  0.00     0.021 A 
ATOM     25  C   UNL     1       0.454   2.821  -6.622  1.00  0.00     0.021 A 
ATOM     26  C   UNL     1       0.533   2.330  -7.929  1.00  0.00     0.067 A 
BRANCH  26  27
ATOM     27  S   UNL     1      -0.895   1.611  -8.706  1.00  0.00     0.175 S 
ATOM     28  C   UNL     1      -1.323   2.754  -9.987  1.00  0.00     0.163 C 
ATOM     29  O   UNL     1      -0.458   0.374  -9.326  1.00  0.00    -0.224 OA
ATOM     30  O   UNL     1      -1.972   1.601  -7.733  1.00  0.00    -0.224 OA
ENDBRANCH  26  27
ENDBRANCH   9  21
ENDBRANCH   6   8
ENDBRANCH   5   6
ENDBRANCH   4   5
ENDBRANCH   3   4
ENDBRANCH   2   3
ENDBRANCH   1   2
BRANCH   1  31
ATOM     31  C   UNL     1       4.170   5.586  -1.532  1.00  0.00     0.261 C 
BRANCH  31  32
ATOM     32  O   UNL     1       4.725   6.546  -2.440  1.00  0.00    -0.460 OA
BRANCH  32  33
ATOM     33  C   UNL     1       5.544   7.459  -1.869  1.00  0.00     0.338 C 
ATOM     34  O   UNL     1       5.817   7.568  -0.680  1.00  0.00    -0.246 OA
BRANCH  33  35
ATOM     35  C   UNL     1       6.237   8.218  -2.922  1.00  0.00     0.060 A 
ATOM     36  C   UNL     1       7.634   8.313  -2.856  1.00  0.00     0.016 A 
ATOM     37  C   UNL     1       5.522   8.872  -3.926  1.00  0.00     0.016 A 
ATOM     38  C   UNL     1       8.322   9.111  -3.766  1.00  0.00     0.010 A 
ATOM     39  C   UNL     1       6.211   9.677  -4.832  1.00  0.00     0.010 A 
ATOM     40  C   UNL     1       7.606   9.831  -4.729  1.00  0.00    -0.014 A 
BRANCH  40  41
ATOM     41  C   UNL     1       8.265  10.892  -5.522  1.00  0.00     0.031 A 
ATOM     42  C   UNL     1       8.047  12.322  -5.114  1.00  0.00     0.074 A 
ATOM     43  C   UNL     1       8.987  10.593  -6.614  1.00  0.00     0.049 A 
ATOM     44  N   UNL     1       8.382  13.421  -5.733  1.00  0.00    -0.248 NA
ATOM     45  C   UNL     1       7.340  12.536  -3.840  1.00  0.00     0.031 C 
ATOM     46  C   UNL     1       9.290   9.243  -7.084  1.00  0.00     0.029 A 
ATOM     47  N   UNL     1       9.563  11.415  -7.548  1.00  0.00    -0.354 N 
ATOM     48  C   UNL     1       7.885  14.457  -4.952  1.00  0.00     0.074 A 
ATOM     49  C   UNL     1       7.219  13.854  -3.819  1.00  0.00     0.031 C 
ATOM     50  C   UNL     1       9.973   9.328  -8.238  1.00  0.00     0.029 A 
ATOM     51  C   UNL     1      10.117  10.735  -8.606  1.00  0.00     0.049 A 
ATOM     52  H   UNL     1       9.579  12.396  -7.468  1.00  0.00     0.167 HD
ATOM     53  C   UNL     1       7.979  15.792  -5.158  1.00  0.00     0.034 A 
ATOM     54  C   UNL     1      10.648  11.200  -9.754  1.00  0.00     0.034 A 
ATOM     55  C   UNL     1       8.652  16.379  -6.283  1.00  0.00     0.049 A 
ATOM     56  C   UNL     1      10.699  12.688  -9.989  1.00  0.00     0.074 A 
ATOM     57  C   UNL     1       8.843  17.718  -6.571  1.00  0.00     0.029 A 
ATOM     58  N   UNL     1       9.233  15.659  -7.317  1.00  0.00    -0.354 N 
ATOM     59  N   UNL     1      10.299  13.662  -9.207  1.00  0.00    -0.248 NA
ATOM     60  C   UNL     1      11.293  13.143 -11.255  1.00  0.00     0.031 C 
ATOM     61  C   UNL     1       9.508  17.807  -7.798  1.00  0.00     0.029 A 
ATOM     62  C   UNL     1       9.771  16.524  -8.252  1.00  0.00     0.049 A 
ATOM     63  H   UNL     1       9.258  14.676  -7.376  1.00  0.00     0.167 HD
ATOM     64  C   UNL     1      10.644  14.842  -9.857  1.00  0.00     0.074 A 
ATOM     65  C   UNL     1      11.277  14.461 -11.103  1.00  0.00     0.031 C 
ATOM     66  C   UNL     1      10.455  16.124  -9.457  1.00  0.00     0.034 A 
BRANCH  53  67
ATOM     67  C   UNL     1       7.334  16.697  -4.141  1.00  0.00     0.023 A 
ATOM     68  C   UNL     1       7.875  16.797  -2.843  1.00  0.00     0.012 A 
ATOM     69  C   UNL     1       6.193  17.454  -4.471  1.00  0.00     0.148 A 
ATOM     70  C   UNL     1       7.262  17.592  -1.875  1.00  0.00     0.002 A 
ATOM     71  C   UNL     1       5.617  18.284  -3.517  1.00  0.00     0.091 A 
ATOM     72  F   UNL     1       5.675  17.330  -5.702  1.00  0.00    -0.205 F 
ATOM     73  C   UNL     1       6.138  18.341  -2.215  1.00  0.00     0.022 A 
BRANCH  71  74
ATOM     74  S   UNL     1       4.217  19.347  -3.888  1.00  0.00     0.127 S 
ATOM     75  O   UNL     1       3.121  18.629  -3.240  1.00  0.00    -0.237 OA
ATOM     76  O   UNL     1       4.597  20.599  -3.232  1.00  0.00    -0.237 OA
ATOM     77  O   UNL     1       4.149  19.422  -5.340  1.00  0.00    -0.744 OA
ENDBRANCH  71  74
ENDBRANCH  53  67
BRANCH  54  78
ATOM     78  C   UNL     1      11.222  10.246 -10.742  1.00  0.00     0.023 A 
ATOM     79  C   UNL     1      12.619  10.199 -10.916  1.00  0.00     0.012 A 
ATOM     80  C   UNL     1      10.408   9.360 -11.474  1.00  0.00     0.148 A 
ATOM     81  C   UNL     1      13.194   9.302 -11.816  1.00  0.00     0.002 A 
ATOM     82  C   UNL     1      10.990   8.434 -12.332  1.00  0.00     0.091 A 
ATOM     83  F   UNL     1       9.081   9.426 -11.297  1.00  0.00    -0.205 F 
ATOM     84  C   UNL     1      12.382   8.414 -12.516  1.00  0.00     0.022 A 
BRANCH  82  85
ATOM     85  S   UNL     1      10.041   7.170 -13.185  1.00  0.00     0.127 S 
ATOM     86  O   UNL     1      10.249   7.533 -14.585  1.00  0.00    -0.237 OA
ATOM     87  O   UNL     1      10.720   5.947 -12.757  1.00  0.00    -0.237 OA
ATOM     88  O   UNL     1       8.674   7.304 -12.701  1.00  0.00    -0.744 OA
ENDBRANCH  82  85
ENDBRANCH  54  78
BRANCH  66  89
ATOM     89  C   UNL     1      11.002  17.228 -10.325  1.00  0.00     0.023 A 
ATOM     90  C   UNL     1      10.353  17.576 -11.524  1.00  0.00     0.012 A 
ATOM     91  C   UNL     1      12.091  18.001  -9.874  1.00  0.00     0.148 A 
ATOM     92  C   UNL     1      10.790  18.671 -12.271  1.00  0.00     0.002 A 
ATOM     93  C   UNL     1      12.488  19.120 -10.595  1.00  0.00     0.091 A 
ATOM     94  F   UNL     1      12.703  17.639  -8.737  1.00  0.00    -0.205 F 
ATOM     95  C   UNL     1      11.845  19.450 -11.799  1.00  0.00     0.022 A 
BRANCH  93  96
ATOM     96  S   UNL     1      13.763  20.243 -10.012  1.00  0.00     0.127 S 
ATOM     97  O   UNL     1      14.820  20.030 -10.999  1.00  0.00    -0.237 OA
ATOM     98  O   UNL     1      13.094  21.541 -10.103  1.00  0.00    -0.237 OA
ATOM     99  O   UNL     1      14.086  19.820  -8.656  1.00  0.00    -0.744 OA
ENDBRANCH  93  96
ENDBRANCH  66  89
ENDBRANCH  40  41
ENDBRANCH  33  35
ENDBRANCH  32  33
ENDBRANCH  31  32
ENDBRANCH   1  31
TORSDOF 21
