REMARK SMILES CC(C)C[C@@H](NC(=O)c1cccnc1)C(=O)OCCOCCOC(=O)c1ccc(-c2c3nc(c(-c4cccc(S(=O)(=O)[O-])c4F)c4ccc([nH]4)c(-c4cccc(S(=O)(=O)[O-])c4F)c4nc(c(-c5cccc(S(=O)(=O)[O-])c5F)c5ccc2[nH]5)C=C4)C=C3)cc1
REMARK SMILES IDX 21 1 20 2 19 3 18 4 17 5 15 6 16 7 5 8 4 9 2 10 1 11 3 12
REMARK SMILES IDX 6 13 7 14 8 16 9 17 10 18 14 19 11 20 13 21 12 22 22 23
REMARK SMILES IDX 23 24 24 25 25 26 26 27 27 28 88 29 28 30 87 31 29 32 30 33
REMARK SMILES IDX 31 34 81 35 32 36 86 37 80 38 82 39 33 40 85 41 79 42 78 43
REMARK SMILES IDX 34 45 66 46 46 47 65 48 47 49 50 50 64 51 83 52 48 53 49 54
REMARK SMILES IDX 63 56 84 57 51 58 35 59 36 60 44 61 37 62 39 63 45 64 38 65
REMARK SMILES IDX 40 66 41 67 42 68 43 69 67 70 68 71 76 72 69 73 71 74 77 75
REMARK SMILES IDX 70 76 72 77 73 78 74 79 75 80 52 81 53 82 61 83 54 84 56 85
REMARK SMILES IDX 62 86 55 87 57 88 58 89 59 90 60 91
REMARK H PARENT 6 15 82 44 50 55
REMARK Flexibility Score: inf
ROOT
ATOM      1  C   UNL     1      -3.917   1.547   0.495  1.00  0.00     0.202 C 
ENDROOT
BRANCH   1   2
ATOM      2  O   UNL     1      -5.059   0.993  -0.151  1.00  0.00    -0.374 OA
BRANCH   2   3
ATOM      3  C   UNL     1      -5.783  -0.033   0.510  1.00  0.00     0.202 C 
BRANCH   3   4
ATOM      4  C   UNL     1      -5.132  -1.411   0.701  1.00  0.00     0.261 C 
BRANCH   4   5
ATOM      5  O   UNL     1      -3.716  -1.452   0.912  1.00  0.00    -0.462 OA
BRANCH   5   6
ATOM      6  C   UNL     1      -2.983  -1.535  -0.232  1.00  0.00     0.328 C 
ATOM      7  O   UNL     1      -3.425  -1.365  -1.365  1.00  0.00    -0.250 OA
BRANCH   6   8
ATOM      8  C   UNL     1      -1.530  -1.959   0.020  1.00  0.00     0.192 C 
BRANCH   8   9
ATOM      9  C   UNL     1      -0.932  -1.161   1.202  1.00  0.00     0.040 C 
BRANCH   9  10
ATOM     10  C   UNL     1       0.605  -1.007   1.196  1.00  0.00    -0.015 C 
ATOM     11  C   UNL     1       1.099  -0.146   0.031  1.00  0.00     0.007 C 
ATOM     12  C   UNL     1       1.058  -0.371   2.516  1.00  0.00     0.007 C 
ENDBRANCH   9  10
ENDBRANCH   8   9
BRANCH   8  13
ATOM     13  N   UNL     1      -1.267  -3.400   0.200  1.00  0.00    -0.339 N 
ATOM     14  C   UNL     1      -1.849  -4.495  -0.386  1.00  0.00     0.253 C 
ATOM     15  H   UNL     1      -0.557  -3.610   0.848  1.00  0.00     0.164 HD
ATOM     16  O   UNL     1      -1.191  -5.513  -0.577  1.00  0.00    -0.269 OA
BRANCH  14  17
ATOM     17  C   UNL     1      -3.289  -4.525  -0.648  1.00  0.00     0.058 A 
ATOM     18  C   UNL     1      -3.826  -4.199  -1.890  1.00  0.00     0.017 A 
ATOM     19  C   UNL     1      -4.145  -4.956   0.356  1.00  0.00     0.124 A 
ATOM     20  C   UNL     1      -5.209  -4.254  -2.061  1.00  0.00     0.021 A 
ATOM     21  N   UNL     1      -5.492  -5.015   0.213  1.00  0.00    -0.264 NA
ATOM     22  C   UNL     1      -5.993  -4.667  -0.993  1.00  0.00     0.111 A 
ENDBRANCH  14  17
ENDBRANCH   8  13
ENDBRANCH   6   8
ENDBRANCH   5   6
ENDBRANCH   4   5
ENDBRANCH   3   4
ENDBRANCH   2   3
ENDBRANCH   1   2
BRANCH   1  23
ATOM     23  C   UNL     1      -4.068   2.072   1.926  1.00  0.00     0.261 C 
BRANCH  23  24
ATOM     24  O   UNL     1      -4.324   1.021   2.878  1.00  0.00    -0.460 OA
BRANCH  24  25
ATOM     25  C   UNL     1      -5.447   1.194   3.610  1.00  0.00     0.338 C 
ATOM     26  O   UNL     1      -6.219   2.152   3.550  1.00  0.00    -0.246 OA
BRANCH  25  27
ATOM     27  C   UNL     1      -5.768   0.007   4.413  1.00  0.00     0.060 A 
ATOM     28  C   UNL     1      -7.054  -0.532   4.280  1.00  0.00     0.016 A 
ATOM     29  C   UNL     1      -4.907  -0.446   5.415  1.00  0.00     0.016 A 
ATOM     30  C   UNL     1      -7.524  -1.450   5.214  1.00  0.00     0.010 A 
ATOM     31  C   UNL     1      -5.383  -1.366   6.356  1.00  0.00     0.010 A 
ATOM     32  C   UNL     1      -6.715  -1.815   6.297  1.00  0.00    -0.014 A 
BRANCH  32  33
ATOM     33  C   UNL     1      -7.352  -2.466   7.469  1.00  0.00     0.031 A 
ATOM     34  C   UNL     1      -7.772  -1.604   8.633  1.00  0.00     0.074 A 
ATOM     35  C   UNL     1      -7.606  -3.785   7.480  1.00  0.00     0.049 A 
ATOM     36  N   UNL     1      -8.412  -1.938   9.724  1.00  0.00    -0.248 NA
ATOM     37  C   UNL     1      -7.426  -0.174   8.557  1.00  0.00     0.031 C 
ATOM     38  C   UNL     1      -7.255  -4.723   6.416  1.00  0.00     0.029 A 
ATOM     39  N   UNL     1      -8.218  -4.564   8.430  1.00  0.00    -0.354 N 
ATOM     40  C   UNL     1      -8.524  -0.771  10.471  1.00  0.00     0.074 A 
ATOM     41  C   UNL     1      -7.872   0.279   9.720  1.00  0.00     0.031 C 
ATOM     42  C   UNL     1      -7.646  -5.957   6.778  1.00  0.00     0.029 A 
ATOM     43  C   UNL     1      -8.270  -5.896   8.100  1.00  0.00     0.049 A 
ATOM     44  H   UNL     1      -8.585  -4.202   9.269  1.00  0.00     0.167 HD
ATOM     45  C   UNL     1      -9.134  -0.580  11.664  1.00  0.00     0.034 A 
ATOM     46  C   UNL     1      -8.767  -6.944   8.786  1.00  0.00     0.034 A 
ATOM     47  C   UNL     1      -9.816  -1.612  12.395  1.00  0.00     0.049 A 
ATOM     48  C   UNL     1      -9.443  -6.705  10.112  1.00  0.00     0.074 A 
ATOM     49  C   UNL     1     -10.514  -1.507  13.585  1.00  0.00     0.029 A 
ATOM     50  N   UNL     1      -9.880  -2.941  12.009  1.00  0.00    -0.354 N 
ATOM     51  N   UNL     1      -9.662  -5.573  10.736  1.00  0.00    -0.248 NA
ATOM     52  C   UNL     1      -9.977  -7.885  10.808  1.00  0.00     0.031 C 
ATOM     53  C   UNL     1     -10.989  -2.779  13.926  1.00  0.00     0.029 A 
ATOM     54  C   UNL     1     -10.598  -3.671  12.940  1.00  0.00     0.049 A 
ATOM     55  H   UNL     1      -9.476  -3.312  11.191  1.00  0.00     0.167 HD
ATOM     56  C   UNL     1     -10.392  -5.899  11.875  1.00  0.00     0.074 A 
ATOM     57  C   UNL     1     -10.593  -7.333  11.845  1.00  0.00     0.031 C 
ATOM     58  C   UNL     1     -10.844  -5.088  12.864  1.00  0.00     0.034 A 
BRANCH  45  59
ATOM     59  C   UNL     1      -9.125   0.812  12.237  1.00  0.00     0.023 A 
ATOM     60  C   UNL     1      -9.970   1.796  11.685  1.00  0.00     0.012 A 
ATOM     61  C   UNL     1      -8.317   1.136  13.343  1.00  0.00     0.148 A 
ATOM     62  C   UNL     1      -9.991   3.088  12.208  1.00  0.00     0.002 A 
ATOM     63  C   UNL     1      -8.370   2.416  13.883  1.00  0.00     0.091 A 
ATOM     64  F   UNL     1      -7.498   0.195  13.835  1.00  0.00    -0.205 F 
ATOM     65  C   UNL     1      -9.200   3.395  13.312  1.00  0.00     0.022 A 
BRANCH  63  66
ATOM     66  S   UNL     1      -7.437   2.881  15.346  1.00  0.00     0.127 S 
ATOM     67  O   UNL     1      -6.349   3.667  14.765  1.00  0.00    -0.237 OA
ATOM     68  O   UNL     1      -8.415   3.663  16.104  1.00  0.00    -0.237 OA
ATOM     69  O   UNL     1      -7.043   1.631  15.980  1.00  0.00    -0.744 OA
ENDBRANCH  63  66
ENDBRANCH  45  59
BRANCH  46  70
ATOM     70  C   UNL     1      -8.709  -8.312   8.198  1.00  0.00     0.023 A 
ATOM     71  C   UNL     1      -9.897  -8.928   7.760  1.00  0.00     0.012 A 
ATOM     72  C   UNL     1      -7.487  -8.996   8.055  1.00  0.00     0.148 A 
ATOM     73  C   UNL     1      -9.873 -10.212   7.213  1.00  0.00     0.002 A 
ATOM     74  C   UNL     1      -7.464 -10.255   7.465  1.00  0.00     0.091 A 
ATOM     75  F   UNL     1      -6.370  -8.403   8.500  1.00  0.00    -0.205 F 
ATOM     76  C   UNL     1      -8.657 -10.870   7.056  1.00  0.00     0.022 A 
BRANCH  74  77
ATOM     77  S   UNL     1      -5.929 -11.122   7.121  1.00  0.00     0.127 S 
ATOM     78  O   UNL     1      -5.928 -12.152   8.157  1.00  0.00    -0.237 OA
ATOM     79  O   UNL     1      -6.154 -11.616   5.762  1.00  0.00    -0.237 OA
ATOM     80  O   UNL     1      -4.882 -10.115   7.225  1.00  0.00    -0.744 OA
ENDBRANCH  74  77
ENDBRANCH  46  70
BRANCH  58  81
ATOM     81  C   UNL     1     -11.632  -5.718  13.983  1.00  0.00     0.023 A 
ATOM     82  C   UNL     1     -10.966  -6.489  14.955  1.00  0.00     0.012 A 
ATOM     83  C   UNL     1     -13.014  -5.481  14.115  1.00  0.00     0.148 A 
ATOM     84  C   UNL     1     -11.670  -7.042  16.025  1.00  0.00     0.002 A 
ATOM     85  C   UNL     1     -13.701  -5.998  15.209  1.00  0.00     0.091 A 
ATOM     86  F   UNL     1     -13.637  -4.762  13.170  1.00  0.00    -0.205 F 
ATOM     87  C   UNL     1     -13.033  -6.787  16.158  1.00  0.00     0.022 A 
BRANCH  85  88
ATOM     88  S   UNL     1     -15.436  -5.633  15.499  1.00  0.00     0.127 S 
ATOM     89  O   UNL     1     -16.086  -6.837  14.986  1.00  0.00    -0.237 OA
ATOM     90  O   UNL     1     -15.490  -5.485  16.955  1.00  0.00    -0.237 OA
ATOM     91  O   UNL     1     -15.706  -4.404  14.764  1.00  0.00    -0.744 OA
ENDBRANCH  85  88
ENDBRANCH  58  81
ENDBRANCH  32  33
ENDBRANCH  25  27
ENDBRANCH  24  25
ENDBRANCH  23  24
ENDBRANCH   1  23
TORSDOF 21
