REMARK SMILES O=C(OCCOCCOC(=O)c1cc(N2C(=O)C[C@H](Nc3ccccc3O)C2=O)ccc1O)c1ccc(-c2c3nc(c(-c4cccc(S(=O)(=O)[O-])c4F)c4ccc([nH]4)c(-c4cccc(S(=O)(=O)[O-])c4F)c4nc(c(-c5cccc(S(=O)(=O)[O-])c5F)c5ccc2[nH]5)C=C4)C=C3)cc1
REMARK SMILES IDX 7 1 6 2 5 3 4 4 3 5 2 6 1 7 34 8 35 9 96 10 36 11 95 12
REMARK SMILES IDX 37 13 38 14 39 15 89 16 40 17 94 18 88 19 90 20 41 21 93 22
REMARK SMILES IDX 87 23 86 24 42 26 74 27 54 28 73 29 55 30 58 31 72 32 91 33
REMARK SMILES IDX 56 34 57 35 71 37 92 38 59 39 43 40 44 41 52 42 45 43 47 44
REMARK SMILES IDX 53 45 46 46 48 47 49 48 50 49 51 50 75 51 76 52 84 53 77 54
REMARK SMILES IDX 79 55 85 56 78 57 80 58 81 59 82 60 83 61 60 62 61 63 69 64
REMARK SMILES IDX 62 65 64 66 70 67 63 68 65 69 66 70 67 71 68 72 8 73 9 74
REMARK SMILES IDX 10 75 11 76 12 77 13 78 32 79 14 80 31 81 30 82 33 83 15 85
REMARK SMILES IDX 16 86 28 87 17 88 18 89 19 90 29 91 20 92 21 94 22 95 26 96
REMARK SMILES IDX 23 97 25 98 24 99 27 100
REMARK H PARENT 90 25 58 36 33 84 20 93 27 101
REMARK Flexibility Score: inf
ROOT
ATOM      1  C   UNL     1       2.729   2.046   0.636  1.00  0.00     0.202 C 
ENDROOT
BRANCH   1   2
ATOM      2  O   UNL     1       4.018   1.568   0.236  1.00  0.00    -0.374 OA
BRANCH   2   3
ATOM      3  C   UNL     1       4.136   1.163  -1.128  1.00  0.00     0.202 C 
BRANCH   3   4
ATOM      4  C   UNL     1       3.736  -0.288  -1.400  1.00  0.00     0.261 C 
BRANCH   4   5
ATOM      5  O   UNL     1       2.375  -0.522  -0.995  1.00  0.00    -0.460 OA
BRANCH   5   6
ATOM      6  C   UNL     1       1.927  -1.234   0.067  1.00  0.00     0.338 C 
ATOM      7  O   UNL     1       0.721  -1.460   0.154  1.00  0.00    -0.246 OA
BRANCH   6   8
ATOM      8  C   UNL     1       2.823  -1.762   1.142  1.00  0.00     0.060 A 
ATOM      9  C   UNL     1       4.056  -1.209   1.482  1.00  0.00     0.016 A 
ATOM     10  C   UNL     1       2.351  -2.833   1.921  1.00  0.00     0.016 A 
ATOM     11  C   UNL     1       4.836  -1.730   2.498  1.00  0.00     0.010 A 
ATOM     12  C   UNL     1       3.107  -3.334   2.989  1.00  0.00     0.010 A 
ATOM     13  C   UNL     1       4.363  -2.787   3.267  1.00  0.00    -0.014 A 
BRANCH  13  14
ATOM     14  C   UNL     1       5.268  -3.308   4.306  1.00  0.00     0.031 A 
ATOM     15  C   UNL     1       5.987  -4.595   4.055  1.00  0.00     0.074 A 
ATOM     16  C   UNL     1       5.558  -2.527   5.364  1.00  0.00     0.049 A 
ATOM     17  N   UNL     1       6.882  -5.193   4.790  1.00  0.00    -0.248 NA
ATOM     18  C   UNL     1       5.675  -5.293   2.795  1.00  0.00     0.031 C 
ATOM     19  C   UNL     1       4.960  -1.213   5.627  1.00  0.00     0.029 A 
ATOM     20  N   UNL     1       6.447  -2.698   6.390  1.00  0.00    -0.354 N 
ATOM     21  C   UNL     1       7.219  -6.351   4.103  1.00  0.00     0.074 A 
ATOM     22  C   UNL     1       6.436  -6.373   2.888  1.00  0.00     0.031 C 
ATOM     23  C   UNL     1       5.514  -0.691   6.731  1.00  0.00     0.029 A 
ATOM     24  C   UNL     1       6.459  -1.653   7.284  1.00  0.00     0.049 A 
ATOM     25  H   UNL     1       7.021  -3.492   6.479  1.00  0.00     0.167 HD
ATOM     26  C   UNL     1       8.110  -7.304   4.457  1.00  0.00     0.034 A 
ATOM     27  C   UNL     1       7.143  -1.509   8.435  1.00  0.00     0.034 A 
ATOM     28  C   UNL     1       8.876  -7.253   5.670  1.00  0.00     0.049 A 
ATOM     29  C   UNL     1       8.091  -2.610   8.826  1.00  0.00     0.074 A 
ATOM     30  C   UNL     1       9.752  -8.192   6.181  1.00  0.00     0.029 A 
ATOM     31  N   UNL     1       8.854  -6.191   6.566  1.00  0.00    -0.354 N 
ATOM     32  N   UNL     1       8.402  -3.701   8.167  1.00  0.00    -0.248 NA
ATOM     33  C   UNL     1       8.794  -2.457  10.105  1.00  0.00     0.031 C 
ATOM     34  C   UNL     1      10.248  -7.703   7.395  1.00  0.00     0.029 A 
ATOM     35  C   UNL     1       9.702  -6.449   7.627  1.00  0.00     0.049 A 
ATOM     36  H   UNL     1       8.314  -5.375   6.461  1.00  0.00     0.167 HD
ATOM     37  C   UNL     1       9.345  -4.361   8.943  1.00  0.00     0.074 A 
ATOM     38  C   UNL     1       9.584  -3.523  10.103  1.00  0.00     0.031 C 
ATOM     39  C   UNL     1       9.940  -5.563   8.739  1.00  0.00     0.034 A 
BRANCH  26  40
ATOM     40  C   UNL     1       8.272  -8.471   3.523  1.00  0.00     0.023 A 
ATOM     41  C   UNL     1       8.978  -8.308   2.314  1.00  0.00     0.012 A 
ATOM     42  C   UNL     1       7.707  -9.723   3.832  1.00  0.00     0.148 A 
ATOM     43  C   UNL     1       9.091  -9.365   1.411  1.00  0.00     0.002 A 
ATOM     44  C   UNL     1       7.854 -10.782   2.943  1.00  0.00     0.091 A 
ATOM     45  F   UNL     1       7.017  -9.848   4.974  1.00  0.00    -0.205 F 
ATOM     46  C   UNL     1       8.535 -10.601   1.728  1.00  0.00     0.022 A 
BRANCH  44  47
ATOM     47  S   UNL     1       7.213 -12.426   3.275  1.00  0.00     0.127 S 
ATOM     48  O   UNL     1       6.173 -12.549   2.253  1.00  0.00    -0.237 OA
ATOM     49  O   UNL     1       8.391 -13.264   3.049  1.00  0.00    -0.237 OA
ATOM     50  O   UNL     1       6.733 -12.403   4.649  1.00  0.00    -0.744 OA
ENDBRANCH  44  47
ENDBRANCH  26  40
BRANCH  27  51
ATOM     51  C   UNL     1       6.944  -0.301   9.288  1.00  0.00     0.023 A 
ATOM     52  C   UNL     1       8.006   0.598   9.505  1.00  0.00     0.012 A 
ATOM     53  C   UNL     1       5.694  -0.033   9.882  1.00  0.00     0.148 A 
ATOM     54  C   UNL     1       7.835   1.720  10.319  1.00  0.00     0.002 A 
ATOM     55  C   UNL     1       5.513   1.118  10.642  1.00  0.00     0.091 A 
ATOM     56  F   UNL     1       4.697  -0.910   9.695  1.00  0.00    -0.205 F 
ATOM     57  C   UNL     1       6.587   1.987  10.877  1.00  0.00     0.022 A 
BRANCH  55  58
ATOM     58  S   UNL     1       3.899   1.590  11.275  1.00  0.00     0.127 S 
ATOM     59  O   UNL     1       3.991   1.175  12.671  1.00  0.00    -0.237 OA
ATOM     60  O   UNL     1       3.894   3.038  11.063  1.00  0.00    -0.237 OA
ATOM     61  O   UNL     1       2.937   0.867  10.453  1.00  0.00    -0.744 OA
ENDBRANCH  55  58
ENDBRANCH  27  51
BRANCH  39  62
ATOM     62  C   UNL     1      10.914  -6.025   9.787  1.00  0.00     0.023 A 
ATOM     63  C   UNL     1      10.433  -6.481  11.030  1.00  0.00     0.012 A 
ATOM     64  C   UNL     1      12.293  -6.074   9.513  1.00  0.00     0.148 A 
ATOM     65  C   UNL     1      11.317  -6.949  12.000  1.00  0.00     0.002 A 
ATOM     66  C   UNL     1      13.162  -6.589  10.464  1.00  0.00     0.091 A 
ATOM     67  F   UNL     1      12.729  -5.612   8.331  1.00  0.00    -0.205 F 
ATOM     68  C   UNL     1      12.678  -7.015  11.712  1.00  0.00     0.022 A 
BRANCH  66  69
ATOM     69  S   UNL     1      14.914  -6.804  10.135  1.00  0.00     0.127 S 
ATOM     70  O   UNL     1      15.496  -5.681  10.867  1.00  0.00    -0.237 OA
ATOM     71  O   UNL     1      15.182  -8.119  10.719  1.00  0.00    -0.237 OA
ATOM     72  O   UNL     1      15.054  -6.751   8.686  1.00  0.00    -0.744 OA
ENDBRANCH  66  69
ENDBRANCH  39  62
ENDBRANCH  13  14
ENDBRANCH   6   8
ENDBRANCH   5   6
ENDBRANCH   4   5
ENDBRANCH   3   4
ENDBRANCH   2   3
ENDBRANCH   1   2
BRANCH   1  73
ATOM     73  C   UNL     1       2.873   3.459   1.200  1.00  0.00     0.261 C 
BRANCH  73  74
ATOM     74  O   UNL     1       3.332   4.310   0.138  1.00  0.00    -0.460 OA
BRANCH  74  75
ATOM     75  C   UNL     1       4.677   4.433   0.030  1.00  0.00     0.342 C 
ATOM     76  O   UNL     1       5.530   4.128   0.848  1.00  0.00    -0.246 OA
BRANCH  75  77
ATOM     77  C   UNL     1       4.994   4.781  -1.367  1.00  0.00     0.103 A 
ATOM     78  C   UNL     1       5.912   3.964  -2.050  1.00  0.00     0.046 A 
ATOM     79  C   UNL     1       4.384   5.849  -2.025  1.00  0.00     0.130 A 
ATOM     80  C   UNL     1       6.229   4.221  -3.386  1.00  0.00     0.053 A 
ATOM     81  C   UNL     1       4.711   6.123  -3.351  1.00  0.00     0.049 A 
ATOM     82  C   UNL     1       5.645   5.324  -4.021  1.00  0.00     0.031 A 
BRANCH  79  83
ATOM     83  O   UNL     1       3.489   6.646  -1.372  1.00  0.00    -0.507 OA
ATOM     84  H   UNL     1       3.265   6.466  -0.480  1.00  0.00     0.293 HD
ENDBRANCH  79  83
BRANCH  80  85
ATOM     85  N   UNL     1       7.133   3.390  -4.083  1.00  0.00    -0.249 N 
ATOM     86  C   UNL     1       8.237   3.859  -4.742  1.00  0.00     0.236 C 
ATOM     87  C   UNL     1       6.960   2.030  -4.241  1.00  0.00     0.256 C 
ATOM     88  O   UNL     1       8.590   5.022  -4.883  1.00  0.00    -0.274 OA
ATOM     89  C   UNL     1       9.045   2.696  -5.228  1.00  0.00     0.136 C 
ATOM     90  C   UNL     1       8.105   1.504  -5.109  1.00  0.00     0.179 C 
ATOM     91  O   UNL     1       6.015   1.367  -3.828  1.00  0.00    -0.272 OA
BRANCH  90  92
ATOM     92  N   UNL     1       7.673   1.101  -6.457  1.00  0.00    -0.370 N 
ATOM     93  H   UNL     1       7.058   1.665  -6.980  1.00  0.00     0.161 HD
BRANCH  92  94
ATOM     94  C   UNL     1       8.160  -0.101  -6.975  1.00  0.00     0.077 A 
ATOM     95  C   UNL     1       9.008  -0.081  -8.091  1.00  0.00     0.029 A 
ATOM     96  C   UNL     1       7.898  -1.346  -6.378  1.00  0.00     0.138 A 
ATOM     97  C   UNL     1       9.558  -1.262  -8.603  1.00  0.00     0.002 A 
ATOM     98  C   UNL     1       8.426  -2.532  -6.895  1.00  0.00     0.048 A 
ATOM     99  C   UNL     1       9.261  -2.487  -8.010  1.00  0.00     0.004 A 
BRANCH  96 100
ATOM    100  O   UNL     1       7.080  -1.394  -5.281  1.00  0.00    -0.506 OA
ATOM    101  H   UNL     1       6.722  -0.602  -4.929  1.00  0.00     0.293 HD
ENDBRANCH  96 100
ENDBRANCH  92  94
ENDBRANCH  90  92
ENDBRANCH  80  85
ENDBRANCH  75  77
ENDBRANCH  74  75
ENDBRANCH  73  74
ENDBRANCH   1  73
TORSDOF 22
