REMARK SMILES Cc1ccccc1NC(=O)NC[C@@H]1CC[C@@H](C(=O)OCCOCCOC(=O)c2ccc(-c3c4nc(c(-c5cccc(S(=O)(=O)[O-])c5F)c5ccc([nH]5)c(-c5cccc(S(=O)(=O)[O-])c5F)c5nc(c(-c6cccc(S(=O)(=O)[O-])c6F)c6ccc3[nH]6)C=C5)C=C4)cc2)O1
REMARK SMILES IDX 22 1 21 2 20 3 19 4 17 5 18 6 16 7 13 8 14 9 91 10 15 11
REMARK SMILES IDX 12 12 11 13 8 14 9 15 10 17 7 19 1 20 2 21 3 22 4 23 6 24
REMARK SMILES IDX 5 25 23 26 24 27 25 28 26 29 27 30 28 31 29 32 90 33 30 34
REMARK SMILES IDX 89 35 31 36 32 37 33 38 83 39 34 40 88 41 82 42 84 43 35 44
REMARK SMILES IDX 87 45 81 46 80 47 36 49 68 50 48 51 67 52 49 53 52 54 66 55
REMARK SMILES IDX 85 56 50 57 51 58 65 60 86 61 53 62 37 63 38 64 46 65 39 66
REMARK SMILES IDX 41 67 47 68 40 69 42 70 43 71 44 72 45 73 69 74 70 75 78 76
REMARK SMILES IDX 71 77 73 78 79 79 72 80 74 81 75 82 76 83 77 84 54 85 55 86
REMARK SMILES IDX 63 87 56 88 58 89 64 90 57 91 59 92 60 93 61 94 62 95
REMARK H PARENT 8 16 11 18 84 48 52 59
REMARK Flexibility Score: inf
ROOT
ATOM      1  O   UNL     1      -4.336   3.722   4.279  1.00  0.00    -0.374 OA
ENDROOT
BRANCH   1   2
ATOM      2  C   UNL     1      -4.914   2.552   4.812  1.00  0.00     0.202 C 
BRANCH   2   3
ATOM      3  C   UNL     1      -6.339   2.523   4.325  1.00  0.00     0.261 C 
BRANCH   3   4
ATOM      4  O   UNL     1      -6.442   2.448   2.880  1.00  0.00    -0.461 OA
BRANCH   4   5
ATOM      5  C   UNL     1      -5.920   3.429   2.068  1.00  0.00     0.335 C 
ATOM      6  O   UNL     1      -5.797   4.620   2.330  1.00  0.00    -0.249 OA
BRANCH   5   7
ATOM      7  C   UNL     1      -5.424   2.813   0.769  1.00  0.00     0.228 C 
ATOM      8  C   UNL     1      -3.124   2.626   0.393  1.00  0.00     0.138 C 
ATOM      9  C   UNL     1      -3.725   1.237   0.304  1.00  0.00     0.037 C 
ATOM     10  O   UNL     1      -4.262   3.485   0.224  1.00  0.00    -0.361 OA
ATOM     11  C   UNL     1      -5.010   1.379   1.039  1.00  0.00     0.047 C 
BRANCH   8  12
ATOM     12  C   UNL     1      -2.030   2.899  -0.662  1.00  0.00     0.149 C 
BRANCH  12  13
ATOM     13  N   UNL     1      -0.864   3.578  -0.088  1.00  0.00    -0.335 N 
ATOM     14  N   UNL     1       1.018   2.086   0.108  1.00  0.00    -0.308 N 
ATOM     15  C   UNL     1       0.419   3.290   0.150  1.00  0.00     0.319 C 
ATOM     16  H   UNL     1       1.998   2.181   0.077  1.00  0.00     0.171 HD
ATOM     17  O   UNL     1       1.164   4.250   0.388  1.00  0.00    -0.249 OA
ATOM     18  H   UNL     1      -1.087   4.492   0.200  1.00  0.00     0.165 HD
BRANCH  14  19
ATOM     19  C   UNL     1       0.644   0.732   0.095  1.00  0.00     0.045 A 
ATOM     20  C   UNL     1       3.055  -0.090  -0.259  1.00  0.00     0.046 C 
ATOM     21  C   UNL     1       1.566  -0.288  -0.205  1.00  0.00    -0.027 A 
ATOM     22  C   UNL     1       1.111  -1.619  -0.359  1.00  0.00     0.005 A 
ATOM     23  C   UNL     1      -0.224  -1.950  -0.181  1.00  0.00     0.000 A 
ATOM     24  C   UNL     1      -0.627   0.334   0.456  1.00  0.00     0.026 A 
ATOM     25  C   UNL     1      -1.088  -0.975   0.271  1.00  0.00     0.002 A 
ENDBRANCH  14  19
ENDBRANCH  12  13
ENDBRANCH   8  12
ENDBRANCH   5   7
ENDBRANCH   4   5
ENDBRANCH   3   4
ENDBRANCH   2   3
ENDBRANCH   1   2
BRANCH   1  26
ATOM     26  C   UNL     1      -2.948   3.902   4.421  1.00  0.00     0.202 C 
BRANCH  26  27
ATOM     27  C   UNL     1      -2.511   3.951   5.885  1.00  0.00     0.261 C 
BRANCH  27  28
ATOM     28  O   UNL     1      -3.041   5.131   6.524  1.00  0.00    -0.460 OA
BRANCH  28  29
ATOM     29  C   UNL     1      -4.176   4.937   7.258  1.00  0.00     0.338 C 
ATOM     30  O   UNL     1      -4.257   4.156   8.192  1.00  0.00    -0.246 OA
BRANCH  29  31
ATOM     31  C   UNL     1      -5.332   5.620   6.604  1.00  0.00     0.060 A 
ATOM     32  C   UNL     1      -6.650   5.310   6.985  1.00  0.00     0.016 A 
ATOM     33  C   UNL     1      -5.108   6.313   5.420  1.00  0.00     0.016 A 
ATOM     34  C   UNL     1      -7.713   5.512   6.089  1.00  0.00     0.010 A 
ATOM     35  C   UNL     1      -6.140   6.413   4.511  1.00  0.00     0.010 A 
ATOM     36  C   UNL     1      -7.440   5.957   4.806  1.00  0.00    -0.014 A 
BRANCH  36  37
ATOM     37  C   UNL     1      -8.383   6.042   3.681  1.00  0.00     0.031 A 
ATOM     38  C   UNL     1      -8.592   7.399   3.127  1.00  0.00     0.074 A 
ATOM     39  C   UNL     1      -8.714   4.966   2.918  1.00  0.00     0.049 A 
ATOM     40  N   UNL     1      -9.236   7.646   2.045  1.00  0.00    -0.248 NA
ATOM     41  C   UNL     1      -8.097   8.614   3.777  1.00  0.00     0.031 C 
ATOM     42  C   UNL     1      -8.822   4.932   1.452  1.00  0.00     0.029 A 
ATOM     43  N   UNL     1      -8.963   3.639   3.266  1.00  0.00    -0.354 N 
ATOM     44  C   UNL     1      -8.933   8.931   1.672  1.00  0.00     0.074 A 
ATOM     45  C   UNL     1      -8.345   9.531   2.839  1.00  0.00     0.031 C 
ATOM     46  C   UNL     1      -9.294   3.741   1.049  1.00  0.00     0.029 A 
ATOM     47  C   UNL     1      -9.689   3.018   2.239  1.00  0.00     0.049 A 
ATOM     48  H   UNL     1      -8.674   3.206   4.101  1.00  0.00     0.167 HD
ATOM     49  C   UNL     1      -9.102   9.260   0.364  1.00  0.00     0.034 A 
ATOM     50  C   UNL     1     -10.893   2.437   2.497  1.00  0.00     0.034 A 
ATOM     51  C   UNL     1      -9.852   8.192  -0.336  1.00  0.00     0.049 A 
ATOM     52  C   UNL     1     -11.972   3.204   1.779  1.00  0.00     0.074 A 
ATOM     53  C   UNL     1      -9.510   7.222  -1.262  1.00  0.00     0.029 A 
ATOM     54  N   UNL     1     -11.114   7.834   0.147  1.00  0.00    -0.354 N 
ATOM     55  N   UNL     1     -11.735   4.343   1.188  1.00  0.00    -0.248 NA
ATOM     56  C   UNL     1     -13.346   2.766   1.579  1.00  0.00     0.031 C 
ATOM     57  C   UNL     1     -10.542   6.233  -1.261  1.00  0.00     0.029 A 
ATOM     58  C   UNL     1     -11.536   6.619  -0.372  1.00  0.00     0.049 A 
ATOM     59  H   UNL     1     -11.639   8.377   0.779  1.00  0.00     0.167 HD
ATOM     60  C   UNL     1     -12.849   4.826   0.589  1.00  0.00     0.074 A 
ATOM     61  C   UNL     1     -13.833   3.780   0.834  1.00  0.00     0.031 C 
ATOM     62  C   UNL     1     -12.847   6.057  -0.010  1.00  0.00     0.034 A 
BRANCH  49  63
ATOM     63  C   UNL     1      -8.479  10.454  -0.345  1.00  0.00     0.023 A 
ATOM     64  C   UNL     1      -8.787  10.605  -1.715  1.00  0.00     0.012 A 
ATOM     65  C   UNL     1      -7.556  11.397   0.185  1.00  0.00     0.148 A 
ATOM     66  C   UNL     1      -8.224  11.612  -2.510  1.00  0.00     0.002 A 
ATOM     67  C   UNL     1      -7.039  12.439  -0.593  1.00  0.00     0.091 A 
ATOM     68  F   UNL     1      -7.098  11.267   1.431  1.00  0.00    -0.205 F 
ATOM     69  C   UNL     1      -7.361  12.540  -1.947  1.00  0.00     0.022 A 
BRANCH  67  70
ATOM     70  S   UNL     1      -5.941  13.712   0.070  1.00  0.00     0.127 S 
ATOM     71  O   UNL     1      -4.714  13.490  -0.694  1.00  0.00    -0.237 OA
ATOM     72  O   UNL     1      -6.651  14.945  -0.271  1.00  0.00    -0.237 OA
ATOM     73  O   UNL     1      -5.827  13.458   1.501  1.00  0.00    -0.744 OA
ENDBRANCH  67  70
ENDBRANCH  49  63
BRANCH  50  74
ATOM     74  C   UNL     1     -10.892   1.778   3.844  1.00  0.00     0.023 A 
ATOM     75  C   UNL     1     -10.062   0.627   3.953  1.00  0.00     0.012 A 
ATOM     76  C   UNL     1     -11.161   2.521   5.010  1.00  0.00     0.148 A 
ATOM     77  C   UNL     1      -9.379   0.336   5.138  1.00  0.00     0.002 A 
ATOM     78  C   UNL     1     -10.458   2.235   6.184  1.00  0.00     0.091 A 
ATOM     79  F   UNL     1     -12.015   3.549   4.928  1.00  0.00    -0.205 F 
ATOM     80  C   UNL     1      -9.537   1.173   6.236  1.00  0.00     0.022 A 
BRANCH  78  81
ATOM     81  S   UNL     1     -10.552   3.294   7.636  1.00  0.00     0.127 S 
ATOM     82  O   UNL     1     -11.500   2.563   8.472  1.00  0.00    -0.237 OA
ATOM     83  O   UNL     1      -9.172   3.279   8.127  1.00  0.00    -0.237 OA
ATOM     84  O   UNL     1     -10.999   4.588   7.143  1.00  0.00    -0.744 OA
ENDBRANCH  78  81
ENDBRANCH  50  74
BRANCH  62  85
ATOM     85  C   UNL     1     -14.106   6.841  -0.305  1.00  0.00     0.023 A 
ATOM     86  C   UNL     1     -15.348   6.495   0.261  1.00  0.00     0.012 A 
ATOM     87  C   UNL     1     -14.058   8.059  -1.029  1.00  0.00     0.148 A 
ATOM     88  C   UNL     1     -16.499   7.259   0.057  1.00  0.00     0.002 A 
ATOM     89  C   UNL     1     -15.171   8.886  -1.109  1.00  0.00     0.091 A 
ATOM     90  F   UNL     1     -12.936   8.423  -1.665  1.00  0.00    -0.205 F 
ATOM     91  C   UNL     1     -16.405   8.470  -0.607  1.00  0.00     0.022 A 
BRANCH  89  92
ATOM     92  S   UNL     1     -15.037  10.578  -1.697  1.00  0.00     0.127 S 
ATOM     93  O   UNL     1     -15.550  10.461  -3.059  1.00  0.00    -0.237 OA
ATOM     94  O   UNL     1     -15.916  11.294  -0.771  1.00  0.00    -0.237 OA
ATOM     95  O   UNL     1     -13.628  10.923  -1.569  1.00  0.00    -0.744 OA
ENDBRANCH  89  92
ENDBRANCH  62  85
ENDBRANCH  36  37
ENDBRANCH  29  31
ENDBRANCH  28  29
ENDBRANCH  27  28
ENDBRANCH  26  27
ENDBRANCH   1  26
TORSDOF 20
