REMARK SMILES C[C@@H](C(=O)OCCOCCOC(=O)c1ccc(-c2c3nc(c(-c4cccc(S(=O)(=O)[O-])c4F)c4ccc([nH]4)c(-c4cccc(S(=O)(=O)[O-])c4F)c4nc(c(-c5cccc(S(=O)(=O)[O-])c5F)c5ccc2[nH]5)C=C4)C=C3)cc1)c1ccc2c3cc(Cl)ccc3n(C(=O)c3cocn3)c2c1
REMARK SMILES IDX 8 1 7 2 6 3 5 4 3 5 4 6 2 7 1 8 77 9 78 10 97 11 79 12 96 13
REMARK SMILES IDX 80 14 88 15 81 16 87 17 82 18 86 19 83 20 85 21 84 22 89 23
REMARK SMILES IDX 90 24 91 25 92 26 95 27 93 28 94 29 9 30 10 31 11 32 12 33
REMARK SMILES IDX 13 34 14 35 15 36 76 37 16 38 75 39 17 40 18 41 19 42 69 43
REMARK SMILES IDX 20 44 74 45 68 46 70 47 21 48 73 49 67 50 66 51 22 53 54 54
REMARK SMILES IDX 34 55 53 56 35 57 38 58 52 59 71 60 36 61 37 62 51 64 72 65
REMARK SMILES IDX 39 66 23 67 24 68 32 69 25 70 27 71 33 72 26 73 28 74 29 75
REMARK SMILES IDX 30 76 31 77 55 78 56 79 64 80 57 81 59 82 65 83 58 84 60 85
REMARK SMILES IDX 61 86 62 87 63 88 40 89 41 90 49 91 42 92 44 93 50 94 43 95
REMARK SMILES IDX 45 96 46 97 47 98 48 99
REMARK H PARENT 70 52 38 63
REMARK Flexibility Score: inf
ROOT
ATOM      1  O   UNL     1       0.868  -4.149   2.306  1.00  0.00    -0.374 OA
ENDROOT
BRANCH   1   2
ATOM      2  C   UNL     1       2.151  -4.430   1.749  1.00  0.00     0.202 C 
BRANCH   2   3
ATOM      3  C   UNL     1       2.314  -4.216   0.241  1.00  0.00     0.261 C 
BRANCH   3   4
ATOM      4  O   UNL     1       2.072  -2.845  -0.108  1.00  0.00    -0.463 OA
BRANCH   4   5
ATOM      5  C   UNL     1       1.363  -2.639  -1.251  1.00  0.00     0.313 C 
ATOM      6  O   UNL     1       1.127  -3.506  -2.086  1.00  0.00    -0.252 OA
BRANCH   5   7
ATOM      7  C   UNL     1       0.767  -1.229  -1.318  1.00  0.00     0.126 C 
ATOM      8  C   UNL     1       1.516  -0.218  -0.439  1.00  0.00     0.025 C 
BRANCH   7   9
ATOM      9  C   UNL     1      -0.753  -1.181  -1.095  1.00  0.00    -0.032 A 
ATOM     10  C   UNL     1      -1.439   0.019  -1.316  1.00  0.00     0.005 A 
ATOM     11  C   UNL     1      -1.498  -2.313  -0.707  1.00  0.00     0.032 A 
ATOM     12  C   UNL     1      -2.835   0.091  -1.230  1.00  0.00     0.011 A 
ATOM     13  C   UNL     1      -2.905  -2.230  -0.585  1.00  0.00     0.058 A 
ATOM     14  C   UNL     1      -3.581  -1.059  -0.902  1.00  0.00     0.008 A 
ATOM     15  N   UNL     1      -3.851  -3.196  -0.206  1.00  0.00    -0.274 N 
ATOM     16  C   UNL     1      -4.975  -1.336  -0.828  1.00  0.00     0.009 A 
ATOM     17  C   UNL     1      -5.133  -2.649  -0.365  1.00  0.00     0.057 A 
ATOM     18  C   UNL     1      -6.115  -0.550  -1.107  1.00  0.00     0.031 A 
ATOM     19  C   UNL     1      -6.421  -3.149  -0.074  1.00  0.00     0.029 A 
ATOM     20  C   UNL     1      -7.385  -1.077  -0.885  1.00  0.00     0.041 A 
ATOM     21  C   UNL     1      -7.538  -2.352  -0.359  1.00  0.00     0.023 A 
ATOM     22  Cl  UNL     1      -8.774  -0.126  -1.245  1.00  0.00    -0.084 Cl
BRANCH  15  23
ATOM     23  C   UNL     1      -3.504  -4.475   0.308  1.00  0.00     0.284 C 
ATOM     24  O   UNL     1      -2.479  -4.510   0.980  1.00  0.00    -0.266 OA
BRANCH  23  25
ATOM     25  C   UNL     1      -4.255  -5.707   0.067  1.00  0.00     0.167 A 
ATOM     26  C   UNL     1      -5.129  -6.013  -0.954  1.00  0.00     0.231 A 
ATOM     27  N   UNL     1      -4.065  -6.852   0.832  1.00  0.00    -0.211 NA
ATOM     28  O   UNL     1      -5.494  -7.323  -0.838  1.00  0.00    -0.451 OA
ATOM     29  C   UNL     1      -4.796  -7.764   0.242  1.00  0.00     0.308 A 
ENDBRANCH  23  25
ENDBRANCH  15  23
ENDBRANCH   7   9
ENDBRANCH   5   7
ENDBRANCH   4   5
ENDBRANCH   3   4
ENDBRANCH   2   3
ENDBRANCH   1   2
BRANCH   1  30
ATOM     30  C   UNL     1       0.444  -2.788   2.361  1.00  0.00     0.202 C 
BRANCH  30  31
ATOM     31  C   UNL     1       1.129  -1.883   3.393  1.00  0.00     0.261 C 
BRANCH  31  32
ATOM     32  O   UNL     1       2.540  -1.724   3.152  1.00  0.00    -0.460 OA
BRANCH  32  33
ATOM     33  C   UNL     1       3.338  -2.221   4.128  1.00  0.00     0.338 C 
ATOM     34  O   UNL     1       2.987  -2.710   5.193  1.00  0.00    -0.246 OA
BRANCH  33  35
ATOM     35  C   UNL     1       4.740  -2.263   3.676  1.00  0.00     0.060 A 
ATOM     36  C   UNL     1       5.377  -3.510   3.658  1.00  0.00     0.016 A 
ATOM     37  C   UNL     1       5.450  -1.098   3.380  1.00  0.00     0.016 A 
ATOM     38  C   UNL     1       6.742  -3.594   3.392  1.00  0.00     0.010 A 
ATOM     39  C   UNL     1       6.823  -1.184   3.121  1.00  0.00     0.010 A 
ATOM     40  C   UNL     1       7.482  -2.427   3.163  1.00  0.00    -0.014 A 
BRANCH  40  41
ATOM     41  C   UNL     1       8.962  -2.501   3.103  1.00  0.00     0.031 A 
ATOM     42  C   UNL     1       9.768  -2.109   4.312  1.00  0.00     0.074 A 
ATOM     43  C   UNL     1       9.583  -2.926   1.988  1.00  0.00     0.049 A 
ATOM     44  N   UNL     1      11.065  -2.084   4.470  1.00  0.00    -0.248 NA
ATOM     45  C   UNL     1       9.009  -1.687   5.501  1.00  0.00     0.031 C 
ATOM     46  C   UNL     1       8.914  -3.337   0.755  1.00  0.00     0.029 A 
ATOM     47  N   UNL     1      10.920  -3.058   1.708  1.00  0.00    -0.354 N 
ATOM     48  C   UNL     1      11.281  -1.621   5.763  1.00  0.00     0.074 A 
ATOM     49  C   UNL     1       9.981  -1.363   6.342  1.00  0.00     0.031 C 
ATOM     50  C   UNL     1       9.846  -3.646  -0.163  1.00  0.00     0.029 A 
ATOM     51  C   UNL     1      11.174  -3.434   0.410  1.00  0.00     0.049 A 
ATOM     52  H   UNL     1      11.630  -2.898   2.372  1.00  0.00     0.167 HD
ATOM     53  C   UNL     1      12.455  -1.444   6.416  1.00  0.00     0.034 A 
ATOM     54  C   UNL     1      12.343  -3.571  -0.246  1.00  0.00     0.034 A 
ATOM     55  C   UNL     1      13.746  -1.718   5.846  1.00  0.00     0.049 A 
ATOM     56  C   UNL     1      13.636  -3.346   0.495  1.00  0.00     0.074 A 
ATOM     57  C   UNL     1      14.990  -1.613   6.442  1.00  0.00     0.029 A 
ATOM     58  N   UNL     1      13.963  -2.142   4.543  1.00  0.00    -0.354 N 
ATOM     59  N   UNL     1      13.822  -3.024   1.752  1.00  0.00    -0.248 NA
ATOM     60  C   UNL     1      14.881  -3.539  -0.264  1.00  0.00     0.031 C 
ATOM     61  C   UNL     1      15.961  -1.947   5.492  1.00  0.00     0.029 A 
ATOM     62  C   UNL     1      15.320  -2.290   4.312  1.00  0.00     0.049 A 
ATOM     63  H   UNL     1      13.255  -2.312   3.880  1.00  0.00     0.167 HD
ATOM     64  C   UNL     1      15.200  -3.008   1.944  1.00  0.00     0.074 A 
ATOM     65  C   UNL     1      15.800  -3.374   0.677  1.00  0.00     0.031 C 
ATOM     66  C   UNL     1      15.904  -2.705   3.062  1.00  0.00     0.034 A 
BRANCH  53  67
ATOM     67  C   UNL     1      12.394  -0.952   7.839  1.00  0.00     0.023 A 
ATOM     68  C   UNL     1      11.952  -1.821   8.858  1.00  0.00     0.012 A 
ATOM     69  C   UNL     1      12.820   0.347   8.175  1.00  0.00     0.148 A 
ATOM     70  C   UNL     1      11.905  -1.394  10.184  1.00  0.00     0.002 A 
ATOM     71  C   UNL     1      12.811   0.751   9.505  1.00  0.00     0.091 A 
ATOM     72  F   UNL     1      13.214   1.166   7.190  1.00  0.00    -0.205 F 
ATOM     73  C   UNL     1      12.344  -0.113  10.509  1.00  0.00     0.022 A 
BRANCH  71  74
ATOM     74  S   UNL     1      13.426   2.354  10.034  1.00  0.00     0.127 S 
ATOM     75  O   UNL     1      12.186   3.047  10.382  1.00  0.00    -0.237 OA
ATOM     76  O   UNL     1      14.268   2.001  11.177  1.00  0.00    -0.237 OA
ATOM     77  O   UNL     1      14.150   2.901   8.894  1.00  0.00    -0.744 OA
ENDBRANCH  71  74
ENDBRANCH  53  67
BRANCH  54  78
ATOM     78  C   UNL     1      12.344  -3.969  -1.682  1.00  0.00     0.023 A 
ATOM     79  C   UNL     1      12.815  -5.243  -2.053  1.00  0.00     0.012 A 
ATOM     80  C   UNL     1      11.857  -3.099  -2.678  1.00  0.00     0.148 A 
ATOM     81  C   UNL     1      12.826  -5.633  -3.393  1.00  0.00     0.002 A 
ATOM     82  C   UNL     1      11.820  -3.515  -4.003  1.00  0.00     0.091 A 
ATOM     83  F   UNL     1      11.431  -1.883  -2.306  1.00  0.00    -0.205 F 
ATOM     84  C   UNL     1      12.319  -4.776  -4.365  1.00  0.00     0.022 A 
BRANCH  82  85
ATOM     85  S   UNL     1      11.065  -2.528  -5.301  1.00  0.00     0.127 S 
ATOM     86  O   UNL     1      12.231  -2.114  -6.077  1.00  0.00    -0.237 OA
ATOM     87  O   UNL     1      10.201  -3.508  -5.960  1.00  0.00    -0.237 OA
ATOM     88  O   UNL     1      10.348  -1.461  -4.616  1.00  0.00    -0.744 OA
ENDBRANCH  82  85
ENDBRANCH  54  78
BRANCH  66  89
ATOM     89  C   UNL     1      17.408  -2.787   2.989  1.00  0.00     0.023 A 
ATOM     90  C   UNL     1      18.129  -1.807   2.279  1.00  0.00     0.012 A 
ATOM     91  C   UNL     1      18.109  -3.790   3.689  1.00  0.00     0.148 A 
ATOM     92  C   UNL     1      19.523  -1.843   2.240  1.00  0.00     0.002 A 
ATOM     93  C   UNL     1      19.499  -3.791   3.685  1.00  0.00     0.091 A 
ATOM     94  F   UNL     1      17.404  -4.724   4.344  1.00  0.00    -0.205 F 
ATOM     95  C   UNL     1      20.207  -2.825   2.951  1.00  0.00     0.022 A 
BRANCH  93  96
ATOM     96  S   UNL     1      20.464  -4.960   4.649  1.00  0.00     0.127 S 
ATOM     97  O   UNL     1      20.992  -5.840   3.609  1.00  0.00    -0.237 OA
ATOM     98  O   UNL     1      21.462  -4.094   5.279  1.00  0.00    -0.237 OA
ATOM     99  O   UNL     1      19.530  -5.580   5.580  1.00  0.00    -0.744 OA
ENDBRANCH  93  96
ENDBRANCH  66  89
ENDBRANCH  40  41
ENDBRANCH  33  35
ENDBRANCH  32  33
ENDBRANCH  31  32
ENDBRANCH  30  31
ENDBRANCH   1  30
TORSDOF 20
