REMARK SMILES COc1ccc(/C=C2/C(=O)N(c3ccccc3)C(=O)N=C2OCCOCCOC(=O)c2ccc(-c3c4nc(c(-c5cccc(S(=O)(=O)[O-])c5F)c5ccc([nH]5)c(-c5cccc(S(=O)(=O)[O-])c5F)c5nc(c(-c6cccc(S(=O)(=O)[O-])c6F)c6ccc3[nH]6)C=C5)C=C4)cc2)cc1C(=O)[O-]
REMARK SMILES IDX 26 1 25 2 24 3 23 4 22 5 21 6 7 7 8 8 9 9 10 10 11 11 20 12
REMARK SMILES IDX 18 13 19 14 6 15 3 16 4 17 95 18 5 19 94 20 2 21 1 22 96 23
REMARK SMILES IDX 97 24 98 25 12 26 13 27 17 28 14 29 16 30 15 31 27 32 28 33
REMARK SMILES IDX 29 34 30 35 31 36 32 37 93 38 33 39 92 40 34 41 35 42 36 43
REMARK SMILES IDX 86 44 37 45 91 46 85 47 87 48 38 49 90 50 84 51 83 52 39 54
REMARK SMILES IDX 71 55 51 56 70 57 52 58 55 59 69 60 88 61 53 62 54 63 68 65
REMARK SMILES IDX 89 66 56 67 40 68 41 69 49 70 42 71 44 72 50 73 43 74 45 75
REMARK SMILES IDX 46 76 47 77 48 78 72 79 73 80 81 81 74 82 76 83 82 84 75 85
REMARK SMILES IDX 77 86 78 87 79 88 80 89 57 90 58 91 66 92 59 93 61 94 67 95
REMARK SMILES IDX 60 96 62 97 63 98 64 99 65 100
REMARK H PARENT 87 53 55 64
REMARK Flexibility Score: inf
ROOT
ATOM      1  C   UNL     1      -1.979  -2.852  -6.553  1.00  0.00     0.202 C 
ENDROOT
BRANCH   1   2
ATOM      2  O   UNL     1      -3.087  -3.539  -5.970  1.00  0.00    -0.374 OA
BRANCH   2   3
ATOM      3  C   UNL     1      -3.032  -3.726  -4.551  1.00  0.00     0.202 C 
BRANCH   3   4
ATOM      4  C   UNL     1      -2.609  -5.142  -4.147  1.00  0.00     0.260 C 
BRANCH   4   5
ATOM      5  O   UNL     1      -1.167  -5.256  -4.201  1.00  0.00    -0.475 OA
BRANCH   5   6
ATOM      6  C   UNL     1      -0.602  -5.528  -5.381  1.00  0.00     0.231 C 
ATOM      7  C   UNL     1       1.550  -4.240  -4.746  1.00  0.00     0.027 C 
ATOM      8  C   UNL     1       0.781  -5.043  -5.533  1.00  0.00     0.103 C 
ATOM      9  C   UNL     1       1.381  -5.414  -6.876  1.00  0.00     0.272 C 
ATOM     10  O   UNL     1       2.575  -5.216  -7.109  1.00  0.00    -0.268 OA
ATOM     11  N   UNL     1       0.476  -5.912  -7.817  1.00  0.00    -0.226 N 
ATOM     12  N   UNL     1      -1.299  -6.135  -6.261  1.00  0.00    -0.156 NA
ATOM     13  C   UNL     1      -0.821  -6.337  -7.511  1.00  0.00     0.358 C 
ATOM     14  O   UNL     1      -1.540  -6.914  -8.324  1.00  0.00    -0.245 OA
BRANCH   7  15
ATOM     15  C   UNL     1       1.449  -3.485  -3.451  1.00  0.00    -0.024 A 
ATOM     16  C   UNL     1       1.425  -1.904  -1.051  1.00  0.00     0.127 A 
ATOM     17  C   UNL     1       0.390  -2.777  -1.357  1.00  0.00     0.048 A 
ATOM     18  C   UNL     1       2.533  -1.878  -1.894  1.00  0.00     0.040 A 
ATOM     19  C   UNL     1       0.418  -3.565  -2.517  1.00  0.00     0.012 A 
ATOM     20  C   UNL     1       2.518  -2.626  -3.100  1.00  0.00     0.022 A 
BRANCH  16  21
ATOM     21  O   UNL     1       1.264  -1.223   0.120  1.00  0.00    -0.496 OA
ATOM     22  C   UNL     1       1.385   0.193   0.010  1.00  0.00     0.278 C 
ENDBRANCH  16  21
BRANCH  18  23
ATOM     23  C   UNL     1       3.783  -1.164  -1.562  1.00  0.00     0.075 C 
ATOM     24  O   UNL     1       4.518  -0.615  -2.364  1.00  0.00    -0.545 OA
ATOM     25  O   UNL     1       4.090  -1.288  -0.263  1.00  0.00    -0.545 OA
ENDBRANCH  18  23
ENDBRANCH   7  15
BRANCH  11  26
ATOM     26  C   UNL     1       0.894  -6.122  -9.169  1.00  0.00     0.054 A 
ATOM     27  C   UNL     1       0.126  -5.594 -10.222  1.00  0.00     0.027 A 
ATOM     28  C   UNL     1       1.969  -6.965  -9.464  1.00  0.00     0.027 A 
ATOM     29  C   UNL     1       0.408  -5.929 -11.546  1.00  0.00     0.002 A 
ATOM     30  C   UNL     1       2.230  -7.322 -10.790  1.00  0.00     0.002 A 
ATOM     31  C   UNL     1       1.449  -6.809 -11.828  1.00  0.00     0.000 A 
ENDBRANCH  11  26
ENDBRANCH   5   6
ENDBRANCH   4   5
ENDBRANCH   3   4
ENDBRANCH   2   3
ENDBRANCH   1   2
BRANCH   1  32
ATOM     32  C   UNL     1      -2.118  -1.330  -6.598  1.00  0.00     0.261 C 
BRANCH  32  33
ATOM     33  O   UNL     1      -1.990  -0.771  -5.282  1.00  0.00    -0.460 OA
BRANCH  33  34
ATOM     34  C   UNL     1      -3.165  -0.512  -4.662  1.00  0.00     0.338 C 
ATOM     35  O   UNL     1      -4.284  -0.618  -5.136  1.00  0.00    -0.246 OA
BRANCH  34  36
ATOM     36  C   UNL     1      -2.921  -0.227  -3.236  1.00  0.00     0.060 A 
ATOM     37  C   UNL     1      -3.800  -0.791  -2.302  1.00  0.00     0.016 A 
ATOM     38  C   UNL     1      -1.894   0.622  -2.820  1.00  0.00     0.016 A 
ATOM     39  C   UNL     1      -3.690  -0.463  -0.953  1.00  0.00     0.010 A 
ATOM     40  C   UNL     1      -1.792   0.955  -1.468  1.00  0.00     0.010 A 
ATOM     41  C   UNL     1      -2.708   0.443  -0.532  1.00  0.00    -0.014 A 
BRANCH  41  42
ATOM     42  C   UNL     1      -2.728   0.974   0.853  1.00  0.00     0.031 A 
ATOM     43  C   UNL     1      -3.212   2.380   1.084  1.00  0.00     0.074 A 
ATOM     44  C   UNL     1      -2.313   0.222   1.889  1.00  0.00     0.049 A 
ATOM     45  N   UNL     1      -3.264   3.064   2.196  1.00  0.00    -0.248 NA
ATOM     46  C   UNL     1      -3.694   3.116  -0.098  1.00  0.00     0.031 C 
ATOM     47  C   UNL     1      -1.821  -1.151   1.793  1.00  0.00     0.029 A 
ATOM     48  N   UNL     1      -2.210   0.520   3.225  1.00  0.00    -0.354 N 
ATOM     49  C   UNL     1      -3.766   4.313   1.849  1.00  0.00     0.074 A 
ATOM     50  C   UNL     1      -3.969   4.306   0.417  1.00  0.00     0.031 C 
ATOM     51  C   UNL     1      -1.433  -1.565   3.011  1.00  0.00     0.029 A 
ATOM     52  C   UNL     1      -1.644  -0.487   3.972  1.00  0.00     0.049 A 
ATOM     53  H   UNL     1      -2.512   1.374   3.611  1.00  0.00     0.167 HD
ATOM     54  C   UNL     1      -4.064   5.361   2.651  1.00  0.00     0.034 A 
ATOM     55  C   UNL     1      -1.325  -0.527   5.281  1.00  0.00     0.034 A 
ATOM     56  C   UNL     1      -3.893   5.356   4.078  1.00  0.00     0.049 A 
ATOM     57  C   UNL     1      -1.650   0.661   6.149  1.00  0.00     0.074 A 
ATOM     58  C   UNL     1      -4.191   6.358   4.984  1.00  0.00     0.029 A 
ATOM     59  N   UNL     1      -3.382   4.294   4.808  1.00  0.00    -0.354 N 
ATOM     60  N   UNL     1      -2.227   1.792   5.819  1.00  0.00    -0.248 NA
ATOM     61  C   UNL     1      -1.320   0.551   7.577  1.00  0.00     0.031 C 
ATOM     62  C   UNL     1      -3.853   5.903   6.263  1.00  0.00     0.029 A 
ATOM     63  C   UNL     1      -3.360   4.613   6.154  1.00  0.00     0.049 A 
ATOM     64  H   UNL     1      -3.080   3.439   4.425  1.00  0.00     0.167 HD
ATOM     65  C   UNL     1      -2.372   2.505   7.005  1.00  0.00     0.074 A 
ATOM     66  C   UNL     1      -1.835   1.673   8.061  1.00  0.00     0.031 C 
ATOM     67  C   UNL     1      -2.891   3.743   7.201  1.00  0.00     0.034 A 
BRANCH  54  68
ATOM     68  C   UNL     1      -4.662   6.582   2.007  1.00  0.00     0.023 A 
ATOM     69  C   UNL     1      -5.998   6.539   1.557  1.00  0.00     0.012 A 
ATOM     70  C   UNL     1      -3.931   7.779   1.890  1.00  0.00     0.148 A 
ATOM     71  C   UNL     1      -6.588   7.660   0.974  1.00  0.00     0.002 A 
ATOM     72  C   UNL     1      -4.539   8.905   1.345  1.00  0.00     0.091 A 
ATOM     73  F   UNL     1      -2.655   7.792   2.301  1.00  0.00    -0.205 F 
ATOM     74  C   UNL     1      -5.862   8.844   0.878  1.00  0.00     0.022 A 
BRANCH  72  75
ATOM     75  S   UNL     1      -3.714  10.497   1.242  1.00  0.00     0.127 S 
ATOM     76  O   UNL     1      -3.489  10.619  -0.198  1.00  0.00    -0.237 OA
ATOM     77  O   UNL     1      -4.728  11.405   1.779  1.00  0.00    -0.237 OA
ATOM     78  O   UNL     1      -2.512  10.380   2.055  1.00  0.00    -0.744 OA
ENDBRANCH  72  75
ENDBRANCH  54  68
BRANCH  55  79
ATOM     79  C   UNL     1      -0.720  -1.754   5.872  1.00  0.00     0.023 A 
ATOM     80  C   UNL     1      -1.482  -2.535   6.764  1.00  0.00     0.012 A 
ATOM     81  C   UNL     1       0.598  -2.146   5.570  1.00  0.00     0.148 A 
ATOM     82  C   UNL     1      -0.929  -3.661   7.375  1.00  0.00     0.002 A 
ATOM     83  C   UNL     1       1.127  -3.297   6.145  1.00  0.00     0.091 A 
ATOM     84  F   UNL     1       1.313  -1.381   4.734  1.00  0.00    -0.205 F 
ATOM     85  C   UNL     1       0.371  -4.046   7.060  1.00  0.00     0.022 A 
BRANCH  83  86
ATOM     86  S   UNL     1       2.755  -3.928   5.722  1.00  0.00     0.127 S 
ATOM     87  O   UNL     1       3.518  -3.616   6.928  1.00  0.00    -0.237 OA
ATOM     88  O   UNL     1       2.485  -5.351   5.515  1.00  0.00    -0.237 OA
ATOM     89  O   UNL     1       3.152  -3.211   4.519  1.00  0.00    -0.744 OA
ENDBRANCH  83  86
ENDBRANCH  55  79
BRANCH  67  90
ATOM     90  C   UNL     1      -2.958   4.259   8.614  1.00  0.00     0.023 A 
ATOM     91  C   UNL     1      -1.780   4.678   9.263  1.00  0.00     0.012 A 
ATOM     92  C   UNL     1      -4.198   4.403   9.266  1.00  0.00     0.148 A 
ATOM     93  C   UNL     1      -1.833   5.205  10.553  1.00  0.00     0.002 A 
ATOM     94  C   UNL     1      -4.248   4.972  10.533  1.00  0.00     0.091 A 
ATOM     95  F   UNL     1      -5.305   3.979   8.638  1.00  0.00    -0.205 F 
ATOM     96  C   UNL     1      -3.066   5.363  11.182  1.00  0.00     0.022 A 
BRANCH  94  97
ATOM     97  S   UNL     1      -5.800   5.300  11.377  1.00  0.00     0.127 S 
ATOM     98  O   UNL     1      -5.817   4.247  12.390  1.00  0.00    -0.237 OA
ATOM     99  O   UNL     1      -5.589   6.650  11.902  1.00  0.00    -0.237 OA
ATOM    100  O   UNL     1      -6.836   5.207  10.357  1.00  0.00    -0.744 OA
ENDBRANCH  94  97
ENDBRANCH  67  90
ENDBRANCH  41  42
ENDBRANCH  34  36
ENDBRANCH  33  34
ENDBRANCH  32  33
ENDBRANCH   1  32
TORSDOF 20
