REMARK SMILES Cc1cccc(OC2(C(=O)OCCOCCOC(=O)c3ccc(-c4c5nc(c(-c6cccc(S(=O)(=O)[O-])c6F)c6ccc([nH]6)c(-c6cccc(S(=O)(=O)[O-])c6F)c6nc(c(-c7cccc(S(=O)(=O)[O-])c7F)c7ccc4[nH]7)C=C6)C=C5)cc3)CCN(C(=O)c3cnc[nH]c3=O)CC2)c1
REMARK SMILES IDX 15 1 14 2 13 3 12 4 11 5 9 6 10 7 8 8 83 9 96 10 84 11 95 12
REMARK SMILES IDX 85 13 86 14 87 15 7 16 6 17 1 18 2 19 3 20 97 21 4 22 5 23
REMARK SMILES IDX 88 24 89 25 93 26 90 27 92 28 94 29 91 30 16 32 17 33 18 34
REMARK SMILES IDX 19 35 20 36 21 37 82 38 22 39 81 40 23 41 24 42 25 43 75 44
REMARK SMILES IDX 26 45 80 46 74 47 76 48 27 49 79 50 73 51 72 52 28 54 60 55
REMARK SMILES IDX 40 56 59 57 41 58 44 59 58 60 77 61 42 62 43 63 57 65 78 66
REMARK SMILES IDX 45 67 29 68 30 69 38 70 31 71 33 72 39 73 32 74 34 75 35 76
REMARK SMILES IDX 36 77 37 78 61 79 62 80 70 81 63 82 65 83 71 84 64 85 66 86
REMARK SMILES IDX 67 87 68 88 69 89 46 90 47 91 55 92 48 93 50 94 56 95 49 96
REMARK SMILES IDX 51 97 52 98 53 99 54 100
REMARK H PARENT 92 31 76 53 44 64
REMARK Flexibility Score: inf
ROOT
ATOM      1  C   UNL     1       1.766   1.095  -2.398  1.00  0.00     0.202 C 
ENDROOT
BRANCH   1   2
ATOM      2  O   UNL     1       1.003   2.282  -2.474  1.00  0.00    -0.374 OA
BRANCH   2   3
ATOM      3  C   UNL     1       1.736   3.487  -2.425  1.00  0.00     0.202 C 
BRANCH   3   4
ATOM      4  C   UNL     1       0.763   4.630  -2.292  1.00  0.00     0.261 C 
BRANCH   4   5
ATOM      5  O   UNL     1      -0.203   4.580  -1.196  1.00  0.00    -0.460 OA
BRANCH   5   6
ATOM      6  C   UNL     1      -0.797   3.437  -0.720  1.00  0.00     0.350 C 
ATOM      7  O   UNL     1      -1.575   2.733  -1.344  1.00  0.00    -0.247 OA
BRANCH   6   8
ATOM      8  C   UNL     1      -0.408   3.256   0.774  1.00  0.00     0.209 C 
ATOM      9  C   UNL     1       1.108   3.604   0.832  1.00  0.00     0.082 C 
ATOM     10  C   UNL     1      -1.200   4.275   1.635  1.00  0.00     0.082 C 
ATOM     11  C   UNL     1       1.673   3.863   2.194  1.00  0.00     0.124 C 
ATOM     12  C   UNL     1      -0.583   4.347   3.038  1.00  0.00     0.124 C 
ATOM     13  N   UNL     1       0.810   4.763   2.912  1.00  0.00    -0.338 N 
ATOM     14  C   UNL     1       1.276   6.003   3.290  1.00  0.00     0.261 C 
ATOM     15  O   UNL     1       2.049   6.695   2.639  1.00  0.00    -0.269 OA
BRANCH   8  16
ATOM     16  O   UNL     1      -0.778   2.017   1.415  1.00  0.00    -0.475 OA
BRANCH  16  17
ATOM     17  C   UNL     1      -0.350   0.843   0.887  1.00  0.00     0.121 A 
ATOM     18  C   UNL     1       2.900  -1.025   0.489  1.00  0.00     0.044 C 
ATOM     19  C   UNL     1       1.430  -0.748   0.487  1.00  0.00    -0.047 A 
ATOM     20  C   UNL     1       0.501  -1.643  -0.048  1.00  0.00     0.003 A 
ATOM     21  C   UNL     1       0.975   0.456   1.023  1.00  0.00     0.050 A 
ATOM     22  C   UNL     1      -0.854  -1.303  -0.092  1.00  0.00     0.004 A 
ATOM     23  C   UNL     1      -1.279  -0.052   0.365  1.00  0.00     0.046 A 
ENDBRANCH  16  17
ENDBRANCH   8  16
BRANCH  14  24
ATOM     24  C   UNL     1       0.899   6.349   4.665  1.00  0.00     0.123 A 
ATOM     25  C   UNL     1       0.198   7.454   4.944  1.00  0.00     0.132 A 
ATOM     26  C   UNL     1       1.248   5.453   5.782  1.00  0.00     0.263 A 
ATOM     27  N   UNL     1      -0.258   7.790   6.199  1.00  0.00    -0.246 NA
ATOM     28  N   UNL     1       0.726   5.811   6.989  1.00  0.00    -0.312 N 
ATOM     29  O   UNL     1       1.960   4.458   5.668  1.00  0.00    -0.269 OA
ATOM     30  C   UNL     1       0.010   6.959   7.149  1.00  0.00     0.199 A 
ATOM     31  H   UNL     1       0.871   5.225   7.766  1.00  0.00     0.171 HD
ENDBRANCH  14  24
ENDBRANCH   6   8
ENDBRANCH   5   6
ENDBRANCH   4   5
ENDBRANCH   3   4
ENDBRANCH   2   3
ENDBRANCH   1   2
BRANCH   1  32
ATOM     32  C   UNL     1       2.753   0.903  -3.550  1.00  0.00     0.261 C 
BRANCH  32  33
ATOM     33  O   UNL     1       2.040   0.716  -4.782  1.00  0.00    -0.460 OA
BRANCH  33  34
ATOM     34  C   UNL     1       2.017   1.824  -5.576  1.00  0.00     0.338 C 
ATOM     35  O   UNL     1       3.016   2.338  -6.050  1.00  0.00    -0.246 OA
BRANCH  34  36
ATOM     36  C   UNL     1       0.646   2.410  -5.586  1.00  0.00     0.060 A 
ATOM     37  C   UNL     1       0.467   3.751  -5.965  1.00  0.00     0.016 A 
ATOM     38  C   UNL     1      -0.400   1.714  -4.975  1.00  0.00     0.016 A 
ATOM     39  C   UNL     1      -0.710   4.431  -5.621  1.00  0.00     0.010 A 
ATOM     40  C   UNL     1      -1.519   2.412  -4.561  1.00  0.00     0.010 A 
ATOM     41  C   UNL     1      -1.671   3.779  -4.856  1.00  0.00    -0.014 A 
BRANCH  41  42
ATOM     42  C   UNL     1      -2.888   4.388  -4.322  1.00  0.00     0.031 A 
ATOM     43  C   UNL     1      -4.181   4.003  -4.912  1.00  0.00     0.074 A 
ATOM     44  C   UNL     1      -2.910   5.079  -3.160  1.00  0.00     0.049 A 
ATOM     45  N   UNL     1      -5.300   4.558  -4.593  1.00  0.00    -0.248 NA
ATOM     46  C   UNL     1      -4.309   3.021  -5.987  1.00  0.00     0.031 C 
ATOM     47  C   UNL     1      -3.970   5.065  -2.152  1.00  0.00     0.029 A 
ATOM     48  N   UNL     1      -1.962   5.934  -2.620  1.00  0.00    -0.354 N 
ATOM     49  C   UNL     1      -6.285   3.751  -5.098  1.00  0.00     0.074 A 
ATOM     50  C   UNL     1      -5.636   2.981  -6.125  1.00  0.00     0.031 C 
ATOM     51  C   UNL     1      -3.694   5.970  -1.202  1.00  0.00     0.029 A 
ATOM     52  C   UNL     1      -2.551   6.743  -1.648  1.00  0.00     0.049 A 
ATOM     53  H   UNL     1      -1.014   5.966  -2.884  1.00  0.00     0.167 HD
ATOM     54  C   UNL     1      -7.467   3.685  -4.430  1.00  0.00     0.034 A 
ATOM     55  C   UNL     1      -2.407   8.095  -1.665  1.00  0.00     0.034 A 
ATOM     56  C   UNL     1      -7.574   4.760  -3.412  1.00  0.00     0.049 A 
ATOM     57  C   UNL     1      -3.747   8.756  -1.841  1.00  0.00     0.074 A 
ATOM     58  C   UNL     1      -7.611   4.769  -2.028  1.00  0.00     0.029 A 
ATOM     59  N   UNL     1      -7.395   6.098  -3.793  1.00  0.00    -0.354 N 
ATOM     60  N   UNL     1      -4.857   8.080  -1.953  1.00  0.00    -0.248 NA
ATOM     61  C   UNL     1      -3.978  10.193  -1.915  1.00  0.00     0.031 C 
ATOM     62  C   UNL     1      -7.373   6.105  -1.584  1.00  0.00     0.029 A 
ATOM     63  C   UNL     1      -7.238   6.930  -2.690  1.00  0.00     0.049 A 
ATOM     64  H   UNL     1      -7.383   6.410  -4.726  1.00  0.00     0.167 HD
ATOM     65  C   UNL     1      -5.868   8.896  -2.343  1.00  0.00     0.074 A 
ATOM     66  C   UNL     1      -5.299  10.227  -2.177  1.00  0.00     0.031 C 
ATOM     67  C   UNL     1      -7.029   8.380  -2.854  1.00  0.00     0.034 A 
BRANCH  54  68
ATOM     68  C   UNL     1      -8.446   2.514  -4.537  1.00  0.00     0.023 A 
ATOM     69  C   UNL     1      -9.627   2.589  -3.768  1.00  0.00     0.012 A 
ATOM     70  C   UNL     1      -8.271   1.302  -5.263  1.00  0.00     0.148 A 
ATOM     71  C   UNL     1     -10.566   1.546  -3.722  1.00  0.00     0.002 A 
ATOM     72  C   UNL     1      -9.244   0.298  -5.285  1.00  0.00     0.091 A 
ATOM     73  F   UNL     1      -7.116   1.034  -5.871  1.00  0.00    -0.205 F 
ATOM     74  C   UNL     1     -10.388   0.410  -4.498  1.00  0.00     0.022 A 
BRANCH  72  75
ATOM     75  S   UNL     1      -9.094  -1.179  -6.316  1.00  0.00     0.127 S 
ATOM     76  O   UNL     1      -9.027  -2.247  -5.319  1.00  0.00    -0.237 OA
ATOM     77  O   UNL     1     -10.336  -1.145  -7.089  1.00  0.00    -0.237 OA
ATOM     78  O   UNL     1      -7.885  -1.009  -7.115  1.00  0.00    -0.744 OA
ENDBRANCH  72  75
ENDBRANCH  54  68
BRANCH  55  79
ATOM     79  C   UNL     1      -1.075   8.537  -2.186  1.00  0.00     0.023 A 
ATOM     80  C   UNL     1       0.027   8.412  -1.301  1.00  0.00     0.012 A 
ATOM     81  C   UNL     1      -0.816   8.624  -3.570  1.00  0.00     0.148 A 
ATOM     82  C   UNL     1       1.337   8.298  -1.779  1.00  0.00     0.002 A 
ATOM     83  C   UNL     1       0.487   8.447  -4.041  1.00  0.00     0.091 A 
ATOM     84  F   UNL     1      -1.851   8.792  -4.402  1.00  0.00    -0.205 F 
ATOM     85  C   UNL     1       1.561   8.277  -3.150  1.00  0.00     0.022 A 
BRANCH  83  86
ATOM     86  S   UNL     1       0.865   8.211  -5.786  1.00  0.00     0.127 S 
ATOM     87  O   UNL     1       1.546   9.462  -6.113  1.00  0.00    -0.237 OA
ATOM     88  O   UNL     1       1.734   7.032  -5.749  1.00  0.00    -0.237 OA
ATOM     89  O   UNL     1      -0.413   7.994  -6.444  1.00  0.00    -0.744 OA
ENDBRANCH  83  86
ENDBRANCH  55  79
BRANCH  67  90
ATOM     90  C   UNL     1      -8.060   9.213  -3.585  1.00  0.00     0.023 A 
ATOM     91  C   UNL     1      -7.757  10.473  -4.140  1.00  0.00     0.012 A 
ATOM     92  C   UNL     1      -9.345   8.690  -3.864  1.00  0.00     0.148 A 
ATOM     93  C   UNL     1      -8.694  11.213  -4.865  1.00  0.00     0.002 A 
ATOM     94  C   UNL     1     -10.228   9.372  -4.695  1.00  0.00     0.091 A 
ATOM     95  F   UNL     1      -9.733   7.533  -3.309  1.00  0.00    -0.205 F 
ATOM     96  C   UNL     1      -9.924  10.650  -5.165  1.00  0.00     0.022 A 
BRANCH  94  97
ATOM     97  S   UNL     1     -11.701   8.562  -5.328  1.00  0.00     0.127 S 
ATOM     98  O   UNL     1     -12.717   8.985  -4.367  1.00  0.00    -0.237 OA
ATOM     99  O   UNL     1     -11.837   9.155  -6.660  1.00  0.00    -0.237 OA
ATOM    100  O   UNL     1     -11.375   7.142  -5.341  1.00  0.00    -0.744 OA
ENDBRANCH  94  97
ENDBRANCH  67  90
ENDBRANCH  41  42
ENDBRANCH  34  36
ENDBRANCH  33  34
ENDBRANCH  32  33
ENDBRANCH   1  32
TORSDOF 20
