REMARK SMILES O=C(OCCOCCOC(=O)[C@@H]1CC(=O)N(CCO)C1)c1ccc(-c2c3nc(c(-c4cccc(S(=O)(=O)[O-])c4F)c4ccc([nH]4)c(-c4cccc(S(=O)(=O)[O-])c4F)c4nc(c(-c5cccc(S(=O)(=O)[O-])c5F)c5ccc2[nH]5)C=C4)C=C3)cc1
REMARK SMILES IDX 6 1 5 2 4 3 3 4 2 5 1 6 21 7 22 8 83 9 23 10 82 11 24 12
REMARK SMILES IDX 25 13 26 14 76 15 27 16 81 17 75 18 77 19 28 20 80 21 74 22
REMARK SMILES IDX 73 23 29 25 61 26 41 27 60 28 42 29 45 30 59 31 78 32 43 33
REMARK SMILES IDX 44 34 58 36 79 37 46 38 30 39 31 40 39 41 32 42 34 43 40 44
REMARK SMILES IDX 33 45 35 46 36 47 37 48 38 49 62 50 63 51 71 52 64 53 66 54
REMARK SMILES IDX 72 55 65 56 67 57 68 58 69 59 70 60 47 61 48 62 56 63 49 64
REMARK SMILES IDX 51 65 57 66 50 67 52 68 53 69 54 70 55 71 7 72 8 73 9 74
REMARK SMILES IDX 10 75 11 76 12 77 13 78 20 79 14 80 16 81 15 82 17 83 18 84
REMARK SMILES IDX 19 85
REMARK H PARENT 77 24 45 35 19 86
REMARK Flexibility Score: inf
ROOT
ATOM      1  O   UNL     1       4.015   1.256  -1.176  1.00  0.00    -0.374 OA
ENDROOT
BRANCH   1   2
ATOM      2  C   UNL     1       4.324  -0.126  -1.332  1.00  0.00     0.202 C 
BRANCH   2   3
ATOM      3  C   UNL     1       4.029  -1.052  -0.144  1.00  0.00     0.261 C 
BRANCH   3   4
ATOM      4  O   UNL     1       2.622  -1.040   0.159  1.00  0.00    -0.460 OA
BRANCH   4   5
ATOM      5  C   UNL     1       1.985  -0.279   1.084  1.00  0.00     0.338 C 
ATOM      6  O   UNL     1       0.761  -0.342   1.173  1.00  0.00    -0.246 OA
BRANCH   5   7
ATOM      7  C   UNL     1       2.729   0.593   2.033  1.00  0.00     0.060 A 
ATOM      8  C   UNL     1       3.936   1.206   1.722  1.00  0.00     0.016 A 
ATOM      9  C   UNL     1       2.177   0.836   3.298  1.00  0.00     0.016 A 
ATOM     10  C   UNL     1       4.655   1.927   2.634  1.00  0.00     0.010 A 
ATOM     11  C   UNL     1       2.864   1.630   4.223  1.00  0.00     0.010 A 
ATOM     12  C   UNL     1       4.121   2.148   3.889  1.00  0.00    -0.014 A 
BRANCH  12  13
ATOM     13  C   UNL     1       5.038   2.792   4.829  1.00  0.00     0.031 A 
ATOM     14  C   UNL     1       5.703   1.925   5.846  1.00  0.00     0.074 A 
ATOM     15  C   UNL     1       5.433   4.053   4.575  1.00  0.00     0.049 A 
ATOM     16  N   UNL     1       6.580   2.248   6.750  1.00  0.00    -0.248 NA
ATOM     17  C   UNL     1       5.353   0.491   5.826  1.00  0.00     0.031 C 
ATOM     18  C   UNL     1       4.950   4.881   3.461  1.00  0.00     0.029 A 
ATOM     19  N   UNL     1       6.364   4.837   5.190  1.00  0.00    -0.354 N 
ATOM     20  C   UNL     1       6.821   1.083   7.463  1.00  0.00     0.074 A 
ATOM     21  C   UNL     1       6.035   0.032   6.863  1.00  0.00     0.031 C 
ATOM     22  C   UNL     1       5.605   6.051   3.466  1.00  0.00     0.029 A 
ATOM     23  C   UNL     1       6.477   6.087   4.630  1.00  0.00     0.049 A 
ATOM     24  H   UNL     1       6.901   4.538   5.959  1.00  0.00     0.167 HD
ATOM     25  C   UNL     1       7.616   0.929   8.543  1.00  0.00     0.034 A 
ATOM     26  C   UNL     1       7.177   7.152   5.057  1.00  0.00     0.034 A 
ATOM     27  C   UNL     1       8.390   2.007   9.088  1.00  0.00     0.049 A 
ATOM     28  C   UNL     1       7.992   6.971   6.306  1.00  0.00     0.074 A 
ATOM     29  C   UNL     1       9.198   2.013  10.207  1.00  0.00     0.029 A 
ATOM     30  N   UNL     1       8.437   3.286   8.545  1.00  0.00    -0.354 N 
ATOM     31  N   UNL     1       8.188   5.880   7.010  1.00  0.00    -0.248 NA
ATOM     32  C   UNL     1       8.687   8.155   6.817  1.00  0.00     0.031 C 
ATOM     33  C   UNL     1       9.698   3.310  10.365  1.00  0.00     0.029 A 
ATOM     34  C   UNL     1       9.249   4.097   9.313  1.00  0.00     0.049 A 
ATOM     35  H   UNL     1       7.961   3.572   7.732  1.00  0.00     0.167 HD
ATOM     36  C   UNL     1       9.057   6.234   8.029  1.00  0.00     0.074 A 
ATOM     37  C   UNL     1       9.364   7.641   7.835  1.00  0.00     0.031 C 
ATOM     38  C   UNL     1       9.553   5.481   9.042  1.00  0.00     0.034 A 
BRANCH  25  39
ATOM     39  C   UNL     1       7.588  -0.406   9.230  1.00  0.00     0.023 A 
ATOM     40  C   UNL     1       8.178  -1.541   8.637  1.00  0.00     0.012 A 
ATOM     41  C   UNL     1       6.925  -0.538  10.466  1.00  0.00     0.148 A 
ATOM     42  C   UNL     1       8.069  -2.793   9.244  1.00  0.00     0.002 A 
ATOM     43  C   UNL     1       6.864  -1.777  11.088  1.00  0.00     0.091 A 
ATOM     44  F   UNL     1       6.337   0.546  10.992  1.00  0.00    -0.205 F 
ATOM     45  C   UNL     1       7.421  -2.909  10.472  1.00  0.00     0.022 A 
BRANCH  43  46
ATOM     46  S   UNL     1       6.108  -2.012  12.698  1.00  0.00     0.127 S 
ATOM     47  O   UNL     1       4.955  -2.846  12.365  1.00  0.00    -0.237 OA
ATOM     48  O   UNL     1       7.169  -2.702  13.433  1.00  0.00    -0.237 OA
ATOM     49  O   UNL     1       5.789  -0.681  13.194  1.00  0.00    -0.744 OA
ENDBRANCH  43  46
ENDBRANCH  25  39
BRANCH  26  50
ATOM     50  C   UNL     1       7.105   8.453   4.334  1.00  0.00     0.023 A 
ATOM     51  C   UNL     1       8.261   8.989   3.737  1.00  0.00     0.012 A 
ATOM     52  C   UNL     1       5.890   9.162   4.228  1.00  0.00     0.148 A 
ATOM     53  C   UNL     1       8.217  10.222   3.081  1.00  0.00     0.002 A 
ATOM     54  C   UNL     1       5.840  10.360   3.526  1.00  0.00     0.091 A 
ATOM     55  F   UNL     1       4.800   8.646   4.813  1.00  0.00    -0.205 F 
ATOM     56  C   UNL     1       7.007  10.902   2.969  1.00  0.00     0.022 A 
BRANCH  54  57
ATOM     57  S   UNL     1       4.304  11.244   3.232  1.00  0.00     0.127 S 
ATOM     58  O   UNL     1       4.481  12.434   4.060  1.00  0.00    -0.237 OA
ATOM     59  O   UNL     1       4.365  11.482   1.789  1.00  0.00    -0.237 OA
ATOM     60  O   UNL     1       3.241  10.338   3.647  1.00  0.00    -0.744 OA
ENDBRANCH  54  57
ENDBRANCH  26  50
BRANCH  38  61
ATOM     61  C   UNL     1      10.527   6.150   9.968  1.00  0.00     0.023 A 
ATOM     62  C   UNL     1      10.080   7.111  10.895  1.00  0.00     0.012 A 
ATOM     63  C   UNL     1      11.879   5.759   9.960  1.00  0.00     0.148 A 
ATOM     64  C   UNL     1      10.980   7.704  11.777  1.00  0.00     0.002 A 
ATOM     65  C   UNL     1      12.754   6.308  10.884  1.00  0.00     0.091 A 
ATOM     66  F   UNL     1      12.280   4.857   9.052  1.00  0.00    -0.205 F 
ATOM     67  C   UNL     1      12.311   7.292  11.782  1.00  0.00     0.022 A 
BRANCH  65  68
ATOM     68  S   UNL     1      14.451   5.745  11.037  1.00  0.00     0.127 S 
ATOM     69  O   UNL     1      15.189   6.870  10.465  1.00  0.00    -0.237 OA
ATOM     70  O   UNL     1      14.596   5.592  12.485  1.00  0.00    -0.237 OA
ATOM     71  O   UNL     1      14.530   4.499  10.287  1.00  0.00    -0.744 OA
ENDBRANCH  65  68
ENDBRANCH  38  61
ENDBRANCH  12  13
ENDBRANCH   5   7
ENDBRANCH   4   5
ENDBRANCH   3   4
ENDBRANCH   2   3
ENDBRANCH   1   2
BRANCH   1  72
ATOM     72  C   UNL     1       2.695   1.646  -1.554  1.00  0.00     0.202 C 
BRANCH  72  73
ATOM     73  C   UNL     1       2.735   2.370  -2.895  1.00  0.00     0.261 C 
BRANCH  73  74
ATOM     74  O   UNL     1       3.145   1.451  -3.927  1.00  0.00    -0.463 OA
BRANCH  74  75
ATOM     75  C   UNL     1       4.476   1.369  -4.195  1.00  0.00     0.311 C 
ATOM     76  O   UNL     1       5.349   2.068  -3.699  1.00  0.00    -0.252 OA
BRANCH  75  77
ATOM     77  C   UNL     1       4.793   0.246  -5.166  1.00  0.00     0.128 C 
ATOM     78  C   UNL     1       3.640  -0.074  -6.110  1.00  0.00     0.117 C 
ATOM     79  C   UNL     1       5.071  -1.080  -4.476  1.00  0.00     0.135 C 
ATOM     80  C   UNL     1       2.921  -1.197  -5.404  1.00  0.00     0.223 C 
ATOM     81  N   UNL     1       3.786  -1.747  -4.468  1.00  0.00    -0.339 N 
ATOM     82  O   UNL     1       1.792  -1.583  -5.668  1.00  0.00    -0.275 OA
BRANCH  81  83
ATOM     83  C   UNL     1       3.413  -2.864  -3.594  1.00  0.00     0.147 C 
BRANCH  83  84
ATOM     84  C   UNL     1       4.246  -4.126  -3.791  1.00  0.00     0.177 C 
BRANCH  84  85
ATOM     85  O   UNL     1       5.483  -4.039  -3.087  1.00  0.00    -0.395 OA
ATOM     86  H   UNL     1       5.994  -3.286  -3.424  1.00  0.00     0.210 HD
ENDBRANCH  84  85
ENDBRANCH  83  84
ENDBRANCH  81  83
ENDBRANCH  75  77
ENDBRANCH  74  75
ENDBRANCH  73  74
ENDBRANCH  72  73
ENDBRANCH   1  72
TORSDOF 20
