REMARK SMILES O=C(OCCOCCOC(=O)[C@H]1Cc2ccc(Cl)cc2C[N@@H+]1Cc1ccccc1Cl)c1ccc(-c2c3nc(c(-c4cccc(S(=O)(=O)[O-])c4F)c4ccc([nH]4)c(-c4cccc(S(=O)(=O)[O-])c4F)c4nc(c(-c5cccc(S(=O)(=O)[O-])c5F)c5ccc2[nH]5)C=C4)C=C3)cc1
REMARK SMILES IDX 5 1 4 2 3 3 2 4 1 5 31 6 32 7 93 8 33 9 92 10 34 11 35 12
REMARK SMILES IDX 36 13 86 14 37 15 91 16 85 17 87 18 38 19 90 20 84 21 83 22
REMARK SMILES IDX 39 24 71 25 51 26 70 27 52 28 55 29 69 30 88 31 53 32 54 33
REMARK SMILES IDX 68 35 89 36 56 37 40 38 41 39 49 40 42 41 44 42 50 43 43 44
REMARK SMILES IDX 45 45 46 46 47 47 48 48 72 49 73 50 81 51 74 52 76 53 82 54
REMARK SMILES IDX 75 55 77 56 78 57 79 58 80 59 57 60 58 61 66 62 59 63 61 64
REMARK SMILES IDX 67 65 60 66 62 67 63 68 64 69 65 70 6 71 7 72 8 73 9 74
REMARK SMILES IDX 10 75 11 76 12 77 13 78 22 79 14 80 21 81 15 83 20 84 16 85
REMARK SMILES IDX 19 86 17 87 18 88 23 89 24 90 25 91 29 92 26 93 28 94 30 95
REMARK SMILES IDX 27 96
REMARK H PARENT 87 23 55 34 22 82
REMARK Flexibility Score: inf
ROOT
ATOM      1  C   UNL     1       4.463  -0.691   0.770  1.00  0.00     0.202 C 
ENDROOT
BRANCH   1   2
ATOM      2  C   UNL     1       4.484   0.808   1.068  1.00  0.00     0.261 C 
BRANCH   2   3
ATOM      3  O   UNL     1       3.176   1.383   0.970  1.00  0.00    -0.460 OA
BRANCH   3   4
ATOM      4  C   UNL     1       2.455   1.605  -0.152  1.00  0.00     0.338 C 
ATOM      5  O   UNL     1       1.243   1.784  -0.022  1.00  0.00    -0.246 OA
BRANCH   4   6
ATOM      6  C   UNL     1       3.026   1.652  -1.541  1.00  0.00     0.060 A 
ATOM      7  C   UNL     1       2.158   2.114  -2.548  1.00  0.00     0.016 A 
ATOM      8  C   UNL     1       4.293   1.210  -1.937  1.00  0.00     0.016 A 
ATOM      9  C   UNL     1       2.528   2.080  -3.893  1.00  0.00     0.010 A 
ATOM     10  C   UNL     1       4.650   1.114  -3.269  1.00  0.00     0.010 A 
ATOM     11  C   UNL     1       3.772   1.557  -4.248  1.00  0.00    -0.014 A 
BRANCH  11  12
ATOM     12  C   UNL     1       4.310   1.652  -5.606  1.00  0.00     0.031 A 
ATOM     13  C   UNL     1       4.349   0.462  -6.503  1.00  0.00     0.074 A 
ATOM     14  C   UNL     1       4.944   2.801  -5.894  1.00  0.00     0.049 A 
ATOM     15  N   UNL     1       4.784   0.390  -7.730  1.00  0.00    -0.248 NA
ATOM     16  C   UNL     1       3.864  -0.817  -5.956  1.00  0.00     0.031 C 
ATOM     17  C   UNL     1       5.086   3.930  -4.963  1.00  0.00     0.029 A 
ATOM     18  N   UNL     1       5.626   3.195  -7.005  1.00  0.00    -0.354 N 
ATOM     19  C   UNL     1       4.611  -0.932  -8.114  1.00  0.00     0.074 A 
ATOM     20  C   UNL     1       4.070  -1.642  -6.977  1.00  0.00     0.031 C 
ATOM     21  C   UNL     1       5.820   4.887  -5.544  1.00  0.00     0.029 A 
ATOM     22  C   UNL     1       6.175   4.447  -6.886  1.00  0.00     0.049 A 
ATOM     23  H   UNL     1       5.716   2.638  -7.811  1.00  0.00     0.167 HD
ATOM     24  C   UNL     1       4.860  -1.473  -9.329  1.00  0.00     0.034 A 
ATOM     25  C   UNL     1       6.862   5.172  -7.783  1.00  0.00     0.034 A 
ATOM     26  C   UNL     1       5.416  -0.714 -10.418  1.00  0.00     0.049 A 
ATOM     27  C   UNL     1       7.044   4.586  -9.146  1.00  0.00     0.074 A 
ATOM     28  C   UNL     1       5.627  -1.107 -11.725  1.00  0.00     0.029 A 
ATOM     29  N   UNL     1       5.863   0.598 -10.312  1.00  0.00    -0.354 N 
ATOM     30  N   UNL     1       6.698   3.393  -9.571  1.00  0.00    -0.248 NA
ATOM     31  C   UNL     1       7.655   5.443 -10.165  1.00  0.00     0.031 C 
ATOM     32  C   UNL     1       6.212  -0.035 -12.408  1.00  0.00     0.029 A 
ATOM     33  C   UNL     1       6.350   1.032 -11.530  1.00  0.00     0.049 A 
ATOM     34  H   UNL     1       5.837   1.138  -9.490  1.00  0.00     0.167 HD
ATOM     35  C   UNL     1       7.029   3.357 -10.915  1.00  0.00     0.074 A 
ATOM     36  C   UNL     1       7.593   4.657 -11.234  1.00  0.00     0.031 C 
ATOM     37  C   UNL     1       6.887   2.343 -11.802  1.00  0.00     0.034 A 
BRANCH  24  38
ATOM     38  C   UNL     1       4.445  -2.898  -9.581  1.00  0.00     0.023 A 
ATOM     39  C   UNL     1       3.072  -3.183  -9.732  1.00  0.00     0.012 A 
ATOM     40  C   UNL     1       5.388  -3.923  -9.786  1.00  0.00     0.148 A 
ATOM     41  C   UNL     1       2.642  -4.464 -10.077  1.00  0.00     0.002 A 
ATOM     42  C   UNL     1       4.954  -5.193 -10.156  1.00  0.00     0.091 A 
ATOM     43  F   UNL     1       6.688  -3.636  -9.629  1.00  0.00    -0.205 F 
ATOM     44  C   UNL     1       3.583  -5.465 -10.300  1.00  0.00     0.022 A 
BRANCH  42  45
ATOM     45  S   UNL     1       6.078  -6.549 -10.516  1.00  0.00     0.127 S 
ATOM     46  O   UNL     1       5.709  -7.521  -9.486  1.00  0.00    -0.237 OA
ATOM     47  O   UNL     1       5.683  -6.922 -11.873  1.00  0.00    -0.237 OA
ATOM     48  O   UNL     1       7.423  -6.005 -10.394  1.00  0.00    -0.744 OA
ENDBRANCH  42  45
ENDBRANCH  24  38
BRANCH  25  49
ATOM     49  C   UNL     1       7.237   6.562  -7.422  1.00  0.00     0.023 A 
ATOM     50  C   UNL     1       6.393   7.614  -7.824  1.00  0.00     0.012 A 
ATOM     51  C   UNL     1       8.293   6.822  -6.527  1.00  0.00     0.148 A 
ATOM     52  C   UNL     1       6.591   8.906  -7.339  1.00  0.00     0.002 A 
ATOM     53  C   UNL     1       8.465   8.106  -6.022  1.00  0.00     0.091 A 
ATOM     54  F   UNL     1       9.063   5.795  -6.141  1.00  0.00    -0.205 F 
ATOM     55  C   UNL     1       7.618   9.149  -6.430  1.00  0.00     0.022 A 
BRANCH  53  56
ATOM     56  S   UNL     1       9.682   8.499  -4.759  1.00  0.00     0.127 S 
ATOM     57  O   UNL     1      10.572   9.409  -5.477  1.00  0.00    -0.237 OA
ATOM     58  O   UNL     1       8.855   9.130  -3.731  1.00  0.00    -0.237 OA
ATOM     59  O   UNL     1      10.272   7.227  -4.366  1.00  0.00    -0.744 OA
ENDBRANCH  53  56
ENDBRANCH  25  49
BRANCH  37  60
ATOM     60  C   UNL     1       7.361   2.595 -13.202  1.00  0.00     0.023 A 
ATOM     61  C   UNL     1       8.739   2.530 -13.483  1.00  0.00     0.012 A 
ATOM     62  C   UNL     1       6.437   2.782 -14.246  1.00  0.00     0.148 A 
ATOM     63  C   UNL     1       9.194   2.660 -14.792  1.00  0.00     0.002 A 
ATOM     64  C   UNL     1       6.895   2.874 -15.552  1.00  0.00     0.091 A 
ATOM     65  F   UNL     1       5.133   2.847 -13.941  1.00  0.00    -0.205 F 
ATOM     66  C   UNL     1       8.273   2.819 -15.826  1.00  0.00     0.022 A 
BRANCH  64  67
ATOM     67  S   UNL     1       5.787   3.010 -16.956  1.00  0.00     0.127 S 
ATOM     68  O   UNL     1       6.101   4.349 -17.453  1.00  0.00    -0.237 OA
ATOM     69  O   UNL     1       6.243   1.917 -17.814  1.00  0.00    -0.237 OA
ATOM     70  O   UNL     1       4.439   2.849 -16.427  1.00  0.00    -0.744 OA
ENDBRANCH  64  67
ENDBRANCH  37  60
ENDBRANCH  11  12
ENDBRANCH   4   6
ENDBRANCH   3   4
ENDBRANCH   2   3
ENDBRANCH   1   2
BRANCH   1  71
ATOM     71  O   UNL     1       3.973  -1.052  -0.516  1.00  0.00    -0.374 OA
BRANCH  71  72
ATOM     72  C   UNL     1       2.686  -1.673  -0.549  1.00  0.00     0.202 C 
BRANCH  72  73
ATOM     73  C   UNL     1       2.793  -3.195  -0.636  1.00  0.00     0.261 C 
BRANCH  73  74
ATOM     74  O   UNL     1       3.247  -3.744   0.611  1.00  0.00    -0.459 OA
BRANCH  74  75
ATOM     75  C   UNL     1       4.598  -3.804   0.777  1.00  0.00     0.365 C 
ATOM     76  O   UNL     1       5.434  -3.475  -0.059  1.00  0.00    -0.245 OA
BRANCH  75  77
ATOM     77  C   UNL     1       4.981  -4.220   2.193  1.00  0.00     0.300 C 
ATOM     78  C   UNL     1       4.619  -3.038   3.105  1.00  0.00     0.113 C 
ATOM     79  N   UNL     1       4.323  -5.475   2.636  1.00  0.00    -0.315 N 
ATOM     80  C   UNL     1       4.754  -3.330   4.565  1.00  0.00    -0.033 A 
ATOM     81  C   UNL     1       4.714  -5.811   4.014  1.00  0.00     0.300 C 
ATOM     82  H   UNL     1       3.318  -5.301   2.636  1.00  0.00     0.349 HD
ATOM     83  C   UNL     1       4.858  -2.273   5.481  1.00  0.00     0.006 A 
ATOM     84  C   UNL     1       4.733  -4.659   5.000  1.00  0.00     0.011 A 
ATOM     85  C   UNL     1       4.990  -2.539   6.840  1.00  0.00     0.021 A 
ATOM     86  C   UNL     1       4.867  -4.914   6.372  1.00  0.00     0.030 A 
ATOM     87  C   UNL     1       4.999  -3.860   7.279  1.00  0.00     0.041 A 
ATOM     88  Cl  UNL     1       5.199  -4.197   8.955  1.00  0.00    -0.084 Cl
BRANCH  79  89
ATOM     89  C   UNL     1       4.502  -6.610   1.684  1.00  0.00     0.301 C 
BRANCH  89  90
ATOM     90  C   UNL     1       5.904  -6.813   1.123  1.00  0.00     0.025 A 
ATOM     91  C   UNL     1       6.939  -7.224   1.982  1.00  0.00     0.011 A 
ATOM     92  C   UNL     1       6.249  -6.525  -0.211  1.00  0.00     0.049 A 
ATOM     93  C   UNL     1       8.277  -7.154   1.595  1.00  0.00     0.001 A 
ATOM     94  C   UNL     1       7.592  -6.444  -0.598  1.00  0.00     0.021 A 
ATOM     95  Cl  UNL     1       5.062  -6.307  -1.450  1.00  0.00    -0.084 Cl
ATOM     96  C   UNL     1       8.606  -6.722   0.317  1.00  0.00     0.002 A 
ENDBRANCH  89  90
ENDBRANCH  79  89
ENDBRANCH  75  77
ENDBRANCH  74  75
ENDBRANCH  73  74
ENDBRANCH  72  73
ENDBRANCH  71  72
ENDBRANCH   1  71
TORSDOF 19
