REMARK SMILES O=C(OCCOCCOC(=O)c1ccc2nc(-c3c[nH]nc3-c3ccc(F)cc3F)[nH]c2c1)c1ccc(-c2c3nc(c(-c4cccc(S(=O)(=O)[O-])c4F)c4ccc([nH]4)c(-c4cccc(S(=O)(=O)[O-])c4F)c4nc(c(-c5cccc(S(=O)(=O)[O-])c5F)c5ccc2[nH]5)C=C4)C=C3)cc1
REMARK SMILES IDX 5 1 4 2 3 3 2 4 1 5 34 6 35 7 96 8 36 9 95 10 37 11 38 12
REMARK SMILES IDX 39 13 89 14 40 15 94 16 88 17 90 18 41 19 93 20 87 21 86 22
REMARK SMILES IDX 42 24 74 25 54 26 73 27 55 28 58 29 72 30 91 31 56 32 57 33
REMARK SMILES IDX 71 35 92 36 59 37 43 38 44 39 52 40 45 41 47 42 53 43 46 44
REMARK SMILES IDX 48 45 49 46 50 47 51 48 75 49 76 50 84 51 77 52 79 53 85 54
REMARK SMILES IDX 78 55 80 56 81 57 82 58 83 59 60 60 61 61 69 62 62 63 64 64
REMARK SMILES IDX 70 65 63 66 65 67 66 68 67 69 68 70 6 71 7 72 8 73 9 74
REMARK SMILES IDX 10 75 11 76 12 77 13 78 33 79 14 80 32 81 15 82 31 83 16 84
REMARK SMILES IDX 17 85 18 87 19 88 22 89 20 90 21 91 23 93 24 94 29 95 25 96
REMARK SMILES IDX 28 97 30 98 26 99 27 100
REMARK H PARENT 90 23 58 34 31 86 20 92
REMARK Flexibility Score: inf
ROOT
ATOM      1  C   UNL     1       4.316  -1.399   0.718  1.00  0.00     0.202 C 
ENDROOT
BRANCH   1   2
ATOM      2  C   UNL     1       4.029  -0.004   1.274  1.00  0.00     0.261 C 
BRANCH   2   3
ATOM      3  O   UNL     1       2.631   0.288   1.156  1.00  0.00    -0.460 OA
BRANCH   3   4
ATOM      4  C   UNL     1       2.013   1.071   0.243  1.00  0.00     0.338 C 
ATOM      5  O   UNL     1       0.792   1.199   0.319  1.00  0.00    -0.246 OA
BRANCH   4   6
ATOM      6  C   UNL     1       2.733   1.807  -0.840  1.00  0.00     0.060 A 
ATOM      7  C   UNL     1       3.918   1.387  -1.453  1.00  0.00     0.016 A 
ATOM      8  C   UNL     1       2.108   2.961  -1.337  1.00  0.00     0.016 A 
ATOM      9  C   UNL     1       4.497   2.100  -2.491  1.00  0.00     0.010 A 
ATOM     10  C   UNL     1       2.668   3.674  -2.398  1.00  0.00     0.010 A 
ATOM     11  C   UNL     1       3.874   3.246  -2.963  1.00  0.00    -0.014 A 
BRANCH  11  12
ATOM     12  C   UNL     1       4.560   4.045  -3.984  1.00  0.00     0.031 A 
ATOM     13  C   UNL     1       5.273   5.279  -3.542  1.00  0.00     0.074 A 
ATOM     14  C   UNL     1       4.563   3.629  -5.260  1.00  0.00     0.049 A 
ATOM     15  N   UNL     1       5.834   6.208  -4.259  1.00  0.00    -0.248 NA
ATOM     16  C   UNL     1       5.368   5.492  -2.086  1.00  0.00     0.031 C 
ATOM     17  C   UNL     1       3.963   2.382  -5.739  1.00  0.00     0.029 A 
ATOM     18  N   UNL     1       5.066   4.218  -6.388  1.00  0.00    -0.354 N 
ATOM     19  C   UNL     1       6.290   7.152  -3.350  1.00  0.00     0.074 A 
ATOM     20  C   UNL     1       5.971   6.668  -2.026  1.00  0.00     0.031 C 
ATOM     21  C   UNL     1       4.099   2.317  -7.073  1.00  0.00     0.029 A 
ATOM     22  C   UNL     1       4.737   3.543  -7.539  1.00  0.00     0.049 A 
ATOM     23  H   UNL     1       5.607   5.040  -6.375  1.00  0.00     0.167 HD
ATOM     24  C   UNL     1       6.904   8.327  -3.611  1.00  0.00     0.034 A 
ATOM     25  C   UNL     1       4.886   3.915  -8.824  1.00  0.00     0.034 A 
ATOM     26  C   UNL     1       7.197   8.769  -4.945  1.00  0.00     0.049 A 
ATOM     27  C   UNL     1       5.542   5.241  -9.097  1.00  0.00     0.074 A 
ATOM     28  C   UNL     1       7.794   9.943  -5.356  1.00  0.00     0.029 A 
ATOM     29  N   UNL     1       6.892   8.044  -6.091  1.00  0.00    -0.354 N 
ATOM     30  N   UNL     1       5.998   6.122  -8.237  1.00  0.00    -0.248 NA
ATOM     31  C   UNL     1       5.721   5.624 -10.502  1.00  0.00     0.031 C 
ATOM     32  C   UNL     1       7.825   9.940  -6.755  1.00  0.00     0.029 A 
ATOM     33  C   UNL     1       7.280   8.748  -7.214  1.00  0.00     0.049 A 
ATOM     34  H   UNL     1       6.462   7.158  -6.101  1.00  0.00     0.167 HD
ATOM     35  C   UNL     1       6.545   7.151  -8.991  1.00  0.00     0.074 A 
ATOM     36  C   UNL     1       6.369   6.777 -10.383  1.00  0.00     0.031 C 
ATOM     37  C   UNL     1       7.129   8.303  -8.579  1.00  0.00     0.034 A 
BRANCH  24  38
ATOM     38  C   UNL     1       7.228   9.203  -2.434  1.00  0.00     0.023 A 
ATOM     39  C   UNL     1       8.261   8.844  -1.544  1.00  0.00     0.012 A 
ATOM     40  C   UNL     1       6.466  10.359  -2.176  1.00  0.00     0.148 A 
ATOM     41  C   UNL     1       8.497   9.592  -0.391  1.00  0.00     0.002 A 
ATOM     42  C   UNL     1       6.734  11.123  -1.047  1.00  0.00     0.091 A 
ATOM     43  F   UNL     1       5.465  10.666  -3.013  1.00  0.00    -0.205 F 
ATOM     44  C   UNL     1       7.737  10.734  -0.145  1.00  0.00     0.022 A 
BRANCH  42  45
ATOM     45  S   UNL     1       5.842  12.637  -0.680  1.00  0.00     0.127 S 
ATOM     46  O   UNL     1       4.952  12.202   0.395  1.00  0.00    -0.237 OA
ATOM     47  O   UNL     1       6.917  13.534  -0.254  1.00  0.00    -0.237 OA
ATOM     48  O   UNL     1       5.189  13.025  -1.922  1.00  0.00    -0.744 OA
ENDBRANCH  42  45
ENDBRANCH  24  38
BRANCH  25  49
ATOM     49  C   UNL     1       4.396   3.021  -9.910  1.00  0.00     0.023 A 
ATOM     50  C   UNL     1       5.316   2.350 -10.736  1.00  0.00     0.012 A 
ATOM     51  C   UNL     1       3.018   2.761 -10.067  1.00  0.00     0.148 A 
ATOM     52  C   UNL     1       4.875   1.444 -11.703  1.00  0.00     0.002 A 
ATOM     53  C   UNL     1       2.588   1.817 -10.993  1.00  0.00     0.091 A 
ATOM     54  F   UNL     1       2.155   3.419  -9.280  1.00  0.00    -0.205 F 
ATOM     55  C   UNL     1       3.514   1.167 -11.822  1.00  0.00     0.022 A 
BRANCH  53  56
ATOM     56  S   UNL     1       0.873   1.295 -11.118  1.00  0.00     0.127 S 
ATOM     57  O   UNL     1       0.498   1.813 -12.431  1.00  0.00    -0.237 OA
ATOM     58  O   UNL     1       0.995  -0.161 -11.041  1.00  0.00    -0.237 OA
ATOM     59  O   UNL     1       0.191   1.901  -9.983  1.00  0.00    -0.744 OA
ENDBRANCH  53  56
ENDBRANCH  25  49
BRANCH  37  60
ATOM     60  C   UNL     1       7.668   9.225  -9.636  1.00  0.00     0.023 A 
ATOM     61  C   UNL     1       6.788  10.050 -10.361  1.00  0.00     0.012 A 
ATOM     62  C   UNL     1       9.059   9.374  -9.792  1.00  0.00     0.148 A 
ATOM     63  C   UNL     1       7.289  11.011 -11.236  1.00  0.00     0.002 A 
ATOM     64  C   UNL     1       9.551  10.367 -10.627  1.00  0.00     0.091 A 
ATOM     65  F   UNL     1       9.870   8.561  -9.100  1.00  0.00    -0.205 F 
ATOM     66  C   UNL     1       8.668  11.181 -11.356  1.00  0.00     0.022 A 
BRANCH  64  67
ATOM     67  S   UNL     1      11.304  10.732 -10.753  1.00  0.00     0.127 S 
ATOM     68  O   UNL     1      11.604  10.286 -12.112  1.00  0.00    -0.237 OA
ATOM     69  O   UNL     1      11.331  12.183 -10.566  1.00  0.00    -0.237 OA
ATOM     70  O   UNL     1      11.952   9.973  -9.692  1.00  0.00    -0.744 OA
ENDBRANCH  64  67
ENDBRANCH  37  60
ENDBRANCH  11  12
ENDBRANCH   4   6
ENDBRANCH   3   4
ENDBRANCH   2   3
ENDBRANCH   1   2
BRANCH   1  71
ATOM     71  O   UNL     1       4.075  -1.548  -0.678  1.00  0.00    -0.374 OA
BRANCH  71  72
ATOM     72  C   UNL     1       2.745  -1.922  -1.058  1.00  0.00     0.202 C 
BRANCH  72  73
ATOM     73  C   UNL     1       2.811  -3.147  -1.975  1.00  0.00     0.261 C 
BRANCH  73  74
ATOM     74  O   UNL     1       3.270  -4.267  -1.201  1.00  0.00    -0.460 OA
BRANCH  74  75
ATOM     75  C   UNL     1       4.620  -4.382  -1.101  1.00  0.00     0.338 C 
ATOM     76  O   UNL     1       5.474  -3.892  -1.810  1.00  0.00    -0.246 OA
BRANCH  75  77
ATOM     77  C   UNL     1       4.898  -5.025   0.200  1.00  0.00     0.062 A 
ATOM     78  C   UNL     1       4.165  -6.143   0.613  1.00  0.00     0.018 A 
ATOM     79  C   UNL     1       5.856  -4.417   1.031  1.00  0.00     0.044 A 
ATOM     80  C   UNL     1       4.392  -6.708   1.871  1.00  0.00     0.031 A 
ATOM     81  C   UNL     1       5.991  -4.950   2.312  1.00  0.00     0.067 A 
ATOM     82  C   UNL     1       5.327  -6.101   2.721  1.00  0.00     0.089 A 
ATOM     83  N   UNL     1       6.714  -4.565   3.415  1.00  0.00    -0.338 N 
ATOM     84  N   UNL     1       5.757  -6.491   3.957  1.00  0.00    -0.228 NA
ATOM     85  C   UNL     1       6.597  -5.559   4.350  1.00  0.00     0.142 A 
ATOM     86  H   UNL     1       7.222  -3.728   3.515  1.00  0.00     0.168 HD
BRANCH  85  87
ATOM     87  C   UNL     1       7.425  -5.684   5.563  1.00  0.00     0.063 A 
ATOM     88  C   UNL     1       7.537  -4.795   6.600  1.00  0.00     0.117 A 
ATOM     89  C   UNL     1       8.294  -6.764   5.871  1.00  0.00     0.106 A 
ATOM     90  N   UNL     1       8.347  -5.416   7.508  1.00  0.00    -0.284 N 
ATOM     91  N   UNL     1       8.872  -6.574   7.068  1.00  0.00    -0.175 NA
ATOM     92  H   UNL     1       8.530  -5.049   8.403  1.00  0.00     0.189 HD
BRANCH  89  93
ATOM     93  C   UNL     1       8.685  -7.844   4.976  1.00  0.00     0.039 A 
ATOM     94  C   UNL     1       9.307  -7.525   3.754  1.00  0.00     0.016 A 
ATOM     95  C   UNL     1       8.431  -9.182   5.278  1.00  0.00     0.135 A 
ATOM     96  C   UNL     1       9.660  -8.533   2.856  1.00  0.00     0.040 A 
ATOM     97  C   UNL     1       8.786 -10.192   4.386  1.00  0.00     0.079 A 
ATOM     98  F   UNL     1       7.822  -9.527   6.422  1.00  0.00    -0.206 F 
ATOM     99  C   UNL     1       9.396  -9.857   3.183  1.00  0.00     0.126 A 
ATOM    100  F   UNL     1       9.738 -10.825   2.323  1.00  0.00    -0.207 F 
ENDBRANCH  89  93
ENDBRANCH  85  87
ENDBRANCH  75  77
ENDBRANCH  74  75
ENDBRANCH  73  74
ENDBRANCH  72  73
ENDBRANCH  71  72
ENDBRANCH   1  71
TORSDOF 19
