REMARK SMILES O=C(OCCOCCOC(=O)c1ccc(-c2c3nc(c(-c4cccc(S(=O)(=O)[O-])c4F)c4ccc([nH]4)c(-c4cccc(S(=O)(=O)[O-])c4F)c4nc(c(-c5cccc(S(=O)(=O)[O-])c5F)c5ccc2[nH]5)C=C4)C=C3)cc1)C1=Cc2c(ccc(Cl)c2Sc2ccccc2)O[C@H]1C(F)(F)F
REMARK SMILES IDX 7 1 6 2 5 3 4 4 3 5 2 6 1 7 75 8 76 9 92 10 77 11 91 12
REMARK SMILES IDX 78 13 83 14 79 15 81 16 80 17 82 18 93 19 94 20 95 21 96 22
REMARK SMILES IDX 84 23 85 24 86 25 90 26 87 27 89 28 88 29 8 30 9 31 10 32
REMARK SMILES IDX 11 33 12 34 13 35 74 36 14 37 73 38 15 39 16 40 17 41 67 42
REMARK SMILES IDX 18 43 72 44 66 45 68 46 19 47 71 48 65 49 64 50 20 52 52 53
REMARK SMILES IDX 32 54 51 55 33 56 36 57 50 58 69 59 34 60 35 61 49 63 70 64
REMARK SMILES IDX 37 65 21 66 22 67 30 68 23 69 25 70 31 71 24 72 26 73 27 74
REMARK SMILES IDX 28 75 29 76 53 77 54 78 62 79 55 80 57 81 63 82 56 83 58 84
REMARK SMILES IDX 59 85 60 86 61 87 38 88 39 89 47 90 40 91 42 92 48 93 41 94
REMARK SMILES IDX 43 95 44 96 45 97 46 98
REMARK H PARENT 68 51 36 62
REMARK Flexibility Score: inf
ROOT
ATOM      1  C   UNL     1       4.416   3.529   2.880  1.00  0.00     0.202 C 
ENDROOT
BRANCH   1   2
ATOM      2  O   UNL     1       3.335   2.626   3.210  1.00  0.00    -0.374 OA
BRANCH   2   3
ATOM      3  C   UNL     1       3.277   1.575   2.261  1.00  0.00     0.202 C 
BRANCH   3   4
ATOM      4  C   UNL     1       2.218   0.483   2.543  1.00  0.00     0.261 C 
BRANCH   4   5
ATOM      5  O   UNL     1       2.719  -0.680   3.244  1.00  0.00    -0.460 OA
BRANCH   5   6
ATOM      6  C   UNL     1       2.794  -1.854   2.540  1.00  0.00     0.338 C 
ATOM      7  O   UNL     1       2.267  -2.891   2.872  1.00  0.00    -0.246 OA
BRANCH   6   8
ATOM      8  C   UNL     1       3.792  -1.827   1.455  1.00  0.00     0.087 C 
ATOM      9  C   UNL     1       3.987  -0.685   0.800  1.00  0.00     0.028 C 
ATOM     10  C   UNL     1       4.857  -2.884   1.375  1.00  0.00     0.316 C 
ATOM     11  C   UNL     1       4.270  -0.862  -0.600  1.00  0.00     0.033 A 
ATOM     12  O   UNL     1       5.796  -2.607   0.255  1.00  0.00    -0.475 OA
ATOM     13  C   UNL     1       5.334  -1.795  -0.776  1.00  0.00     0.129 A 
ATOM     14  C   UNL     1       3.707  -0.063  -1.625  1.00  0.00     0.042 A 
ATOM     15  C   UNL     1       6.017  -1.809  -1.972  1.00  0.00     0.049 A 
ATOM     16  C   UNL     1       4.369  -0.223  -2.862  1.00  0.00     0.055 A 
ATOM     17  C   UNL     1       5.532  -1.018  -3.012  1.00  0.00     0.025 A 
ATOM     18  Cl  UNL     1       3.786   0.536  -4.304  1.00  0.00    -0.083 Cl
BRANCH  10  19
ATOM     19  C   UNL     1       5.631  -2.992   2.724  1.00  0.00     0.430 C 
ATOM     20  F   UNL     1       4.934  -2.511   3.782  1.00  0.00    -0.167 F 
ATOM     21  F   UNL     1       5.938  -4.276   3.024  1.00  0.00    -0.167 F 
ATOM     22  F   UNL     1       6.791  -2.293   2.701  1.00  0.00    -0.167 F 
ENDBRANCH  10  19
BRANCH  14  23
ATOM     23  S   UNL     1       2.512   1.316  -1.568  1.00  0.00    -0.088 SA
BRANCH  23  24
ATOM     24  C   UNL     1       1.128   1.396  -0.458  1.00  0.00     0.012 A 
ATOM     25  C   UNL     1       0.120   0.442  -0.309  1.00  0.00     0.015 A 
ATOM     26  C   UNL     1       0.970   2.593   0.284  1.00  0.00     0.015 A 
ATOM     27  C   UNL     1      -0.862   0.584   0.699  1.00  0.00     0.001 A 
ATOM     28  C   UNL     1       0.036   2.716   1.325  1.00  0.00     0.001 A 
ATOM     29  C   UNL     1      -0.863   1.687   1.557  1.00  0.00     0.000 A 
ENDBRANCH  23  24
ENDBRANCH  14  23
ENDBRANCH   6   8
ENDBRANCH   5   6
ENDBRANCH   4   5
ENDBRANCH   3   4
ENDBRANCH   2   3
ENDBRANCH   1   2
BRANCH   1  30
ATOM     30  C   UNL     1       4.141   4.457   1.674  1.00  0.00     0.261 C 
BRANCH  30  31
ATOM     31  O   UNL     1       4.300   3.913   0.331  1.00  0.00    -0.460 OA
BRANCH  31  32
ATOM     32  C   UNL     1       5.553   3.948  -0.200  1.00  0.00     0.338 C 
ATOM     33  O   UNL     1       6.572   4.079   0.463  1.00  0.00    -0.246 OA
BRANCH  32  34
ATOM     34  C   UNL     1       5.579   3.855  -1.705  1.00  0.00     0.060 A 
ATOM     35  C   UNL     1       6.740   3.365  -2.325  1.00  0.00     0.016 A 
ATOM     36  C   UNL     1       4.567   4.374  -2.524  1.00  0.00     0.016 A 
ATOM     37  C   UNL     1       6.911   3.432  -3.724  1.00  0.00     0.010 A 
ATOM     38  C   UNL     1       4.739   4.438  -3.929  1.00  0.00     0.010 A 
ATOM     39  C   UNL     1       5.930   4.003  -4.545  1.00  0.00    -0.014 A 
BRANCH  39  40
ATOM     40  C   UNL     1       6.220   4.285  -5.993  1.00  0.00     0.031 A 
ATOM     41  C   UNL     1       6.638   5.675  -6.407  1.00  0.00     0.074 A 
ATOM     42  C   UNL     1       6.140   3.342  -6.955  1.00  0.00     0.049 A 
ATOM     43  N   UNL     1       7.009   6.114  -7.584  1.00  0.00    -0.248 NA
ATOM     44  C   UNL     1       6.668   6.697  -5.351  1.00  0.00     0.031 C 
ATOM     45  C   UNL     1       5.800   1.947  -6.727  1.00  0.00     0.029 A 
ATOM     46  N   UNL     1       6.306   3.413  -8.322  1.00  0.00    -0.354 N 
ATOM     47  C   UNL     1       7.324   7.456  -7.412  1.00  0.00     0.074 A 
ATOM     48  C   UNL     1       7.067   7.769  -6.021  1.00  0.00     0.031 C 
ATOM     49  C   UNL     1       5.672   1.313  -7.905  1.00  0.00     0.029 A 
ATOM     50  C   UNL     1       5.974   2.249  -8.983  1.00  0.00     0.049 A 
ATOM     51  H   UNL     1       6.630   4.220  -8.784  1.00  0.00     0.167 HD
ATOM     52  C   UNL     1       7.810   8.343  -8.313  1.00  0.00     0.034 A 
ATOM     53  C   UNL     1       5.923   1.956 -10.300  1.00  0.00     0.034 A 
ATOM     54  C   UNL     1       8.059   8.046  -9.699  1.00  0.00     0.049 A 
ATOM     55  C   UNL     1       6.408   2.973 -11.301  1.00  0.00     0.074 A 
ATOM     56  C   UNL     1       8.609   8.867 -10.669  1.00  0.00     0.029 A 
ATOM     57  N   UNL     1       7.742   6.850 -10.322  1.00  0.00    -0.354 N 
ATOM     58  N   UNL     1       6.873   4.178 -11.084  1.00  0.00    -0.248 NA
ATOM     59  C   UNL     1       6.426   2.571 -12.717  1.00  0.00     0.031 C 
ATOM     60  C   UNL     1       8.584   8.181 -11.888  1.00  0.00     0.029 A 
ATOM     61  C   UNL     1       8.054   6.920 -11.670  1.00  0.00     0.049 A 
ATOM     62  H   UNL     1       7.352   6.066  -9.873  1.00  0.00     0.167 HD
ATOM     63  C   UNL     1       7.283   4.660 -12.322  1.00  0.00     0.074 A 
ATOM     64  C   UNL     1       7.016   3.615 -13.288  1.00  0.00     0.031 C 
ATOM     65  C   UNL     1       7.831   5.863 -12.625  1.00  0.00     0.034 A 
BRANCH  52  66
ATOM     66  C   UNL     1       8.126   9.729  -7.814  1.00  0.00     0.023 A 
ATOM     67  C   UNL     1       9.246   9.931  -6.981  1.00  0.00     0.012 A 
ATOM     68  C   UNL     1       7.336  10.832  -8.189  1.00  0.00     0.148 A 
ATOM     69  C   UNL     1       9.548  11.202  -6.493  1.00  0.00     0.002 A 
ATOM     70  C   UNL     1       7.667  12.102  -7.732  1.00  0.00     0.091 A 
ATOM     71  F   UNL     1       6.266  10.618  -8.967  1.00  0.00    -0.205 F 
ATOM     72  C   UNL     1       8.763  12.287  -6.873  1.00  0.00     0.022 A 
BRANCH  70  73
ATOM     73  S   UNL     1       6.756  13.572  -8.219  1.00  0.00     0.127 S 
ATOM     74  O   UNL     1       6.031  13.889  -6.990  1.00  0.00    -0.237 OA
ATOM     75  O   UNL     1       7.833  14.506  -8.550  1.00  0.00    -0.237 OA
ATOM     76  O   UNL     1       5.931  13.174  -9.350  1.00  0.00    -0.744 OA
ENDBRANCH  70  73
ENDBRANCH  52  66
BRANCH  53  77
ATOM     77  C   UNL     1       5.450   0.611 -10.747  1.00  0.00     0.023 A 
ATOM     78  C   UNL     1       6.365  -0.321 -11.274  1.00  0.00     0.012 A 
ATOM     79  C   UNL     1       4.093   0.247 -10.630  1.00  0.00     0.148 A 
ATOM     80  C   UNL     1       5.936  -1.580 -11.697  1.00  0.00     0.002 A 
ATOM     81  C   UNL     1       3.679  -1.026 -11.010  1.00  0.00     0.091 A 
ATOM     82  F   UNL     1       3.233   1.153 -10.143  1.00  0.00    -0.205 F 
ATOM     83  C   UNL     1       4.597  -1.936 -11.557  1.00  0.00     0.022 A 
BRANCH  81  84
ATOM     84  S   UNL     1       1.998  -1.615 -10.770  1.00  0.00     0.127 S 
ATOM     85  O   UNL     1       1.531  -1.756 -12.148  1.00  0.00    -0.237 OA
ATOM     86  O   UNL     1       2.221  -2.876 -10.063  1.00  0.00    -0.237 OA
ATOM     87  O   UNL     1       1.328  -0.591  -9.981  1.00  0.00    -0.744 OA
ENDBRANCH  81  84
ENDBRANCH  53  77
BRANCH  65  88
ATOM     88  C   UNL     1       8.222   6.126 -14.057  1.00  0.00     0.023 A 
ATOM     89  C   UNL     1       7.227   6.365 -15.024  1.00  0.00     0.012 A 
ATOM     90  C   UNL     1       9.580   6.241 -14.418  1.00  0.00     0.148 A 
ATOM     91  C   UNL     1       7.577   6.696 -16.334  1.00  0.00     0.002 A 
ATOM     92  C   UNL     1       9.920   6.619 -15.712  1.00  0.00     0.091 A 
ATOM     93  F   UNL     1      10.512   5.990 -13.487  1.00  0.00    -0.205 F 
ATOM     94  C   UNL     1       8.921   6.836 -16.674  1.00  0.00     0.022 A 
BRANCH  92  95
ATOM     95  S   UNL     1      11.619   6.923 -16.214  1.00  0.00     0.127 S 
ATOM     96  O   UNL     1      11.866   5.804 -17.123  1.00  0.00    -0.237 OA
ATOM     97  O   UNL     1      11.519   8.229 -16.866  1.00  0.00    -0.237 OA
ATOM     98  O   UNL     1      12.409   6.916 -14.990  1.00  0.00    -0.744 OA
ENDBRANCH  92  95
ENDBRANCH  65  88
ENDBRANCH  39  40
ENDBRANCH  32  34
ENDBRANCH  31  32
ENDBRANCH  30  31
ENDBRANCH   1  30
TORSDOF 20
