REMARK SMILES COC(=O)c1sc(SCC(=O)OCCOCCOC(=O)c2ccc(-c3c4nc(c(-c5cccc(S(=O)(=O)[O-])c5F)c5ccc([nH]5)c(-c5cccc(S(=O)(=O)[O-])c5F)c5nc(c(-c6cccc(S(=O)(=O)[O-])c6F)c6ccc3[nH]6)C=C5)C=C4)cc2)c(NC(=O)c2ccccc2)c1O
REMARK SMILES IDX 14 1 13 2 12 3 10 4 11 5 9 6 8 7 7 8 5 9 6 10 94 11 84 12
REMARK SMILES IDX 3 13 4 14 2 15 1 16 95 17 85 19 86 20 87 22 88 23 89 24
REMARK SMILES IDX 93 25 90 26 92 27 91 28 15 29 16 30 17 31 18 32 19 33 20 34
REMARK SMILES IDX 21 35 22 36 83 37 23 38 82 39 24 40 25 41 26 42 76 43 27 44
REMARK SMILES IDX 81 45 75 46 77 47 28 48 80 49 74 50 73 51 29 53 61 54 41 55
REMARK SMILES IDX 60 56 42 57 45 58 59 59 78 60 43 61 44 62 58 64 79 65 46 66
REMARK SMILES IDX 30 67 31 68 39 69 32 70 34 71 40 72 33 73 35 74 36 75 37 76
REMARK SMILES IDX 38 77 62 78 63 79 71 80 64 81 66 82 72 83 65 84 67 85 68 86
REMARK SMILES IDX 69 87 70 88 47 89 48 90 56 91 49 92 51 93 57 94 50 95 52 96
REMARK SMILES IDX 53 97 54 98 55 99
REMARK H PARENT 95 18 85 21 77 52 45 63
REMARK Flexibility Score: inf
ROOT
ATOM      1  C   UNL     1      -2.494   8.311  -1.561  1.00  0.00     0.202 C 
ENDROOT
BRANCH   1   2
ATOM      2  C   UNL     1      -2.718   9.485  -0.603  1.00  0.00     0.261 C 
BRANCH   2   3
ATOM      3  O   UNL     1      -1.878   9.366   0.570  1.00  0.00    -0.463 OA
BRANCH   3   4
ATOM      4  C   UNL     1      -2.498   9.266   1.791  1.00  0.00     0.316 C 
ATOM      5  O   UNL     1      -3.714   9.319   1.942  1.00  0.00    -0.251 OA
BRANCH   4   6
ATOM      6  C   UNL     1      -1.359   9.259   3.082  1.00  0.00     0.198 C 
BRANCH   6   7
ATOM      7  S   UNL     1      -0.268   7.271   4.324  1.00  0.00    -0.101 SA
BRANCH   7   8
ATOM      8  C   UNL     1      -0.313   5.585   3.564  1.00  0.00     0.089 A 
ATOM      9  C   UNL     1       0.407   3.376   2.624  1.00  0.00     0.157 A 
ATOM     10  S   UNL     1       1.178   4.725   3.353  1.00  0.00    -0.116 S 
ATOM     11  C   UNL     1      -0.960   3.537   2.646  1.00  0.00     0.166 A 
ATOM     12  C   UNL     1      -1.386   4.795   3.156  1.00  0.00     0.109 A 
BRANCH   9  13
ATOM     13  C   UNL     1       1.190   2.283   2.080  1.00  0.00     0.352 C 
ATOM     14  O   UNL     1       2.359   2.018   2.308  1.00  0.00    -0.245 OA
BRANCH  13  15
ATOM     15  O   UNL     1       0.395   1.562   1.222  1.00  0.00    -0.465 OA
ATOM     16  C   UNL     1       1.038   0.496   0.515  1.00  0.00     0.282 C 
ENDBRANCH  13  15
ENDBRANCH   9  13
BRANCH  11  17
ATOM     17  O   UNL     1      -1.839   2.631   2.153  1.00  0.00    -0.504 OA
ATOM     18  H   UNL     1      -1.531   1.810   1.824  1.00  0.00     0.293 HD
ENDBRANCH  11  17
BRANCH  12  19
ATOM     19  N   UNL     1      -2.741   5.107   3.131  1.00  0.00    -0.317 N 
ATOM     20  C   UNL     1      -3.288   6.342   3.295  1.00  0.00     0.255 C 
ATOM     21  H   UNL     1      -3.365   4.361   2.980  1.00  0.00     0.170 HD
ATOM     22  O   UNL     1      -4.488   6.541   3.413  1.00  0.00    -0.269 OA
BRANCH  20  23
ATOM     23  C   UNL     1      -2.328   7.444   3.319  1.00  0.00     0.040 A 
ATOM     24  C   UNL     1      -2.261   8.418   4.818  1.00  0.00     0.014 A 
ATOM     25  C   UNL     1      -0.940   7.511   2.117  1.00  0.00     0.014 A 
ATOM     26  C   UNL     1      -0.811   9.424   5.153  1.00  0.00     0.001 A 
ATOM     27  C   UNL     1       0.507   8.518   2.477  1.00  0.00     0.001 A 
ATOM     28  C   UNL     1       0.558   9.470   4.003  1.00  0.00     0.000 A 
ENDBRANCH  20  23
ENDBRANCH  12  19
ENDBRANCH   7   8
ENDBRANCH   6   7
ENDBRANCH   4   6
ENDBRANCH   3   4
ENDBRANCH   2   3
ENDBRANCH   1   2
BRANCH   1  29
ATOM     29  O   UNL     1      -3.475   7.274  -1.460  1.00  0.00    -0.374 OA
BRANCH  29  30
ATOM     30  C   UNL     1      -3.303   6.331  -0.407  1.00  0.00     0.202 C 
BRANCH  30  31
ATOM     31  C   UNL     1      -2.387   5.158  -0.758  1.00  0.00     0.261 C 
BRANCH  31  32
ATOM     32  O   UNL     1      -1.023   5.570  -0.825  1.00  0.00    -0.460 OA
BRANCH  32  33
ATOM     33  C   UNL     1      -0.524   5.797  -2.062  1.00  0.00     0.338 C 
ATOM     34  O   UNL     1      -1.122   5.747  -3.121  1.00  0.00    -0.246 OA
BRANCH  33  35
ATOM     35  C   UNL     1       0.922   6.030  -1.924  1.00  0.00     0.060 A 
ATOM     36  C   UNL     1       1.699   5.868  -3.070  1.00  0.00     0.016 A 
ATOM     37  C   UNL     1       1.511   6.230  -0.663  1.00  0.00     0.016 A 
ATOM     38  C   UNL     1       3.059   5.709  -2.920  1.00  0.00     0.010 A 
ATOM     39  C   UNL     1       2.870   6.079  -0.511  1.00  0.00     0.010 A 
ATOM     40  C   UNL     1       3.611   5.733  -1.633  1.00  0.00    -0.014 A 
BRANCH  40  41
ATOM     41  C   UNL     1       5.002   5.362  -1.510  1.00  0.00     0.031 A 
ATOM     42  C   UNL     1       5.947   6.384  -1.996  1.00  0.00     0.074 A 
ATOM     43  C   UNL     1       5.379   4.189  -0.974  1.00  0.00     0.049 A 
ATOM     44  N   UNL     1       6.673   6.348  -3.064  1.00  0.00    -0.248 NA
ATOM     45  C   UNL     1       5.962   7.670  -1.287  1.00  0.00     0.031 C 
ATOM     46  C   UNL     1       4.574   3.270  -0.164  1.00  0.00     0.029 A 
ATOM     47  N   UNL     1       6.620   3.639  -0.935  1.00  0.00    -0.354 N 
ATOM     48  C   UNL     1       7.408   7.530  -3.039  1.00  0.00     0.074 A 
ATOM     49  C   UNL     1       6.790   8.378  -2.054  1.00  0.00     0.031 C 
ATOM     50  C   UNL     1       5.401   2.420   0.485  1.00  0.00     0.029 A 
ATOM     51  C   UNL     1       6.759   2.646   0.023  1.00  0.00     0.049 A 
ATOM     52  H   UNL     1       7.351   3.919  -1.531  1.00  0.00     0.167 HD
ATOM     53  C   UNL     1       8.619   7.628  -3.648  1.00  0.00     0.034 A 
ATOM     54  C   UNL     1       7.930   2.135   0.467  1.00  0.00     0.034 A 
ATOM     55  C   UNL     1       8.837   6.558  -4.583  1.00  0.00     0.049 A 
ATOM     56  C   UNL     1       8.973   2.462  -0.535  1.00  0.00     0.074 A 
ATOM     57  C   UNL     1       8.234   6.131  -5.747  1.00  0.00     0.029 A 
ATOM     58  N   UNL     1       9.636   5.526  -4.157  1.00  0.00    -0.354 N 
ATOM     59  N   UNL     1       9.012   1.963  -1.740  1.00  0.00    -0.248 NA
ATOM     60  C   UNL     1       9.776   3.656  -0.328  1.00  0.00     0.031 C 
ATOM     61  C   UNL     1       8.376   4.714  -5.741  1.00  0.00     0.029 A 
ATOM     62  C   UNL     1       9.076   4.354  -4.586  1.00  0.00     0.049 A 
ATOM     63  H   UNL     1      10.465   5.614  -3.634  1.00  0.00     0.167 HD
ATOM     64  C   UNL     1       9.495   2.997  -2.534  1.00  0.00     0.074 A 
ATOM     65  C   UNL     1      10.066   3.958  -1.596  1.00  0.00     0.031 C 
ATOM     66  C   UNL     1       9.132   3.110  -3.845  1.00  0.00     0.034 A 
BRANCH  53  67
ATOM     67  C   UNL     1       9.760   8.476  -3.143  1.00  0.00     0.023 A 
ATOM     68  C   UNL     1      10.890   8.608  -3.979  1.00  0.00     0.012 A 
ATOM     69  C   UNL     1       9.896   8.920  -1.808  1.00  0.00     0.148 A 
ATOM     70  C   UNL     1      12.102   9.116  -3.498  1.00  0.00     0.002 A 
ATOM     71  C   UNL     1      11.072   9.510  -1.362  1.00  0.00     0.091 A 
ATOM     72  F   UNL     1       8.947   8.650  -0.907  1.00  0.00    -0.205 F 
ATOM     73  C   UNL     1      12.190   9.580  -2.192  1.00  0.00     0.022 A 
BRANCH  71  74
ATOM     74  S   UNL     1      11.193  10.186   0.298  1.00  0.00     0.127 S 
ATOM     75  O   UNL     1      11.896   9.118   1.000  1.00  0.00    -0.237 OA
ATOM     76  O   UNL     1      11.975  11.403   0.073  1.00  0.00    -0.237 OA
ATOM     77  O   UNL     1       9.816  10.436   0.707  1.00  0.00    -0.744 OA
ENDBRANCH  71  74
ENDBRANCH  53  67
BRANCH  54  78
ATOM     78  C   UNL     1       8.264   1.648   1.822  1.00  0.00     0.023 A 
ATOM     79  C   UNL     1       9.332   0.748   1.995  1.00  0.00     0.012 A 
ATOM     80  C   UNL     1       7.710   2.262   2.970  1.00  0.00     0.148 A 
ATOM     81  C   UNL     1       9.848   0.484   3.268  1.00  0.00     0.002 A 
ATOM     82  C   UNL     1       8.219   1.987   4.234  1.00  0.00     0.091 A 
ATOM     83  F   UNL     1       6.750   3.183   2.809  1.00  0.00    -0.205 F 
ATOM     84  C   UNL     1       9.296   1.106   4.386  1.00  0.00     0.022 A 
BRANCH  82  85
ATOM     85  S   UNL     1       7.581   2.770   5.722  1.00  0.00     0.127 S 
ATOM     86  O   UNL     1       7.355   1.618   6.595  1.00  0.00    -0.237 OA
ATOM     87  O   UNL     1       8.698   3.625   6.114  1.00  0.00    -0.237 OA
ATOM     88  O   UNL     1       6.366   3.467   5.320  1.00  0.00    -0.744 OA
ENDBRANCH  82  85
ENDBRANCH  54  78
BRANCH  66  89
ATOM     89  C   UNL     1       8.464   1.930  -4.504  1.00  0.00     0.023 A 
ATOM     90  C   UNL     1       7.186   1.483  -4.111  1.00  0.00     0.012 A 
ATOM     91  C   UNL     1       9.040   1.408  -5.675  1.00  0.00     0.148 A 
ATOM     92  C   UNL     1       6.502   0.527  -4.866  1.00  0.00     0.002 A 
ATOM     93  C   UNL     1       8.335   0.497  -6.450  1.00  0.00     0.091 A 
ATOM     94  F   UNL     1      10.256   1.849  -6.034  1.00  0.00    -0.205 F 
ATOM     95  C   UNL     1       7.069   0.047  -6.045  1.00  0.00     0.022 A 
BRANCH  93  96
ATOM     96  S   UNL     1       8.941  -0.041  -8.053  1.00  0.00     0.127 S 
ATOM     97  O   UNL     1       9.382  -1.405  -7.771  1.00  0.00    -0.237 OA
ATOM     98  O   UNL     1       7.743   0.054  -8.889  1.00  0.00    -0.237 OA
ATOM     99  O   UNL     1       9.995   0.897  -8.418  1.00  0.00    -0.744 OA
ENDBRANCH  93  96
ENDBRANCH  66  89
ENDBRANCH  40  41
ENDBRANCH  33  35
ENDBRANCH  32  33
ENDBRANCH  31  32
ENDBRANCH  30  31
ENDBRANCH  29  30
ENDBRANCH   1  29
TORSDOF 24
