REMARK SMILES Cc1nc(NC(=O)[C@@H]2CCC[C@@H](C(=O)OCCOCCOC(=O)c3ccc(-c4c5nc(c(-c6cccc(S(=O)(=O)[O-])c6F)c6ccc([nH]6)c(-c6cccc(S(=O)(=O)[O-])c6F)c6nc(c(-c7cccc(S(=O)(=O)[O-])c7F)c7ccc4[nH]7)C=C6)C=C5)cc3)C2)ccc1Br
REMARK SMILES IDX 19 1 18 2 17 3 16 4 15 5 13 6 14 7 12 8 8 9 9 10 87 11 10 12
REMARK SMILES IDX 11 13 6 14 5 15 7 17 4 18 1 19 2 20 3 21 90 22 89 23 91 24
REMARK SMILES IDX 88 25 20 26 21 27 22 28 23 29 24 30 25 31 86 32 26 33 85 34
REMARK SMILES IDX 27 35 28 36 29 37 79 38 30 39 84 40 78 41 80 42 31 43 83 44
REMARK SMILES IDX 77 45 76 46 32 48 64 49 44 50 63 51 45 52 48 53 62 54 81 55
REMARK SMILES IDX 46 56 47 57 61 59 82 60 49 61 33 62 34 63 42 64 35 65 37 66
REMARK SMILES IDX 43 67 36 68 38 69 39 70 40 71 41 72 65 73 66 74 74 75 67 76
REMARK SMILES IDX 69 77 75 78 68 79 70 80 71 81 72 82 73 83 50 84 51 85 59 86
REMARK SMILES IDX 52 87 54 88 60 89 53 90 55 91 56 92 57 93 58 94
REMARK H PARENT 5 16 80 47 48 58
REMARK Flexibility Score: inf
ROOT
ATOM      1  C   UNL     1      -2.807   6.449  -1.732  1.00  0.00     0.202 C 
ENDROOT
BRANCH   1   2
ATOM      2  O   UNL     1      -2.517   7.469  -2.676  1.00  0.00    -0.374 OA
BRANCH   2   3
ATOM      3  C   UNL     1      -1.332   8.235  -2.501  1.00  0.00     0.202 C 
BRANCH   3   4
ATOM      4  C   UNL     1      -1.159   9.086  -1.238  1.00  0.00     0.261 C 
BRANCH   4   5
ATOM      5  O   UNL     1      -1.259   8.381   0.016  1.00  0.00    -0.463 OA
BRANCH   5   6
ATOM      6  C   UNL     1      -2.317   8.750   0.790  1.00  0.00     0.309 C 
ATOM      7  O   UNL     1      -3.264   9.422   0.394  1.00  0.00    -0.252 OA
BRANCH   6   8
ATOM      8  C   UNL     1      -2.258   8.216   2.216  1.00  0.00     0.100 C 
ATOM      9  C   UNL     1      -2.119   5.653   2.260  1.00  0.00     0.080 C 
ATOM     10  C   UNL     1      -1.012   5.807   3.307  1.00  0.00     0.013 C 
ATOM     11  C   UNL     1      -3.031   6.885   2.374  1.00  0.00     0.028 C 
ATOM     12  C   UNL     1      -0.099   6.940   2.852  1.00  0.00     0.002 C 
ATOM     13  C   UNL     1      -0.853   8.264   2.845  1.00  0.00     0.015 C 
BRANCH   9  14
ATOM     14  C   UNL     1      -2.830   4.304   2.367  1.00  0.00     0.228 C 
ATOM     15  N   UNL     1      -2.242   3.139   1.948  1.00  0.00    -0.310 N 
ATOM     16  H   UNL     1      -2.853   2.370   2.013  1.00  0.00     0.171 HD
ATOM     17  O   UNL     1      -3.978   4.239   2.820  1.00  0.00    -0.274 OA
BRANCH  15  18
ATOM     18  C   UNL     1      -0.984   2.774   1.449  1.00  0.00     0.132 A 
ATOM     19  C   UNL     1       0.455  -0.457   0.401  1.00  0.00     0.068 C 
ATOM     20  C   UNL     1       0.397   0.986   0.809  1.00  0.00     0.054 A 
ATOM     21  N   UNL     1      -0.831   1.452   1.214  1.00  0.00    -0.235 NA
ATOM     22  C   UNL     1       1.507   1.817   0.692  1.00  0.00     0.039 A 
ATOM     23  C   UNL     1       1.330   3.163   0.940  1.00  0.00     0.021 A 
ATOM     24  Br  UNL     1       3.228   1.244   0.157  1.00  0.00    -0.049 Br
ATOM     25  C   UNL     1       0.064   3.645   1.237  1.00  0.00     0.048 A 
ENDBRANCH  15  18
ENDBRANCH   9  14
ENDBRANCH   6   8
ENDBRANCH   5   6
ENDBRANCH   4   5
ENDBRANCH   3   4
ENDBRANCH   2   3
ENDBRANCH   1   2
BRANCH   1  26
ATOM     26  C   UNL     1      -1.881   5.227  -1.644  1.00  0.00     0.261 C 
BRANCH  26  27
ATOM     27  O   UNL     1      -0.481   5.530  -1.620  1.00  0.00    -0.460 OA
BRANCH  27  28
ATOM     28  C   UNL     1       0.183   5.188  -2.758  1.00  0.00     0.338 C 
ATOM     29  O   UNL     1      -0.265   4.651  -3.752  1.00  0.00    -0.246 OA
BRANCH  28  30
ATOM     30  C   UNL     1       1.576   5.646  -2.648  1.00  0.00     0.060 A 
ATOM     31  C   UNL     1       2.019   6.724  -3.417  1.00  0.00     0.016 A 
ATOM     32  C   UNL     1       2.462   4.934  -1.846  1.00  0.00     0.016 A 
ATOM     33  C   UNL     1       3.366   7.080  -3.386  1.00  0.00     0.010 A 
ATOM     34  C   UNL     1       3.799   5.310  -1.779  1.00  0.00     0.010 A 
ATOM     35  C   UNL     1       4.265   6.352  -2.592  1.00  0.00    -0.014 A 
BRANCH  35  36
ATOM     36  C   UNL     1       5.720   6.531  -2.784  1.00  0.00     0.031 A 
ATOM     37  C   UNL     1       6.465   5.503  -3.591  1.00  0.00     0.074 A 
ATOM     38  C   UNL     1       6.356   7.598  -2.269  1.00  0.00     0.049 A 
ATOM     39  N   UNL     1       7.726   5.476  -3.925  1.00  0.00    -0.248 NA
ATOM     40  C   UNL     1       5.689   4.349  -4.086  1.00  0.00     0.031 C 
ATOM     41  C   UNL     1       5.735   8.642  -1.456  1.00  0.00     0.029 A 
ATOM     42  N   UNL     1       7.672   7.972  -2.352  1.00  0.00    -0.354 N 
ATOM     43  C   UNL     1       7.896   4.305  -4.653  1.00  0.00     0.074 A 
ATOM     44  C   UNL     1       6.622   3.627  -4.687  1.00  0.00     0.031 C 
ATOM     45  C   UNL     1       6.672   9.543  -1.114  1.00  0.00     0.029 A 
ATOM     46  C   UNL     1       7.958   9.133  -1.675  1.00  0.00     0.049 A 
ATOM     47  H   UNL     1       8.349   7.457  -2.849  1.00  0.00     0.167 HD
ATOM     48  C   UNL     1       9.009   3.852  -5.270  1.00  0.00     0.034 A 
ATOM     49  C   UNL     1       9.126   9.789  -1.531  1.00  0.00     0.034 A 
ATOM     50  C   UNL     1      10.263   4.546  -5.265  1.00  0.00     0.049 A 
ATOM     51  C   UNL     1      10.356   9.259  -2.216  1.00  0.00     0.074 A 
ATOM     52  C   UNL     1      11.437   4.197  -5.906  1.00  0.00     0.029 A 
ATOM     53  N   UNL     1      10.507   5.726  -4.582  1.00  0.00    -0.354 N 
ATOM     54  N   UNL     1      10.474   8.205  -2.988  1.00  0.00    -0.248 NA
ATOM     55  C   UNL     1      11.603  10.017  -2.040  1.00  0.00     0.031 C 
ATOM     56  C   UNL     1      12.400   5.158  -5.593  1.00  0.00     0.029 A 
ATOM     57  C   UNL     1      11.817   6.116  -4.777  1.00  0.00     0.049 A 
ATOM     58  H   UNL     1       9.846   6.214  -4.040  1.00  0.00     0.167 HD
ATOM     59  C   UNL     1      11.798   8.187  -3.409  1.00  0.00     0.074 A 
ATOM     60  C   UNL     1      12.442   9.340  -2.814  1.00  0.00     0.031 C 
ATOM     61  C   UNL     1      12.425   7.291  -4.210  1.00  0.00     0.034 A 
BRANCH  48  62
ATOM     62  C   UNL     1       8.915   2.574  -6.053  1.00  0.00     0.023 A 
ATOM     63  C   UNL     1       8.310   2.590  -7.325  1.00  0.00     0.012 A 
ATOM     64  C   UNL     1       9.511   1.392  -5.577  1.00  0.00     0.148 A 
ATOM     65  C   UNL     1       8.299   1.442  -8.115  1.00  0.00     0.002 A 
ATOM     66  C   UNL     1       9.522   0.260  -6.383  1.00  0.00     0.091 A 
ATOM     67  F   UNL     1      10.062   1.402  -4.355  1.00  0.00    -0.205 F 
ATOM     68  C   UNL     1       8.915   0.283  -7.650  1.00  0.00     0.022 A 
BRANCH  66  69
ATOM     69  S   UNL     1      10.329  -1.269  -5.900  1.00  0.00     0.127 S 
ATOM     70  O   UNL     1       9.199  -2.197  -5.858  1.00  0.00    -0.237 OA
ATOM     71  O   UNL     1      11.257  -1.487  -7.008  1.00  0.00    -0.237 OA
ATOM     72  O   UNL     1      10.957  -1.008  -4.612  1.00  0.00    -0.744 OA
ENDBRANCH  66  69
ENDBRANCH  48  62
BRANCH  49  73
ATOM     73  C   UNL     1       9.157  11.058  -0.755  1.00  0.00     0.023 A 
ATOM     74  C   UNL     1       9.232  12.285  -1.440  1.00  0.00     0.012 A 
ATOM     75  C   UNL     1       9.037  11.055   0.648  1.00  0.00     0.148 A 
ATOM     76  C   UNL     1       9.190  13.491  -0.740  1.00  0.00     0.002 A 
ATOM     77  C   UNL     1       8.961  12.259   1.337  1.00  0.00     0.091 A 
ATOM     78  F   UNL     1       8.967   9.872   1.274  1.00  0.00    -0.205 F 
ATOM     79  C   UNL     1       9.045  13.479   0.646  1.00  0.00     0.022 A 
BRANCH  77  80
ATOM     80  S   UNL     1       8.682  12.348   3.109  1.00  0.00     0.127 S 
ATOM     81  O   UNL     1       9.901  13.009   3.570  1.00  0.00    -0.237 OA
ATOM     82  O   UNL     1       7.472  13.167   3.179  1.00  0.00    -0.237 OA
ATOM     83  O   UNL     1       8.511  10.972   3.554  1.00  0.00    -0.744 OA
ENDBRANCH  77  80
ENDBRANCH  49  73
BRANCH  61  84
ATOM     84  C   UNL     1      13.879   7.505  -4.522  1.00  0.00     0.023 A 
ATOM     85  C   UNL     1      14.849   7.135  -3.572  1.00  0.00     0.012 A 
ATOM     86  C   UNL     1      14.279   7.912  -5.810  1.00  0.00     0.148 A 
ATOM     87  C   UNL     1      16.203   7.168  -3.901  1.00  0.00     0.002 A 
ATOM     88  C   UNL     1      15.627   7.910  -6.141  1.00  0.00     0.091 A 
ATOM     89  F   UNL     1      13.329   8.256  -6.692  1.00  0.00    -0.205 F 
ATOM     90  C   UNL     1      16.590   7.541  -5.187  1.00  0.00     0.022 A 
BRANCH  88  91
ATOM     91  S   UNL     1      16.220   8.303  -7.790  1.00  0.00     0.127 S 
ATOM     92  O   UNL     1      16.995   9.518  -7.545  1.00  0.00    -0.237 OA
ATOM     93  O   UNL     1      17.021   7.123  -8.118  1.00  0.00    -0.237 OA
ATOM     94  O   UNL     1      15.034   8.485  -8.616  1.00  0.00    -0.744 OA
ENDBRANCH  88  91
ENDBRANCH  61  84
ENDBRANCH  35  36
ENDBRANCH  28  30
ENDBRANCH  27  28
ENDBRANCH  26  27
ENDBRANCH   1  26
TORSDOF 19
