REMARK SMILES CC(C)n1c2c(c3ccccc31)[C@@H](c1ccccc1)N(CC(=O)OCCOCCOC(=O)c1ccc(-c3c4nc(c(-c5cccc(S(=O)(=O)[O-])c5F)c5ccc([nH]5)c(-c5cccc(S(=O)(=O)[O-])c5F)c5nc(c(-c6cccc(S(=O)(=O)[O-])c6F)c6ccc3[nH]6)C=C5)C=C4)cc1)C2=O
REMARK SMILES IDX 28 1 27 2 26 3 25 4 24 5 22 6 23 7 21 8 20 9 4 10 5 11 12 12
REMARK SMILES IDX 6 13 96 14 7 15 11 16 13 17 97 18 8 19 10 20 9 21 2 22 1 23
REMARK SMILES IDX 3 24 14 25 15 26 19 27 16 28 18 29 17 30 29 31 30 32 31 33
REMARK SMILES IDX 32 34 33 35 34 36 95 37 35 38 94 39 36 40 37 41 38 42 88 43
REMARK SMILES IDX 39 44 93 45 87 46 89 47 40 48 92 49 86 50 85 51 41 53 73 54
REMARK SMILES IDX 53 55 72 56 54 57 57 58 71 59 90 60 55 61 56 62 70 64 91 65
REMARK SMILES IDX 58 66 42 67 43 68 51 69 44 70 46 71 52 72 45 73 47 74 48 75
REMARK SMILES IDX 49 76 50 77 74 78 75 79 83 80 76 81 78 82 84 83 77 84 79 85
REMARK SMILES IDX 80 86 81 87 82 88 59 89 60 90 68 91 61 92 63 93 69 94 62 95
REMARK SMILES IDX 64 96 65 97 66 98 67 99
REMARK H PARENT 89 52 57 63
REMARK Flexibility Score: inf
ROOT
ATOM      1  C   UNL     1      -6.976  -3.945   1.997  1.00  0.00     0.202 C 
ENDROOT
BRANCH   1   2
ATOM      2  O   UNL     1      -7.165  -4.740   3.164  1.00  0.00    -0.374 OA
BRANCH   2   3
ATOM      3  C   UNL     1      -6.077  -4.830   4.075  1.00  0.00     0.202 C 
BRANCH   3   4
ATOM      4  C   UNL     1      -4.843  -5.634   3.644  1.00  0.00     0.261 C 
BRANCH   4   5
ATOM      5  O   UNL     1      -4.274  -5.219   2.379  1.00  0.00    -0.462 OA
BRANCH   5   6
ATOM      6  C   UNL     1      -4.116  -6.220   1.472  1.00  0.00     0.325 C 
ATOM      7  O   UNL     1      -4.453  -7.387   1.660  1.00  0.00    -0.250 OA
BRANCH   6   8
ATOM      8  C   UNL     1      -3.497  -5.807   0.133  1.00  0.00     0.243 C 
BRANCH   8   9
ATOM      9  N   UNL     1      -3.136  -4.429  -0.168  1.00  0.00    -0.315 N 
ATOM     10  N   UNL     1      -1.110  -1.443  -0.177  1.00  0.00    -0.334 N 
ATOM     11  C   UNL     1      -1.912  -2.554  -0.234  1.00  0.00     0.114 A 
ATOM     12  C   UNL     1      -1.965  -0.323  -0.217  1.00  0.00     0.049 A 
ATOM     13  C   UNL     1      -3.216  -2.187  -0.417  1.00  0.00     0.018 A 
ATOM     14  C   UNL     1      -1.810  -3.981  -0.113  1.00  0.00     0.272 C 
ATOM     15  C   UNL     1      -3.292  -0.792  -0.365  1.00  0.00     0.006 A 
ATOM     16  C   UNL     1      -1.742   1.067  -0.124  1.00  0.00     0.027 A 
ATOM     17  C   UNL     1      -4.111  -3.370  -0.498  1.00  0.00     0.150 C 
ATOM     18  O   UNL     1      -0.826  -4.671   0.026  1.00  0.00    -0.267 OA
ATOM     19  C   UNL     1      -4.367   0.118  -0.417  1.00  0.00     0.011 A 
ATOM     20  C   UNL     1      -2.827   1.951  -0.172  1.00  0.00     0.002 A 
ATOM     21  C   UNL     1      -4.124   1.486  -0.315  1.00  0.00     0.001 A 
BRANCH  10  22
ATOM     22  C   UNL     1       0.360  -1.498  -0.164  1.00  0.00     0.082 C 
ATOM     23  C   UNL     1       1.109  -0.161  -0.173  1.00  0.00     0.031 C 
ATOM     24  C   UNL     1       0.934  -2.321   0.998  1.00  0.00     0.031 C 
ENDBRANCH  10  22
BRANCH  17  25
ATOM     25  C   UNL     1      -4.712  -3.495  -1.897  1.00  0.00    -0.021 A 
ATOM     26  C   UNL     1      -5.731  -4.449  -2.102  1.00  0.00     0.006 A 
ATOM     27  C   UNL     1      -4.335  -2.724  -3.015  1.00  0.00     0.006 A 
ATOM     28  C   UNL     1      -6.325  -4.638  -3.355  1.00  0.00     0.000 A 
ATOM     29  C   UNL     1      -4.952  -2.890  -4.263  1.00  0.00     0.000 A 
ATOM     30  C   UNL     1      -5.941  -3.852  -4.435  1.00  0.00     0.000 A 
ENDBRANCH  17  25
ENDBRANCH   8   9
ENDBRANCH   6   8
ENDBRANCH   5   6
ENDBRANCH   4   5
ENDBRANCH   3   4
ENDBRANCH   2   3
ENDBRANCH   1   2
BRANCH   1  31
ATOM     31  C   UNL     1      -6.610  -2.462   2.195  1.00  0.00     0.261 C 
BRANCH  31  32
ATOM     32  O   UNL     1      -5.271  -2.316   2.693  1.00  0.00    -0.460 OA
BRANCH  32  33
ATOM     33  C   UNL     1      -5.090  -1.190   3.439  1.00  0.00     0.338 C 
ATOM     34  O   UNL     1      -5.635  -0.113   3.276  1.00  0.00    -0.246 OA
BRANCH  33  35
ATOM     35  C   UNL     1      -4.512  -1.670   4.708  1.00  0.00     0.060 A 
ATOM     36  C   UNL     1      -3.321  -2.404   4.727  1.00  0.00     0.016 A 
ATOM     37  C   UNL     1      -5.380  -1.661   5.811  1.00  0.00     0.016 A 
ATOM     38  C   UNL     1      -3.042  -3.199   5.836  1.00  0.00     0.010 A 
ATOM     39  C   UNL     1      -5.119  -2.492   6.893  1.00  0.00     0.010 A 
ATOM     40  C   UNL     1      -3.967  -3.285   6.889  1.00  0.00    -0.014 A 
BRANCH  40  41
ATOM     41  C   UNL     1      -3.618  -4.085   8.066  1.00  0.00     0.031 A 
ATOM     42  C   UNL     1      -2.609  -3.440   8.950  1.00  0.00     0.074 A 
ATOM     43  C   UNL     1      -4.256  -5.204   8.469  1.00  0.00     0.049 A 
ATOM     44  N   UNL     1      -1.448  -3.888   9.308  1.00  0.00    -0.248 NA
ATOM     45  C   UNL     1      -2.903  -2.074   9.413  1.00  0.00     0.031 C 
ATOM     46  C   UNL     1      -5.478  -5.784   7.914  1.00  0.00     0.029 A 
ATOM     47  N   UNL     1      -4.021  -5.984   9.569  1.00  0.00    -0.354 N 
ATOM     48  C   UNL     1      -0.950  -2.939  10.197  1.00  0.00     0.074 A 
ATOM     49  C   UNL     1      -1.807  -1.785  10.108  1.00  0.00     0.031 C 
ATOM     50  C   UNL     1      -6.002  -6.661   8.799  1.00  0.00     0.029 A 
ATOM     51  C   UNL     1      -5.111  -6.773   9.938  1.00  0.00     0.049 A 
ATOM     52  H   UNL     1      -3.165  -5.987  10.055  1.00  0.00     0.167 HD
ATOM     53  C   UNL     1       0.007  -3.218  11.121  1.00  0.00     0.034 A 
ATOM     54  C   UNL     1      -5.307  -7.379  11.136  1.00  0.00     0.034 A 
ATOM     55  C   UNL     1       0.700  -4.444  10.868  1.00  0.00     0.049 A 
ATOM     56  C   UNL     1      -3.990  -7.462  11.807  1.00  0.00     0.074 A 
ATOM     57  C   UNL     1       1.461  -4.943   9.831  1.00  0.00     0.029 A 
ATOM     58  N   UNL     1       0.378  -5.520  11.655  1.00  0.00    -0.354 N 
ATOM     59  N   UNL     1      -3.010  -8.226  11.416  1.00  0.00    -0.248 NA
ATOM     60  C   UNL     1      -3.636  -6.417  12.753  1.00  0.00     0.031 C 
ATOM     61  C   UNL     1       1.163  -6.335   9.792  1.00  0.00     0.029 A 
ATOM     62  C   UNL     1       0.257  -6.598  10.821  1.00  0.00     0.049 A 
ATOM     63  H   UNL     1       0.258  -5.518  12.632  1.00  0.00     0.167 HD
ATOM     64  C   UNL     1      -1.866  -7.505  11.726  1.00  0.00     0.074 A 
ATOM     65  C   UNL     1      -2.307  -6.463  12.647  1.00  0.00     0.031 C 
ATOM     66  C   UNL     1      -0.728  -7.642  10.989  1.00  0.00     0.034 A 
BRANCH  53  67
ATOM     67  C   UNL     1       0.092  -2.512  12.442  1.00  0.00     0.023 A 
ATOM     68  C   UNL     1       1.315  -2.518  13.139  1.00  0.00     0.012 A 
ATOM     69  C   UNL     1      -1.050  -2.037  13.126  1.00  0.00     0.148 A 
ATOM     70  C   UNL     1       1.399  -2.051  14.455  1.00  0.00     0.002 A 
ATOM     71  C   UNL     1      -0.945  -1.493  14.398  1.00  0.00     0.091 A 
ATOM     72  F   UNL     1      -2.265  -2.223  12.593  1.00  0.00    -0.205 F 
ATOM     73  C   UNL     1       0.275  -1.516  15.077  1.00  0.00     0.022 A 
BRANCH  71  74
ATOM     74  S   UNL     1      -2.357  -0.724  15.194  1.00  0.00     0.127 S 
ATOM     75  O   UNL     1      -2.796  -1.780  16.100  1.00  0.00    -0.237 OA
ATOM     76  O   UNL     1      -1.746   0.437  15.842  1.00  0.00    -0.237 OA
ATOM     77  O   UNL     1      -3.263  -0.385  14.104  1.00  0.00    -0.744 OA
ENDBRANCH  71  74
ENDBRANCH  53  67
BRANCH  54  78
ATOM     78  C   UNL     1      -6.560  -7.668  11.886  1.00  0.00     0.023 A 
ATOM     79  C   UNL     1      -6.501  -8.525  13.008  1.00  0.00     0.012 A 
ATOM     80  C   UNL     1      -7.732  -6.900  11.710  1.00  0.00     0.148 A 
ATOM     81  C   UNL     1      -7.536  -8.566  13.950  1.00  0.00     0.002 A 
ATOM     82  C   UNL     1      -8.768  -6.959  12.641  1.00  0.00     0.091 A 
ATOM     83  F   UNL     1      -7.799  -6.033  10.693  1.00  0.00    -0.205 F 
ATOM     84  C   UNL     1      -8.665  -7.775  13.773  1.00  0.00     0.022 A 
BRANCH  82  85
ATOM     85  S   UNL     1     -10.251  -5.957  12.462  1.00  0.00     0.127 S 
ATOM     86  O   UNL     1     -11.300  -6.866  12.927  1.00  0.00    -0.237 OA
ATOM     87  O   UNL     1      -9.972  -4.836  13.354  1.00  0.00    -0.237 OA
ATOM     88  O   UNL     1     -10.332  -5.639  11.041  1.00  0.00    -0.744 OA
ENDBRANCH  82  85
ENDBRANCH  54  78
BRANCH  66  89
ATOM     89  C   UNL     1      -0.620  -8.808  10.046  1.00  0.00     0.023 A 
ATOM     90  C   UNL     1      -1.448  -8.933   8.912  1.00  0.00     0.012 A 
ATOM     91  C   UNL     1       0.469  -9.681  10.201  1.00  0.00     0.148 A 
ATOM     92  C   UNL     1      -1.195  -9.917   7.954  1.00  0.00     0.002 A 
ATOM     93  C   UNL     1       0.743 -10.630   9.226  1.00  0.00     0.091 A 
ATOM     94  F   UNL     1       1.244  -9.539  11.287  1.00  0.00    -0.205 F 
ATOM     95  C   UNL     1      -0.091 -10.755   8.102  1.00  0.00     0.022 A 
BRANCH  93  96
ATOM     96  S   UNL     1       2.214 -11.654   9.293  1.00  0.00     0.127 S 
ATOM     97  O   UNL     1       1.658 -12.969   9.607  1.00  0.00    -0.237 OA
ATOM     98  O   UNL     1       2.749 -11.523   7.937  1.00  0.00    -0.237 OA
ATOM     99  O   UNL     1       3.063 -11.073  10.327  1.00  0.00    -0.744 OA
ENDBRANCH  93  96
ENDBRANCH  66  89
ENDBRANCH  40  41
ENDBRANCH  33  35
ENDBRANCH  32  33
ENDBRANCH  31  32
ENDBRANCH   1  31
TORSDOF 20
