REMARK SMILES O=C(OCCOCCOC(=O)c1cccc2c(C(F)(F)F)cc(Br)nc12)c1ccc(-c2c3nc(c(-c4cccc(S(=O)(=O)[O-])c4F)c4ccc([nH]4)c(-c4cccc(S(=O)(=O)[O-])c4F)c4nc(c(-c5cccc(S(=O)(=O)[O-])c5F)c5ccc2[nH]5)C=C4)C=C3)cc1
REMARK SMILES IDX 5 1 4 2 3 3 2 4 1 5 27 6 28 7 89 8 29 9 88 10 30 11 31 12
REMARK SMILES IDX 32 13 82 14 33 15 87 16 81 17 83 18 34 19 86 20 80 21 79 22
REMARK SMILES IDX 35 24 67 25 47 26 66 27 48 28 51 29 65 30 84 31 49 32 50 33
REMARK SMILES IDX 64 35 85 36 52 37 36 38 37 39 45 40 38 41 40 42 46 43 39 44
REMARK SMILES IDX 41 45 42 46 43 47 44 48 68 49 69 50 77 51 70 52 72 53 78 54
REMARK SMILES IDX 71 55 73 56 74 57 75 58 76 59 53 60 54 61 62 62 55 63 57 64
REMARK SMILES IDX 63 65 56 66 58 67 59 68 60 69 61 70 6 71 7 72 8 73 9 74
REMARK SMILES IDX 10 75 11 76 12 77 13 78 26 79 14 80 16 81 25 82 15 83 17 84
REMARK SMILES IDX 23 85 22 86 24 87 18 88 19 89 20 90 21 91
REMARK H PARENT 83 23 51 34
REMARK Flexibility Score: inf
ROOT
ATOM      1  C   UNL     1       4.188   0.659  -1.122  1.00  0.00     0.202 C 
ENDROOT
BRANCH   1   2
ATOM      2  C   UNL     1       4.051  -0.853  -0.933  1.00  0.00     0.261 C 
BRANCH   2   3
ATOM      3  O   UNL     1       2.710  -1.221  -0.603  1.00  0.00    -0.460 OA
BRANCH   3   4
ATOM      4  C   UNL     1       2.110  -1.062   0.601  1.00  0.00     0.338 C 
ATOM      5  O   UNL     1       0.886  -1.205   0.643  1.00  0.00    -0.246 OA
BRANCH   4   6
ATOM      6  C   UNL     1       2.822  -0.738   1.888  1.00  0.00     0.060 A 
ATOM      7  C   UNL     1       2.064  -0.914   3.059  1.00  0.00     0.016 A 
ATOM      8  C   UNL     1       4.106  -0.195   2.031  1.00  0.00     0.016 A 
ATOM      9  C   UNL     1       2.542  -0.488   4.299  1.00  0.00     0.010 A 
ATOM     10  C   UNL     1       4.582   0.254   3.252  1.00  0.00     0.010 A 
ATOM     11  C   UNL     1       3.793   0.127   4.384  1.00  0.00    -0.014 A 
BRANCH  11  12
ATOM     12  C   UNL     1       4.385   0.503   5.669  1.00  0.00     0.031 A 
ATOM     13  C   UNL     1       4.486   1.936   6.080  1.00  0.00     0.074 A 
ATOM     14  C   UNL     1       4.955  -0.492   6.369  1.00  0.00     0.049 A 
ATOM     15  N   UNL     1       4.912   2.425   7.211  1.00  0.00    -0.248 NA
ATOM     16  C   UNL     1       4.083   2.958   5.096  1.00  0.00     0.031 C 
ATOM     17  C   UNL     1       5.034  -1.887   5.918  1.00  0.00     0.029 A 
ATOM     18  N   UNL     1       5.594  -0.490   7.572  1.00  0.00    -0.354 N 
ATOM     19  C   UNL     1       4.827   3.805   7.083  1.00  0.00     0.074 A 
ATOM     20  C   UNL     1       4.339   4.084   5.752  1.00  0.00     0.031 C 
ATOM     21  C   UNL     1       5.671  -2.611   6.847  1.00  0.00     0.029 A 
ATOM     22  C   UNL     1       6.034  -1.734   7.952  1.00  0.00     0.049 A 
ATOM     23  H   UNL     1       5.726   0.320   8.115  1.00  0.00     0.167 HD
ATOM     24  C   UNL     1       5.110   4.736   8.022  1.00  0.00     0.034 A 
ATOM     25  C   UNL     1       6.638  -2.121   9.088  1.00  0.00     0.034 A 
ATOM     26  C   UNL     1       5.590   4.394   9.334  1.00  0.00     0.049 A 
ATOM     27  C   UNL     1       6.851  -1.087  10.147  1.00  0.00     0.074 A 
ATOM     28  C   UNL     1       5.807   5.226  10.416  1.00  0.00     0.029 A 
ATOM     29  N   UNL     1       5.942   3.111   9.732  1.00  0.00    -0.354 N 
ATOM     30  N   UNL     1       6.575   0.196  10.098  1.00  0.00    -0.248 NA
ATOM     31  C   UNL     1       7.411  -1.540  11.423  1.00  0.00     0.031 C 
ATOM     32  C   UNL     1       6.309   4.447  11.462  1.00  0.00     0.029 A 
ATOM     33  C   UNL     1       6.385   3.127  11.039  1.00  0.00     0.049 A 
ATOM     34  H   UNL     1       5.885   2.309   9.165  1.00  0.00     0.167 HD
ATOM     35  C   UNL     1       6.913   0.706  11.340  1.00  0.00     0.074 A 
ATOM     36  C   UNL     1       7.401  -0.414  12.127  1.00  0.00     0.031 C 
ATOM     37  C   UNL     1       6.839   1.982  11.788  1.00  0.00     0.034 A 
BRANCH  24  38
ATOM     38  C   UNL     1       4.832   6.184   7.721  1.00  0.00     0.023 A 
ATOM     39  C   UNL     1       3.496   6.634   7.725  1.00  0.00     0.012 A 
ATOM     40  C   UNL     1       5.875   7.121   7.578  1.00  0.00     0.148 A 
ATOM     41  C   UNL     1       3.200   7.990   7.593  1.00  0.00     0.002 A 
ATOM     42  C   UNL     1       5.574   8.475   7.472  1.00  0.00     0.091 A 
ATOM     43  F   UNL     1       7.138   6.672   7.571  1.00  0.00    -0.205 F 
ATOM     44  C   UNL     1       4.238   8.911   7.479  1.00  0.00     0.022 A 
BRANCH  42  45
ATOM     45  S   UNL     1       6.832   9.755   7.371  1.00  0.00     0.127 S 
ATOM     46  O   UNL     1       6.548  10.346   6.063  1.00  0.00    -0.237 OA
ATOM     47  O   UNL     1       6.494  10.608   8.510  1.00  0.00    -0.237 OA
ATOM     48  O   UNL     1       8.115   9.073   7.471  1.00  0.00    -0.744 OA
ENDBRANCH  42  45
ENDBRANCH  24  38
BRANCH  25  49
ATOM     49  C   UNL     1       6.926  -3.565   9.277  1.00  0.00     0.023 A 
ATOM     50  C   UNL     1       6.034  -4.343  10.039  1.00  0.00     0.012 A 
ATOM     51  C   UNL     1       7.964  -4.197   8.566  1.00  0.00     0.148 A 
ATOM     52  C   UNL     1       6.170  -5.730  10.088  1.00  0.00     0.002 A 
ATOM     53  C   UNL     1       8.073  -5.582   8.591  1.00  0.00     0.091 A 
ATOM     54  F   UNL     1       8.784  -3.431   7.832  1.00  0.00    -0.205 F 
ATOM     55  C   UNL     1       7.180  -6.350   9.355  1.00  0.00     0.022 A 
BRANCH  53  56
ATOM     56  S   UNL     1       9.267  -6.478   7.591  1.00  0.00     0.127 S 
ATOM     57  O   UNL     1      10.139  -7.051   8.613  1.00  0.00    -0.237 OA
ATOM     58  O   UNL     1       8.414  -7.443   6.896  1.00  0.00    -0.237 OA
ATOM     59  O   UNL     1       9.885  -5.484   6.723  1.00  0.00    -0.744 OA
ENDBRANCH  53  56
ENDBRANCH  25  49
BRANCH  37  60
ATOM     60  C   UNL     1       7.302   2.248  13.188  1.00  0.00     0.023 A 
ATOM     61  C   UNL     1       8.681   2.365  13.442  1.00  0.00     0.012 A 
ATOM     62  C   UNL     1       6.371   2.524  14.206  1.00  0.00     0.148 A 
ATOM     63  C   UNL     1       9.130   2.756  14.700  1.00  0.00     0.002 A 
ATOM     64  C   UNL     1       6.824   2.946  15.446  1.00  0.00     0.091 A 
ATOM     65  F   UNL     1       5.065   2.399  13.926  1.00  0.00    -0.205 F 
ATOM     66  C   UNL     1       8.203   3.059  15.696  1.00  0.00     0.022 A 
BRANCH  64  67
ATOM     67  S   UNL     1       5.711   3.428  16.768  1.00  0.00     0.127 S 
ATOM     68  O   UNL     1       6.014   2.426  17.790  1.00  0.00    -0.237 OA
ATOM     69  O   UNL     1       6.174   4.780  17.081  1.00  0.00    -0.237 OA
ATOM     70  O   UNL     1       4.365   3.354  16.215  1.00  0.00    -0.744 OA
ENDBRANCH  64  67
ENDBRANCH  37  60
ENDBRANCH  11  12
ENDBRANCH   4   6
ENDBRANCH   3   4
ENDBRANCH   2   3
ENDBRANCH   1   2
BRANCH   1  71
ATOM     71  O   UNL     1       3.593   1.440  -0.090  1.00  0.00    -0.374 OA
BRANCH  71  72
ATOM     72  C   UNL     1       2.390   2.117  -0.432  1.00  0.00     0.202 C 
BRANCH  72  73
ATOM     73  C   UNL     1       2.682   3.533  -0.923  1.00  0.00     0.261 C 
BRANCH  73  74
ATOM     74  O   UNL     1       3.321   3.474  -2.211  1.00  0.00    -0.460 OA
BRANCH  74  75
ATOM     75  C   UNL     1       4.678   3.562  -2.212  1.00  0.00     0.340 C 
ATOM     76  O   UNL     1       5.403   3.838  -1.274  1.00  0.00    -0.246 OA
BRANCH  75  77
ATOM     77  C   UNL     1       5.143   3.233  -3.576  1.00  0.00     0.086 A 
ATOM     78  C   UNL     1       4.533   3.914  -4.639  1.00  0.00     0.018 A 
ATOM     79  C   UNL     1       6.146   2.266  -3.777  1.00  0.00     0.087 A 
ATOM     80  C   UNL     1       4.947   3.666  -5.934  1.00  0.00     0.002 A 
ATOM     81  C   UNL     1       6.593   2.045  -5.099  1.00  0.00     0.013 A 
ATOM     82  N   UNL     1       6.642   1.526  -2.763  1.00  0.00    -0.240 NA
ATOM     83  C   UNL     1       5.982   2.761  -6.158  1.00  0.00     0.011 A 
ATOM     84  C   UNL     1       7.628   1.093  -5.304  1.00  0.00     0.068 A 
ATOM     85  C   UNL     1       7.563   0.571  -2.987  1.00  0.00     0.107 A 
ATOM     86  C   UNL     1       8.092   0.327  -4.228  1.00  0.00     0.049 A 
ATOM     87  Br  UNL     1       8.095  -0.519  -1.530  1.00  0.00    -0.029 Br
BRANCH  84  88
ATOM     88  C   UNL     1       8.272   0.897  -6.652  1.00  0.00     0.417 C 
ATOM     89  F   UNL     1       7.388   0.508  -7.611  1.00  0.00    -0.166 F 
ATOM     90  F   UNL     1       8.856   2.036  -7.116  1.00  0.00    -0.166 F 
ATOM     91  F   UNL     1       9.255  -0.047  -6.656  1.00  0.00    -0.166 F 
ENDBRANCH  84  88
ENDBRANCH  75  77
ENDBRANCH  74  75
ENDBRANCH  73  74
ENDBRANCH  72  73
ENDBRANCH  71  72
ENDBRANCH   1  71
TORSDOF 18
