REMARK SMILES Cc1ccc(C)c(N2C(=O)C[C@@H](SCC(=O)OCCOCCOC(=O)c3ccc(-c4c5nc(c(-c6cccc(S(=O)(=O)[O-])c6F)c6ccc([nH]6)c(-c6cccc(S(=O)(=O)[O-])c6F)c6nc(c(-c7cccc(S(=O)(=O)[O-])c7F)c7ccc4[nH]7)C=C6)C=C5)cc3)C2=O)c1
REMARK SMILES IDX 20 1 19 2 18 3 17 4 15 5 16 6 14 7 13 8 12 9 8 10 9 11 89 12
REMARK SMILES IDX 10 13 11 14 90 15 7 16 1 17 2 18 3 19 91 20 4 21 5 22 6 23
REMARK SMILES IDX 21 24 22 25 23 26 24 27 25 28 26 29 27 30 88 31 28 32 87 33
REMARK SMILES IDX 29 34 30 35 31 36 81 37 32 38 86 39 80 40 82 41 33 42 85 43
REMARK SMILES IDX 79 44 78 45 34 47 66 48 46 49 65 50 47 51 50 52 64 53 83 54
REMARK SMILES IDX 48 55 49 56 63 58 84 59 51 60 35 61 36 62 44 63 37 64 39 65
REMARK SMILES IDX 45 66 38 67 40 68 41 69 42 70 43 71 67 72 68 73 76 74 69 75
REMARK SMILES IDX 71 76 77 77 70 78 72 79 73 80 74 81 75 82 52 83 53 84 61 85
REMARK SMILES IDX 54 86 56 87 62 88 55 89 57 90 58 91 59 92 60 93
REMARK H PARENT 82 46 50 57
REMARK Flexibility Score: inf
ROOT
ATOM      1  O   UNL     1      -4.077   6.256   2.122  1.00  0.00    -0.374 OA
ENDROOT
BRANCH   1   2
ATOM      2  C   UNL     1      -4.866   5.372   2.890  1.00  0.00     0.202 C 
BRANCH   2   3
ATOM      3  C   UNL     1      -6.254   5.272   2.233  1.00  0.00     0.261 C 
BRANCH   3   4
ATOM      4  O   UNL     1      -6.303   4.338   1.131  1.00  0.00    -0.463 OA
BRANCH   4   5
ATOM      5  C   UNL     1      -5.665   4.684  -0.029  1.00  0.00     0.315 C 
ATOM      6  O   UNL     1      -4.973   5.657  -0.209  1.00  0.00    -0.251 OA
BRANCH   5   7
ATOM      7  C   UNL     1      -5.831   3.616  -1.082  1.00  0.00     0.192 C 
BRANCH   7   8
ATOM      8  S   UNL     1      -4.806   2.186  -0.667  1.00  0.00    -0.136 SA
BRANCH   8   9
ATOM      9  C   UNL     1      -3.345   3.068   0.009  1.00  0.00     0.146 C 
ATOM     10  N   UNL     1      -1.435   1.813  -0.274  1.00  0.00    -0.249 N 
ATOM     11  C   UNL     1      -1.268   2.870  -1.133  1.00  0.00     0.235 C 
ATOM     12  C   UNL     1      -2.448   2.043   0.615  1.00  0.00     0.247 C 
ATOM     13  O   UNL     1      -0.303   3.122  -1.841  1.00  0.00    -0.274 OA
ATOM     14  C   UNL     1      -2.465   3.772  -1.010  1.00  0.00     0.125 C 
ATOM     15  O   UNL     1      -2.603   1.570   1.735  1.00  0.00    -0.273 OA
BRANCH  10  16
ATOM     16  C   UNL     1      -0.606   0.683  -0.182  1.00  0.00     0.055 A 
ATOM     17  C   UNL     1       3.111  -0.120  -0.068  1.00  0.00     0.044 C 
ATOM     18  C   UNL     1       1.623  -0.278  -0.069  1.00  0.00    -0.049 A 
ATOM     19  C   UNL     1       1.056  -1.549   0.066  1.00  0.00     0.004 A 
ATOM     20  C   UNL     1       0.786   0.832  -0.213  1.00  0.00     0.030 A 
ATOM     21  C   UNL     1      -0.327  -1.712   0.060  1.00  0.00     0.006 A 
ATOM     22  C   UNL     1      -1.174  -0.608  -0.081  1.00  0.00    -0.027 A 
ATOM     23  C   UNL     1      -2.655  -0.872  -0.173  1.00  0.00     0.046 C 
ENDBRANCH  10  16
ENDBRANCH   8   9
ENDBRANCH   7   8
ENDBRANCH   5   7
ENDBRANCH   4   5
ENDBRANCH   3   4
ENDBRANCH   2   3
ENDBRANCH   1   2
BRANCH   1  24
ATOM     24  C   UNL     1      -2.673   6.086   2.070  1.00  0.00     0.202 C 
BRANCH  24  25
ATOM     25  C   UNL     1      -1.933   6.771   3.221  1.00  0.00     0.261 C 
BRANCH  25  26
ATOM     26  O   UNL     1      -2.039   8.209   3.193  1.00  0.00    -0.460 OA
BRANCH  26  27
ATOM     27  C   UNL     1      -3.219   8.699   3.667  1.00  0.00     0.338 C 
ATOM     28  O   UNL     1      -3.526   8.724   4.848  1.00  0.00    -0.246 OA
BRANCH  27  29
ATOM     29  C   UNL     1      -4.128   9.019   2.534  1.00  0.00     0.060 A 
ATOM     30  C   UNL     1      -5.515   9.021   2.744  1.00  0.00     0.016 A 
ATOM     31  C   UNL     1      -3.615   8.984   1.237  1.00  0.00     0.016 A 
ATOM     32  C   UNL     1      -6.383   8.874   1.653  1.00  0.00     0.010 A 
ATOM     33  C   UNL     1      -4.467   8.666   0.194  1.00  0.00     0.010 A 
ATOM     34  C   UNL     1      -5.859   8.623   0.379  1.00  0.00    -0.014 A 
BRANCH  34  35
ATOM     35  C   UNL     1      -6.657   8.814  -0.845  1.00  0.00     0.031 A 
ATOM     36  C   UNL     1      -6.552  10.233  -1.236  1.00  0.00     0.074 A 
ATOM     37  C   UNL     1      -7.306   7.962  -1.670  1.00  0.00     0.049 A 
ATOM     38  N   UNL     1      -7.410  11.144  -0.905  1.00  0.00    -0.248 NA
ATOM     39  C   UNL     1      -5.289  10.756  -1.783  1.00  0.00     0.031 C 
ATOM     40  C   UNL     1      -7.497   6.529  -1.540  1.00  0.00     0.029 A 
ATOM     41  N   UNL     1      -7.842   8.200  -2.913  1.00  0.00    -0.354 N 
ATOM     42  C   UNL     1      -6.918  12.276  -1.520  1.00  0.00     0.074 A 
ATOM     43  C   UNL     1      -5.504  12.069  -1.694  1.00  0.00     0.031 C 
ATOM     44  C   UNL     1      -7.773   5.976  -2.744  1.00  0.00     0.029 A 
ATOM     45  C   UNL     1      -8.005   7.049  -3.691  1.00  0.00     0.049 A 
ATOM     46  H   UNL     1      -8.089   9.100  -3.227  1.00  0.00     0.167 HD
ATOM     47  C   UNL     1      -7.744  13.049  -2.272  1.00  0.00     0.034 A 
ATOM     48  C   UNL     1      -8.354   6.974  -5.001  1.00  0.00     0.034 A 
ATOM     49  C   UNL     1      -9.138  12.765  -2.041  1.00  0.00     0.049 A 
ATOM     50  C   UNL     1      -9.158   8.184  -5.267  1.00  0.00     0.074 A 
ATOM     51  C   UNL     1      -9.937  12.586  -0.928  1.00  0.00     0.029 A 
ATOM     52  N   UNL     1      -9.835  12.241  -3.100  1.00  0.00    -0.354 N 
ATOM     53  N   UNL     1     -10.372   8.346  -4.822  1.00  0.00    -0.248 NA
ATOM     54  C   UNL     1      -8.513   9.374  -5.791  1.00  0.00     0.031 C 
ATOM     55  C   UNL     1     -10.903  11.608  -1.302  1.00  0.00     0.029 A 
ATOM     56  C   UNL     1     -10.690  11.277  -2.640  1.00  0.00     0.049 A 
ATOM     57  H   UNL     1      -9.736  12.514  -4.041  1.00  0.00     0.167 HD
ATOM     58  C   UNL     1     -10.430   9.697  -4.530  1.00  0.00     0.074 A 
ATOM     59  C   UNL     1      -9.355  10.294  -5.316  1.00  0.00     0.031 C 
ATOM     60  C   UNL     1     -11.110  10.138  -3.431  1.00  0.00     0.034 A 
BRANCH  47  61
ATOM     61  C   UNL     1      -7.260  13.727  -3.523  1.00  0.00     0.023 A 
ATOM     62  C   UNL     1      -7.991  14.828  -3.994  1.00  0.00     0.012 A 
ATOM     63  C   UNL     1      -6.258  13.204  -4.374  1.00  0.00     0.148 A 
ATOM     64  C   UNL     1      -7.713  15.396  -5.240  1.00  0.00     0.002 A 
ATOM     65  C   UNL     1      -5.891  13.855  -5.538  1.00  0.00     0.091 A 
ATOM     66  F   UNL     1      -5.755  11.983  -4.156  1.00  0.00    -0.205 F 
ATOM     67  C   UNL     1      -6.637  14.937  -5.996  1.00  0.00     0.022 A 
BRANCH  65  68
ATOM     68  S   UNL     1      -4.426  13.345  -6.440  1.00  0.00     0.127 S 
ATOM     69  O   UNL     1      -5.004  12.532  -7.504  1.00  0.00    -0.237 OA
ATOM     70  O   UNL     1      -3.869  14.629  -6.865  1.00  0.00    -0.237 OA
ATOM     71  O   UNL     1      -3.608  12.642  -5.456  1.00  0.00    -0.744 OA
ENDBRANCH  65  68
ENDBRANCH  47  61
BRANCH  48  72
ATOM     72  C   UNL     1      -8.130   5.979  -6.083  1.00  0.00     0.023 A 
ATOM     73  C   UNL     1      -8.940   6.036  -7.242  1.00  0.00     0.012 A 
ATOM     74  C   UNL     1      -6.952   5.208  -6.141  1.00  0.00     0.148 A 
ATOM     75  C   UNL     1      -8.552   5.421  -8.438  1.00  0.00     0.002 A 
ATOM     76  C   UNL     1      -6.570   4.595  -7.338  1.00  0.00     0.091 A 
ATOM     77  F   UNL     1      -6.166   5.149  -5.057  1.00  0.00    -0.205 F 
ATOM     78  C   UNL     1      -7.357   4.716  -8.492  1.00  0.00     0.022 A 
BRANCH  76  79
ATOM     79  S   UNL     1      -5.029   3.679  -7.498  1.00  0.00     0.127 S 
ATOM     80  O   UNL     1      -5.442   2.514  -8.283  1.00  0.00    -0.237 OA
ATOM     81  O   UNL     1      -4.184   4.630  -8.215  1.00  0.00    -0.237 OA
ATOM     82  O   UNL     1      -4.624   3.365  -6.133  1.00  0.00    -0.744 OA
ENDBRANCH  76  79
ENDBRANCH  48  72
BRANCH  60  83
ATOM     83  C   UNL     1     -12.191   9.262  -2.845  1.00  0.00     0.023 A 
ATOM     84  C   UNL     1     -11.972   7.940  -2.405  1.00  0.00     0.012 A 
ATOM     85  C   UNL     1     -13.454   9.844  -2.622  1.00  0.00     0.148 A 
ATOM     86  C   UNL     1     -12.996   7.206  -1.799  1.00  0.00     0.002 A 
ATOM     87  C   UNL     1     -14.451   9.132  -1.966  1.00  0.00     0.091 A 
ATOM     88  F   UNL     1     -13.662  11.098  -3.051  1.00  0.00    -0.205 F 
ATOM     89  C   UNL     1     -14.232   7.806  -1.566  1.00  0.00     0.022 A 
BRANCH  87  90
ATOM     90  S   UNL     1     -16.009   9.907  -1.528  1.00  0.00     0.127 S 
ATOM     91  O   UNL     1     -16.894   9.441  -2.593  1.00  0.00    -0.237 OA
ATOM     92  O   UNL     1     -16.288   9.338  -0.208  1.00  0.00    -0.237 OA
ATOM     93  O   UNL     1     -15.743  11.341  -1.508  1.00  0.00    -0.744 OA
ENDBRANCH  87  90
ENDBRANCH  60  83
ENDBRANCH  34  35
ENDBRANCH  27  29
ENDBRANCH  26  27
ENDBRANCH  25  26
ENDBRANCH  24  25
ENDBRANCH   1  24
TORSDOF 20
