REMARK SMILES CN(C)Nc1ncnc(Nc2ccc(C(=O)OCCOCCOC(=O)c3ccc(-c4c5nc(c(-c6cccc(S(=O)(=O)[O-])c6F)c6ccc([nH]6)c(-c6cccc(S(=O)(=O)[O-])c6F)c6nc(c(-c7cccc(S(=O)(=O)[O-])c7F)c7ccc4[nH]7)C=C6)C=C5)cc3)cc2)c1[N+](=O)[O-]
REMARK SMILES IDX 19 1 18 2 17 3 15 4 16 5 14 6 11 7 12 8 90 9 13 10 89 11
REMARK SMILES IDX 10 12 9 14 5 15 6 16 91 17 7 18 8 19 4 20 2 22 1 23 3 24
REMARK SMILES IDX 92 25 93 26 94 27 20 28 21 29 22 30 23 31 24 32 25 33 26 34
REMARK SMILES IDX 27 35 88 36 28 37 87 38 29 39 30 40 31 41 81 42 32 43 86 44
REMARK SMILES IDX 80 45 82 46 33 47 85 48 79 49 78 50 34 52 66 53 46 54 65 55
REMARK SMILES IDX 47 56 50 57 64 58 83 59 48 60 49 61 63 63 84 64 51 65 35 66
REMARK SMILES IDX 36 67 44 68 37 69 39 70 45 71 38 72 40 73 41 74 42 75 43 76
REMARK SMILES IDX 67 77 68 78 76 79 69 80 71 81 77 82 70 83 72 84 73 85 74 86
REMARK SMILES IDX 75 87 52 88 53 89 61 90 54 91 56 92 62 93 55 94 57 95 58 96
REMARK SMILES IDX 59 97 60 98
REMARK H PARENT 10 13 4 21 82 51 50 62
REMARK Flexibility Score: inf
ROOT
ATOM      1  C   UNL     1       9.425   2.897   8.501  1.00  0.00     0.202 C 
ENDROOT
BRANCH   1   2
ATOM      2  C   UNL     1       8.806   4.120   7.818  1.00  0.00     0.261 C 
BRANCH   2   3
ATOM      3  O   UNL     1       7.808   3.728   6.863  1.00  0.00    -0.460 OA
BRANCH   3   4
ATOM      4  C   UNL     1       8.174   3.870   5.569  1.00  0.00     0.338 C 
ATOM      5  O   UNL     1       9.184   4.420   5.145  1.00  0.00    -0.246 OA
BRANCH   4   6
ATOM      6  C   UNL     1       7.261   3.110   4.691  1.00  0.00     0.060 A 
ATOM      7  C   UNL     1       5.618   1.818   2.820  1.00  0.00     0.040 A 
ATOM      8  C   UNL     1       7.000   1.877   2.620  1.00  0.00     0.027 A 
ATOM      9  C   UNL     1       5.084   2.338   4.011  1.00  0.00     0.027 A 
ATOM     10  C   UNL     1       7.815   2.531   3.542  1.00  0.00     0.018 A 
ATOM     11  C   UNL     1       5.898   2.971   4.955  1.00  0.00     0.018 A 
BRANCH   7  12
ATOM     12  N   UNL     1       4.800   1.420   1.745  1.00  0.00    -0.334 N 
ATOM     13  H   UNL     1       5.008   0.556   1.321  1.00  0.00     0.168 HD
BRANCH  12  14
ATOM     14  C   UNL     1       3.712   2.145   1.220  1.00  0.00     0.215 A 
ATOM     15  C   UNL     1       1.777   2.390  -0.134  1.00  0.00     0.225 A 
ATOM     16  N   UNL     1       1.510   3.584   0.437  1.00  0.00    -0.212 NA
ATOM     17  C   UNL     1       2.925   1.687   0.178  1.00  0.00     0.354 A 
ATOM     18  C   UNL     1       2.350   4.002   1.382  1.00  0.00     0.227 A 
ATOM     19  N   UNL     1       3.410   3.321   1.815  1.00  0.00    -0.212 NA
BRANCH  15  20
ATOM     20  N   UNL     1       0.720   1.945  -0.931  1.00  0.00    -0.298 N 
ATOM     21  H   UNL     1       0.259   2.618  -1.484  1.00  0.00     0.184 HD
BRANCH  20  22
ATOM     22  N   UNL     1       0.252   0.607  -1.014  1.00  0.00    -0.228 NA
ATOM     23  C   UNL     1       0.144  -0.027   0.314  1.00  0.00     0.130 C 
ATOM     24  C   UNL     1      -1.108   0.672  -1.585  1.00  0.00     0.130 C 
ENDBRANCH  20  22
ENDBRANCH  15  20
BRANCH  17  25
ATOM     25  N   UNL     1       3.376   0.613  -0.659  1.00  0.00     0.070 N 
ATOM     26  O   UNL     1       3.751  -0.430  -0.101  1.00  0.00    -0.258 OA
ATOM     27  O   UNL     1       3.490   0.839  -1.873  1.00  0.00    -0.258 OA
ENDBRANCH  17  25
ENDBRANCH  12  14
ENDBRANCH   7  12
ENDBRANCH   4   6
ENDBRANCH   3   4
ENDBRANCH   2   3
ENDBRANCH   1   2
BRANCH   1  28
ATOM     28  O   UNL     1      10.123   1.985   7.649  1.00  0.00    -0.374 OA
BRANCH  28  29
ATOM     29  C   UNL     1       9.330   1.018   6.956  1.00  0.00     0.202 C 
BRANCH  29  30
ATOM     30  C   UNL     1       8.900  -0.214   7.761  1.00  0.00     0.261 C 
BRANCH  30  31
ATOM     31  O   UNL     1       7.957   0.125   8.792  1.00  0.00    -0.460 OA
BRANCH  31  32
ATOM     32  C   UNL     1       8.445   0.064  10.052  1.00  0.00     0.338 C 
ATOM     33  O   UNL     1       9.551  -0.340  10.395  1.00  0.00    -0.246 OA
BRANCH  32  34
ATOM     34  C   UNL     1       7.522   0.735  10.985  1.00  0.00     0.060 A 
ATOM     35  C   UNL     1       8.068   1.691  11.852  1.00  0.00     0.016 A 
ATOM     36  C   UNL     1       6.167   0.404  11.056  1.00  0.00     0.016 A 
ATOM     37  C   UNL     1       7.274   2.274  12.836  1.00  0.00     0.010 A 
ATOM     38  C   UNL     1       5.372   0.988  12.048  1.00  0.00     0.010 A 
ATOM     39  C   UNL     1       5.932   1.894  12.967  1.00  0.00    -0.014 A 
BRANCH  39  40
ATOM     40  C   UNL     1       5.163   2.339  14.155  1.00  0.00     0.031 A 
ATOM     41  C   UNL     1       4.981   1.388  15.306  1.00  0.00     0.074 A 
ATOM     42  C   UNL     1       4.652   3.581  14.216  1.00  0.00     0.049 A 
ATOM     43  N   UNL     1       4.376   1.579  16.450  1.00  0.00    -0.248 NA
ATOM     44  C   UNL     1       5.554   0.041  15.146  1.00  0.00     0.031 C 
ATOM     45  C   UNL     1       4.766   4.593  13.168  1.00  0.00     0.029 A 
ATOM     46  N   UNL     1       3.924   4.196  15.203  1.00  0.00    -0.354 N 
ATOM     47  C   UNL     1       4.469   0.372  17.134  1.00  0.00     0.074 A 
ATOM     48  C   UNL     1       5.175  -0.549  16.270  1.00  0.00     0.031 C 
ATOM     49  C   UNL     1       4.121   5.704  13.564  1.00  0.00     0.029 A 
ATOM     50  C   UNL     1       3.533   5.474  14.882  1.00  0.00     0.049 A 
ATOM     51  H   UNL     1       3.702   3.763  16.059  1.00  0.00     0.167 HD
ATOM     52  C   UNL     1       4.025   0.063  18.376  1.00  0.00     0.034 A 
ATOM     53  C   UNL     1       2.781   6.354  15.573  1.00  0.00     0.034 A 
ATOM     54  C   UNL     1       3.343   0.987  19.241  1.00  0.00     0.049 A 
ATOM     55  C   UNL     1       2.276   5.976  16.942  1.00  0.00     0.074 A 
ATOM     56  C   UNL     1       2.909   0.790  20.540  1.00  0.00     0.029 A 
ATOM     57  N   UNL     1       2.980   2.279  18.891  1.00  0.00    -0.354 N 
ATOM     58  N   UNL     1       2.489   4.880  17.629  1.00  0.00    -0.248 NA
ATOM     59  C   UNL     1       1.454   6.973  17.643  1.00  0.00     0.031 C 
ATOM     60  C   UNL     1       2.256   1.953  20.964  1.00  0.00     0.029 A 
ATOM     61  C   UNL     1       2.309   2.885  19.939  1.00  0.00     0.049 A 
ATOM     62  H   UNL     1       3.172   2.703  18.023  1.00  0.00     0.167 HD
ATOM     63  C   UNL     1       1.863   5.070  18.857  1.00  0.00     0.074 A 
ATOM     64  C   UNL     1       1.278   6.395  18.824  1.00  0.00     0.031 C 
ATOM     65  C   UNL     1       1.772   4.222  19.912  1.00  0.00     0.034 A 
BRANCH  52  66
ATOM     66  C   UNL     1       4.283  -1.335  18.876  1.00  0.00     0.023 A 
ATOM     67  C   UNL     1       5.593  -1.723  19.226  1.00  0.00     0.012 A 
ATOM     68  C   UNL     1       3.228  -2.254  19.028  1.00  0.00     0.148 A 
ATOM     69  C   UNL     1       5.854  -3.015  19.679  1.00  0.00     0.002 A 
ATOM     70  C   UNL     1       3.489  -3.527  19.523  1.00  0.00     0.091 A 
ATOM     71  F   UNL     1       1.993  -1.878  18.666  1.00  0.00    -0.205 F 
ATOM     72  C   UNL     1       4.802  -3.913  19.837  1.00  0.00     0.022 A 
BRANCH  70  73
ATOM     73  S   UNL     1       2.186  -4.725  19.830  1.00  0.00     0.127 S 
ATOM     74  O   UNL     1       2.351  -5.638  18.701  1.00  0.00    -0.237 OA
ATOM     75  O   UNL     1       2.575  -5.282  21.126  1.00  0.00    -0.237 OA
ATOM     76  O   UNL     1       0.944  -3.964  19.849  1.00  0.00    -0.744 OA
ENDBRANCH  70  73
ENDBRANCH  52  66
BRANCH  53  77
ATOM     77  C   UNL     1       2.512   7.706  15.008  1.00  0.00     0.023 A 
ATOM     78  C   UNL     1       3.111   8.833  15.604  1.00  0.00     0.012 A 
ATOM     79  C   UNL     1       1.689   7.881  13.879  1.00  0.00     0.148 A 
ATOM     80  C   UNL     1       2.876  10.113  15.100  1.00  0.00     0.002 A 
ATOM     81  C   UNL     1       1.501   9.152  13.350  1.00  0.00     0.091 A 
ATOM     82  F   UNL     1       1.116   6.797  13.337  1.00  0.00    -0.205 F 
ATOM     83  C   UNL     1       2.081  10.271  13.969  1.00  0.00     0.022 A 
BRANCH  81  84
ATOM     84  S   UNL     1       0.594   9.441  11.827  1.00  0.00     0.127 S 
ATOM     85  O   UNL     1      -0.585  10.154  12.311  1.00  0.00    -0.237 OA
ATOM     86  O   UNL     1       1.540  10.258  11.065  1.00  0.00    -0.237 OA
ATOM     87  O   UNL     1       0.345   8.123  11.259  1.00  0.00    -0.744 OA
ENDBRANCH  81  84
ENDBRANCH  53  77
BRANCH  65  88
ATOM     88  C   UNL     1       1.040   4.708  21.138  1.00  0.00     0.023 A 
ATOM     89  C   UNL     1      -0.363   4.840  21.111  1.00  0.00     0.012 A 
ATOM     90  C   UNL     1       1.734   4.974  22.335  1.00  0.00     0.148 A 
ATOM     91  C   UNL     1      -1.058   5.264  22.243  1.00  0.00     0.002 A 
ATOM     92  C   UNL     1       1.030   5.348  23.474  1.00  0.00     0.091 A 
ATOM     93  F   UNL     1       3.071   4.862  22.338  1.00  0.00    -0.205 F 
ATOM     94  C   UNL     1      -0.364   5.506  23.426  1.00  0.00     0.022 A 
BRANCH  92  95
ATOM     95  S   UNL     1       1.833   5.584  25.064  1.00  0.00     0.127 S 
ATOM     96  O   UNL     1       1.839   7.041  25.181  1.00  0.00    -0.237 OA
ATOM     97  O   UNL     1       0.917   4.903  25.980  1.00  0.00    -0.237 OA
ATOM     98  O   UNL     1       3.142   4.957  24.947  1.00  0.00    -0.744 OA
ENDBRANCH  92  95
ENDBRANCH  65  88
ENDBRANCH  39  40
ENDBRANCH  32  34
ENDBRANCH  31  32
ENDBRANCH  30  31
ENDBRANCH  29  30
ENDBRANCH  28  29
ENDBRANCH   1  28
TORSDOF 22
