REMARK SMILES O=C(OCCOCCOC(=O)[C@H]1C[C@H](O)CN1S(=O)(=O)c1ccc2c(c1)OCCO2)c1ccc(-c2c3nc(c(-c4cccc(S(=O)(=O)[O-])c4F)c4ccc([nH]4)c(-c4cccc(S(=O)(=O)[O-])c4F)c4nc(c(-c5cccc(S(=O)(=O)[O-])c5F)c5ccc2[nH]5)C=C4)C=C3)cc1
REMARK SMILES IDX 5 1 4 2 3 3 2 4 1 5 31 6 32 7 93 8 33 9 92 10 34 11 35 12
REMARK SMILES IDX 36 13 86 14 37 15 91 16 85 17 87 18 38 19 90 20 84 21 83 22
REMARK SMILES IDX 39 24 71 25 51 26 70 27 52 28 55 29 69 30 88 31 53 32 54 33
REMARK SMILES IDX 68 35 89 36 56 37 40 38 41 39 49 40 42 41 44 42 50 43 43 44
REMARK SMILES IDX 45 45 46 46 47 47 48 48 72 49 73 50 81 51 74 52 76 53 82 54
REMARK SMILES IDX 75 55 77 56 78 57 79 58 80 59 57 60 58 61 66 62 59 63 61 64
REMARK SMILES IDX 67 65 60 66 62 67 63 68 64 69 65 70 6 71 7 72 8 73 9 74
REMARK SMILES IDX 10 75 11 76 12 77 13 78 17 79 14 80 16 81 18 82 19 83 20 84
REMARK SMILES IDX 21 85 22 86 26 87 23 88 25 89 24 90 27 91 30 92 28 93 29 94
REMARK SMILES IDX 15 95
REMARK H PARENT 87 23 55 34 15 96
REMARK Flexibility Score: inf
ROOT
ATOM      1  C   UNL     1       3.943   0.515  -1.448  1.00  0.00     0.202 C 
ENDROOT
BRANCH   1   2
ATOM      2  C   UNL     1       3.801  -0.988  -1.679  1.00  0.00     0.261 C 
BRANCH   2   3
ATOM      3  O   UNL     1       2.475  -1.419  -1.335  1.00  0.00    -0.460 OA
BRANCH   3   4
ATOM      4  C   UNL     1       2.005  -1.785  -0.118  1.00  0.00     0.338 C 
ATOM      5  O   UNL     1       0.788  -1.924   0.008  1.00  0.00    -0.246 OA
BRANCH   4   6
ATOM      6  C   UNL     1       2.870  -2.078   1.071  1.00  0.00     0.060 A 
ATOM      7  C   UNL     1       4.136  -1.539   1.312  1.00  0.00     0.016 A 
ATOM      8  C   UNL     1       2.320  -2.914   2.060  1.00  0.00     0.016 A 
ATOM      9  C   UNL     1       4.845  -1.825   2.463  1.00  0.00     0.010 A 
ATOM     10  C   UNL     1       3.029  -3.216   3.228  1.00  0.00     0.010 A 
ATOM     11  C   UNL     1       4.304  -2.679   3.415  1.00  0.00    -0.014 A 
BRANCH  11  12
ATOM     12  C   UNL     1       5.209  -3.094   4.493  1.00  0.00     0.031 A 
ATOM     13  C   UNL     1       5.949  -4.382   4.317  1.00  0.00     0.074 A 
ATOM     14  C   UNL     1       5.505  -2.222   5.472  1.00  0.00     0.049 A 
ATOM     15  N   UNL     1       6.857  -4.922   5.079  1.00  0.00    -0.248 NA
ATOM     16  C   UNL     1       5.650  -5.151   3.093  1.00  0.00     0.031 C 
ATOM     17  C   UNL     1       4.915  -0.888   5.615  1.00  0.00     0.029 A 
ATOM     18  N   UNL     1       6.398  -2.306   6.503  1.00  0.00    -0.354 N 
ATOM     19  C   UNL     1       7.217  -6.104   4.446  1.00  0.00     0.074 A 
ATOM     20  C   UNL     1       6.442  -6.202   3.232  1.00  0.00     0.031 C 
ATOM     21  C   UNL     1       5.465  -0.278   6.678  1.00  0.00     0.029 A 
ATOM     22  C   UNL     1       6.404  -1.195   7.313  1.00  0.00     0.049 A 
ATOM     23  H   UNL     1       6.980  -3.086   6.652  1.00  0.00     0.167 HD
ATOM     24  C   UNL     1       8.119  -7.024   4.853  1.00  0.00     0.034 A 
ATOM     25  C   UNL     1       7.080  -0.972   8.455  1.00  0.00     0.034 A 
ATOM     26  C   UNL     1       8.865  -6.896   6.072  1.00  0.00     0.049 A 
ATOM     27  C   UNL     1       8.022  -2.048   8.925  1.00  0.00     0.074 A 
ATOM     28  C   UNL     1       9.728  -7.800   6.659  1.00  0.00     0.029 A 
ATOM     29  N   UNL     1       8.826  -5.777   6.894  1.00  0.00    -0.354 N 
ATOM     30  N   UNL     1       8.339  -3.180   8.337  1.00  0.00    -0.248 NA
ATOM     31  C   UNL     1       8.710  -1.819  10.201  1.00  0.00     0.031 C 
ATOM     32  C   UNL     1      10.200  -7.230   7.847  1.00  0.00     0.029 A 
ATOM     33  C   UNL     1       9.651  -5.962   7.986  1.00  0.00     0.049 A 
ATOM     34  H   UNL     1       8.288  -4.970   6.724  1.00  0.00     0.167 HD
ATOM     35  C   UNL     1       9.271  -3.793   9.163  1.00  0.00     0.074 A 
ATOM     36  C   UNL     1       9.495  -2.885  10.274  1.00  0.00     0.031 C 
ATOM     37  C   UNL     1       9.870  -5.004   9.041  1.00  0.00     0.034 A 
BRANCH  24  38
ATOM     38  C   UNL     1       8.296  -8.237   3.984  1.00  0.00     0.023 A 
ATOM     39  C   UNL     1       9.014  -8.136   2.775  1.00  0.00     0.012 A 
ATOM     40  C   UNL     1       7.713  -9.467   4.343  1.00  0.00     0.148 A 
ATOM     41  C   UNL     1       9.122  -9.233   1.921  1.00  0.00     0.002 A 
ATOM     42  C   UNL     1       7.852 -10.565   3.502  1.00  0.00     0.091 A 
ATOM     43  F   UNL     1       7.007  -9.531   5.480  1.00  0.00    -0.205 F 
ATOM     44  C   UNL     1       8.546 -10.447   2.287  1.00  0.00     0.022 A 
BRANCH  42  45
ATOM     45  S   UNL     1       7.179 -12.182   3.897  1.00  0.00     0.127 S 
ATOM     46  O   UNL     1       6.155 -12.336   2.864  1.00  0.00    -0.237 OA
ATOM     47  O   UNL     1       8.347 -13.047   3.731  1.00  0.00    -0.237 OA
ATOM     48  O   UNL     1       6.676 -12.089   5.260  1.00  0.00    -0.744 OA
ENDBRANCH  42  45
ENDBRANCH  24  38
BRANCH  25  49
ATOM     49  C   UNL     1       6.872   0.289   9.225  1.00  0.00     0.023 A 
ATOM     50  C   UNL     1       7.933   1.199   9.398  1.00  0.00     0.012 A 
ATOM     51  C   UNL     1       5.615   0.596   9.786  1.00  0.00     0.148 A 
ATOM     52  C   UNL     1       7.753   2.371  10.137  1.00  0.00     0.002 A 
ATOM     53  C   UNL     1       5.427   1.792  10.470  1.00  0.00     0.091 A 
ATOM     54  F   UNL     1       4.620  -0.291   9.644  1.00  0.00    -0.205 F 
ATOM     55  C   UNL     1       6.499   2.674  10.662  1.00  0.00     0.022 A 
BRANCH  53  56
ATOM     56  S   UNL     1       3.808   2.300  11.060  1.00  0.00     0.127 S 
ATOM     57  O   UNL     1       3.881   1.951  12.476  1.00  0.00    -0.237 OA
ATOM     58  O   UNL     1       3.811   3.737  10.780  1.00  0.00    -0.237 OA
ATOM     59  O   UNL     1       2.854   1.542  10.261  1.00  0.00    -0.744 OA
ENDBRANCH  53  56
ENDBRANCH  25  49
BRANCH  37  60
ATOM     60  C   UNL     1      10.828  -5.401  10.127  1.00  0.00     0.023 A 
ATOM     61  C   UNL     1      10.328  -5.795  11.384  1.00  0.00     0.012 A 
ATOM     62  C   UNL     1      12.210  -5.460   9.875  1.00  0.00     0.148 A 
ATOM     63  C   UNL     1      11.198  -6.216  12.386  1.00  0.00     0.002 A 
ATOM     64  C   UNL     1      13.066  -5.928  10.862  1.00  0.00     0.091 A 
ATOM     65  F   UNL     1      12.662  -5.056   8.678  1.00  0.00    -0.205 F 
ATOM     66  C   UNL     1      12.564  -6.295  12.121  1.00  0.00     0.022 A 
BRANCH  64  67
ATOM     67  S   UNL     1      14.821  -6.160  10.565  1.00  0.00     0.127 S 
ATOM     68  O   UNL     1      15.394  -4.997  11.238  1.00  0.00    -0.237 OA
ATOM     69  O   UNL     1      15.084  -7.439  11.226  1.00  0.00    -0.237 OA
ATOM     70  O   UNL     1      14.977  -6.191   9.117  1.00  0.00    -0.744 OA
ENDBRANCH  64  67
ENDBRANCH  37  60
ENDBRANCH  11  12
ENDBRANCH   4   6
ENDBRANCH   3   4
ENDBRANCH   2   3
ENDBRANCH   1   2
BRANCH   1  71
ATOM     71  O   UNL     1       3.691   0.884  -0.100  1.00  0.00    -0.374 OA
BRANCH  71  72
ATOM     72  C   UNL     1       2.406   1.420   0.209  1.00  0.00     0.202 C 
BRANCH  72  73
ATOM     73  C   UNL     1       2.611   2.793   0.835  1.00  0.00     0.261 C 
BRANCH  73  74
ATOM     74  O   UNL     1       3.189   3.643  -0.163  1.00  0.00    -0.462 OA
BRANCH  74  75
ATOM     75  C   UNL     1       4.550   3.637  -0.251  1.00  0.00     0.324 C 
ATOM     76  O   UNL     1       5.331   3.018   0.458  1.00  0.00    -0.250 OA
BRANCH  75  77
ATOM     77  C   UNL     1       4.989   4.518  -1.401  1.00  0.00     0.185 C 
ATOM     78  C   UNL     1       4.281   4.101  -2.703  1.00  0.00     0.065 C 
ATOM     79  N   UNL     1       4.798   6.019  -1.278  1.00  0.00    -0.181 NA
ATOM     80  C   UNL     1       3.308   5.231  -2.974  1.00  0.00     0.131 C 
ATOM     81  C   UNL     1       4.122   6.443  -2.536  1.00  0.00     0.135 C 
BRANCH  79  82
ATOM     82  S   UNL     1       4.056   6.520   0.190  1.00  0.00     0.244 S 
ATOM     83  O   UNL     1       2.618   6.385   0.023  1.00  0.00    -0.207 OA
ATOM     84  O   UNL     1       4.752   5.893   1.278  1.00  0.00    -0.207 OA
BRANCH  82  85
ATOM     85  C   UNL     1       4.401   8.249   0.299  1.00  0.00     0.086 A 
ATOM     86  C   UNL     1       5.342   8.706   1.231  1.00  0.00     0.026 A 
ATOM     87  C   UNL     1       3.613   9.144  -0.421  1.00  0.00     0.072 A 
ATOM     88  C   UNL     1       5.492  10.076   1.439  1.00  0.00     0.052 A 
ATOM     89  C   UNL     1       3.808  10.504  -0.251  1.00  0.00     0.162 A 
ATOM     90  C   UNL     1       4.715  10.973   0.707  1.00  0.00     0.161 A 
ATOM     91  O   UNL     1       3.051  11.324  -1.047  1.00  0.00    -0.486 OA
ATOM     92  O   UNL     1       4.875  12.306   0.986  1.00  0.00    -0.486 OA
ATOM     93  C   UNL     1       3.540  12.667  -1.000  1.00  0.00     0.271 C 
ATOM     94  C   UNL     1       3.792  13.073   0.442  1.00  0.00     0.271 C 
ENDBRANCH  82  85
ENDBRANCH  79  82
BRANCH  80  95
ATOM     95  O   UNL     1       2.913   5.289  -4.335  1.00  0.00    -0.392 OA
ATOM     96  H   UNL     1       3.698   5.376  -4.896  1.00  0.00     0.211 HD
ENDBRANCH  80  95
ENDBRANCH  75  77
ENDBRANCH  74  75
ENDBRANCH  73  74
ENDBRANCH  72  73
ENDBRANCH  71  72
ENDBRANCH   1  71
TORSDOF 20
