REMARK SMILES COc1ccc(OC)c(-c2cc(-c3ccccc3)nc(S[C@H](C)C(=O)OCCOCCOC(=O)c3ccc(-c4c5nc(c(-c6cccc(S(=O)(=O)[O-])c6F)c6ccc([nH]6)c(-c6cccc(S(=O)(=O)[O-])c6F)c6nc(c(-c7cccc(S(=O)(=O)[O-])c7F)c7ccc4[nH]7)C=C6)C=C5)cc3)c2C#N)c1
REMARK SMILES IDX 28 1 27 2 26 3 24 4 25 5 22 6 23 7 21 8 20 9 10 10 11 11
REMARK SMILES IDX 98 12 12 13 19 14 9 15 3 16 4 17 101 18 5 19 6 20 2 21 1 22
REMARK SMILES IDX 7 23 8 24 99 25 100 26 13 27 14 28 18 29 15 30 17 31 16 32
REMARK SMILES IDX 29 33 30 34 31 35 32 36 33 37 34 38 35 39 36 40 97 41 37 42
REMARK SMILES IDX 96 43 38 44 39 45 40 46 90 47 41 48 95 49 89 50 91 51 42 52
REMARK SMILES IDX 94 53 88 54 87 55 43 57 75 58 55 59 74 60 56 61 59 62 73 63
REMARK SMILES IDX 92 64 57 65 58 66 72 68 93 69 60 70 44 71 45 72 53 73 46 74
REMARK SMILES IDX 48 75 54 76 47 77 49 78 50 79 51 80 52 81 76 82 77 83 85 84
REMARK SMILES IDX 78 85 80 86 86 87 79 88 81 89 82 90 83 91 84 92 61 93 62 94
REMARK SMILES IDX 70 95 63 96 65 97 71 98 64 99 66 100 67 101 68 102 69 103
REMARK H PARENT 91 56 59 67
REMARK Flexibility Score: inf
ROOT
ATOM      1  C   UNL     1       4.321   2.156  -7.164  1.00  0.00     0.202 C 
ENDROOT
BRANCH   1   2
ATOM      2  C   UNL     1       3.931   1.250  -5.990  1.00  0.00     0.261 C 
BRANCH   2   3
ATOM      3  O   UNL     1       4.980   1.127  -5.013  1.00  0.00    -0.462 OA
BRANCH   3   4
ATOM      4  C   UNL     1       5.585  -0.091  -4.973  1.00  0.00     0.319 C 
ATOM      5  O   UNL     1       5.221  -1.066  -5.626  1.00  0.00    -0.251 OA
BRANCH   4   6
ATOM      6  C   UNL     1       6.819  -0.133  -4.079  1.00  0.00     0.160 C 
ATOM      7  C   UNL     1       7.618   1.154  -3.917  1.00  0.00     0.032 C 
BRANCH   6   8
ATOM      8  S   UNL     1       6.421  -1.106  -2.582  1.00  0.00    -0.090 SA
BRANCH   8   9
ATOM      9  C   UNL     1       6.065   0.074  -1.280  1.00  0.00     0.116 A 
ATOM     10  C   UNL     1       5.469   0.466   1.021  1.00  0.00     0.008 A 
ATOM     11  C   UNL     1       6.181   1.669   0.946  1.00  0.00     0.039 A 
ATOM     12  C   UNL     1       5.411  -0.354  -0.125  1.00  0.00     0.092 A 
ATOM     13  C   UNL     1       6.711   2.077  -0.268  1.00  0.00     0.072 A 
ATOM     14  N   UNL     1       6.660   1.284  -1.363  1.00  0.00    -0.240 NA
BRANCH  10  15
ATOM     15  C   UNL     1       4.885   0.041   2.303  1.00  0.00     0.029 A 
ATOM     16  C   UNL     1       5.004  -1.644   4.099  1.00  0.00     0.119 A 
ATOM     17  C   UNL     1       3.823  -1.144   4.627  1.00  0.00     0.050 A 
ATOM     18  C   UNL     1       5.531  -1.046   2.956  1.00  0.00     0.059 A 
ATOM     19  C   UNL     1       3.202  -0.045   4.034  1.00  0.00     0.051 A 
ATOM     20  C   UNL     1       3.713   0.564   2.877  1.00  0.00     0.127 A 
BRANCH  16  21
ATOM     21  O   UNL     1       5.512  -2.742   4.734  1.00  0.00    -0.497 OA
ATOM     22  C   UNL     1       6.895  -3.006   4.535  1.00  0.00     0.278 C 
ENDBRANCH  16  21
BRANCH  20  23
ATOM     23  O   UNL     1       2.897   1.577   2.474  1.00  0.00    -0.496 OA
ATOM     24  C   UNL     1       3.212   2.467   1.422  1.00  0.00     0.278 C 
ENDBRANCH  20  23
ENDBRANCH  10  15
BRANCH  12  25
ATOM     25  C   UNL     1       4.769  -1.641  -0.084  1.00  0.00     0.103 C 
ATOM     26  N   UNL     1       4.305  -2.703  -0.047  1.00  0.00    -0.192 NA
ENDBRANCH  12  25
BRANCH  13  27
ATOM     27  C   UNL     1       7.386   3.372  -0.431  1.00  0.00     0.000 A 
ATOM     28  C   UNL     1       6.999   4.269  -1.442  1.00  0.00     0.010 A 
ATOM     29  C   UNL     1       8.426   3.763   0.431  1.00  0.00     0.010 A 
ATOM     30  C   UNL     1       7.624   5.512  -1.579  1.00  0.00     0.001 A 
ATOM     31  C   UNL     1       9.055   5.002   0.290  1.00  0.00     0.001 A 
ATOM     32  C   UNL     1       8.653   5.877  -0.714  1.00  0.00     0.000 A 
ENDBRANCH  13  27
ENDBRANCH   8   9
ENDBRANCH   6   8
ENDBRANCH   4   6
ENDBRANCH   3   4
ENDBRANCH   2   3
ENDBRANCH   1   2
BRANCH   1  33
ATOM     33  O   UNL     1       5.492   1.852  -7.918  1.00  0.00    -0.374 OA
BRANCH  33  34
ATOM     34  C   UNL     1       6.758   2.031  -7.293  1.00  0.00     0.202 C 
BRANCH  34  35
ATOM     35  C   UNL     1       7.237   3.452  -6.954  1.00  0.00     0.261 C 
BRANCH  35  36
ATOM     36  O   UNL     1       6.346   4.179  -6.090  1.00  0.00    -0.460 OA
BRANCH  36  37
ATOM     37  C   UNL     1       5.705   5.207  -6.703  1.00  0.00     0.338 C 
ATOM     38  O   UNL     1       5.866   5.591  -7.851  1.00  0.00    -0.246 OA
BRANCH  37  39
ATOM     39  C   UNL     1       4.600   5.711  -5.867  1.00  0.00     0.060 A 
ATOM     40  C   UNL     1       3.311   5.636  -6.407  1.00  0.00     0.016 A 
ATOM     41  C   UNL     1       4.824   6.352  -4.650  1.00  0.00     0.016 A 
ATOM     42  C   UNL     1       2.248   6.256  -5.762  1.00  0.00     0.010 A 
ATOM     43  C   UNL     1       3.751   6.977  -4.000  1.00  0.00     0.010 A 
ATOM     44  C   UNL     1       2.467   6.970  -4.577  1.00  0.00    -0.014 A 
BRANCH  44  45
ATOM     45  C   UNL     1       1.361   7.793  -4.025  1.00  0.00     0.031 A 
ATOM     46  C   UNL     1       1.405   9.292  -4.157  1.00  0.00     0.074 A 
ATOM     47  C   UNL     1       0.296   7.199  -3.455  1.00  0.00     0.049 A 
ATOM     48  N   UNL     1       0.528  10.180  -3.765  1.00  0.00    -0.248 NA
ATOM     49  C   UNL     1       2.588   9.869  -4.816  1.00  0.00     0.031 C 
ATOM     50  C   UNL     1       0.132   5.757  -3.276  1.00  0.00     0.029 A 
ATOM     51  N   UNL     1      -0.841   7.739  -2.908  1.00  0.00    -0.354 N 
ATOM     52  C   UNL     1       1.068  11.419  -4.090  1.00  0.00     0.074 A 
ATOM     53  C   UNL     1       2.350  11.169  -4.712  1.00  0.00     0.031 C 
ATOM     54  C   UNL     1      -1.030   5.527  -2.643  1.00  0.00     0.029 A 
ATOM     55  C   UNL     1      -1.671   6.803  -2.338  1.00  0.00     0.049 A 
ATOM     56  H   UNL     1      -1.042   8.703  -2.922  1.00  0.00     0.167 HD
ATOM     57  C   UNL     1       0.541  12.651  -3.893  1.00  0.00     0.034 A 
ATOM     58  C   UNL     1      -2.800   6.959  -1.620  1.00  0.00     0.034 A 
ATOM     59  C   UNL     1      -0.744  12.896  -3.293  1.00  0.00     0.049 A 
ATOM     60  C   UNL     1      -3.350   8.341  -1.397  1.00  0.00     0.074 A 
ATOM     61  C   UNL     1      -1.390  14.108  -3.116  1.00  0.00     0.029 A 
ATOM     62  N   UNL     1      -1.565  11.924  -2.746  1.00  0.00    -0.354 N 
ATOM     63  N   UNL     1      -2.886   9.492  -1.817  1.00  0.00    -0.248 NA
ATOM     64  C   UNL     1      -4.598   8.443  -0.627  1.00  0.00     0.031 C 
ATOM     65  C   UNL     1      -2.572  13.874  -2.406  1.00  0.00     0.029 A 
ATOM     66  C   UNL     1      -2.696  12.511  -2.201  1.00  0.00     0.049 A 
ATOM     67  H   UNL     1      -1.374  10.958  -2.745  1.00  0.00     0.167 HD
ATOM     68  C   UNL     1      -3.801  10.450  -1.393  1.00  0.00     0.074 A 
ATOM     69  C   UNL     1      -4.859   9.740  -0.707  1.00  0.00     0.031 C 
ATOM     70  C   UNL     1      -3.763  11.796  -1.549  1.00  0.00     0.034 A 
BRANCH  57  71
ATOM     71  C   UNL     1       1.355  13.847  -4.316  1.00  0.00     0.023 A 
ATOM     72  C   UNL     1       1.531  14.143  -5.682  1.00  0.00     0.012 A 
ATOM     73  C   UNL     1       1.874  14.728  -3.345  1.00  0.00     0.148 A 
ATOM     74  C   UNL     1       2.233  15.283  -6.075  1.00  0.00     0.002 A 
ATOM     75  C   UNL     1       2.528  15.886  -3.744  1.00  0.00     0.091 A 
ATOM     76  F   UNL     1       1.712  14.417  -2.051  1.00  0.00    -0.205 F 
ATOM     77  C   UNL     1       2.719  16.160  -5.108  1.00  0.00     0.022 A 
BRANCH  75  78
ATOM     78  S   UNL     1       3.115  17.118  -2.576  1.00  0.00     0.127 S 
ATOM     79  O   UNL     1       4.564  17.018  -2.748  1.00  0.00    -0.237 OA
ATOM     80  O   UNL     1       2.521  18.346  -3.104  1.00  0.00    -0.237 OA
ATOM     81  O   UNL     1       2.616  16.709  -1.271  1.00  0.00    -0.744 OA
ENDBRANCH  75  78
ENDBRANCH  57  71
BRANCH  58  82
ATOM     82  C   UNL     1      -3.481   5.768  -1.038  1.00  0.00     0.023 A 
ATOM     83  C   UNL     1      -4.758   5.388  -1.490  1.00  0.00     0.012 A 
ATOM     84  C   UNL     1      -2.857   5.016  -0.025  1.00  0.00     0.148 A 
ATOM     85  C   UNL     1      -5.420   4.303  -0.914  1.00  0.00     0.002 A 
ATOM     86  C   UNL     1      -3.493   3.898   0.498  1.00  0.00     0.091 A 
ATOM     87  F   UNL     1      -1.647   5.405   0.401  1.00  0.00    -0.205 F 
ATOM     88  C   UNL     1      -4.784   3.552   0.072  1.00  0.00     0.022 A 
BRANCH  86  89
ATOM     89  S   UNL     1      -2.688   2.802   1.669  1.00  0.00     0.127 S 
ATOM     90  O   UNL     1      -3.465   3.042   2.883  1.00  0.00    -0.237 OA
ATOM     91  O   UNL     1      -2.901   1.496   1.046  1.00  0.00    -0.237 OA
ATOM     92  O   UNL     1      -1.296   3.229   1.713  1.00  0.00    -0.744 OA
ENDBRANCH  86  89
ENDBRANCH  58  82
BRANCH  70  93
ATOM     93  C   UNL     1      -4.923  12.596  -1.010  1.00  0.00     0.023 A 
ATOM     94  C   UNL     1      -5.124  12.710   0.381  1.00  0.00     0.012 A 
ATOM     95  C   UNL     1      -5.791  13.274  -1.889  1.00  0.00     0.148 A 
ATOM     96  C   UNL     1      -6.198  13.445   0.884  1.00  0.00     0.002 A 
ATOM     97  C   UNL     1      -6.823  14.051  -1.379  1.00  0.00     0.091 A 
ATOM     98  F   UNL     1      -5.593  13.143  -3.209  1.00  0.00    -0.205 F 
ATOM     99  C   UNL     1      -7.040  14.123   0.006  1.00  0.00     0.022 A 
BRANCH  97 100
ATOM    100  S   UNL     1      -7.896  15.038  -2.428  1.00  0.00     0.127 S 
ATOM    101  O   UNL     1      -9.171  14.334  -2.295  1.00  0.00    -0.237 OA
ATOM    102  O   UNL     1      -7.850  16.345  -1.772  1.00  0.00    -0.237 OA
ATOM    103  O   UNL     1      -7.303  15.005  -3.758  1.00  0.00    -0.744 OA
ENDBRANCH  97 100
ENDBRANCH  70  93
ENDBRANCH  44  45
ENDBRANCH  37  39
ENDBRANCH  36  37
ENDBRANCH  35  36
ENDBRANCH  34  35
ENDBRANCH  33  34
ENDBRANCH   1  33
TORSDOF 24
