REMARK SMILES CCOc1ccc(C(=O)NC(=S)Nc2cccc(C(=O)OCCOCCOC(=O)c3ccc(-c4c5nc(c(-c6cccc(S(=O)(=O)[O-])c6F)c6ccc([nH]6)c(-c6cccc(S(=O)(=O)[O-])c6F)c6nc(c(-c7cccc(S(=O)(=O)[O-])c7F)c7ccc4[nH]7)C=C6)C=C5)cc3)c2C)cc1Br
REMARK SMILES IDX 22 1 21 2 19 3 20 4 18 5 14 6 15 7 93 8 16 9 94 10 17 11
REMARK SMILES IDX 13 12 11 14 12 15 10 16 8 17 9 18 7 20 4 21 5 22 96 23 6 24
REMARK SMILES IDX 95 25 97 26 3 27 2 28 1 29 23 30 24 31 25 32 26 33 27 34
REMARK SMILES IDX 28 35 29 36 30 37 31 38 92 39 32 40 91 41 33 42 34 43 35 44
REMARK SMILES IDX 85 45 36 46 90 47 84 48 86 49 37 50 89 51 83 52 82 53 38 55
REMARK SMILES IDX 70 56 50 57 69 58 51 59 54 60 68 61 87 62 52 63 53 64 67 66
REMARK SMILES IDX 88 67 55 68 39 69 40 70 48 71 41 72 43 73 49 74 42 75 44 76
REMARK SMILES IDX 45 77 46 78 47 79 71 80 72 81 80 82 73 83 75 84 81 85 74 86
REMARK SMILES IDX 76 87 77 88 78 89 79 90 56 91 57 92 65 93 58 94 60 95 66 96
REMARK SMILES IDX 59 97 61 98 62 99 63 100 64 101
REMARK H PARENT 13 13 10 19 86 54 54 65
REMARK Flexibility Score: inf
ROOT
ATOM      1  C   UNL     1       0.458   4.143   0.098  1.00  0.00     0.261 C 
ENDROOT
BRANCH   1   2
ATOM      2  O   UNL     1       1.802   3.528   0.071  1.00  0.00    -0.460 OA
BRANCH   2   3
ATOM      3  C   UNL     1       2.492   2.638   0.853  1.00  0.00     0.338 C 
ATOM      4  O   UNL     1       2.298   2.201   1.964  1.00  0.00    -0.246 OA
BRANCH   3   5
ATOM      5  C   UNL     1       3.542   2.100  -0.042  1.00  0.00     0.065 A 
ATOM      6  C   UNL     1       5.423  -0.045  -1.385  1.00  0.00     0.044 A 
ATOM      7  C   UNL     1       5.558   0.799  -2.949  1.00  0.00     0.026 A 
ATOM      8  C   UNL     1       4.340   0.509  -0.028  1.00  0.00    -0.013 A 
ATOM      9  C   UNL     1       4.723   2.340  -3.098  1.00  0.00     0.003 A 
ATOM     10  C   UNL     1       4.242  -0.297   1.236  1.00  0.00     0.047 C 
ATOM     11  C   UNL     1       3.753   3.092  -1.493  1.00  0.00     0.016 A 
BRANCH   6  12
ATOM     12  N   UNL     1       6.759  -0.310  -0.982  1.00  0.00    -0.332 N 
ATOM     13  H   UNL     1       6.896  -1.072  -0.373  1.00  0.00     0.169 HD
BRANCH  12  14
ATOM     14  C   UNL     1       7.888   0.397  -1.360  1.00  0.00     0.177 C 
ATOM     15  S   UNL     1       9.343  -0.441  -1.337  1.00  0.00    -0.040 S 
BRANCH  14  16
ATOM     16  N   UNL     1       7.933   1.812  -1.742  1.00  0.00    -0.299 N 
ATOM     17  C   UNL     1       7.359   3.221  -2.004  1.00  0.00     0.257 C 
ATOM     18  O   UNL     1       8.104   4.068  -2.494  1.00  0.00    -0.269 OA
ATOM     19  H   UNL     1       8.885   1.936  -1.958  1.00  0.00     0.172 HD
BRANCH  17  20
ATOM     20  C   UNL     1       5.886   3.555  -1.788  1.00  0.00     0.041 A 
ATOM     21  C   UNL     1       2.548   2.279  -3.015  1.00  0.00     0.133 A 
ATOM     22  C   UNL     1       3.168   3.915  -3.413  1.00  0.00     0.048 A 
ATOM     23  C   UNL     1       3.589   1.225  -2.013  1.00  0.00     0.060 A 
ATOM     24  C   UNL     1       4.802   4.513  -2.844  1.00  0.00     0.018 A 
ATOM     25  C   UNL     1       5.293   2.031  -1.284  1.00  0.00     0.033 A 
ATOM     26  Br  UNL     1       3.314  -0.690  -3.150  1.00  0.00    -0.047 Br
BRANCH  21  27
ATOM     27  O   UNL     1       1.250   1.840  -3.202  1.00  0.00    -0.493 OA
BRANCH  27  28
ATOM     28  C   UNL     1       0.686   1.206  -2.013  1.00  0.00     0.226 C 
ATOM     29  C   UNL     1       0.718  -0.312  -1.792  1.00  0.00     0.049 C 
ENDBRANCH  27  28
ENDBRANCH  21  27
ENDBRANCH  17  20
ENDBRANCH  14  16
ENDBRANCH  12  14
ENDBRANCH   6  12
ENDBRANCH   3   5
ENDBRANCH   2   3
ENDBRANCH   1   2
BRANCH   1  30
ATOM     30  C   UNL     1      -0.676   3.185   0.045  1.00  0.00     0.202 C 
BRANCH  30  31
ATOM     31  O   UNL     1      -0.236   2.142   0.870  1.00  0.00    -0.374 OA
BRANCH  31  32
ATOM     32  C   UNL     1      -0.827   0.884   0.926  1.00  0.00     0.202 C 
BRANCH  32  33
ATOM     33  C   UNL     1      -2.271   0.833   0.484  1.00  0.00     0.261 C 
BRANCH  33  34
ATOM     34  O   UNL     1      -3.158   1.225   1.574  1.00  0.00    -0.460 OA
BRANCH  34  35
ATOM     35  C   UNL     1      -3.403   2.553   1.827  1.00  0.00     0.338 C 
ATOM     36  O   UNL     1      -4.284   3.170   1.250  1.00  0.00    -0.246 OA
BRANCH  35  37
ATOM     37  C   UNL     1      -2.472   3.151   2.855  1.00  0.00     0.060 A 
ATOM     38  C   UNL     1      -2.330   4.531   3.029  1.00  0.00     0.016 A 
ATOM     39  C   UNL     1      -1.486   2.362   3.385  1.00  0.00     0.016 A 
ATOM     40  C   UNL     1      -1.075   5.089   3.373  1.00  0.00     0.010 A 
ATOM     41  C   UNL     1      -0.211   2.912   3.418  1.00  0.00     0.010 A 
ATOM     42  C   UNL     1       0.048   4.292   3.356  1.00  0.00    -0.014 A 
BRANCH  42  43
ATOM     43  C   UNL     1       1.477   4.708   3.468  1.00  0.00     0.031 A 
ATOM     44  C   UNL     1       2.054   4.254   4.773  1.00  0.00     0.074 A 
ATOM     45  C   UNL     1       2.292   5.333   2.540  1.00  0.00     0.049 A 
ATOM     46  N   UNL     1       3.033   4.839   5.363  1.00  0.00    -0.248 NA
ATOM     47  C   UNL     1       1.482   3.195   5.630  1.00  0.00     0.031 C 
ATOM     48  C   UNL     1       3.766   5.230   2.445  1.00  0.00     0.029 A 
ATOM     49  N   UNL     1       2.030   6.093   1.369  1.00  0.00    -0.354 N 
ATOM     50  C   UNL     1       3.426   4.000   6.387  1.00  0.00     0.074 A 
ATOM     51  C   UNL     1       2.311   3.166   6.666  1.00  0.00     0.031 C 
ATOM     52  C   UNL     1       4.254   6.059   1.496  1.00  0.00     0.029 A 
ATOM     53  C   UNL     1       3.151   6.850   0.994  1.00  0.00     0.049 A 
ATOM     54  H   UNL     1       1.173   6.088   0.884  1.00  0.00     0.167 HD
ATOM     55  C   UNL     1       4.741   3.941   6.706  1.00  0.00     0.034 A 
ATOM     56  C   UNL     1       3.098   8.194   0.768  1.00  0.00     0.034 A 
ATOM     57  C   UNL     1       5.471   4.901   5.869  1.00  0.00     0.049 A 
ATOM     58  C   UNL     1       3.873   8.856   1.871  1.00  0.00     0.074 A 
ATOM     59  C   UNL     1       6.284   4.763   4.759  1.00  0.00     0.029 A 
ATOM     60  N   UNL     1       5.107   6.239   5.927  1.00  0.00    -0.354 N 
ATOM     61  N   UNL     1       4.253   8.179   2.916  1.00  0.00    -0.248 NA
ATOM     62  C   UNL     1       4.368  10.227   1.897  1.00  0.00     0.031 C 
ATOM     63  C   UNL     1       6.421   6.050   4.164  1.00  0.00     0.029 A 
ATOM     64  C   UNL     1       5.696   6.964   4.914  1.00  0.00     0.049 A 
ATOM     65  H   UNL     1       4.504   6.622   6.605  1.00  0.00     0.167 HD
ATOM     66  C   UNL     1       5.022   8.937   3.728  1.00  0.00     0.074 A 
ATOM     67  C   UNL     1       5.062  10.224   3.054  1.00  0.00     0.031 C 
ATOM     68  C   UNL     1       5.537   8.414   4.877  1.00  0.00     0.034 A 
BRANCH  55  69
ATOM     69  C   UNL     1       5.439   2.902   7.566  1.00  0.00     0.023 A 
ATOM     70  C   UNL     1       6.843   3.041   7.639  1.00  0.00     0.012 A 
ATOM     71  C   UNL     1       4.893   1.808   8.287  1.00  0.00     0.148 A 
ATOM     72  C   UNL     1       7.659   2.158   8.346  1.00  0.00     0.002 A 
ATOM     73  C   UNL     1       5.707   0.933   9.018  1.00  0.00     0.091 A 
ATOM     74  F   UNL     1       3.583   1.569   8.283  1.00  0.00    -0.205 F 
ATOM     75  C   UNL     1       7.092   1.105   9.041  1.00  0.00     0.022 A 
BRANCH  73  76
ATOM     76  S   UNL     1       5.064  -0.460   9.971  1.00  0.00     0.127 S 
ATOM     77  O   UNL     1       5.775  -1.593   9.374  1.00  0.00    -0.237 OA
ATOM     78  O   UNL     1       5.487  -0.130  11.332  1.00  0.00    -0.237 OA
ATOM     79  O   UNL     1       3.621  -0.481   9.765  1.00  0.00    -0.744 OA
ENDBRANCH  73  76
ENDBRANCH  55  69
BRANCH  56  80
ATOM     80  C   UNL     1       1.797   8.602   0.150  1.00  0.00     0.023 A 
ATOM     81  C   UNL     1       1.611   8.223  -1.208  1.00  0.00     0.012 A 
ATOM     82  C   UNL     1       0.668   8.747   0.970  1.00  0.00     0.148 A 
ATOM     83  C   UNL     1       0.372   7.753  -1.654  1.00  0.00     0.002 A 
ATOM     84  C   UNL     1      -0.560   8.275   0.518  1.00  0.00     0.091 A 
ATOM     85  F   UNL     1       0.840   9.222   2.210  1.00  0.00    -0.205 F 
ATOM     86  C   UNL     1      -0.695   7.716  -0.766  1.00  0.00     0.022 A 
BRANCH  84  87
ATOM     87  S   UNL     1      -1.984   8.184   1.599  1.00  0.00     0.127 S 
ATOM     88  O   UNL     1      -2.739   9.369   1.208  1.00  0.00    -0.237 OA
ATOM     89  O   UNL     1      -2.588   6.916   1.187  1.00  0.00    -0.237 OA
ATOM     90  O   UNL     1      -1.450   8.204   2.951  1.00  0.00    -0.744 OA
ENDBRANCH  84  87
ENDBRANCH  56  80
BRANCH  68  91
ATOM     91  C   UNL     1       5.974   9.237   6.061  1.00  0.00     0.023 A 
ATOM     92  C   UNL     1       5.692  10.610   6.143  1.00  0.00     0.012 A 
ATOM     93  C   UNL     1       6.559   8.636   7.207  1.00  0.00     0.148 A 
ATOM     94  C   UNL     1       6.085  11.377   7.238  1.00  0.00     0.002 A 
ATOM     95  C   UNL     1       6.811   9.374   8.351  1.00  0.00     0.091 A 
ATOM     96  F   UNL     1       6.905   7.344   7.202  1.00  0.00    -0.205 F 
ATOM     97  C   UNL     1       6.631  10.756   8.350  1.00  0.00     0.022 A 
BRANCH  95  98
ATOM     98  S   UNL     1       7.262   8.590   9.901  1.00  0.00     0.127 S 
ATOM     99  O   UNL     1       8.677   8.941  10.002  1.00  0.00    -0.237 OA
ATOM    100  O   UNL     1       6.388   9.283  10.851  1.00  0.00    -0.237 OA
ATOM    101  O   UNL     1       6.968   7.174   9.738  1.00  0.00    -0.744 OA
ENDBRANCH  95  98
ENDBRANCH  68  91
ENDBRANCH  42  43
ENDBRANCH  35  37
ENDBRANCH  34  35
ENDBRANCH  33  34
ENDBRANCH  32  33
ENDBRANCH  31  32
ENDBRANCH  30  31
ENDBRANCH   1  30
TORSDOF 23
