REMARK SMILES C[C@H]1[C@H](C(=O)OCCOCCOC(=O)c2ccc(-c3c4nc(c(-c5cccc(S(=O)(=O)[O-])c5F)c5ccc([nH]5)c(-c5cccc(S(=O)(=O)[O-])c5F)c5nc(c(-c6cccc(S(=O)(=O)[O-])c6F)c6ccc3[nH]6)C=C5)C=C4)cc2)CCN1c1ncnc2sccc12
REMARK SMILES IDX 10 1 9 2 8 3 7 4 6 5 4 6 5 7 3 8 1 9 2 10 80 11 78 12 79 13
REMARK SMILES IDX 81 14 82 15 89 16 83 17 85 18 88 19 84 20 86 21 87 22 11 23
REMARK SMILES IDX 12 24 13 25 14 26 15 27 16 28 77 29 17 30 76 31 18 32 19 33
REMARK SMILES IDX 20 34 70 35 21 36 75 37 69 38 71 39 22 40 74 41 68 42 67 43
REMARK SMILES IDX 23 45 55 46 35 47 54 48 36 49 39 50 53 51 72 52 37 53 38 54
REMARK SMILES IDX 52 56 73 57 40 58 24 59 25 60 33 61 26 62 28 63 34 64 27 65
REMARK SMILES IDX 29 66 30 67 31 68 32 69 56 70 57 71 65 72 58 73 60 74 66 75
REMARK SMILES IDX 59 76 61 77 62 78 63 79 64 80 41 81 42 82 50 83 43 84 45 85
REMARK SMILES IDX 51 86 44 87 46 88 47 89 48 90 49 91
REMARK H PARENT 71 44 39 55
REMARK Flexibility Score: inf
ROOT
ATOM      1  C   UNL     1       2.246   3.186   1.778  1.00  0.00     0.202 C 
ENDROOT
BRANCH   1   2
ATOM      2  O   UNL     1       1.539   4.210   2.476  1.00  0.00    -0.374 OA
BRANCH   2   3
ATOM      3  C   UNL     1       0.497   3.796   3.360  1.00  0.00     0.202 C 
BRANCH   3   4
ATOM      4  C   UNL     1      -0.829   3.397   2.707  1.00  0.00     0.261 C 
BRANCH   4   5
ATOM      5  O   UNL     1      -0.702   2.219   1.890  1.00  0.00    -0.463 OA
BRANCH   5   6
ATOM      6  C   UNL     1      -0.782   2.405   0.547  1.00  0.00     0.311 C 
ATOM      7  O   UNL     1      -0.976   3.483  -0.003  1.00  0.00    -0.252 OA
BRANCH   6   8
ATOM      8  C   UNL     1      -0.687   1.117  -0.235  1.00  0.00     0.123 C 
ATOM      9  C   UNL     1       1.579   0.046  -0.430  1.00  0.00     0.032 C 
ATOM     10  C   UNL     1       0.246   0.025   0.333  1.00  0.00     0.095 C 
ATOM     11  N   UNL     1      -0.490  -1.230   0.095  1.00  0.00    -0.352 N 
ATOM     12  C   UNL     1      -2.063   0.480  -0.296  1.00  0.00     0.039 C 
ATOM     13  C   UNL     1      -1.796  -1.000  -0.489  1.00  0.00     0.119 C 
BRANCH  11  14
ATOM     14  C   UNL     1      -0.041  -2.449   0.559  1.00  0.00     0.141 A 
ATOM     15  N   UNL     1       1.135  -2.458   1.245  1.00  0.00    -0.219 NA
ATOM     16  C   UNL     1      -0.690  -3.707   0.388  1.00  0.00     0.054 A 
ATOM     17  C   UNL     1       1.638  -3.608   1.715  1.00  0.00     0.225 A 
ATOM     18  C   UNL     1      -0.053  -4.812   0.944  1.00  0.00     0.128 A 
ATOM     19  C   UNL     1      -1.905  -4.142  -0.261  1.00  0.00     0.026 A 
ATOM     20  N   UNL     1       1.116  -4.825   1.600  1.00  0.00    -0.225 NA
ATOM     21  S   UNL     1      -0.906  -6.274   0.725  1.00  0.00    -0.124 S 
ATOM     22  C   UNL     1      -2.155  -5.489  -0.123  1.00  0.00     0.068 A 
ENDBRANCH  11  14
ENDBRANCH   6   8
ENDBRANCH   5   6
ENDBRANCH   4   5
ENDBRANCH   3   4
ENDBRANCH   2   3
ENDBRANCH   1   2
BRANCH   1  23
ATOM     23  C   UNL     1       3.305   2.415   2.571  1.00  0.00     0.261 C 
BRANCH  23  24
ATOM     24  O   UNL     1       2.727   1.643   3.638  1.00  0.00    -0.460 OA
BRANCH  24  25
ATOM     25  C   UNL     1       3.040   2.081   4.877  1.00  0.00     0.338 C 
ATOM     26  O   UNL     1       3.819   2.991   5.157  1.00  0.00    -0.246 OA
BRANCH  25  27
ATOM     27  C   UNL     1       2.199   1.439   5.902  1.00  0.00     0.060 A 
ATOM     28  C   UNL     1       1.624   2.278   6.864  1.00  0.00     0.016 A 
ATOM     29  C   UNL     1       2.058   0.051   5.997  1.00  0.00     0.016 A 
ATOM     30  C   UNL     1       0.989   1.733   7.975  1.00  0.00     0.010 A 
ATOM     31  C   UNL     1       1.418  -0.495   7.117  1.00  0.00     0.010 A 
ATOM     32  C   UNL     1       0.935   0.343   8.138  1.00  0.00    -0.014 A 
BRANCH  32  33
ATOM     33  C   UNL     1       0.542  -0.196   9.463  1.00  0.00     0.031 A 
ATOM     34  C   UNL     1       1.620  -0.608  10.432  1.00  0.00     0.074 A 
ATOM     35  C   UNL     1      -0.751  -0.251   9.831  1.00  0.00     0.049 A 
ATOM     36  N   UNL     1       1.510  -0.999  11.675  1.00  0.00    -0.248 NA
ATOM     37  C   UNL     1       3.006  -0.568   9.936  1.00  0.00     0.031 C 
ATOM     38  C   UNL     1      -1.885   0.113   8.984  1.00  0.00     0.029 A 
ATOM     39  N   UNL     1      -1.324  -0.638  11.016  1.00  0.00    -0.354 N 
ATOM     40  C   UNL     1       2.805  -1.268  12.104  1.00  0.00     0.074 A 
ATOM     41  C   UNL     1       3.683  -1.017  10.983  1.00  0.00     0.031 C 
ATOM     42  C   UNL     1      -3.023  -0.081   9.674  1.00  0.00     0.029 A 
ATOM     43  C   UNL     1      -2.697  -0.585  11.008  1.00  0.00     0.049 A 
ATOM     44  H   UNL     1      -0.801  -0.926  11.799  1.00  0.00     0.167 HD
ATOM     45  C   UNL     1       3.231  -1.661  13.328  1.00  0.00     0.034 A 
ATOM     46  C   UNL     1      -3.588  -0.903  11.968  1.00  0.00     0.034 A 
ATOM     47  C   UNL     1       2.363  -1.885  14.452  1.00  0.00     0.049 A 
ATOM     48  C   UNL     1      -3.088  -1.335  13.322  1.00  0.00     0.074 A 
ATOM     49  C   UNL     1       2.703  -2.243  15.745  1.00  0.00     0.029 A 
ATOM     50  N   UNL     1       0.982  -1.780  14.415  1.00  0.00    -0.354 N 
ATOM     51  N   UNL     1      -1.854  -1.448  13.751  1.00  0.00    -0.248 NA
ATOM     52  C   UNL     1      -4.105  -1.640  14.340  1.00  0.00     0.031 C 
ATOM     53  C   UNL     1       1.523  -2.369  16.487  1.00  0.00     0.029 A 
ATOM     54  C   UNL     1       0.452  -2.072  15.660  1.00  0.00     0.049 A 
ATOM     55  H   UNL     1       0.455  -1.534  13.621  1.00  0.00     0.167 HD
ATOM     56  C   UNL     1      -1.946  -1.802  15.094  1.00  0.00     0.074 A 
ATOM     57  C   UNL     1      -3.357  -1.861  15.413  1.00  0.00     0.031 C 
ATOM     58  C   UNL     1      -0.953  -2.070  15.979  1.00  0.00     0.034 A 
BRANCH  45  59
ATOM     59  C   UNL     1       4.714  -1.834  13.526  1.00  0.00     0.023 A 
ATOM     60  C   UNL     1       5.538  -0.693  13.622  1.00  0.00     0.012 A 
ATOM     61  C   UNL     1       5.285  -3.113  13.665  1.00  0.00     0.148 A 
ATOM     62  C   UNL     1       6.911  -0.824  13.824  1.00  0.00     0.002 A 
ATOM     63  C   UNL     1       6.649  -3.234  13.906  1.00  0.00     0.091 A 
ATOM     64  F   UNL     1       4.490  -4.186  13.545  1.00  0.00    -0.205 F 
ATOM     65  C   UNL     1       7.464  -2.092  13.976  1.00  0.00     0.022 A 
BRANCH  63  66
ATOM     66  S   UNL     1       7.443  -4.822  14.186  1.00  0.00     0.127 S 
ATOM     67  O   UNL     1       8.168  -5.015  12.931  1.00  0.00    -0.237 OA
ATOM     68  O   UNL     1       8.293  -4.543  15.344  1.00  0.00    -0.237 OA
ATOM     69  O   UNL     1       6.365  -5.767  14.441  1.00  0.00    -0.744 OA
ENDBRANCH  63  66
ENDBRANCH  45  59
BRANCH  46  70
ATOM     70  C   UNL     1      -5.048  -0.763  11.701  1.00  0.00     0.023 A 
ATOM     71  C   UNL     1      -5.780   0.248  12.353  1.00  0.00     0.012 A 
ATOM     72  C   UNL     1      -5.708  -1.612  10.792  1.00  0.00     0.148 A 
ATOM     73  C   UNL     1      -7.149   0.393  12.126  1.00  0.00     0.002 A 
ATOM     74  C   UNL     1      -7.060  -1.427  10.529  1.00  0.00     0.091 A 
ATOM     75  F   UNL     1      -4.999  -2.582  10.198  1.00  0.00    -0.205 F 
ATOM     76  C   UNL     1      -7.787  -0.436  11.207  1.00  0.00     0.022 A 
BRANCH  74  77
ATOM     77  S   UNL     1      -7.928  -2.365   9.266  1.00  0.00     0.127 S 
ATOM     78  O   UNL     1      -8.741  -3.272  10.070  1.00  0.00    -0.237 OA
ATOM     79  O   UNL     1      -8.677  -1.317   8.570  1.00  0.00    -0.237 OA
ATOM     80  O   UNL     1      -6.887  -2.988   8.460  1.00  0.00    -0.744 OA
ENDBRANCH  74  77
ENDBRANCH  46  70
BRANCH  58  81
ATOM     81  C   UNL     1      -1.351  -2.426  17.388  1.00  0.00     0.023 A 
ATOM     82  C   UNL     1      -1.922  -3.686  17.655  1.00  0.00     0.012 A 
ATOM     83  C   UNL     1      -1.097  -1.542  18.456  1.00  0.00     0.148 A 
ATOM     84  C   UNL     1      -2.268  -4.047  18.957  1.00  0.00     0.002 A 
ATOM     85  C   UNL     1      -1.402  -1.927  19.757  1.00  0.00     0.091 A 
ATOM     86  F   UNL     1      -0.572  -0.339  18.183  1.00  0.00    -0.205 F 
ATOM     87  C   UNL     1      -1.998  -3.173  20.008  1.00  0.00     0.022 A 
BRANCH  85  88
ATOM     88  S   UNL     1      -1.000  -0.898  21.174  1.00  0.00     0.127 S 
ATOM     89  O   UNL     1      -2.290  -0.279  21.470  1.00  0.00    -0.237 OA
ATOM     90  O   UNL     1      -0.554  -1.881  22.163  1.00  0.00    -0.237 OA
ATOM     91  O   UNL     1       0.047   0.008  20.717  1.00  0.00    -0.744 OA
ENDBRANCH  85  88
ENDBRANCH  58  81
ENDBRANCH  32  33
ENDBRANCH  25  27
ENDBRANCH  24  25
ENDBRANCH  23  24
ENDBRANCH   1  23
TORSDOF 18
