REMARK SMILES CCc1ccc(OCC(=O)Nc2cc(C)c(O)c(C(=O)OCCOCCOC(=O)c3ccc(-c4c5nc(c(-c6cccc(S(=O)(=O)[O-])c6F)c6ccc([nH]6)c(-c6cccc(S(=O)(=O)[O-])c6F)c6nc(c(-c7cccc(S(=O)(=O)[O-])c7F)c7ccc4[nH]7)C=C6)C=C5)cc3)c2)cc1
REMARK SMILES IDX 23 1 22 2 21 3 19 4 20 5 18 6 12 7 13 8 93 9 14 10 15 11
REMARK SMILES IDX 16 12 11 13 9 14 10 15 8 17 7 18 6 19 3 20 4 21 95 22 5 23
REMARK SMILES IDX 94 24 2 25 1 26 17 27 24 29 25 30 26 31 27 32 28 33 29 34
REMARK SMILES IDX 30 35 31 36 92 37 32 38 91 39 33 40 34 41 35 42 85 43 36 44
REMARK SMILES IDX 90 45 84 46 86 47 37 48 89 49 83 50 82 51 38 53 70 54 50 55
REMARK SMILES IDX 69 56 51 57 54 58 68 59 87 60 52 61 53 62 67 64 88 65 55 66
REMARK SMILES IDX 39 67 40 68 48 69 41 70 43 71 49 72 42 73 44 74 45 75 46 76
REMARK SMILES IDX 47 77 71 78 72 79 80 80 73 81 75 82 81 83 74 84 76 85 77 86
REMARK SMILES IDX 78 87 79 88 56 89 57 90 65 91 58 92 60 93 66 94 59 95 61 96
REMARK SMILES IDX 62 97 63 98 64 99
REMARK H PARENT 11 16 17 28 86 52 54 63
REMARK Flexibility Score: inf
ROOT
ATOM      1  C   UNL     1       6.117   3.490  -2.546  1.00  0.00     0.202 C 
ENDROOT
BRANCH   1   2
ATOM      2  C   UNL     1       6.187   4.924  -2.013  1.00  0.00     0.261 C 
BRANCH   2   3
ATOM      3  O   UNL     1       4.976   5.631  -2.322  1.00  0.00    -0.460 OA
BRANCH   3   4
ATOM      4  C   UNL     1       5.039   6.467  -3.383  1.00  0.00     0.342 C 
ATOM      5  O   UNL     1       6.038   6.793  -4.008  1.00  0.00    -0.246 OA
BRANCH   4   6
ATOM      6  C   UNL     1       3.678   6.813  -3.859  1.00  0.00     0.104 A 
ATOM      7  C   UNL     1       1.298   7.064  -3.443  1.00  0.00     0.042 A 
ATOM      8  C   UNL     1       1.117   7.328  -4.809  1.00  0.00     0.033 A 
ATOM      9  C   UNL     1       2.579   6.776  -2.989  1.00  0.00     0.045 A 
ATOM     10  C   UNL     1       2.201   7.362  -5.704  1.00  0.00    -0.006 A 
ATOM     11  C   UNL     1       1.957   7.723  -7.141  1.00  0.00     0.048 C 
ATOM     12  C   UNL     1       3.487   7.123  -5.212  1.00  0.00     0.133 A 
BRANCH   7  13
ATOM     13  N   UNL     1       0.147   7.096  -2.641  1.00  0.00    -0.323 N 
ATOM     14  C   UNL     1      -0.070   7.212  -1.298  1.00  0.00     0.262 C 
ATOM     15  O   UNL     1      -1.252   7.218  -0.929  1.00  0.00    -0.271 OA
ATOM     16  H   UNL     1      -0.686   7.019  -3.160  1.00  0.00     0.170 HD
BRANCH  14  17
ATOM     17  C   UNL     1       1.057   7.468  -0.283  1.00  0.00     0.329 C 
BRANCH  17  18
ATOM     18  O   UNL     1       1.956   6.433   0.068  1.00  0.00    -0.484 OA
BRANCH  18  19
ATOM     19  C   UNL     1       1.410   5.215   0.346  1.00  0.00     0.120 A 
ATOM     20  C   UNL     1       0.478   2.607   0.810  1.00  0.00    -0.048 A 
ATOM     21  C   UNL     1       1.731   2.830   0.228  1.00  0.00     0.007 A 
ATOM     22  C   UNL     1      -0.291   3.713   1.179  1.00  0.00     0.007 A 
ATOM     23  C   UNL     1       2.198   4.122   0.003  1.00  0.00     0.047 A 
ATOM     24  C   UNL     1       0.177   5.012   0.959  1.00  0.00     0.047 A 
BRANCH  20  25
ATOM     25  C   UNL     1      -0.004   1.206   1.097  1.00  0.00     0.032 C 
ATOM     26  C   UNL     1      -0.307   0.404  -0.162  1.00  0.00     0.009 C 
ENDBRANCH  20  25
ENDBRANCH  18  19
ENDBRANCH  17  18
ENDBRANCH  14  17
ENDBRANCH   7  13
BRANCH  12  27
ATOM     27  O   UNL     1       4.529   7.172  -6.103  1.00  0.00    -0.507 OA
ATOM     28  H   UNL     1       4.368   7.382  -7.001  1.00  0.00     0.293 HD
ENDBRANCH  12  27
ENDBRANCH   4   6
ENDBRANCH   3   4
ENDBRANCH   2   3
ENDBRANCH   1   2
BRANCH   1  29
ATOM     29  O   UNL     1       6.080   3.381  -3.973  1.00  0.00    -0.374 OA
BRANCH  29  30
ATOM     30  C   UNL     1       4.778   3.393  -4.561  1.00  0.00     0.202 C 
BRANCH  30  31
ATOM     31  C   UNL     1       4.050   2.046  -4.623  1.00  0.00     0.261 C 
BRANCH  31  32
ATOM     32  O   UNL     1       3.853   1.468  -3.326  1.00  0.00    -0.460 OA
BRANCH  32  33
ATOM     33  C   UNL     1       4.795   0.570  -2.946  1.00  0.00     0.338 C 
ATOM     34  O   UNL     1       5.749   0.172  -3.595  1.00  0.00    -0.246 OA
BRANCH  33  35
ATOM     35  C   UNL     1       4.564   0.228  -1.533  1.00  0.00     0.060 A 
ATOM     36  C   UNL     1       5.604   0.363  -0.608  1.00  0.00     0.016 A 
ATOM     37  C   UNL     1       3.317  -0.233  -1.124  1.00  0.00     0.016 A 
ATOM     38  C   UNL     1       5.402   0.004   0.731  1.00  0.00     0.010 A 
ATOM     39  C   UNL     1       3.113  -0.547   0.220  1.00  0.00     0.010 A 
ATOM     40  C   UNL     1       4.157  -0.478   1.159  1.00  0.00    -0.014 A 
BRANCH  40  41
ATOM     41  C   UNL     1       3.961  -1.040   2.530  1.00  0.00     0.031 A 
ATOM     42  C   UNL     1       3.499  -2.476   2.679  1.00  0.00     0.074 A 
ATOM     43  C   UNL     1       4.134  -0.290   3.640  1.00  0.00     0.049 A 
ATOM     44  N   UNL     1       3.216  -3.148   3.766  1.00  0.00    -0.248 NA
ATOM     45  C   UNL     1       3.273  -3.243   1.441  1.00  0.00     0.031 C 
ATOM     46  C   UNL     1       4.471   1.135   3.666  1.00  0.00     0.029 A 
ATOM     47  N   UNL     1       4.027  -0.625   4.971  1.00  0.00    -0.354 N 
ATOM     48  C   UNL     1       2.706  -4.370   3.336  1.00  0.00     0.074 A 
ATOM     49  C   UNL     1       2.668  -4.329   1.894  1.00  0.00     0.031 C 
ATOM     50  C   UNL     1       4.558   1.545   4.945  1.00  0.00     0.029 A 
ATOM     51  C   UNL     1       4.264   0.423   5.833  1.00  0.00     0.049 A 
ATOM     52  H   UNL     1       3.802  -1.533   5.279  1.00  0.00     0.167 HD
ATOM     53  C   UNL     1       2.347  -5.454   4.062  1.00  0.00     0.034 A 
ATOM     54  C   UNL     1       4.248   0.471   7.182  1.00  0.00     0.034 A 
ATOM     55  C   UNL     1       2.503  -5.552   5.485  1.00  0.00     0.049 A 
ATOM     56  C   UNL     1       3.960  -0.788   7.966  1.00  0.00     0.074 A 
ATOM     57  C   UNL     1       2.326  -6.662   6.292  1.00  0.00     0.029 A 
ATOM     58  N   UNL     1       2.874  -4.507   6.312  1.00  0.00    -0.354 N 
ATOM     59  N   UNL     1       3.679  -1.991   7.527  1.00  0.00    -0.248 NA
ATOM     60  C   UNL     1       4.031  -0.693   9.434  1.00  0.00     0.031 C 
ATOM     61  C   UNL     1       2.558  -6.278   7.615  1.00  0.00     0.029 A 
ATOM     62  C   UNL     1       2.920  -4.941   7.624  1.00  0.00     0.049 A 
ATOM     63  H   UNL     1       3.076  -3.592   6.011  1.00  0.00     0.167 HD
ATOM     64  C   UNL     1       3.582  -2.798   8.658  1.00  0.00     0.074 A 
ATOM     65  C   UNL     1       3.865  -1.955   9.800  1.00  0.00     0.031 C 
ATOM     66  C   UNL     1       3.269  -4.114   8.747  1.00  0.00     0.034 A 
BRANCH  53  67
ATOM     67  C   UNL     1       1.813  -6.657   3.329  1.00  0.00     0.023 A 
ATOM     68  C   UNL     1       2.669  -7.426   2.514  1.00  0.00     0.012 A 
ATOM     69  C   UNL     1       0.480  -7.071   3.515  1.00  0.00     0.148 A 
ATOM     70  C   UNL     1       2.197  -8.564   1.863  1.00  0.00     0.002 A 
ATOM     71  C   UNL     1       0.033  -8.239   2.910  1.00  0.00     0.091 A 
ATOM     72  F   UNL     1      -0.323  -6.319   4.281  1.00  0.00    -0.205 F 
ATOM     73  C   UNL     1       0.885  -8.977   2.072  1.00  0.00     0.022 A 
BRANCH  71  74
ATOM     74  S   UNL     1      -1.608  -8.913   3.191  1.00  0.00     0.127 S 
ATOM     75  O   UNL     1      -2.205  -8.799   1.861  1.00  0.00    -0.237 OA
ATOM     76  O   UNL     1      -1.306 -10.281   3.610  1.00  0.00    -0.237 OA
ATOM     77  O   UNL     1      -2.218  -8.079   4.218  1.00  0.00    -0.744 OA
ENDBRANCH  71  74
ENDBRANCH  53  67
BRANCH  54  78
ATOM     78  C   UNL     1       4.573   1.737   7.908  1.00  0.00     0.023 A 
ATOM     79  C   UNL     1       5.754   1.814   8.676  1.00  0.00     0.012 A 
ATOM     80  C   UNL     1       3.704   2.844   7.882  1.00  0.00     0.148 A 
ATOM     81  C   UNL     1       6.031   2.942   9.450  1.00  0.00     0.002 A 
ATOM     82  C   UNL     1       4.016   3.988   8.609  1.00  0.00     0.091 A 
ATOM     83  F   UNL     1       2.580   2.752   7.157  1.00  0.00    -0.205 F 
ATOM     84  C   UNL     1       5.166   4.030   9.412  1.00  0.00     0.022 A 
BRANCH  82  85
ATOM     85  S   UNL     1       3.026   5.484   8.527  1.00  0.00     0.127 S 
ATOM     86  O   UNL     1       2.401   5.503   9.847  1.00  0.00    -0.237 OA
ATOM     87  O   UNL     1       4.047   6.511   8.314  1.00  0.00    -0.237 OA
ATOM     88  O   UNL     1       2.122   5.295   7.401  1.00  0.00    -0.744 OA
ENDBRANCH  82  85
ENDBRANCH  54  78
BRANCH  66  89
ATOM     89  C   UNL     1       3.269  -4.754  10.111  1.00  0.00     0.023 A 
ATOM     90  C   UNL     1       2.264  -4.432  11.044  1.00  0.00     0.012 A 
ATOM     91  C   UNL     1       4.223  -5.739  10.436  1.00  0.00     0.148 A 
ATOM     92  C   UNL     1       2.235  -5.048  12.295  1.00  0.00     0.002 A 
ATOM     93  C   UNL     1       4.153  -6.390  11.662  1.00  0.00     0.091 A 
ATOM     94  F   UNL     1       5.179  -6.025   9.540  1.00  0.00    -0.205 F 
ATOM     95  C   UNL     1       3.170  -6.035  12.598  1.00  0.00     0.022 A 
BRANCH  93  96
ATOM     96  S   UNL     1       5.249  -7.746  12.095  1.00  0.00     0.127 S 
ATOM     97  O   UNL     1       6.112  -7.123  13.097  1.00  0.00    -0.237 OA
ATOM     98  O   UNL     1       4.317  -8.741  12.626  1.00  0.00    -0.237 OA
ATOM     99  O   UNL     1       5.911  -8.139  10.858  1.00  0.00    -0.744 OA
ENDBRANCH  93  96
ENDBRANCH  66  89
ENDBRANCH  40  41
ENDBRANCH  33  35
ENDBRANCH  32  33
ENDBRANCH  31  32
ENDBRANCH  30  31
ENDBRANCH  29  30
ENDBRANCH   1  29
TORSDOF 23
