REMARK SMILES Cc1cnn(C2(C(=O)OCCOCCOC(=O)c3ccc(-c4c5nc(c(-c6cccc(S(=O)(=O)[O-])c6F)c6ccc([nH]6)c(-c6cccc(S(=O)(=O)[O-])c6F)c6nc(c(-c7cccc(S(=O)(=O)[O-])c7F)c7ccc4[nH]7)C=C6)C=C5)cc3)CCN(C(=O)c3cc4ccccc4[nH]3)CC2)c1
REMARK SMILES IDX 13 1 12 2 11 3 10 4 9 5 7 6 8 7 6 8 81 9 96 10 82 11 95 12
REMARK SMILES IDX 83 13 84 14 85 15 5 16 1 17 2 18 3 19 97 20 4 21 86 22 87 23
REMARK SMILES IDX 94 24 88 25 93 26 89 28 92 29 90 30 91 31 14 32 15 33 16 34
REMARK SMILES IDX 17 35 18 36 19 37 80 38 20 39 79 40 21 41 22 42 23 43 73 44
REMARK SMILES IDX 24 45 78 46 72 47 74 48 25 49 77 50 71 51 70 52 26 54 58 55
REMARK SMILES IDX 38 56 57 57 39 58 42 59 56 60 75 61 40 62 41 63 55 65 76 66
REMARK SMILES IDX 43 67 27 68 28 69 36 70 29 71 31 72 37 73 30 74 32 75 33 76
REMARK SMILES IDX 34 77 35 78 59 79 60 80 68 81 61 82 63 83 69 84 62 85 64 86
REMARK SMILES IDX 65 87 66 88 67 89 44 90 45 91 53 92 46 93 48 94 54 95 47 96
REMARK SMILES IDX 49 97 50 98 51 99 52 100
REMARK H PARENT 94 27 74 53 42 64
REMARK Flexibility Score: inf
ROOT
ATOM      1  C   UNL     1      -1.909  -3.425   5.001  1.00  0.00     0.202 C 
ENDROOT
BRANCH   1   2
ATOM      2  O   UNL     1      -1.526  -4.077   6.211  1.00  0.00    -0.374 OA
BRANCH   2   3
ATOM      3  C   UNL     1      -1.536  -3.368   7.450  1.00  0.00     0.202 C 
BRANCH   3   4
ATOM      4  C   UNL     1      -0.638  -2.144   7.619  1.00  0.00     0.261 C 
BRANCH   4   5
ATOM      5  O   UNL     1      -0.888  -1.135   6.630  1.00  0.00    -0.461 OA
BRANCH   5   6
ATOM      6  C   UNL     1       0.151  -0.883   5.782  1.00  0.00     0.334 C 
ATOM      7  O   UNL     1       1.270  -1.376   5.921  1.00  0.00    -0.249 OA
BRANCH   6   8
ATOM      8  C   UNL     1      -0.173   0.196   4.725  1.00  0.00     0.163 C 
ATOM      9  C   UNL     1      -1.641   0.692   4.752  1.00  0.00     0.064 C 
ATOM     10  C   UNL     1       0.776   1.309   5.203  1.00  0.00     0.064 C 
ATOM     11  C   UNL     1      -1.829   2.071   4.116  1.00  0.00     0.123 C 
ATOM     12  C   UNL     1       0.537   2.668   4.603  1.00  0.00     0.123 C 
ATOM     13  N   UNL     1      -0.866   3.047   4.622  1.00  0.00    -0.337 N 
ATOM     14  C   UNL     1      -1.320   4.302   5.054  1.00  0.00     0.270 C 
ATOM     15  O   UNL     1      -2.501   4.516   5.304  1.00  0.00    -0.267 OA
BRANCH   8  16
ATOM     16  N   UNL     1       0.169  -0.321   3.383  1.00  0.00    -0.255 N 
ATOM     17  C   UNL     1       1.093  -0.269  -0.159  1.00  0.00     0.048 C 
ATOM     18  C   UNL     1       0.715  -0.538   1.244  1.00  0.00    -0.013 A 
ATOM     19  C   UNL     1       0.573  -1.779   1.886  1.00  0.00     0.138 A 
ATOM     20  C   UNL     1       0.399   0.377   2.225  1.00  0.00     0.113 A 
ATOM     21  N   UNL     1       0.187  -1.654   3.154  1.00  0.00    -0.180 NA
ENDBRANCH   8  16
BRANCH  14  22
ATOM     22  C   UNL     1      -0.313   5.319   5.279  1.00  0.00     0.105 A 
ATOM     23  C   UNL     1       0.816   5.659   4.552  1.00  0.00     0.042 A 
ATOM     24  N   UNL     1      -0.344   6.170   6.361  1.00  0.00    -0.351 N 
ATOM     25  C   UNL     1       1.635   6.464   5.381  1.00  0.00     0.000 A 
ATOM     26  C   UNL     1       0.879   6.789   6.506  1.00  0.00     0.046 A 
ATOM     27  H   UNL     1      -1.123   6.315   6.945  1.00  0.00     0.167 HD
ATOM     28  C   UNL     1       2.963   6.918   5.292  1.00  0.00     0.010 A 
ATOM     29  C   UNL     1       1.376   7.592   7.537  1.00  0.00     0.026 A 
ATOM     30  C   UNL     1       3.489   7.688   6.332  1.00  0.00     0.001 A 
ATOM     31  C   UNL     1       2.701   8.029   7.431  1.00  0.00     0.002 A 
ENDBRANCH  14  22
ENDBRANCH   6   8
ENDBRANCH   5   6
ENDBRANCH   4   5
ENDBRANCH   3   4
ENDBRANCH   2   3
ENDBRANCH   1   2
BRANCH   1  32
ATOM     32  C   UNL     1      -3.376  -3.086   4.779  1.00  0.00     0.261 C 
BRANCH  32  33
ATOM     33  O   UNL     1      -3.843  -2.203   5.785  1.00  0.00    -0.460 OA
BRANCH  33  34
ATOM     34  C   UNL     1      -4.508  -2.821   6.781  1.00  0.00     0.338 C 
ATOM     35  O   UNL     1      -4.639  -4.028   6.947  1.00  0.00    -0.246 OA
BRANCH  34  36
ATOM     36  C   UNL     1      -5.160  -1.807   7.612  1.00  0.00     0.060 A 
ATOM     37  C   UNL     1      -6.116  -2.328   8.484  1.00  0.00     0.016 A 
ATOM     38  C   UNL     1      -5.184  -0.479   7.161  1.00  0.00     0.016 A 
ATOM     39  C   UNL     1      -7.300  -1.651   8.578  1.00  0.00     0.010 A 
ATOM     40  C   UNL     1      -6.373   0.192   7.245  1.00  0.00     0.010 A 
ATOM     41  C   UNL     1      -7.440  -0.468   7.845  1.00  0.00    -0.014 A 
BRANCH  41  42
ATOM     42  C   UNL     1      -8.764   0.089   7.763  1.00  0.00     0.031 A 
ATOM     43  C   UNL     1      -9.148   0.766   9.014  1.00  0.00     0.074 A 
ATOM     44  C   UNL     1      -9.492   0.009   6.635  1.00  0.00     0.049 A 
ATOM     45  N   UNL     1     -10.034   0.389   9.872  1.00  0.00    -0.248 NA
ATOM     46  C   UNL     1      -8.275   1.856   9.477  1.00  0.00     0.031 C 
ATOM     47  C   UNL     1      -9.055  -0.391   5.293  1.00  0.00     0.029 A 
ATOM     48  N   UNL     1     -10.762   0.434   6.430  1.00  0.00    -0.354 N 
ATOM     49  C   UNL     1      -9.978   1.342  10.883  1.00  0.00     0.074 A 
ATOM     50  C   UNL     1      -8.739   2.049  10.709  1.00  0.00     0.031 C 
ATOM     51  C   UNL     1      -9.944   0.082   4.389  1.00  0.00     0.029 A 
ATOM     52  C   UNL     1     -11.051   0.702   5.099  1.00  0.00     0.049 A 
ATOM     53  H   UNL     1     -11.418   0.542   7.156  1.00  0.00     0.167 HD
ATOM     54  C   UNL     1     -11.079   1.661  11.610  1.00  0.00     0.034 A 
ATOM     55  C   UNL     1     -12.052   1.506   4.659  1.00  0.00     0.034 A 
ATOM     56  C   UNL     1     -12.104   0.658  11.473  1.00  0.00     0.049 A 
ATOM     57  C   UNL     1     -13.023   1.651   5.774  1.00  0.00     0.074 A 
ATOM     58  C   UNL     1     -12.196  -0.685  11.777  1.00  0.00     0.029 A 
ATOM     59  N   UNL     1     -13.111   0.920  10.574  1.00  0.00    -0.354 N 
ATOM     60  N   UNL     1     -13.734   0.662   6.242  1.00  0.00    -0.248 NA
ATOM     61  C   UNL     1     -12.857   2.781   6.676  1.00  0.00     0.031 C 
ATOM     62  C   UNL     1     -12.954  -1.252  10.712  1.00  0.00     0.029 A 
ATOM     63  C   UNL     1     -13.331  -0.221   9.848  1.00  0.00     0.049 A 
ATOM     64  H   UNL     1     -13.588   1.774  10.471  1.00  0.00     0.167 HD
ATOM     65  C   UNL     1     -13.713   0.840   7.620  1.00  0.00     0.074 A 
ATOM     66  C   UNL     1     -13.249   2.212   7.821  1.00  0.00     0.031 C 
ATOM     67  C   UNL     1     -13.776  -0.227   8.471  1.00  0.00     0.034 A 
BRANCH  54  68
ATOM     68  C   UNL     1     -11.384   3.045  12.134  1.00  0.00     0.023 A 
ATOM     69  C   UNL     1     -12.520   3.174  12.961  1.00  0.00     0.012 A 
ATOM     70  C   UNL     1     -10.800   4.243  11.658  1.00  0.00     0.148 A 
ATOM     71  C   UNL     1     -13.082   4.422  13.245  1.00  0.00     0.002 A 
ATOM     72  C   UNL     1     -11.315   5.485  12.007  1.00  0.00     0.091 A 
ATOM     73  F   UNL     1      -9.822   4.209  10.750  1.00  0.00    -0.205 F 
ATOM     74  C   UNL     1     -12.477   5.580  12.772  1.00  0.00     0.022 A 
BRANCH  72  75
ATOM     75  S   UNL     1     -10.538   7.010  11.457  1.00  0.00     0.127 S 
ATOM     76  O   UNL     1     -11.466   7.454  10.421  1.00  0.00    -0.237 OA
ATOM     77  O   UNL     1     -10.547   7.809  12.683  1.00  0.00    -0.237 OA
ATOM     78  O   UNL     1      -9.205   6.632  11.005  1.00  0.00    -0.744 OA
ENDBRANCH  72  75
ENDBRANCH  54  68
BRANCH  55  79
ATOM     79  C   UNL     1     -12.026   2.447   3.512  1.00  0.00     0.023 A 
ATOM     80  C   UNL     1     -13.236   2.945   2.990  1.00  0.00     0.012 A 
ATOM     81  C   UNL     1     -10.823   3.068   3.106  1.00  0.00     0.148 A 
ATOM     82  C   UNL     1     -13.247   4.037   2.111  1.00  0.00     0.002 A 
ATOM     83  C   UNL     1     -10.837   4.141   2.222  1.00  0.00     0.091 A 
ATOM     84  F   UNL     1      -9.670   2.677   3.664  1.00  0.00    -0.205 F 
ATOM     85  C   UNL     1     -12.049   4.638   1.731  1.00  0.00     0.022 A 
BRANCH  83  86
ATOM     86  S   UNL     1      -9.324   4.967   1.709  1.00  0.00     0.127 S 
ATOM     87  O   UNL     1      -9.524   5.098   0.265  1.00  0.00    -0.237 OA
ATOM     88  O   UNL     1      -9.398   6.220   2.454  1.00  0.00    -0.237 OA
ATOM     89  O   UNL     1      -8.239   4.068   2.079  1.00  0.00    -0.744 OA
ENDBRANCH  83  86
ENDBRANCH  55  79
BRANCH  67  90
ATOM     90  C   UNL     1     -14.088  -1.583   7.886  1.00  0.00     0.023 A 
ATOM     91  C   UNL     1     -13.215  -2.238   6.991  1.00  0.00     0.012 A 
ATOM     92  C   UNL     1     -15.183  -2.291   8.405  1.00  0.00     0.148 A 
ATOM     93  C   UNL     1     -13.441  -3.565   6.611  1.00  0.00     0.002 A 
ATOM     94  C   UNL     1     -15.376  -3.623   8.065  1.00  0.00     0.091 A 
ATOM     95  F   UNL     1     -16.000  -1.654   9.258  1.00  0.00    -0.205 F 
ATOM     96  C   UNL     1     -14.513  -4.263   7.161  1.00  0.00     0.022 A 
BRANCH  94  97
ATOM     97  S   UNL     1     -16.652  -4.610   8.849  1.00  0.00     0.127 S 
ATOM     98  O   UNL     1     -17.656  -4.706   7.792  1.00  0.00    -0.237 OA
ATOM     99  O   UNL     1     -15.949  -5.861   9.141  1.00  0.00    -0.237 OA
ATOM    100  O   UNL     1     -17.058  -3.868  10.036  1.00  0.00    -0.744 OA
ENDBRANCH  94  97
ENDBRANCH  67  90
ENDBRANCH  41  42
ENDBRANCH  34  36
ENDBRANCH  33  34
ENDBRANCH  32  33
ENDBRANCH   1  32
TORSDOF 19
