REMARK SMILES CCCCCNC(=O)Oc1cccc(-c2ccc([C@@H](C)C(=O)OCCOCCOC(=O)c3ccc(-c4c5nc(c(-c6cccc(S(=O)(=O)[O-])c6F)c6ccc([nH]6)c(-c6cccc(S(=O)(=O)[O-])c6F)c6nc(c(-c7cccc(S(=O)(=O)[O-])c7F)c7ccc4[nH]7)C=C6)C=C5)cc3)cc2F)c1
REMARK SMILES IDX 24 1 23 2 21 3 22 4 19 5 20 6 18 7 15 8 16 9 96 10 17 11
REMARK SMILES IDX 95 12 97 13 14 14 10 15 11 16 98 17 12 18 13 19 9 20 7 21
REMARK SMILES IDX 6 22 8 24 5 25 4 26 3 27 2 28 1 29 25 30 26 31 27 32 28 33
REMARK SMILES IDX 29 34 30 35 31 36 32 37 33 38 94 39 34 40 93 41 35 42 36 43
REMARK SMILES IDX 37 44 87 45 38 46 92 47 86 48 88 49 39 50 91 51 85 52 84 53
REMARK SMILES IDX 40 55 72 56 52 57 71 58 53 59 56 60 70 61 89 62 54 63 55 64
REMARK SMILES IDX 69 66 90 67 57 68 41 69 42 70 50 71 43 72 45 73 51 74 44 75
REMARK SMILES IDX 46 76 47 77 48 78 49 79 73 80 74 81 82 82 75 83 77 84 83 85
REMARK SMILES IDX 76 86 78 87 79 88 80 89 81 90 58 91 59 92 67 93 60 94 62 95
REMARK SMILES IDX 68 96 61 97 63 98 64 99 65 100 66 101
REMARK H PARENT 6 23 88 54 56 65
REMARK Flexibility Score: inf
ROOT
ATOM      1  C   UNL     1      -3.223   6.984 -12.836  1.00  0.00     0.261 C 
ENDROOT
BRANCH   1   2
ATOM      2  O   UNL     1      -3.322   5.554 -12.947  1.00  0.00    -0.463 OA
BRANCH   2   3
ATOM      3  C   UNL     1      -2.414   4.955 -13.759  1.00  0.00     0.313 C 
ATOM      4  O   UNL     1      -1.605   5.556 -14.462  1.00  0.00    -0.252 OA
BRANCH   3   5
ATOM      5  C   UNL     1      -2.491   3.436 -13.753  1.00  0.00     0.126 C 
ATOM      6  C   UNL     1      -3.340   2.966 -14.929  1.00  0.00     0.025 C 
BRANCH   5   7
ATOM      7  C   UNL     1      -2.876   2.749 -12.447  1.00  0.00    -0.031 A 
ATOM      8  C   UNL     1      -3.549   1.305 -10.075  1.00  0.00     0.018 A 
ATOM      9  C   UNL     1      -4.490   2.121 -10.724  1.00  0.00     0.012 A 
ATOM     10  C   UNL     1      -2.265   1.247 -10.630  1.00  0.00     0.131 A 
ATOM     11  C   UNL     1      -4.160   2.831 -11.891  1.00  0.00     0.005 A 
ATOM     12  C   UNL     1      -1.929   1.950 -11.788  1.00  0.00     0.044 A 
ATOM     13  F   UNL     1      -1.317   0.481 -10.066  1.00  0.00    -0.206 F 
BRANCH   8  14
ATOM     14  C   UNL     1      -3.899   0.531  -8.871  1.00  0.00    -0.012 A 
ATOM     15  C   UNL     1      -3.493  -0.078  -6.553  1.00  0.00     0.133 A 
ATOM     16  C   UNL     1      -4.531  -1.006  -6.585  1.00  0.00     0.047 A 
ATOM     17  C   UNL     1      -3.163   0.672  -7.684  1.00  0.00     0.056 A 
ATOM     18  C   UNL     1      -5.271  -1.158  -7.754  1.00  0.00     0.004 A 
ATOM     19  C   UNL     1      -4.961  -0.393  -8.885  1.00  0.00     0.009 A 
BRANCH  15  20
ATOM     20  O   UNL     1      -2.731  -0.013  -5.374  1.00  0.00    -0.410 OA
BRANCH  20  21
ATOM     21  C   UNL     1      -2.509   1.233  -4.811  1.00  0.00     0.412 C 
ATOM     22  N   UNL     1      -1.727   1.197  -3.692  1.00  0.00    -0.321 N 
ATOM     23  H   UNL     1      -1.542   2.061  -3.258  1.00  0.00     0.167 HD
ATOM     24  O   UNL     1      -2.945   2.307  -5.231  1.00  0.00    -0.224 OA
BRANCH  22  25
ATOM     25  C   UNL     1      -1.140   0.025  -3.075  1.00  0.00     0.119 C 
BRANCH  25  26
ATOM     26  C   UNL     1       0.387   0.103  -3.036  1.00  0.00     0.021 C 
BRANCH  26  27
ATOM     27  C   UNL     1       0.960   1.251  -2.195  1.00  0.00     0.002 C 
BRANCH  27  28
ATOM     28  C   UNL     1       0.543   1.266  -0.722  1.00  0.00    -0.003 C 
ATOM     29  C   UNL     1       0.976   0.026   0.045  1.00  0.00     0.004 C 
ENDBRANCH  27  28
ENDBRANCH  26  27
ENDBRANCH  25  26
ENDBRANCH  22  25
ENDBRANCH  20  21
ENDBRANCH  15  20
ENDBRANCH   8  14
ENDBRANCH   5   7
ENDBRANCH   3   5
ENDBRANCH   2   3
ENDBRANCH   1   2
BRANCH   1  30
ATOM     30  C   UNL     1      -2.804   7.413 -11.427  1.00  0.00     0.202 C 
BRANCH  30  31
ATOM     31  O   UNL     1      -1.496   7.028 -11.002  1.00  0.00    -0.374 OA
BRANCH  31  32
ATOM     32  C   UNL     1      -1.308   5.669 -10.607  1.00  0.00     0.202 C 
BRANCH  32  33
ATOM     33  C   UNL     1      -1.860   5.249  -9.238  1.00  0.00     0.261 C 
BRANCH  33  34
ATOM     34  O   UNL     1      -3.294   5.314  -9.173  1.00  0.00    -0.460 OA
BRANCH  34  35
ATOM     35  C   UNL     1      -3.778   6.300  -8.377  1.00  0.00     0.338 C 
ATOM     36  O   UNL     1      -3.131   7.084  -7.701  1.00  0.00    -0.246 OA
BRANCH  35  37
ATOM     37  C   UNL     1      -5.230   6.456  -8.589  1.00  0.00     0.060 A 
ATOM     38  C   UNL     1      -5.697   7.742  -8.890  1.00  0.00     0.016 A 
ATOM     39  C   UNL     1      -6.124   5.397  -8.424  1.00  0.00     0.016 A 
ATOM     40  C   UNL     1      -7.065   7.989  -8.968  1.00  0.00     0.010 A 
ATOM     41  C   UNL     1      -7.500   5.648  -8.499  1.00  0.00     0.010 A 
ATOM     42  C   UNL     1      -7.977   6.953  -8.731  1.00  0.00    -0.014 A 
BRANCH  42  43
ATOM     43  C   UNL     1      -9.418   7.273  -8.584  1.00  0.00     0.031 A 
ATOM     44  C   UNL     1     -10.017   7.346  -7.204  1.00  0.00     0.074 A 
ATOM     45  C   UNL     1     -10.182   7.521  -9.663  1.00  0.00     0.049 A 
ATOM     46  N   UNL     1     -11.248   7.606  -6.849  1.00  0.00    -0.248 NA
ATOM     47  C   UNL     1      -9.106   7.092  -6.075  1.00  0.00     0.031 C 
ATOM     48  C   UNL     1      -9.719   7.492 -11.049  1.00  0.00     0.029 A 
ATOM     49  N   UNL     1     -11.517   7.827  -9.759  1.00  0.00    -0.354 N 
ATOM     50  C   UNL     1     -11.269   7.518  -5.462  1.00  0.00     0.074 A 
ATOM     51  C   UNL     1      -9.930   7.169  -5.040  1.00  0.00     0.031 C 
ATOM     52  C   UNL     1     -10.760   7.744 -11.861  1.00  0.00     0.029 A 
ATOM     53  C   UNL     1     -11.966   7.928 -11.055  1.00  0.00     0.049 A 
ATOM     54  H   UNL     1     -12.098   7.962  -8.976  1.00  0.00     0.167 HD
ATOM     55  C   UNL     1     -12.304   7.725  -4.613  1.00  0.00     0.034 A 
ATOM     56  C   UNL     1     -13.210   8.126 -11.535  1.00  0.00     0.034 A 
ATOM     57  C   UNL     1     -13.630   8.094  -5.031  1.00  0.00     0.049 A 
ATOM     58  C   UNL     1     -14.350   8.328 -10.571  1.00  0.00     0.074 A 
ATOM     59  C   UNL     1     -14.732   8.376  -4.243  1.00  0.00     0.029 A 
ATOM     60  N   UNL     1     -14.038   8.221  -6.349  1.00  0.00    -0.354 N 
ATOM     61  N   UNL     1     -14.328   8.360  -9.261  1.00  0.00    -0.248 NA
ATOM     62  C   UNL     1     -15.681   8.556 -11.153  1.00  0.00     0.031 C 
ATOM     63  C   UNL     1     -15.816   8.643  -5.087  1.00  0.00     0.029 A 
ATOM     64  C   UNL     1     -15.379   8.561  -6.399  1.00  0.00     0.049 A 
ATOM     65  H   UNL     1     -13.459   8.089  -7.135  1.00  0.00     0.167 HD
ATOM     66  C   UNL     1     -15.630   8.646  -8.863  1.00  0.00     0.074 A 
ATOM     67  C   UNL     1     -16.412   8.798 -10.073  1.00  0.00     0.031 C 
ATOM     68  C   UNL     1     -16.136   8.761  -7.609  1.00  0.00     0.034 A 
BRANCH  55  69
ATOM     69  C   UNL     1     -12.039   7.577  -3.138  1.00  0.00     0.023 A 
ATOM     70  C   UNL     1     -11.284   8.557  -2.461  1.00  0.00     0.012 A 
ATOM     71  C   UNL     1     -12.582   6.499  -2.411  1.00  0.00     0.148 A 
ATOM     72  C   UNL     1     -11.047   8.450  -1.091  1.00  0.00     0.002 A 
ATOM     73  C   UNL     1     -12.379   6.423  -1.038  1.00  0.00     0.091 A 
ATOM     74  F   UNL     1     -13.278   5.566  -3.075  1.00  0.00    -0.205 F 
ATOM     75  C   UNL     1     -11.603   7.391  -0.379  1.00  0.00     0.022 A 
BRANCH  73  76
ATOM     76  S   UNL     1     -13.118   5.141  -0.020  1.00  0.00     0.127 S 
ATOM     77  O   UNL     1     -11.952   4.332   0.331  1.00  0.00    -0.237 OA
ATOM     78  O   UNL     1     -13.679   5.913   1.090  1.00  0.00    -0.237 OA
ATOM     79  O   UNL     1     -14.107   4.481  -0.860  1.00  0.00    -0.744 OA
ENDBRANCH  73  76
ENDBRANCH  55  69
BRANCH  56  80
ATOM     80  C   UNL     1     -13.438   8.172 -13.007  1.00  0.00     0.023 A 
ATOM     81  C   UNL     1     -13.799   9.388 -13.619  1.00  0.00     0.012 A 
ATOM     82  C   UNL     1     -13.283   7.021 -13.805  1.00  0.00     0.148 A 
ATOM     83  C   UNL     1     -14.028   9.452 -14.994  1.00  0.00     0.002 A 
ATOM     84  C   UNL     1     -13.458   7.104 -15.181  1.00  0.00     0.091 A 
ATOM     85  F   UNL     1     -12.958   5.870 -13.201  1.00  0.00    -0.205 F 
ATOM     86  C   UNL     1     -13.848   8.314 -15.776  1.00  0.00     0.022 A 
BRANCH  84  87
ATOM     87  S   UNL     1     -13.120   5.723 -16.279  1.00  0.00     0.127 S 
ATOM     88  O   UNL     1     -14.460   5.368 -16.735  1.00  0.00    -0.237 OA
ATOM     89  O   UNL     1     -12.268   6.347 -17.293  1.00  0.00    -0.237 OA
ATOM     90  O   UNL     1     -12.444   4.725 -15.460  1.00  0.00    -0.744 OA
ENDBRANCH  84  87
ENDBRANCH  56  80
BRANCH  68  91
ATOM     91  C   UNL     1     -17.597   9.104  -7.469  1.00  0.00     0.023 A 
ATOM     92  C   UNL     1     -18.578   8.138  -7.773  1.00  0.00     0.012 A 
ATOM     93  C   UNL     1     -17.996  10.357  -6.963  1.00  0.00     0.148 A 
ATOM     94  C   UNL     1     -19.932   8.426  -7.606  1.00  0.00     0.002 A 
ATOM     95  C   UNL     1     -19.345  10.619  -6.752  1.00  0.00     0.091 A 
ATOM     96  F   UNL     1     -17.050  11.269  -6.695  1.00  0.00    -0.205 F 
ATOM     97  C   UNL     1     -20.315   9.660  -7.085  1.00  0.00     0.022 A 
BRANCH  95  98
ATOM     98  S   UNL     1     -19.924  12.142  -5.995  1.00  0.00     0.127 S 
ATOM     99  O   UNL     1     -20.526  12.832  -7.136  1.00  0.00    -0.237 OA
ATOM    100  O   UNL     1     -20.883  11.652  -5.004  1.00  0.00    -0.237 OA
ATOM    101  O   UNL     1     -18.745  12.783  -5.429  1.00  0.00    -0.744 OA
ENDBRANCH  95  98
ENDBRANCH  68  91
ENDBRANCH  42  43
ENDBRANCH  35  37
ENDBRANCH  34  35
ENDBRANCH  33  34
ENDBRANCH  32  33
ENDBRANCH  31  32
ENDBRANCH  30  31
ENDBRANCH   1  30
TORSDOF 25
