REMARK SMILES C[C@H]1[C@@H](C(=O)OCCOCCOC(=O)c2ccc(-c3c4nc(c(-c5cccc(S(=O)(=O)[O-])c5F)c5ccc([nH]5)c(-c5cccc(S(=O)(=O)[O-])c5F)c5nc(c(-c6cccc(S(=O)(=O)[O-])c6F)c6ccc3[nH]6)C=C5)C=C4)cc2)CCN1C(=O)N[C@@H]1CC[N@H+]2CCCC[C@H]12
REMARK SMILES IDX 10 1 9 2 8 3 7 4 6 5 4 6 5 7 3 8 1 9 2 10 80 11 78 12 79 13
REMARK SMILES IDX 81 14 82 15 83 16 84 18 85 19 92 20 86 21 87 22 91 23 88 24
REMARK SMILES IDX 90 26 89 27 11 28 12 29 13 30 14 31 15 32 16 33 77 34 17 35
REMARK SMILES IDX 76 36 18 37 19 38 20 39 70 40 21 41 75 42 69 43 71 44 22 45
REMARK SMILES IDX 74 46 68 47 67 48 23 50 55 51 35 52 54 53 36 54 39 55 53 56
REMARK SMILES IDX 72 57 37 58 38 59 52 61 73 62 40 63 24 64 25 65 33 66 26 67
REMARK SMILES IDX 28 68 34 69 27 70 29 71 30 72 31 73 32 74 56 75 57 76 65 77
REMARK SMILES IDX 58 78 60 79 66 80 59 81 61 82 62 83 63 84 64 85 41 86 42 87
REMARK SMILES IDX 50 88 43 89 45 90 51 91 44 92 46 93 47 94 48 95 49 96
REMARK H PARENT 83 17 87 25 71 49 39 60
REMARK Flexibility Score: inf
ROOT
ATOM      1  C   UNL     1      -1.192  -2.083  -2.219  1.00  0.00     0.202 C 
ENDROOT
BRANCH   1   2
ATOM      2  O   UNL     1      -1.651  -2.386  -3.530  1.00  0.00    -0.374 OA
BRANCH   2   3
ATOM      3  C   UNL     1      -2.245  -3.676  -3.725  1.00  0.00     0.202 C 
BRANCH   3   4
ATOM      4  C   UNL     1      -1.309  -4.889  -3.624  1.00  0.00     0.261 C 
BRANCH   4   5
ATOM      5  O   UNL     1      -0.950  -5.111  -2.246  1.00  0.00    -0.463 OA
BRANCH   5   6
ATOM      6  C   UNL     1       0.353  -5.411  -1.988  1.00  0.00     0.311 C 
ATOM      7  O   UNL     1       1.198  -5.679  -2.830  1.00  0.00    -0.252 OA
BRANCH   6   8
ATOM      8  C   UNL     1       0.620  -5.292  -0.499  1.00  0.00     0.123 C 
ATOM      9  C   UNL     1       1.677  -2.963  -1.086  1.00  0.00     0.032 C 
ATOM     10  C   UNL     1       1.454  -4.062  -0.051  1.00  0.00     0.098 C 
ATOM     11  N   UNL     1       2.734  -4.586   0.412  1.00  0.00    -0.321 N 
ATOM     12  C   UNL     1       1.424  -6.493  -0.002  1.00  0.00     0.039 C 
ATOM     13  C   UNL     1       2.853  -5.980   0.015  1.00  0.00     0.122 C 
BRANCH  11  14
ATOM     14  C   UNL     1       3.803  -3.949   0.969  1.00  0.00     0.318 C 
ATOM     15  O   UNL     1       4.893  -4.519   1.086  1.00  0.00    -0.249 OA
ATOM     16  N   UNL     1       3.763  -2.672   1.403  1.00  0.00    -0.329 N 
ATOM     17  H   UNL     1       4.667  -2.328   1.587  1.00  0.00     0.165 HD
BRANCH  16  18
ATOM     18  C   UNL     1       2.742  -1.657   1.675  1.00  0.00     0.147 C 
ATOM     19  C   UNL     1       2.839  -0.467   0.696  1.00  0.00     0.092 C 
ATOM     20  C   UNL     1       2.881  -0.973   3.057  1.00  0.00     0.207 C 
ATOM     21  C   UNL     1       2.857   0.790   1.556  1.00  0.00     0.264 C 
ATOM     22  N   UNL     1       3.527   0.316   2.756  1.00  0.00    -0.331 N 
ATOM     23  C   UNL     1       3.666  -1.685   4.153  1.00  0.00     0.067 C 
ATOM     24  C   UNL     1       3.442   1.230   3.890  1.00  0.00     0.262 C 
ATOM     25  H   UNL     1       4.531   0.234   2.593  1.00  0.00     0.348 HD
ATOM     26  C   UNL     1       3.691  -0.805   5.407  1.00  0.00     0.012 C 
ATOM     27  C   UNL     1       4.171   0.617   5.091  1.00  0.00     0.062 C 
ENDBRANCH  16  18
ENDBRANCH  11  14
ENDBRANCH   6   8
ENDBRANCH   5   6
ENDBRANCH   4   5
ENDBRANCH   3   4
ENDBRANCH   2   3
ENDBRANCH   1   2
BRANCH   1  28
ATOM     28  C   UNL     1      -2.171  -1.479  -1.210  1.00  0.00     0.261 C 
BRANCH  28  29
ATOM     29  O   UNL     1      -3.396  -2.204  -1.161  1.00  0.00    -0.460 OA
BRANCH  29  30
ATOM     30  C   UNL     1      -4.333  -1.684  -1.985  1.00  0.00     0.338 C 
ATOM     31  O   UNL     1      -4.277  -0.627  -2.600  1.00  0.00    -0.246 OA
BRANCH  30  32
ATOM     32  C   UNL     1      -5.389  -2.676  -2.199  1.00  0.00     0.060 A 
ATOM     33  C   UNL     1      -5.736  -2.944  -3.527  1.00  0.00     0.016 A 
ATOM     34  C   UNL     1      -6.054  -3.290  -1.135  1.00  0.00     0.016 A 
ATOM     35  C   UNL     1      -6.818  -3.763  -3.799  1.00  0.00     0.010 A 
ATOM     36  C   UNL     1      -7.146  -4.111  -1.409  1.00  0.00     0.010 A 
ATOM     37  C   UNL     1      -7.564  -4.294  -2.739  1.00  0.00    -0.014 A 
BRANCH  37  38
ATOM     38  C   UNL     1      -8.897  -4.849  -3.044  1.00  0.00     0.031 A 
ATOM     39  C   UNL     1     -10.101  -3.979  -2.818  1.00  0.00     0.074 A 
ATOM     40  C   UNL     1      -9.013  -6.071  -3.588  1.00  0.00     0.049 A 
ATOM     41  N   UNL     1     -11.356  -4.221  -3.085  1.00  0.00    -0.248 NA
ATOM     42  C   UNL     1      -9.860  -2.657  -2.212  1.00  0.00     0.031 C 
ATOM     43  C   UNL     1      -7.902  -6.984  -3.856  1.00  0.00     0.029 A 
ATOM     44  N   UNL     1     -10.123  -6.752  -4.009  1.00  0.00    -0.354 N 
ATOM     45  C   UNL     1     -12.055  -3.099  -2.658  1.00  0.00     0.074 A 
ATOM     46  C   UNL     1     -11.090  -2.182  -2.095  1.00  0.00     0.031 C 
ATOM     47  C   UNL     1      -8.392  -8.117  -4.388  1.00  0.00     0.029 A 
ATOM     48  C   UNL     1      -9.846  -8.012  -4.478  1.00  0.00     0.049 A 
ATOM     49  H   UNL     1     -11.032  -6.374  -3.979  1.00  0.00     0.167 HD
ATOM     50  C   UNL     1     -13.382  -2.847  -2.747  1.00  0.00     0.034 A 
ATOM     51  C   UNL     1     -10.681  -8.972  -4.918  1.00  0.00     0.034 A 
ATOM     52  C   UNL     1     -14.328  -3.760  -3.326  1.00  0.00     0.049 A 
ATOM     53  C   UNL     1     -12.154  -8.671  -4.993  1.00  0.00     0.074 A 
ATOM     54  C   UNL     1     -15.689  -3.594  -3.501  1.00  0.00     0.029 A 
ATOM     55  N   UNL     1     -14.011  -5.019  -3.814  1.00  0.00    -0.354 N 
ATOM     56  N   UNL     1     -12.789  -7.565  -4.685  1.00  0.00    -0.248 NA
ATOM     57  C   UNL     1     -13.020  -9.735  -5.518  1.00  0.00     0.031 C 
ATOM     58  C   UNL     1     -16.201  -4.768  -4.063  1.00  0.00     0.029 A 
ATOM     59  C   UNL     1     -15.151  -5.648  -4.279  1.00  0.00     0.049 A 
ATOM     60  H   UNL     1     -13.106  -5.408  -3.827  1.00  0.00     0.167 HD
ATOM     61  C   UNL     1     -14.122  -7.785  -5.014  1.00  0.00     0.074 A 
ATOM     62  C   UNL     1     -14.195  -9.123  -5.566  1.00  0.00     0.031 C 
ATOM     63  C   UNL     1     -15.191  -6.964  -4.864  1.00  0.00     0.034 A 
BRANCH  50  64
ATOM     64  C   UNL     1     -13.880  -1.530  -2.212  1.00  0.00     0.023 A 
ATOM     65  C   UNL     1     -13.579  -0.332  -2.893  1.00  0.00     0.012 A 
ATOM     66  C   UNL     1     -14.679  -1.483  -1.053  1.00  0.00     0.148 A 
ATOM     67  C   UNL     1     -14.037   0.894  -2.411  1.00  0.00     0.002 A 
ATOM     68  C   UNL     1     -15.171  -0.263  -0.606  1.00  0.00     0.091 A 
ATOM     69  F   UNL     1     -14.930  -2.628  -0.403  1.00  0.00    -0.205 F 
ATOM     70  C   UNL     1     -14.842   0.927  -1.275  1.00  0.00     0.022 A 
BRANCH  68  71
ATOM     71  S   UNL     1     -16.278  -0.123   0.802  1.00  0.00     0.127 S 
ATOM     72  O   UNL     1     -15.427   0.551   1.781  1.00  0.00    -0.237 OA
ATOM     73  O   UNL     1     -17.358   0.702   0.261  1.00  0.00    -0.237 OA
ATOM     74  O   UNL     1     -16.666  -1.484   1.146  1.00  0.00    -0.744 OA
ENDBRANCH  68  71
ENDBRANCH  50  64
BRANCH  51  75
ATOM     75  C   UNL     1     -10.138 -10.289  -5.351  1.00  0.00     0.023 A 
ATOM     76  C   UNL     1     -10.193 -10.658  -6.709  1.00  0.00     0.012 A 
ATOM     77  C   UNL     1      -9.548 -11.168  -4.423  1.00  0.00     0.148 A 
ATOM     78  C   UNL     1      -9.703 -11.896  -7.128  1.00  0.00     0.002 A 
ATOM     79  C   UNL     1      -9.010 -12.373  -4.856  1.00  0.00     0.091 A 
ATOM     80  F   UNL     1      -9.517 -10.802  -3.134  1.00  0.00    -0.205 F 
ATOM     81  C   UNL     1      -9.104 -12.748  -6.205  1.00  0.00     0.022 A 
BRANCH  79  82
ATOM     82  S   UNL     1      -8.104 -13.470  -3.760  1.00  0.00     0.127 S 
ATOM     83  O   UNL     1      -9.012 -14.609  -3.660  1.00  0.00    -0.237 OA
ATOM     84  O   UNL     1      -6.883 -13.718  -4.527  1.00  0.00    -0.237 OA
ATOM     85  O   UNL     1      -7.897 -12.716  -2.530  1.00  0.00    -0.744 OA
ENDBRANCH  79  82
ENDBRANCH  51  75
BRANCH  63  86
ATOM     86  C   UNL     1     -16.526  -7.471  -5.348  1.00  0.00     0.023 A 
ATOM     87  C   UNL     1     -17.182  -8.508  -4.655  1.00  0.00     0.012 A 
ATOM     88  C   UNL     1     -17.152  -6.879  -6.462  1.00  0.00     0.148 A 
ATOM     89  C   UNL     1     -18.417  -8.981  -5.093  1.00  0.00     0.002 A 
ATOM     90  C   UNL     1     -18.409  -7.318  -6.859  1.00  0.00     0.091 A 
ATOM     91  F   UNL     1     -16.506  -5.905  -7.119  1.00  0.00    -0.205 F 
ATOM     92  C   UNL     1     -19.035  -8.380  -6.187  1.00  0.00     0.022 A 
BRANCH  90  93
ATOM     93  S   UNL     1     -19.322  -6.532  -8.191  1.00  0.00     0.127 S 
ATOM     94  O   UNL     1     -19.199  -7.521  -9.261  1.00  0.00    -0.237 OA
ATOM     95  O   UNL     1     -20.664  -6.414  -7.620  1.00  0.00    -0.237 OA
ATOM     96  O   UNL     1     -18.658  -5.258  -8.434  1.00  0.00    -0.744 OA
ENDBRANCH  90  93
ENDBRANCH  63  86
ENDBRANCH  37  38
ENDBRANCH  30  32
ENDBRANCH  29  30
ENDBRANCH  28  29
ENDBRANCH   1  28
TORSDOF 19
