REMARK SMILES CCOC(=O)C1=NN(c2ccc(OC(F)(F)F)cc2)[C@@](C)(C(=O)OCCOCCOC(=O)c2ccc(-c3c4nc(c(-c5cccc(S(=O)(=O)[O-])c5F)c5ccc([nH]5)c(-c5cccc(S(=O)(=O)[O-])c5F)c5nc(c(-c6cccc(S(=O)(=O)[O-])c6F)c6ccc3[nH]6)C=C5)C=C4)cc2)C1
REMARK SMILES IDX 27 1 26 2 25 3 24 4 22 5 23 6 20 7 6 8 7 9 96 10 8 11 21 12
REMARK SMILES IDX 4 13 5 14 3 15 2 16 1 17 9 18 10 19 19 20 11 21 18 22 12 23
REMARK SMILES IDX 13 24 14 25 15 26 16 27 17 28 28 29 29 30 30 31 31 32 32 33
REMARK SMILES IDX 33 34 34 35 95 36 35 37 94 38 36 39 37 40 38 41 88 42 39 43
REMARK SMILES IDX 93 44 87 45 89 46 40 47 92 48 86 49 85 50 41 52 73 53 53 54
REMARK SMILES IDX 72 55 54 56 57 57 71 58 90 59 55 60 56 61 70 63 91 64 58 65
REMARK SMILES IDX 42 66 43 67 51 68 44 69 46 70 52 71 45 72 47 73 48 74 49 75
REMARK SMILES IDX 50 76 74 77 75 78 83 79 76 80 78 81 84 82 77 83 79 84 80 85
REMARK SMILES IDX 81 86 82 87 59 88 60 89 68 90 61 91 63 92 69 93 62 94 64 95
REMARK SMILES IDX 65 96 66 97 67 98
REMARK H PARENT 89 51 57 62
REMARK Flexibility Score: inf
ROOT
ATOM      1  O   UNL     1       6.904  -1.210   5.476  1.00  0.00    -0.374 OA
ENDROOT
BRANCH   1   2
ATOM      2  C   UNL     1       7.501  -0.475   6.543  1.00  0.00     0.202 C 
BRANCH   2   3
ATOM      3  C   UNL     1       7.450   1.054   6.463  1.00  0.00     0.261 C 
BRANCH   3   4
ATOM      4  O   UNL     1       6.112   1.573   6.353  1.00  0.00    -0.461 OA
BRANCH   4   5
ATOM      5  C   UNL     1       5.809   2.150   5.160  1.00  0.00     0.334 C 
ATOM      6  O   UNL     1       6.624   2.311   4.252  1.00  0.00    -0.249 OA
BRANCH   5   7
ATOM      7  C   UNL     1       4.353   2.639   5.030  1.00  0.00     0.163 C 
ATOM      8  C   UNL     1       3.080   1.060   3.925  1.00  0.00     0.149 C 
ATOM      9  N   UNL     1       2.773   0.869   5.169  1.00  0.00    -0.169 NA
ATOM     10  C   UNL     1       3.876   2.274   3.607  1.00  0.00     0.108 C 
ATOM     11  N   UNL     1       3.372   1.895   5.869  1.00  0.00    -0.248 N 
ATOM     12  C   UNL     1       4.399   4.151   5.202  1.00  0.00     0.050 C 
BRANCH   8  13
ATOM     13  C   UNL     1       2.644   0.143   2.822  1.00  0.00     0.354 C 
ATOM     14  O   UNL     1       3.414  -0.644   2.304  1.00  0.00    -0.245 OA
BRANCH  13  15
ATOM     15  O   UNL     1       1.358   0.389   2.512  1.00  0.00    -0.461 OA
BRANCH  15  16
ATOM     16  C   UNL     1       0.808  -0.448   1.487  1.00  0.00     0.230 C 
ATOM     17  C   UNL     1       1.084   0.148   0.119  1.00  0.00     0.049 C 
ENDBRANCH  15  16
ENDBRANCH  13  15
ENDBRANCH   8  13
BRANCH  11  18
ATOM     18  C   UNL     1       2.874   2.151   7.139  1.00  0.00     0.061 A 
ATOM     19  C   UNL     1       2.575   1.088   8.009  1.00  0.00     0.032 A 
ATOM     20  C   UNL     1       2.529   3.426   7.595  1.00  0.00     0.032 A 
ATOM     21  C   UNL     1       2.003   1.295   9.274  1.00  0.00     0.049 A 
ATOM     22  C   UNL     1       1.948   3.646   8.855  1.00  0.00     0.049 A 
ATOM     23  C   UNL     1       1.688   2.581   9.708  1.00  0.00     0.129 A 
BRANCH  23  24
ATOM     24  O   UNL     1       1.126   2.655  10.949  1.00  0.00    -0.406 OA
BRANCH  24  25
ATOM     25  C   UNL     1       0.793   3.943  11.443  1.00  0.00     0.573 C 
ATOM     26  F   UNL     1       1.876   4.744  11.507  1.00  0.00    -0.132 F 
ATOM     27  F   UNL     1      -0.148   4.526  10.665  1.00  0.00    -0.132 F 
ATOM     28  F   UNL     1       0.280   3.817  12.686  1.00  0.00    -0.132 F 
ENDBRANCH  24  25
ENDBRANCH  23  24
ENDBRANCH  11  18
ENDBRANCH   5   7
ENDBRANCH   4   5
ENDBRANCH   3   4
ENDBRANCH   2   3
ENDBRANCH   1   2
BRANCH   1  29
ATOM     29  C   UNL     1       5.477  -1.265   5.441  1.00  0.00     0.202 C 
BRANCH  29  30
ATOM     30  C   UNL     1       4.770  -2.141   6.482  1.00  0.00     0.261 C 
BRANCH  30  31
ATOM     31  O   UNL     1       4.967  -1.670   7.827  1.00  0.00    -0.460 OA
BRANCH  31  32
ATOM     32  C   UNL     1       5.688  -2.502   8.617  1.00  0.00     0.338 C 
ATOM     33  O   UNL     1       6.092  -3.618   8.332  1.00  0.00    -0.246 OA
BRANCH  32  34
ATOM     34  C   UNL     1       6.107  -1.807   9.850  1.00  0.00     0.060 A 
ATOM     35  C   UNL     1       7.469  -1.853  10.174  1.00  0.00     0.016 A 
ATOM     36  C   UNL     1       5.192  -1.206  10.716  1.00  0.00     0.016 A 
ATOM     37  C   UNL     1       7.912  -1.368  11.401  1.00  0.00     0.010 A 
ATOM     38  C   UNL     1       5.638  -0.723  11.952  1.00  0.00     0.010 A 
ATOM     39  C   UNL     1       6.991  -0.848  12.319  1.00  0.00    -0.014 A 
BRANCH  39  40
ATOM     40  C   UNL     1       7.432  -0.597  13.713  1.00  0.00     0.031 A 
ATOM     41  C   UNL     1       7.117  -1.617  14.774  1.00  0.00     0.074 A 
ATOM     42  C   UNL     1       8.135   0.506  14.025  1.00  0.00     0.049 A 
ATOM     43  N   UNL     1       7.440  -1.620  16.041  1.00  0.00    -0.248 NA
ATOM     44  C   UNL     1       6.335  -2.791  14.351  1.00  0.00     0.031 C 
ATOM     45  C   UNL     1       8.497   1.568  13.088  1.00  0.00     0.029 A 
ATOM     46  N   UNL     1       8.654   0.921  15.225  1.00  0.00    -0.354 N 
ATOM     47  C   UNL     1       6.877  -2.774  16.573  1.00  0.00     0.074 A 
ATOM     48  C   UNL     1       6.181  -3.442  15.495  1.00  0.00     0.031 C 
ATOM     49  C   UNL     1       9.155   2.530  13.756  1.00  0.00     0.029 A 
ATOM     50  C   UNL     1       9.249   2.159  15.167  1.00  0.00     0.049 A 
ATOM     51  H   UNL     1       8.605   0.384  16.049  1.00  0.00     0.167 HD
ATOM     52  C   UNL     1       6.947  -3.246  17.841  1.00  0.00     0.034 A 
ATOM     53  C   UNL     1       9.792   2.912  16.144  1.00  0.00     0.034 A 
ATOM     54  C   UNL     1       7.662  -2.596  18.905  1.00  0.00     0.049 A 
ATOM     55  C   UNL     1       9.859   2.365  17.547  1.00  0.00     0.074 A 
ATOM     56  C   UNL     1       7.848  -3.029  20.206  1.00  0.00     0.029 A 
ATOM     57  N   UNL     1       8.296  -1.368  18.798  1.00  0.00    -0.354 N 
ATOM     58  N   UNL     1       9.448   1.206  18.002  1.00  0.00    -0.248 NA
ATOM     59  C   UNL     1      10.500   3.213  18.563  1.00  0.00     0.031 C 
ATOM     60  C   UNL     1       8.571  -2.049  20.894  1.00  0.00     0.029 A 
ATOM     61  C   UNL     1       8.860  -1.018  20.013  1.00  0.00     0.049 A 
ATOM     62  H   UNL     1       8.338  -0.825  17.979  1.00  0.00     0.167 HD
ATOM     63  C   UNL     1       9.808   1.172  19.345  1.00  0.00     0.074 A 
ATOM     64  C   UNL     1      10.491   2.418  19.625  1.00  0.00     0.031 C 
ATOM     65  C   UNL     1       9.581   0.203  20.267  1.00  0.00     0.034 A 
BRANCH  52  66
ATOM     66  C   UNL     1       6.248  -4.546  18.141  1.00  0.00     0.023 A 
ATOM     67  C   UNL     1       6.790  -5.757  17.663  1.00  0.00     0.012 A 
ATOM     68  C   UNL     1       5.087  -4.574  18.937  1.00  0.00     0.148 A 
ATOM     69  C   UNL     1       6.168  -6.973  17.946  1.00  0.00     0.002 A 
ATOM     70  C   UNL     1       4.497  -5.793  19.251  1.00  0.00     0.091 A 
ATOM     71  F   UNL     1       4.573  -3.411  19.361  1.00  0.00    -0.205 F 
ATOM     72  C   UNL     1       5.029  -6.992  18.747  1.00  0.00     0.022 A 
BRANCH  70  73
ATOM     73  S   UNL     1       3.074  -5.926  20.338  1.00  0.00     0.127 S 
ATOM     74  O   UNL     1       2.007  -6.246  19.391  1.00  0.00    -0.237 OA
ATOM     75  O   UNL     1       3.458  -7.029  21.219  1.00  0.00    -0.237 OA
ATOM     76  O   UNL     1       2.956  -4.635  21.002  1.00  0.00    -0.744 OA
ENDBRANCH  70  73
ENDBRANCH  52  66
BRANCH  53  77
ATOM     77  C   UNL     1      10.349   4.255  15.817  1.00  0.00     0.023 A 
ATOM     78  C   UNL     1      11.741   4.465  15.862  1.00  0.00     0.012 A 
ATOM     79  C   UNL     1       9.506   5.315  15.429  1.00  0.00     0.148 A 
ATOM     80  C   UNL     1      12.281   5.714  15.553  1.00  0.00     0.002 A 
ATOM     81  C   UNL     1      10.054   6.539  15.067  1.00  0.00     0.091 A 
ATOM     82  F   UNL     1       8.183   5.099  15.410  1.00  0.00    -0.205 F 
ATOM     83  C   UNL     1      11.440   6.746  15.144  1.00  0.00     0.022 A 
BRANCH  81  84
ATOM     84  S   UNL     1       9.060   7.879  14.401  1.00  0.00     0.127 S 
ATOM     85  O   UNL     1       9.092   8.848  15.493  1.00  0.00    -0.237 OA
ATOM     86  O   UNL     1       9.827   8.262  13.214  1.00  0.00    -0.237 OA
ATOM     87  O   UNL     1       7.758   7.295  14.109  1.00  0.00    -0.744 OA
ENDBRANCH  81  84
ENDBRANCH  53  77
BRANCH  65  88
ATOM     88  C   UNL     1      10.096   0.430  21.665  1.00  0.00     0.023 A 
ATOM     89  C   UNL     1       9.460   1.368  22.502  1.00  0.00     0.012 A 
ATOM     90  C   UNL     1      11.160  -0.340  22.175  1.00  0.00     0.148 A 
ATOM     91  C   UNL     1       9.895   1.559  23.813  1.00  0.00     0.002 A 
ATOM     92  C   UNL     1      11.557  -0.179  23.498  1.00  0.00     0.091 A 
ATOM     93  F   UNL     1      11.766  -1.216  21.359  1.00  0.00    -0.205 F 
ATOM     94  C   UNL     1      10.934   0.778  24.314  1.00  0.00     0.022 A 
BRANCH  92  95
ATOM     95  S   UNL     1      12.821  -1.208  24.254  1.00  0.00     0.127 S 
ATOM     96  O   UNL     1      13.954  -0.287  24.322  1.00  0.00    -0.237 OA
ATOM     97  O   UNL     1      12.224  -1.537  25.549  1.00  0.00    -0.237 OA
ATOM     98  O   UNL     1      12.993  -2.349  23.363  1.00  0.00    -0.744 OA
ENDBRANCH  92  95
ENDBRANCH  65  88
ENDBRANCH  39  40
ENDBRANCH  32  34
ENDBRANCH  31  32
ENDBRANCH  30  31
ENDBRANCH  29  30
ENDBRANCH   1  29
TORSDOF 23
