REMARK SMILES O=C(Cc1ccn(-c2ccccc2F)c1)OCCOCCOC(=O)c1ccc(-c2c3nc(c(-c4cccc(S(=O)(=O)[O-])c4F)c4ccc([nH]4)c(-c4cccc(S(=O)(=O)[O-])c4F)c4nc(c(-c5cccc(S(=O)(=O)[O-])c5F)c5ccc2[nH]5)C=C4)C=C3)cc1
REMARK SMILES IDX 20 1 19 2 18 3 17 4 16 5 2 6 1 7 3 8 4 9 5 10 15 11 6 12
REMARK SMILES IDX 7 13 8 14 9 15 13 16 10 17 12 18 14 19 11 20 21 21 22 22
REMARK SMILES IDX 23 23 24 24 25 25 26 26 87 27 27 28 86 29 28 30 29 31 30 32
REMARK SMILES IDX 80 33 31 34 85 35 79 36 81 37 32 38 84 39 78 40 77 41 33 43
REMARK SMILES IDX 65 44 45 45 64 46 46 47 49 48 63 49 82 50 47 51 48 52 62 54
REMARK SMILES IDX 83 55 50 56 34 57 35 58 43 59 36 60 38 61 44 62 37 63 39 64
REMARK SMILES IDX 40 65 41 66 42 67 66 68 67 69 75 70 68 71 70 72 76 73 69 74
REMARK SMILES IDX 71 75 72 76 73 77 74 78 51 79 52 80 60 81 53 82 55 83 61 84
REMARK SMILES IDX 54 85 56 86 57 87 58 88 59 89
REMARK H PARENT 81 42 49 53
REMARK Flexibility Score: inf
ROOT
ATOM      1  C   UNL     1       2.939  -2.176  -0.728  1.00  0.00     0.202 C 
ENDROOT
BRANCH   1   2
ATOM      2  O   UNL     1       4.180  -1.474  -0.872  1.00  0.00    -0.374 OA
BRANCH   2   3
ATOM      3  C   UNL     1       4.642  -0.688   0.226  1.00  0.00     0.202 C 
BRANCH   3   4
ATOM      4  C   UNL     1       4.064   0.707   0.394  1.00  0.00     0.261 C 
BRANCH   4   5
ATOM      5  O   UNL     1       2.628   0.763   0.406  1.00  0.00    -0.463 OA
BRANCH   5   6
ATOM      6  C   UNL     1       1.822   0.938  -0.666  1.00  0.00     0.310 C 
ATOM      7  O   UNL     1       0.615   1.110  -0.488  1.00  0.00    -0.252 OA
BRANCH   6   8
ATOM      8  C   UNL     1       2.366   0.825  -2.077  1.00  0.00     0.159 C 
BRANCH   8   9
ATOM      9  C   UNL     1       3.464   1.771  -2.402  1.00  0.00    -0.019 A 
ATOM     10  C   UNL     1       3.525   3.142  -2.053  1.00  0.00     0.024 A 
ATOM     11  C   UNL     1       4.664   1.460  -3.019  1.00  0.00     0.095 A 
ATOM     12  C   UNL     1       4.796   3.577  -2.345  1.00  0.00     0.091 A 
ATOM     13  N   UNL     1       5.497   2.556  -2.957  1.00  0.00    -0.321 N 
BRANCH  13  14
ATOM     14  C   UNL     1       6.834   2.633  -3.408  1.00  0.00     0.081 A 
ATOM     15  C   UNL     1       7.740   3.478  -2.751  1.00  0.00     0.030 A 
ATOM     16  C   UNL     1       7.255   1.907  -4.523  1.00  0.00     0.147 A 
ATOM     17  C   UNL     1       9.046   3.607  -3.228  1.00  0.00     0.002 A 
ATOM     18  C   UNL     1       8.549   2.062  -5.016  1.00  0.00     0.041 A 
ATOM     19  F   UNL     1       6.417   1.114  -5.206  1.00  0.00    -0.205 F 
ATOM     20  C   UNL     1       9.444   2.915  -4.371  1.00  0.00     0.003 A 
ENDBRANCH  13  14
ENDBRANCH   8   9
ENDBRANCH   6   8
ENDBRANCH   5   6
ENDBRANCH   4   5
ENDBRANCH   3   4
ENDBRANCH   2   3
ENDBRANCH   1   2
BRANCH   1  21
ATOM     21  C   UNL     1       2.937  -3.441   0.101  1.00  0.00     0.261 C 
BRANCH  21  22
ATOM     22  O   UNL     1       3.224  -3.105   1.442  1.00  0.00    -0.460 OA
BRANCH  22  23
ATOM     23  C   UNL     1       4.515  -3.283   1.786  1.00  0.00     0.338 C 
ATOM     24  O   UNL     1       5.466  -3.492   1.058  1.00  0.00    -0.246 OA
BRANCH  23  25
ATOM     25  C   UNL     1       4.573  -3.289   3.245  1.00  0.00     0.060 A 
ATOM     26  C   UNL     1       5.856  -3.478   3.768  1.00  0.00     0.016 A 
ATOM     27  C   UNL     1       3.410  -3.759   3.862  1.00  0.00     0.016 A 
ATOM     28  C   UNL     1       5.996  -4.411   4.761  1.00  0.00     0.010 A 
ATOM     29  C   UNL     1       3.565  -4.792   4.733  1.00  0.00     0.010 A 
ATOM     30  C   UNL     1       4.853  -5.104   5.171  1.00  0.00    -0.014 A 
BRANCH  30  31
ATOM     31  C   UNL     1       4.946  -6.011   6.300  1.00  0.00     0.031 A 
ATOM     32  C   UNL     1       4.760  -5.194   7.596  1.00  0.00     0.074 A 
ATOM     33  C   UNL     1       5.150  -7.320   5.962  1.00  0.00     0.049 A 
ATOM     34  N   UNL     1       5.184  -5.436   8.794  1.00  0.00    -0.248 NA
ATOM     35  C   UNL     1       4.114  -3.840   7.540  1.00  0.00     0.031 C 
ATOM     36  C   UNL     1       5.283  -7.856   4.580  1.00  0.00     0.029 A 
ATOM     37  N   UNL     1       5.281  -8.470   6.699  1.00  0.00    -0.354 N 
ATOM     38  C   UNL     1       4.625  -4.444   9.633  1.00  0.00     0.074 A 
ATOM     39  C   UNL     1       4.129  -3.407   8.798  1.00  0.00     0.031 C 
ATOM     40  C   UNL     1       5.567  -9.179   4.597  1.00  0.00     0.029 A 
ATOM     41  C   UNL     1       5.593  -9.645   5.971  1.00  0.00     0.049 A 
ATOM     42  H   UNL     1       5.165  -8.478   7.677  1.00  0.00     0.167 HD
ATOM     43  C   UNL     1       4.441  -4.624  10.969  1.00  0.00     0.034 A 
ATOM     44  C   UNL     1       5.885 -10.888   6.468  1.00  0.00     0.034 A 
ATOM     45  C   UNL     1       4.894  -5.924  11.333  1.00  0.00     0.049 A 
ATOM     46  C   UNL     1       5.557 -10.805   7.899  1.00  0.00     0.074 A 
ATOM     47  C   UNL     1       6.154  -6.455  11.413  1.00  0.00     0.029 A 
ATOM     48  N   UNL     1       3.966  -6.931  11.185  1.00  0.00    -0.354 N 
ATOM     49  N   UNL     1       4.349 -10.702   8.373  1.00  0.00    -0.248 NA
ATOM     50  C   UNL     1       6.654 -10.674   8.865  1.00  0.00     0.031 C 
ATOM     51  C   UNL     1       5.992  -7.731  10.839  1.00  0.00     0.029 A 
ATOM     52  C   UNL     1       4.630  -8.018  10.677  1.00  0.00     0.049 A 
ATOM     53  H   UNL     1       3.007  -6.880  11.402  1.00  0.00     0.167 HD
ATOM     54  C   UNL     1       4.574 -10.130   9.600  1.00  0.00     0.074 A 
ATOM     55  C   UNL     1       5.937 -10.455   9.962  1.00  0.00     0.031 C 
ATOM     56  C   UNL     1       3.874  -9.024   9.972  1.00  0.00     0.034 A 
BRANCH  43  57
ATOM     57  C   UNL     1       3.674  -3.858  12.005  1.00  0.00     0.023 A 
ATOM     58  C   UNL     1       4.092  -4.087  13.343  1.00  0.00     0.012 A 
ATOM     59  C   UNL     1       2.441  -3.214  11.802  1.00  0.00     0.148 A 
ATOM     60  C   UNL     1       3.275  -3.803  14.432  1.00  0.00     0.002 A 
ATOM     61  C   UNL     1       1.647  -2.885  12.903  1.00  0.00     0.091 A 
ATOM     62  F   UNL     1       2.002  -3.006  10.556  1.00  0.00    -0.205 F 
ATOM     63  C   UNL     1       2.044  -3.214  14.209  1.00  0.00     0.022 A 
BRANCH  61  64
ATOM     64  S   UNL     1       0.064  -2.048  12.756  1.00  0.00     0.127 S 
ATOM     65  O   UNL     1      -0.877  -3.126  13.045  1.00  0.00    -0.237 OA
ATOM     66  O   UNL     1       0.165  -1.034  13.809  1.00  0.00    -0.237 OA
ATOM     67  O   UNL     1       0.032  -1.498  11.408  1.00  0.00    -0.744 OA
ENDBRANCH  61  64
ENDBRANCH  43  57
BRANCH  44  68
ATOM     68  C   UNL     1       6.540 -12.161   5.981  1.00  0.00     0.023 A 
ATOM     69  C   UNL     1       6.852 -12.441   4.644  1.00  0.00     0.012 A 
ATOM     70  C   UNL     1       7.031 -13.099   6.940  1.00  0.00     0.148 A 
ATOM     71  C   UNL     1       7.698 -13.519   4.304  1.00  0.00     0.002 A 
ATOM     72  C   UNL     1       7.986 -14.056   6.623  1.00  0.00     0.091 A 
ATOM     73  F   UNL     1       6.548 -13.087   8.188  1.00  0.00    -0.205 F 
ATOM     74  C   UNL     1       8.313 -14.287   5.293  1.00  0.00     0.022 A 
BRANCH  72  75
ATOM     75  S   UNL     1       8.966 -14.869   7.903  1.00  0.00     0.127 S 
ATOM     76  O   UNL     1       8.793 -16.283   7.579  1.00  0.00    -0.237 OA
ATOM     77  O   UNL     1      10.300 -14.333   7.630  1.00  0.00    -0.237 OA
ATOM     78  O   UNL     1       8.401 -14.452   9.180  1.00  0.00    -0.744 OA
ENDBRANCH  72  75
ENDBRANCH  44  68
BRANCH  56  79
ATOM     79  C   UNL     1       2.477  -8.892   9.365  1.00  0.00     0.023 A 
ATOM     80  C   UNL     1       1.588  -9.958   9.617  1.00  0.00     0.012 A 
ATOM     81  C   UNL     1       2.005  -7.851   8.526  1.00  0.00     0.148 A 
ATOM     82  C   UNL     1       0.305 -10.005   9.064  1.00  0.00     0.002 A 
ATOM     83  C   UNL     1       0.720  -7.902   7.963  1.00  0.00     0.091 A 
ATOM     84  F   UNL     1       2.807  -6.819   8.269  1.00  0.00    -0.205 F 
ATOM     85  C   UNL     1      -0.130  -8.980   8.239  1.00  0.00     0.022 A 
BRANCH  83  86
ATOM     86  S   UNL     1       0.041  -6.660   6.840  1.00  0.00     0.127 S 
ATOM     87  O   UNL     1      -0.212  -7.439   5.626  1.00  0.00    -0.237 OA
ATOM     88  O   UNL     1      -1.169  -6.235   7.539  1.00  0.00    -0.237 OA
ATOM     89  O   UNL     1       1.066  -5.637   6.696  1.00  0.00    -0.744 OA
ENDBRANCH  83  86
ENDBRANCH  56  79
ENDBRANCH  30  31
ENDBRANCH  23  25
ENDBRANCH  22  23
ENDBRANCH  21  22
ENDBRANCH   1  21
TORSDOF 19
