REMARK SMILES Cc1cc2c(c(C)c1Cl)C=C(C(=O)OCCOCCOC(=O)c1ccc(-c3c4nc(c(-c5cccc(S(=O)(=O)[O-])c5F)c5ccc([nH]5)c(-c5cccc(S(=O)(=O)[O-])c5F)c5nc(c(-c6cccc(S(=O)(=O)[O-])c6F)c6ccc3[nH]6)C=C5)C=C4)cc1)[C@@H](C(F)(F)F)O2
REMARK SMILES IDX 18 1 17 2 16 3 15 4 14 5 12 6 13 7 11 8 1 9 2 10 3 11 8 12
REMARK SMILES IDX 4 13 6 14 9 15 5 16 91 17 7 18 10 19 86 20 87 21 88 22 89 23
REMARK SMILES IDX 90 24 19 25 20 26 21 27 22 28 23 29 24 30 85 31 25 32 84 33
REMARK SMILES IDX 26 34 27 35 28 36 78 37 29 38 83 39 77 40 79 41 30 42 82 43
REMARK SMILES IDX 76 44 75 45 31 47 63 48 43 49 62 50 44 51 47 52 61 53 80 54
REMARK SMILES IDX 45 55 46 56 60 58 81 59 48 60 32 61 33 62 41 63 34 64 36 65
REMARK SMILES IDX 42 66 35 67 37 68 38 69 39 70 40 71 64 72 65 73 73 74 66 75
REMARK SMILES IDX 68 76 74 77 67 78 69 79 70 80 71 81 72 82 49 83 50 84 58 85
REMARK SMILES IDX 51 86 53 87 59 88 52 89 54 90 55 91 56 92 57 93
REMARK H PARENT 79 46 47 57
REMARK Flexibility Score: inf
ROOT
ATOM      1  C   UNL     1      -0.047  -0.211   8.947  1.00  0.00     0.202 C 
ENDROOT
BRANCH   1   2
ATOM      2  O   UNL     1      -1.158  -0.106   9.839  1.00  0.00    -0.374 OA
BRANCH   2   3
ATOM      3  C   UNL     1      -1.895  -1.292  10.130  1.00  0.00     0.202 C 
BRANCH   3   4
ATOM      4  C   UNL     1      -2.888  -1.777   9.068  1.00  0.00     0.261 C 
BRANCH   4   5
ATOM      5  O   UNL     1      -2.266  -1.946   7.786  1.00  0.00    -0.460 OA
BRANCH   5   6
ATOM      6  C   UNL     1      -2.648  -1.041   6.856  1.00  0.00     0.338 C 
ATOM      7  O   UNL     1      -3.522  -0.194   6.969  1.00  0.00    -0.246 OA
BRANCH   6   8
ATOM      8  C   UNL     1      -1.746  -1.109   5.691  1.00  0.00     0.087 C 
ATOM      9  C   UNL     1       1.187  -0.054   0.031  1.00  0.00     0.046 C 
ATOM     10  C   UNL     1       0.611   0.043   1.417  1.00  0.00    -0.028 A 
ATOM     11  C   UNL     1       0.339  -1.143   2.112  1.00  0.00     0.052 A 
ATOM     12  C   UNL     1       0.363   1.277   2.051  1.00  0.00     0.047 A 
ATOM     13  C   UNL     1      -0.261  -1.112   3.369  1.00  0.00     0.128 A 
ATOM     14  C   UNL     1      -0.233   1.328   3.332  1.00  0.00    -0.021 A 
ATOM     15  Cl  UNL     1       0.794   2.741   1.218  1.00  0.00    -0.084 Cl
ATOM     16  C   UNL     1      -0.588   0.110   3.964  1.00  0.00     0.022 A 
ATOM     17  O   UNL     1      -0.481  -2.333   3.941  1.00  0.00    -0.475 OA
ATOM     18  C   UNL     1      -0.505   2.638   4.035  1.00  0.00     0.047 C 
ATOM     19  C   UNL     1      -1.358   0.076   5.202  1.00  0.00     0.027 C 
ATOM     20  C   UNL     1      -1.346  -2.430   5.106  1.00  0.00     0.316 C 
BRANCH  20  21
ATOM     21  C   UNL     1      -2.552  -3.309   4.741  1.00  0.00     0.430 C 
ATOM     22  F   UNL     1      -2.154  -4.469   4.169  1.00  0.00    -0.167 F 
ATOM     23  F   UNL     1      -3.282  -3.632   5.832  1.00  0.00    -0.167 F 
ATOM     24  F   UNL     1      -3.376  -2.684   3.868  1.00  0.00    -0.167 F 
ENDBRANCH  20  21
ENDBRANCH   6   8
ENDBRANCH   5   6
ENDBRANCH   4   5
ENDBRANCH   3   4
ENDBRANCH   2   3
ENDBRANCH   1   2
BRANCH   1  25
ATOM     25  C   UNL     1       1.197  -0.961   9.440  1.00  0.00     0.261 C 
BRANCH  25  26
ATOM     26  O   UNL     1       0.962  -2.373   9.581  1.00  0.00    -0.460 OA
BRANCH  26  27
ATOM     27  C   UNL     1       1.082  -2.846  10.845  1.00  0.00     0.338 C 
ATOM     28  O   UNL     1       1.424  -2.218  11.839  1.00  0.00    -0.246 OA
BRANCH  27  29
ATOM     29  C   UNL     1       0.544  -4.214  10.922  1.00  0.00     0.060 A 
ATOM     30  C   UNL     1      -0.536  -4.440  11.785  1.00  0.00     0.016 A 
ATOM     31  C   UNL     1       1.142  -5.271  10.235  1.00  0.00     0.016 A 
ATOM     32  C   UNL     1      -0.997  -5.736  11.998  1.00  0.00     0.010 A 
ATOM     33  C   UNL     1       0.686  -6.574  10.461  1.00  0.00     0.010 A 
ATOM     34  C   UNL     1      -0.359  -6.815  11.372  1.00  0.00    -0.014 A 
BRANCH  34  35
ATOM     35  C   UNL     1      -0.689  -8.194  11.803  1.00  0.00     0.031 A 
ATOM     36  C   UNL     1       0.202  -8.874  12.806  1.00  0.00     0.074 A 
ATOM     37  C   UNL     1      -1.790  -8.813  11.342  1.00  0.00     0.049 A 
ATOM     38  N   UNL     1       0.076 -10.054  13.355  1.00  0.00    -0.248 NA
ATOM     39  C   UNL     1       1.389  -8.126  13.255  1.00  0.00     0.031 C 
ATOM     40  C   UNL     1      -2.734  -8.248  10.380  1.00  0.00     0.029 A 
ATOM     41  N   UNL     1      -2.295 -10.059  11.620  1.00  0.00    -0.354 N 
ATOM     42  C   UNL     1       1.168 -10.194  14.204  1.00  0.00     0.074 A 
ATOM     43  C   UNL     1       1.961  -8.992  14.078  1.00  0.00     0.031 C 
ATOM     44  C   UNL     1      -3.702  -9.149  10.141  1.00  0.00     0.029 A 
ATOM     45  C   UNL     1      -3.437 -10.360  10.917  1.00  0.00     0.049 A 
ATOM     46  H   UNL     1      -1.879 -10.678  12.263  1.00  0.00     0.167 HD
ATOM     47  C   UNL     1       1.466 -11.219  15.035  1.00  0.00     0.034 A 
ATOM     48  C   UNL     1      -4.179 -11.486  10.898  1.00  0.00     0.034 A 
ATOM     49  C   UNL     1       0.663 -12.402  15.174  1.00  0.00     0.049 A 
ATOM     50  C   UNL     1      -3.792 -12.638  11.791  1.00  0.00     0.074 A 
ATOM     51  C   UNL     1       0.861 -13.476  16.023  1.00  0.00     0.029 A 
ATOM     52  N   UNL     1      -0.480 -12.675  14.440  1.00  0.00    -0.354 N 
ATOM     53  N   UNL     1      -2.829 -12.705  12.679  1.00  0.00    -0.248 NA
ATOM     54  C   UNL     1      -4.606 -13.859  11.699  1.00  0.00     0.031 C 
ATOM     55  C   UNL     1      -0.149 -14.412  15.783  1.00  0.00     0.029 A 
ATOM     56  C   UNL     1      -0.988 -13.911  14.800  1.00  0.00     0.049 A 
ATOM     57  H   UNL     1      -0.873 -12.077  13.764  1.00  0.00     0.167 HD
ATOM     58  C   UNL     1      -2.934 -13.963  13.265  1.00  0.00     0.074 A 
ATOM     59  C   UNL     1      -4.071 -14.615  12.650  1.00  0.00     0.031 C 
ATOM     60  C   UNL     1      -2.148 -14.532  14.213  1.00  0.00     0.034 A 
BRANCH  47  61
ATOM     61  C   UNL     1       2.690 -11.089  15.902  1.00  0.00     0.023 A 
ATOM     62  C   UNL     1       2.663 -10.215  17.007  1.00  0.00     0.012 A 
ATOM     63  C   UNL     1       3.829 -11.885  15.676  1.00  0.00     0.148 A 
ATOM     64  C   UNL     1       3.758 -10.120  17.864  1.00  0.00     0.002 A 
ATOM     65  C   UNL     1       4.901 -11.816  16.558  1.00  0.00     0.091 A 
ATOM     66  F   UNL     1       3.842 -12.694  14.607  1.00  0.00    -0.205 F 
ATOM     67  C   UNL     1       4.871 -10.927  17.646  1.00  0.00     0.022 A 
BRANCH  65  68
ATOM     68  S   UNL     1       6.350 -12.868  16.413  1.00  0.00     0.127 S 
ATOM     69  O   UNL     1       7.383 -11.898  16.050  1.00  0.00    -0.237 OA
ATOM     70  O   UNL     1       6.471 -13.411  17.766  1.00  0.00    -0.237 OA
ATOM     71  O   UNL     1       6.032 -13.851  15.387  1.00  0.00    -0.744 OA
ENDBRANCH  65  68
ENDBRANCH  47  61
BRANCH  48  72
ATOM     72  C   UNL     1      -5.395 -11.557  10.038  1.00  0.00     0.023 A 
ATOM     73  C   UNL     1      -6.667 -11.591  10.641  1.00  0.00     0.012 A 
ATOM     74  C   UNL     1      -5.302 -11.549   8.632  1.00  0.00     0.148 A 
ATOM     75  C   UNL     1      -7.823 -11.631   9.862  1.00  0.00     0.002 A 
ATOM     76  C   UNL     1      -6.459 -11.534   7.861  1.00  0.00     0.091 A 
ATOM     77  F   UNL     1      -4.082 -11.537   8.077  1.00  0.00    -0.205 F 
ATOM     78  C   UNL     1      -7.721 -11.590   8.474  1.00  0.00     0.022 A 
BRANCH  76  79
ATOM     79  S   UNL     1      -6.429 -11.351   6.074  1.00  0.00     0.127 S 
ATOM     80  O   UNL     1      -6.921 -12.653   5.631  1.00  0.00    -0.237 OA
ATOM     81  O   UNL     1      -7.358 -10.239   5.872  1.00  0.00    -0.237 OA
ATOM     82  O   UNL     1      -5.045 -11.051   5.732  1.00  0.00    -0.744 OA
ENDBRANCH  76  79
ENDBRANCH  48  72
BRANCH  60  83
ATOM     83  C   UNL     1      -2.465 -15.938  14.655  1.00  0.00     0.023 A 
ATOM     84  C   UNL     1      -2.157 -17.014  13.799  1.00  0.00     0.012 A 
ATOM     85  C   UNL     1      -2.925 -16.202  15.961  1.00  0.00     0.148 A 
ATOM     86  C   UNL     1      -2.312 -18.330  14.232  1.00  0.00     0.002 A 
ATOM     87  C   UNL     1      -3.030 -17.516  16.402  1.00  0.00     0.091 A 
ATOM     88  F   UNL     1      -3.221 -15.162  16.755  1.00  0.00    -0.205 F 
ATOM     89  C   UNL     1      -2.732 -18.581  15.536  1.00  0.00     0.022 A 
BRANCH  87  90
ATOM     90  S   UNL     1      -3.458 -17.941  18.095  1.00  0.00     0.127 S 
ATOM     91  O   UNL     1      -4.756 -18.593  17.918  1.00  0.00    -0.237 OA
ATOM     92  O   UNL     1      -2.369 -18.843  18.471  1.00  0.00    -0.237 OA
ATOM     93  O   UNL     1      -3.492 -16.685  18.832  1.00  0.00    -0.744 OA
ENDBRANCH  87  90
ENDBRANCH  60  83
ENDBRANCH  34  35
ENDBRANCH  27  29
ENDBRANCH  26  27
ENDBRANCH  25  26
ENDBRANCH   1  25
TORSDOF 18
