REMARK SMILES COc1ccc(F)c(NC(=O)N2CCCC[C@@H]2C(=O)OCCOCCOC(=O)c2ccc(-c3c4nc(c(-c5cccc(S(=O)(=O)[O-])c5F)c5ccc([nH]5)c(-c5cccc(S(=O)(=O)[O-])c5F)c5nc(c(-c6cccc(S(=O)(=O)[O-])c6F)c6ccc3[nH]6)C=C5)C=C4)cc2)c1
REMARK SMILES IDX 23 1 22 2 21 3 20 4 18 5 19 6 17 7 12 8 13 9 14 10 16 11
REMARK SMILES IDX 15 12 10 13 9 14 11 16 8 17 3 18 4 19 92 20 5 21 6 22 7 23
REMARK SMILES IDX 2 24 1 25 24 26 25 27 26 28 27 29 28 30 29 31 30 32 91 33
REMARK SMILES IDX 31 34 90 35 32 36 33 37 34 38 84 39 35 40 89 41 83 42 85 43
REMARK SMILES IDX 36 44 88 45 82 46 81 47 37 49 69 50 49 51 68 52 50 53 53 54
REMARK SMILES IDX 67 55 86 56 51 57 52 58 66 60 87 61 54 62 38 63 39 64 47 65
REMARK SMILES IDX 40 66 42 67 48 68 41 69 43 70 44 71 45 72 46 73 70 74 71 75
REMARK SMILES IDX 79 76 72 77 74 78 80 79 73 80 75 81 76 82 77 83 78 84 55 85
REMARK SMILES IDX 56 86 64 87 57 88 59 89 65 90 58 91 60 92 61 93 62 94 63 95
REMARK H PARENT 9 15 85 48 53 59
REMARK Flexibility Score: inf
ROOT
ATOM      1  O   UNL     1       0.089   4.179   1.574  1.00  0.00    -0.374 OA
ENDROOT
BRANCH   1   2
ATOM      2  C   UNL     1      -0.631   5.397   1.411  1.00  0.00     0.202 C 
BRANCH   2   3
ATOM      3  C   UNL     1      -1.300   5.764   0.072  1.00  0.00     0.261 C 
BRANCH   3   4
ATOM      4  O   UNL     1      -2.100   4.736  -0.528  1.00  0.00    -0.462 OA
BRANCH   4   5
ATOM      5  C   UNL     1      -1.344   3.896  -1.280  1.00  0.00     0.329 C 
ATOM      6  O   UNL     1      -0.121   3.976  -1.293  1.00  0.00    -0.250 OA
BRANCH   5   7
ATOM      7  C   UNL     1      -2.118   2.792  -2.027  1.00  0.00     0.196 C 
ATOM      8  N   UNL     1      -2.372   2.994  -3.481  1.00  0.00    -0.311 N 
ATOM      9  C   UNL     1      -3.294   2.067  -4.140  1.00  0.00     0.122 C 
ATOM     10  C   UNL     1      -4.517   1.668  -3.328  1.00  0.00     0.022 C 
ATOM     11  C   UNL     1      -3.408   2.431  -1.256  1.00  0.00     0.037 C 
ATOM     12  C   UNL     1      -4.134   1.267  -1.915  1.00  0.00     0.005 C 
BRANCH   8  13
ATOM     13  C   UNL     1      -1.662   3.799  -4.346  1.00  0.00     0.322 C 
ATOM     14  N   UNL     1      -0.335   4.023  -4.207  1.00  0.00    -0.305 N 
ATOM     15  H   UNL     1      -0.046   4.900  -4.548  1.00  0.00     0.171 HD
ATOM     16  O   UNL     1      -2.229   4.370  -5.281  1.00  0.00    -0.248 OA
BRANCH  14  17
ATOM     17  C   UNL     1       0.716   3.254  -3.672  1.00  0.00     0.082 A 
ATOM     18  C   UNL     1       1.535   1.296  -2.523  1.00  0.00     0.121 A 
ATOM     19  C   UNL     1       2.665   1.998  -2.098  1.00  0.00     0.049 A 
ATOM     20  C   UNL     1       0.602   1.897  -3.373  1.00  0.00     0.075 A 
ATOM     21  C   UNL     1       2.858   3.314  -2.519  1.00  0.00     0.045 A 
ATOM     22  C   UNL     1       1.890   3.930  -3.308  1.00  0.00     0.147 A 
ATOM     23  F   UNL     1       2.039   5.228  -3.620  1.00  0.00    -0.205 F 
BRANCH  18  24
ATOM     24  O   UNL     1       1.258   0.014  -2.127  1.00  0.00    -0.497 OA
ATOM     25  C   UNL     1       1.329  -0.150  -0.710  1.00  0.00     0.278 C 
ENDBRANCH  18  24
ENDBRANCH  14  17
ENDBRANCH   8  13
ENDBRANCH   5   7
ENDBRANCH   4   5
ENDBRANCH   3   4
ENDBRANCH   2   3
ENDBRANCH   1   2
BRANCH   1  26
ATOM     26  C   UNL     1      -0.611   2.940   1.642  1.00  0.00     0.202 C 
BRANCH  26  27
ATOM     27  C   UNL     1      -1.611   2.696   2.775  1.00  0.00     0.261 C 
BRANCH  27  28
ATOM     28  O   UNL     1      -2.712   3.616   2.747  1.00  0.00    -0.460 OA
BRANCH  28  29
ATOM     29  C   UNL     1      -2.769   4.445   3.816  1.00  0.00     0.338 C 
ATOM     30  O   UNL     1      -2.047   4.421   4.808  1.00  0.00    -0.246 OA
BRANCH  29  31
ATOM     31  C   UNL     1      -3.682   5.562   3.534  1.00  0.00     0.060 A 
ATOM     32  C   UNL     1      -3.159   6.860   3.625  1.00  0.00     0.016 A 
ATOM     33  C   UNL     1      -5.032   5.350   3.259  1.00  0.00     0.016 A 
ATOM     34  C   UNL     1      -3.999   7.957   3.496  1.00  0.00     0.010 A 
ATOM     35  C   UNL     1      -5.880   6.455   3.153  1.00  0.00     0.010 A 
ATOM     36  C   UNL     1      -5.372   7.756   3.315  1.00  0.00    -0.014 A 
BRANCH  36  37
ATOM     37  C   UNL     1      -6.287   8.905   3.488  1.00  0.00     0.031 A 
ATOM     38  C   UNL     1      -6.964   9.085   4.818  1.00  0.00     0.074 A 
ATOM     39  C   UNL     1      -6.471   9.790   2.494  1.00  0.00     0.049 A 
ATOM     40  N   UNL     1      -7.810  10.006   5.194  1.00  0.00    -0.248 NA
ATOM     41  C   UNL     1      -6.642   8.101   5.868  1.00  0.00     0.031 C 
ATOM     42  C   UNL     1      -5.835   9.726   1.179  1.00  0.00     0.029 A 
ATOM     43  N   UNL     1      -7.258  10.911   2.436  1.00  0.00    -0.354 N 
ATOM     44  C   UNL     1      -8.141   9.701   6.508  1.00  0.00     0.074 A 
ATOM     45  C   UNL     1      -7.413   8.506   6.868  1.00  0.00     0.031 C 
ATOM     46  C   UNL     1      -6.277  10.752   0.432  1.00  0.00     0.029 A 
ATOM     47  C   UNL     1      -7.244  11.527   1.207  1.00  0.00     0.049 A 
ATOM     48  H   UNL     1      -7.782  11.243   3.200  1.00  0.00     0.167 HD
ATOM     49  C   UNL     1      -8.966  10.371   7.344  1.00  0.00     0.034 A 
ATOM     50  C   UNL     1      -7.950  12.584   0.757  1.00  0.00     0.034 A 
ATOM     51  C   UNL     1      -9.662  11.575   6.985  1.00  0.00     0.049 A 
ATOM     52  C   UNL     1      -8.891  13.288   1.701  1.00  0.00     0.074 A 
ATOM     53  C   UNL     1     -10.499  12.345   7.772  1.00  0.00     0.029 A 
ATOM     54  N   UNL     1      -9.607  12.181   5.741  1.00  0.00    -0.354 N 
ATOM     55  N   UNL     1      -9.128  13.040   2.967  1.00  0.00    -0.248 NA
ATOM     56  C   UNL     1      -9.639  14.435   1.166  1.00  0.00     0.031 C 
ATOM     57  C   UNL     1     -10.973  13.403   6.994  1.00  0.00     0.029 A 
ATOM     58  C   UNL     1     -10.403  13.312   5.734  1.00  0.00     0.049 A 
ATOM     59  H   UNL     1      -9.081  11.855   4.976  1.00  0.00     0.167 HD
ATOM     60  C   UNL     1     -10.019  14.020   3.389  1.00  0.00     0.074 A 
ATOM     61  C   UNL     1     -10.270  14.876   2.248  1.00  0.00     0.031 C 
ATOM     62  C   UNL     1     -10.589  14.189   4.607  1.00  0.00     0.034 A 
BRANCH  49  63
ATOM     63  C   UNL     1      -9.146   9.849   8.743  1.00  0.00     0.023 A 
ATOM     64  C   UNL     1      -8.122  10.039   9.692  1.00  0.00     0.012 A 
ATOM     65  C   UNL     1     -10.372   9.287   9.146  1.00  0.00     0.148 A 
ATOM     66  C   UNL     1      -8.315   9.671  11.023  1.00  0.00     0.002 A 
ATOM     67  C   UNL     1     -10.573   8.964  10.483  1.00  0.00     0.091 A 
ATOM     68  F   UNL     1     -11.323   9.097   8.220  1.00  0.00    -0.205 F 
ATOM     69  C   UNL     1      -9.543   9.149  11.420  1.00  0.00     0.022 A 
BRANCH  67  70
ATOM     70  S   UNL     1     -12.145   8.366  11.113  1.00  0.00     0.127 S 
ATOM     71  O   UNL     1     -11.789   7.021  11.565  1.00  0.00    -0.237 OA
ATOM     72  O   UNL     1     -12.424   9.317  12.188  1.00  0.00    -0.237 OA
ATOM     73  O   UNL     1     -13.075   8.415   9.994  1.00  0.00    -0.744 OA
ENDBRANCH  67  70
ENDBRANCH  49  63
BRANCH  50  74
ATOM     74  C   UNL     1      -7.768  13.058  -0.644  1.00  0.00     0.023 A 
ATOM     75  C   UNL     1      -7.162  14.305  -0.884  1.00  0.00     0.012 A 
ATOM     76  C   UNL     1      -8.168  12.267  -1.739  1.00  0.00     0.148 A 
ATOM     77  C   UNL     1      -6.979  14.768  -2.188  1.00  0.00     0.002 A 
ATOM     78  C   UNL     1      -7.931  12.708  -3.035  1.00  0.00     0.091 A 
ATOM     79  F   UNL     1      -8.763  11.091  -1.490  1.00  0.00    -0.205 F 
ATOM     80  C   UNL     1      -7.352  13.966  -3.262  1.00  0.00     0.022 A 
BRANCH  78  81
ATOM     81  S   UNL     1      -8.259  11.684  -4.474  1.00  0.00     0.127 S 
ATOM     82  O   UNL     1      -9.409  12.360  -5.067  1.00  0.00    -0.237 OA
ATOM     83  O   UNL     1      -7.011  11.814  -5.227  1.00  0.00    -0.237 OA
ATOM     84  O   UNL     1      -8.509  10.346  -3.954  1.00  0.00    -0.744 OA
ENDBRANCH  78  81
ENDBRANCH  50  74
BRANCH  62  85
ATOM     85  C   UNL     1     -11.513  15.361   4.806  1.00  0.00     0.023 A 
ATOM     86  C   UNL     1     -12.805  15.336   4.248  1.00  0.00     0.012 A 
ATOM     87  C   UNL     1     -11.145  16.422   5.659  1.00  0.00     0.148 A 
ATOM     88  C   UNL     1     -13.713  16.359   4.522  1.00  0.00     0.002 A 
ATOM     89  C   UNL     1     -12.072  17.409   5.969  1.00  0.00     0.091 A 
ATOM     90  F   UNL     1      -9.905  16.430   6.169  1.00  0.00    -0.205 F 
ATOM     91  C   UNL     1     -13.352  17.385   5.393  1.00  0.00     0.022 A 
BRANCH  89  92
ATOM     92  S   UNL     1     -11.737  18.707   7.165  1.00  0.00     0.127 S 
ATOM     93  O   UNL     1     -11.671  19.890   6.309  1.00  0.00    -0.237 OA
ATOM     94  O   UNL     1     -12.917  18.643   8.028  1.00  0.00    -0.237 OA
ATOM     95  O   UNL     1     -10.488  18.341   7.819  1.00  0.00    -0.744 OA
ENDBRANCH  89  92
ENDBRANCH  62  85
ENDBRANCH  36  37
ENDBRANCH  29  31
ENDBRANCH  28  29
ENDBRANCH  27  28
ENDBRANCH  26  27
ENDBRANCH   1  26
TORSDOF 20
