REMARK SMILES O=C(OCCOCCOC(=O)[C@H]1C[C@@H]2N=CN=C2C[NH2+]1)c1ccc(-c2c3nc(c(-c4cccc(S(=O)(=O)[O-])c4F)c4ccc([nH]4)c(-c4cccc(S(=O)(=O)[O-])c4F)c4nc(c(-c5cccc(S(=O)(=O)[O-])c5F)c5ccc2[nH]5)C=C4)C=C3)cc1
REMARK SMILES IDX 4 1 3 2 2 3 1 4 21 5 22 6 83 7 23 8 82 9 24 10 25 11 26 12
REMARK SMILES IDX 76 13 27 14 81 15 75 16 77 17 28 18 80 19 74 20 73 21 29 23
REMARK SMILES IDX 61 24 41 25 60 26 42 27 45 28 59 29 78 30 43 31 44 32 58 34
REMARK SMILES IDX 79 35 46 36 30 37 31 38 39 39 32 40 34 41 40 42 33 43 35 44
REMARK SMILES IDX 36 45 37 46 38 47 62 48 63 49 71 50 64 51 66 52 72 53 65 54
REMARK SMILES IDX 67 55 68 56 69 57 70 58 47 59 48 60 56 61 49 62 51 63 57 64
REMARK SMILES IDX 50 65 52 66 53 67 54 68 55 69 5 70 6 71 7 72 8 73 9 74 10 75
REMARK SMILES IDX 11 76 12 77 13 78 20 79 14 80 19 81 15 84 18 85 16 86 17 87
REMARK H PARENT 77 22 45 33 20 82 20 83
REMARK Flexibility Score: inf
ROOT
ATOM      1  C   UNL     1       4.591   0.046   1.232  1.00  0.00     0.261 C 
ENDROOT
BRANCH   1   2
ATOM      2  O   UNL     1       3.243  -0.405   1.394  1.00  0.00    -0.460 OA
BRANCH   2   3
ATOM      3  C   UNL     1       2.143   0.124   0.808  1.00  0.00     0.338 C 
ATOM      4  O   UNL     1       1.122  -0.558   0.745  1.00  0.00    -0.246 OA
BRANCH   3   5
ATOM      5  C   UNL     1       2.100   1.535   0.338  1.00  0.00     0.060 A 
ATOM      6  C   UNL     1       3.207   2.317   0.006  1.00  0.00     0.016 A 
ATOM      7  C   UNL     1       0.828   2.122   0.337  1.00  0.00     0.016 A 
ATOM      8  C   UNL     1       3.110   3.688   0.061  1.00  0.00     0.010 A 
ATOM      9  C   UNL     1       0.704   3.494   0.276  1.00  0.00     0.010 A 
ATOM     10  C   UNL     1       1.861   4.261   0.271  1.00  0.00    -0.014 A 
BRANCH  10  11
ATOM     11  C   UNL     1       1.805   5.704   0.356  1.00  0.00     0.031 A 
ATOM     12  C   UNL     1       2.272   6.373  -0.884  1.00  0.00     0.074 A 
ATOM     13  C   UNL     1       1.308   6.324   1.442  1.00  0.00     0.049 A 
ATOM     14  N   UNL     1       3.312   7.124  -1.036  1.00  0.00    -0.248 NA
ATOM     15  C   UNL     1       1.621   5.986  -2.147  1.00  0.00     0.031 C 
ATOM     16  C   UNL     1       0.605   5.719   2.578  1.00  0.00     0.029 A 
ATOM     17  N   UNL     1       1.177   7.655   1.677  1.00  0.00    -0.354 N 
ATOM     18  C   UNL     1       3.295   7.503  -2.377  1.00  0.00     0.074 A 
ATOM     19  C   UNL     1       2.387   6.609  -3.041  1.00  0.00     0.031 C 
ATOM     20  C   UNL     1      -0.122   6.673   3.200  1.00  0.00     0.029 A 
ATOM     21  C   UNL     1       0.171   7.957   2.589  1.00  0.00     0.049 A 
ATOM     22  H   UNL     1       1.739   8.338   1.245  1.00  0.00     0.167 HD
ATOM     23  C   UNL     1       3.810   8.697  -2.777  1.00  0.00     0.034 A 
ATOM     24  C   UNL     1      -0.451   9.154   2.726  1.00  0.00     0.034 A 
ATOM     25  C   UNL     1       4.681   9.253  -1.776  1.00  0.00     0.049 A 
ATOM     26  C   UNL     1       0.416  10.177   2.091  1.00  0.00     0.074 A 
ATOM     27  C   UNL     1       5.851   8.850  -1.164  1.00  0.00     0.029 A 
ATOM     28  N   UNL     1       4.155  10.245  -0.983  1.00  0.00    -0.354 N 
ATOM     29  N   UNL     1       1.590  10.506   2.551  1.00  0.00    -0.248 NA
ATOM     30  C   UNL     1       0.181  10.493   0.691  1.00  0.00     0.031 C 
ATOM     31  C   UNL     1       5.723   9.282   0.187  1.00  0.00     0.029 A 
ATOM     32  C   UNL     1       4.521   9.981   0.308  1.00  0.00     0.049 A 
ATOM     33  H   UNL     1       3.613  11.007  -1.290  1.00  0.00     0.167 HD
ATOM     34  C   UNL     1       2.382  10.626   1.416  1.00  0.00     0.074 A 
ATOM     35  C   UNL     1       1.440  10.715   0.301  1.00  0.00     0.031 C 
ATOM     36  C   UNL     1       3.716  10.335   1.456  1.00  0.00     0.034 A 
BRANCH  23  37
ATOM     37  C   UNL     1       3.219   9.560  -3.869  1.00  0.00     0.023 A 
ATOM     38  C   UNL     1       3.940  10.719  -4.231  1.00  0.00     0.012 A 
ATOM     39  C   UNL     1       1.886   9.464  -4.334  1.00  0.00     0.148 A 
ATOM     40  C   UNL     1       3.344  11.759  -4.952  1.00  0.00     0.002 A 
ATOM     41  C   UNL     1       1.322  10.465  -5.115  1.00  0.00     0.091 A 
ATOM     42  F   UNL     1       1.096   8.473  -3.917  1.00  0.00    -0.205 F 
ATOM     43  C   UNL     1       2.035  11.631  -5.397  1.00  0.00     0.022 A 
BRANCH  41  44
ATOM     44  S   UNL     1      -0.354  10.332  -5.750  1.00  0.00     0.127 S 
ATOM     45  O   UNL     1      -1.052  11.329  -4.942  1.00  0.00    -0.237 OA
ATOM     46  O   UNL     1      -0.167  10.692  -7.156  1.00  0.00    -0.237 OA
ATOM     47  O   UNL     1      -0.750   8.946  -5.537  1.00  0.00    -0.744 OA
ENDBRANCH  41  44
ENDBRANCH  23  37
BRANCH  24  48
ATOM     48  C   UNL     1      -1.868   9.429   3.067  1.00  0.00     0.023 A 
ATOM     49  C   UNL     1      -2.240  10.709   3.522  1.00  0.00     0.012 A 
ATOM     50  C   UNL     1      -2.895   8.531   2.693  1.00  0.00     0.148 A 
ATOM     51  C   UNL     1      -3.587  11.092   3.578  1.00  0.00     0.002 A 
ATOM     52  C   UNL     1      -4.232   8.912   2.762  1.00  0.00     0.091 A 
ATOM     53  F   UNL     1      -2.560   7.341   2.181  1.00  0.00    -0.205 F 
ATOM     54  C   UNL     1      -4.581  10.197   3.193  1.00  0.00     0.022 A 
BRANCH  52  55
ATOM     55  S   UNL     1      -5.562   7.811   2.258  1.00  0.00     0.127 S 
ATOM     56  O   UNL     1      -6.485   7.916   3.393  1.00  0.00    -0.237 OA
ATOM     57  O   UNL     1      -6.034   8.455   1.030  1.00  0.00    -0.237 OA
ATOM     58  O   UNL     1      -4.960   6.503   2.094  1.00  0.00    -0.744 OA
ENDBRANCH  52  55
ENDBRANCH  24  48
BRANCH  36  59
ATOM     59  C   UNL     1       4.356  10.122   2.803  1.00  0.00     0.023 A 
ATOM     60  C   UNL     1       4.005   9.051   3.651  1.00  0.00     0.012 A 
ATOM     61  C   UNL     1       5.467  10.914   3.132  1.00  0.00     0.148 A 
ATOM     62  C   UNL     1       4.735   8.791   4.815  1.00  0.00     0.002 A 
ATOM     63  C   UNL     1       6.219  10.623   4.262  1.00  0.00     0.091 A 
ATOM     64  F   UNL     1       5.791  11.924   2.310  1.00  0.00    -0.205 F 
ATOM     65  C   UNL     1       5.851   9.569   5.113  1.00  0.00     0.022 A 
BRANCH  63  66
ATOM     66  S   UNL     1       7.739  11.504   4.621  1.00  0.00     0.127 S 
ATOM     67  O   UNL     1       7.333  12.377   5.720  1.00  0.00    -0.237 OA
ATOM     68  O   UNL     1       8.647  10.420   5.002  1.00  0.00    -0.237 OA
ATOM     69  O   UNL     1       8.111  12.181   3.385  1.00  0.00    -0.744 OA
ENDBRANCH  63  66
ENDBRANCH  36  59
ENDBRANCH  10  11
ENDBRANCH   3   5
ENDBRANCH   2   3
ENDBRANCH   1   2
BRANCH   1  70
ATOM     70  C   UNL     1       5.228  -0.491  -0.055  1.00  0.00     0.202 C 
BRANCH  70  71
ATOM     71  O   UNL     1       4.577  -0.342  -1.310  1.00  0.00    -0.374 OA
BRANCH  71  72
ATOM     72  C   UNL     1       3.474  -1.169  -1.686  1.00  0.00     0.202 C 
BRANCH  72  73
ATOM     73  C   UNL     1       3.545  -2.701  -1.630  1.00  0.00     0.261 C 
BRANCH  73  74
ATOM     74  O   UNL     1       3.978  -3.243  -0.374  1.00  0.00    -0.459 OA
BRANCH  74  75
ATOM     75  C   UNL     1       5.254  -3.712  -0.396  1.00  0.00     0.365 C 
ATOM     76  O   UNL     1       6.007  -3.637  -1.365  1.00  0.00    -0.245 OA
BRANCH  75  77
ATOM     77  C   UNL     1       5.750  -4.229   0.943  1.00  0.00     0.296 C 
ATOM     78  C   UNL     1       6.644  -3.213   1.690  1.00  0.00     0.111 C 
ATOM     79  N   UNL     1       4.709  -4.779   1.864  1.00  0.00    -0.330 N 
ATOM     80  C   UNL     1       7.482  -3.942   2.733  1.00  0.00     0.164 C 
ATOM     81  C   UNL     1       5.298  -5.224   3.158  1.00  0.00     0.316 C 
ATOM     82  H   UNL     1       4.259  -5.577   1.414  1.00  0.00     0.347 HD
ATOM     83  H   UNL     1       4.034  -4.040   2.059  1.00  0.00     0.347 HD
ATOM     84  N   UNL     1       8.761  -4.413   2.170  1.00  0.00    -0.264 NA
ATOM     85  C   UNL     1       6.794  -5.239   3.004  1.00  0.00     0.098 C 
ATOM     86  C   UNL     1       8.692  -5.708   2.243  1.00  0.00     0.216 C 
ATOM     87  N   UNL     1       7.542  -6.263   2.755  1.00  0.00    -0.238 NA
ENDBRANCH  75  77
ENDBRANCH  74  75
ENDBRANCH  73  74
ENDBRANCH  72  73
ENDBRANCH  71  72
ENDBRANCH  70  71
ENDBRANCH   1  70
TORSDOF 17
