REMARK SMILES CC(C)c1noc(C[N@@H+]2[C@@H](C(=O)OCCOCCOC(=O)c3ccc(-c4c5nc(c(-c6cccc(S(=O)(=O)[O-])c6F)c6ccc([nH]6)c(-c6cccc(S(=O)(=O)[O-])c6F)c6nc(c(-c7cccc(S(=O)(=O)[O-])c7F)c7ccc4[nH]7)C=C6)C=C5)cc3)C[C@H]3CCCC[C@@H]32)n1
REMARK SMILES IDX 16 1 15 2 14 3 13 4 11 5 12 6 10 7 9 8 91 9 85 11 86 12
REMARK SMILES IDX 90 13 87 14 89 15 88 16 8 17 7 18 4 19 5 20 92 21 6 22 2 23
REMARK SMILES IDX 1 24 3 25 17 26 18 27 19 28 20 29 21 30 22 31 23 32 84 33
REMARK SMILES IDX 24 34 83 35 25 36 26 37 27 38 77 39 28 40 82 41 76 42 78 43
REMARK SMILES IDX 29 44 81 45 75 46 74 47 30 49 62 50 42 51 61 52 43 53 46 54
REMARK SMILES IDX 60 55 79 56 44 57 45 58 59 60 80 61 47 62 31 63 32 64 40 65
REMARK SMILES IDX 33 66 35 67 41 68 34 69 36 70 37 71 38 72 39 73 63 74 64 75
REMARK SMILES IDX 72 76 65 77 67 78 73 79 66 80 68 81 69 82 70 83 71 84 48 85
REMARK SMILES IDX 49 86 57 87 50 88 52 89 58 90 51 91 53 92 54 93 55 94 56 95
REMARK H PARENT 9 10 78 48 46 59
REMARK Flexibility Score: inf
ROOT
ATOM      1  O   UNL     1      -9.468   0.045   2.861  1.00  0.00    -0.374 OA
ENDROOT
BRANCH   1   2
ATOM      2  C   UNL     1      -9.792   1.406   3.149  1.00  0.00     0.202 C 
BRANCH   2   3
ATOM      3  C   UNL     1      -8.751   2.203   3.937  1.00  0.00     0.261 C 
BRANCH   3   4
ATOM      4  O   UNL     1      -7.530   2.326   3.194  1.00  0.00    -0.459 OA
BRANCH   4   5
ATOM      5  C   UNL     1      -6.474   1.633   3.706  1.00  0.00     0.365 C 
ATOM      6  O   UNL     1      -6.475   1.068   4.795  1.00  0.00    -0.245 OA
BRANCH   5   7
ATOM      7  C   UNL     1      -5.283   1.652   2.720  1.00  0.00     0.296 C 
ATOM      8  N   UNL     1      -4.816   0.249   2.478  1.00  0.00    -0.313 N 
ATOM      9  C   UNL     1      -3.868  -0.000   3.572  1.00  0.00     0.188 C 
ATOM     10  H   UNL     1      -5.569  -0.437   2.511  1.00  0.00     0.349 HD
ATOM     11  C   UNL     1      -4.135   2.400   3.409  1.00  0.00     0.087 C 
ATOM     12  C   UNL     1      -3.112   1.319   3.731  1.00  0.00     0.054 C 
ATOM     13  C   UNL     1      -2.907  -1.187   3.587  1.00  0.00     0.065 C 
ATOM     14  C   UNL     1      -2.449   1.371   5.096  1.00  0.00     0.010 C 
ATOM     15  C   UNL     1      -2.087  -1.161   4.889  1.00  0.00     0.006 C 
ATOM     16  C   UNL     1      -1.455   0.207   5.197  1.00  0.00     0.001 C 
BRANCH   8  17
ATOM     17  C   UNL     1      -4.363  -0.023   1.099  1.00  0.00     0.364 C 
BRANCH  17  18
ATOM     18  C   UNL     1      -3.087   0.602   0.646  1.00  0.00     0.281 A 
ATOM     19  C   UNL     1      -1.107   1.228   0.391  1.00  0.00     0.174 A 
ATOM     20  N   UNL     1      -1.819   2.282  -0.031  1.00  0.00    -0.062 NA
ATOM     21  N   UNL     1      -1.859   0.144   0.756  1.00  0.00    -0.191 NA
ATOM     22  O   UNL     1      -3.145   1.866   0.137  1.00  0.00    -0.333 OA
BRANCH  19  23
ATOM     23  C   UNL     1       0.373   1.235   0.608  1.00  0.00     0.055 C 
ATOM     24  C   UNL     1       1.055   0.100  -0.157  1.00  0.00     0.016 C 
ATOM     25  C   UNL     1       1.041   2.571   0.285  1.00  0.00     0.016 C 
ENDBRANCH  19  23
ENDBRANCH  17  18
ENDBRANCH   8  17
ENDBRANCH   5   7
ENDBRANCH   4   5
ENDBRANCH   3   4
ENDBRANCH   2   3
ENDBRANCH   1   2
BRANCH   1  26
ATOM     26  C   UNL     1      -8.558  -0.203   1.789  1.00  0.00     0.202 C 
BRANCH  26  27
ATOM     27  C   UNL     1      -9.114  -0.075   0.365  1.00  0.00     0.261 C 
BRANCH  27  28
ATOM     28  O   UNL     1      -9.459   1.282   0.034  1.00  0.00    -0.460 OA
BRANCH  28  29
ATOM     29  C   UNL     1     -10.788   1.517  -0.081  1.00  0.00     0.338 C 
ATOM     30  O   UNL     1     -11.690   0.692  -0.008  1.00  0.00    -0.246 OA
BRANCH  29  31
ATOM     31  C   UNL     1     -11.048   2.968  -0.121  1.00  0.00     0.060 A 
ATOM     32  C   UNL     1     -11.964   3.485   0.805  1.00  0.00     0.016 A 
ATOM     33  C   UNL     1     -10.474   3.794  -1.088  1.00  0.00     0.016 A 
ATOM     34  C   UNL     1     -12.352   4.821   0.733  1.00  0.00     0.010 A 
ATOM     35  C   UNL     1     -10.873   5.133  -1.165  1.00  0.00     0.010 A 
ATOM     36  C   UNL     1     -11.843   5.641  -0.281  1.00  0.00    -0.014 A 
BRANCH  36  37
ATOM     37  C   UNL     1     -12.436   6.982  -0.503  1.00  0.00     0.031 A 
ATOM     38  C   UNL     1     -13.449   7.158  -1.602  1.00  0.00     0.074 A 
ATOM     39  C   UNL     1     -12.076   8.030   0.262  1.00  0.00     0.049 A 
ATOM     40  N   UNL     1     -14.078   8.239  -1.981  1.00  0.00    -0.248 NA
ATOM     41  C   UNL     1     -13.798   5.957  -2.381  1.00  0.00     0.031 C 
ATOM     42  C   UNL     1     -11.104   7.985   1.352  1.00  0.00     0.029 A 
ATOM     43  N   UNL     1     -12.470   9.344   0.215  1.00  0.00    -0.354 N 
ATOM     44  C   UNL     1     -14.863   7.862  -3.064  1.00  0.00     0.074 A 
ATOM     45  C   UNL     1     -14.637   6.450  -3.282  1.00  0.00     0.031 C 
ATOM     46  C   UNL     1     -10.948   9.225   1.848  1.00  0.00     0.029 A 
ATOM     47  C   UNL     1     -11.795  10.152   1.099  1.00  0.00     0.049 A 
ATOM     48  H   UNL     1     -13.169   9.676  -0.394  1.00  0.00     0.167 HD
ATOM     49  C   UNL     1     -15.705   8.621  -3.804  1.00  0.00     0.034 A 
ATOM     50  C   UNL     1     -11.839  11.489   1.267  1.00  0.00     0.034 A 
ATOM     51  C   UNL     1     -15.962  10.014  -3.559  1.00  0.00     0.049 A 
ATOM     52  C   UNL     1     -12.790  12.305   0.428  1.00  0.00     0.074 A 
ATOM     53  C   UNL     1     -16.864  10.845  -4.200  1.00  0.00     0.029 A 
ATOM     54  N   UNL     1     -15.307  10.785  -2.614  1.00  0.00    -0.354 N 
ATOM     55  N   UNL     1     -13.643  11.903  -0.483  1.00  0.00    -0.248 NA
ATOM     56  C   UNL     1     -12.809  13.757   0.664  1.00  0.00     0.031 C 
ATOM     57  C   UNL     1     -16.734  12.128  -3.661  1.00  0.00     0.029 A 
ATOM     58  C   UNL     1     -15.770  12.088  -2.667  1.00  0.00     0.049 A 
ATOM     59  H   UNL     1     -14.616  10.455  -1.996  1.00  0.00     0.167 HD
ATOM     60  C   UNL     1     -14.326  13.042  -0.897  1.00  0.00     0.074 A 
ATOM     61  C   UNL     1     -13.803  14.148  -0.123  1.00  0.00     0.031 C 
ATOM     62  C   UNL     1     -15.288  13.166  -1.844  1.00  0.00     0.034 A 
BRANCH  49  63
ATOM     63  C   UNL     1     -16.439   7.965  -4.941  1.00  0.00     0.023 A 
ATOM     64  C   UNL     1     -17.538   7.125  -4.673  1.00  0.00     0.012 A 
ATOM     65  C   UNL     1     -16.103   8.266  -6.276  1.00  0.00     0.148 A 
ATOM     66  C   UNL     1     -18.283   6.582  -5.719  1.00  0.00     0.002 A 
ATOM     67  C   UNL     1     -16.875   7.753  -7.311  1.00  0.00     0.091 A 
ATOM     68  F   UNL     1     -15.041   9.051  -6.505  1.00  0.00    -0.205 F 
ATOM     69  C   UNL     1     -17.961   6.906  -7.035  1.00  0.00     0.022 A 
BRANCH  67  70
ATOM     70  S   UNL     1     -16.590   8.174  -9.034  1.00  0.00     0.127 S 
ATOM     71  O   UNL     1     -16.141   6.893  -9.579  1.00  0.00    -0.237 OA
ATOM     72  O   UNL     1     -17.922   8.589  -9.472  1.00  0.00    -0.237 OA
ATOM     73  O   UNL     1     -15.591   9.232  -9.031  1.00  0.00    -0.744 OA
ENDBRANCH  67  70
ENDBRANCH  49  63
BRANCH  50  74
ATOM     74  C   UNL     1     -10.974  12.149   2.286  1.00  0.00     0.023 A 
ATOM     75  C   UNL     1     -11.563  12.753   3.414  1.00  0.00     0.012 A 
ATOM     76  C   UNL     1      -9.575  12.195   2.136  1.00  0.00     0.148 A 
ATOM     77  C   UNL     1     -10.778  13.426   4.352  1.00  0.00     0.002 A 
ATOM     78  C   UNL     1      -8.794  12.818   3.103  1.00  0.00     0.091 A 
ATOM     79  F   UNL     1      -9.032  11.637   1.044  1.00  0.00    -0.205 F 
ATOM     80  C   UNL     1      -9.394  13.451   4.202  1.00  0.00     0.022 A 
BRANCH  78  81
ATOM     81  S   UNL     1      -6.999  12.776   3.046  1.00  0.00     0.127 S 
ATOM     82  O   UNL     1      -6.683  14.111   2.547  1.00  0.00    -0.237 OA
ATOM     83  O   UNL     1      -6.652  12.543   4.449  1.00  0.00    -0.237 OA
ATOM     84  O   UNL     1      -6.669  11.666   2.161  1.00  0.00    -0.744 OA
ENDBRANCH  78  81
ENDBRANCH  50  74
BRANCH  62  85
ATOM     85  C   UNL     1     -15.879  14.533  -2.074  1.00  0.00     0.023 A 
ATOM     86  C   UNL     1     -15.122  15.521  -2.734  1.00  0.00     0.012 A 
ATOM     87  C   UNL     1     -17.212  14.809  -1.712  1.00  0.00     0.148 A 
ATOM     88  C   UNL     1     -15.673  16.774  -3.001  1.00  0.00     0.002 A 
ATOM     89  C   UNL     1     -17.771  16.042  -2.026  1.00  0.00     0.091 A 
ATOM     90  F   UNL     1     -17.911  13.861  -1.070  1.00  0.00    -0.205 F 
ATOM     91  C   UNL     1     -16.999  17.030  -2.660  1.00  0.00     0.022 A 
BRANCH  89  92
ATOM     92  S   UNL     1     -19.499  16.421  -1.714  1.00  0.00     0.127 S 
ATOM     93  O   UNL     1     -19.404  17.322  -0.566  1.00  0.00    -0.237 OA
ATOM     94  O   UNL     1     -19.908  17.066  -2.962  1.00  0.00    -0.237 OA
ATOM     95  O   UNL     1     -20.148  15.143  -1.456  1.00  0.00    -0.744 OA
ENDBRANCH  89  92
ENDBRANCH  62  85
ENDBRANCH  36  37
ENDBRANCH  29  31
ENDBRANCH  28  29
ENDBRANCH  27  28
ENDBRANCH  26  27
ENDBRANCH   1  26
TORSDOF 20
