REMARK SMILES CC(C)[C@H](NC(=O)OCc1ccccc1)C(=O)NCC(=O)OCCOCCOC(=O)c1ccc(-c2c3nc(c(-c4cccc(S(=O)(=O)[O-])c4F)c4ccc([nH]4)c(-c4cccc(S(=O)(=O)[O-])c4F)c4nc(c(-c5cccc(S(=O)(=O)[O-])c5F)c5ccc2[nH]5)C=C4)C=C3)cc1
REMARK SMILES IDX 23 1 22 2 20 3 21 4 19 5 18 6 16 7 17 8 4 10 2 11 1 12 3 13
REMARK SMILES IDX 5 14 6 15 7 17 8 18 9 19 10 20 11 21 15 22 12 23 14 24 13 25
REMARK SMILES IDX 24 26 25 27 26 28 27 29 28 30 29 31 30 32 31 33 32 34 93 35
REMARK SMILES IDX 33 36 92 37 34 38 35 39 36 40 86 41 37 42 91 43 85 44 87 45
REMARK SMILES IDX 38 46 90 47 84 48 83 49 39 51 71 52 51 53 70 54 52 55 55 56
REMARK SMILES IDX 69 57 88 58 53 59 54 60 68 62 89 63 56 64 40 65 41 66 49 67
REMARK SMILES IDX 42 68 44 69 50 70 43 71 45 72 46 73 47 74 48 75 72 76 73 77
REMARK SMILES IDX 81 78 74 79 76 80 82 81 75 82 77 83 78 84 79 85 80 86 57 87
REMARK SMILES IDX 58 88 66 89 59 90 61 91 67 92 60 93 62 94 63 95 64 96 65 97
REMARK H PARENT 18 9 5 16 87 50 55 61
REMARK Flexibility Score: inf
ROOT
ATOM      1  C   UNL     1       2.920  -5.552   2.288  1.00  0.00     0.261 C 
ENDROOT
BRANCH   1   2
ATOM      2  O   UNL     1       1.834  -4.649   2.012  1.00  0.00    -0.462 OA
BRANCH   2   3
ATOM      3  C   UNL     1       1.244  -4.757   0.798  1.00  0.00     0.325 C 
ATOM      4  O   UNL     1       1.585  -5.532  -0.089  1.00  0.00    -0.250 OA
BRANCH   3   5
ATOM      5  C   UNL     1       0.174  -3.693   0.584  1.00  0.00     0.238 C 
BRANCH   5   6
ATOM      6  N   UNL     1      -0.510  -3.151   1.740  1.00  0.00    -0.343 N 
ATOM      7  C   UNL     1      -1.271  -2.027   1.831  1.00  0.00     0.243 C 
ATOM      8  O   UNL     1      -2.078  -1.989   2.768  1.00  0.00    -0.273 OA
ATOM      9  H   UNL     1      -0.411  -3.667   2.573  1.00  0.00     0.164 HD
BRANCH   7  10
ATOM     10  C   UNL     1      -1.209  -0.872   0.794  1.00  0.00     0.177 C 
BRANCH  10  11
ATOM     11  C   UNL     1      -1.879  -1.118  -0.586  1.00  0.00     0.015 C 
ATOM     12  C   UNL     1      -1.012  -1.688  -1.716  1.00  0.00     0.010 C 
ATOM     13  C   UNL     1      -3.162  -1.944  -0.465  1.00  0.00     0.010 C 
ENDBRANCH  10  11
BRANCH  10  14
ATOM     14  N   UNL     1       0.127  -0.306   0.682  1.00  0.00    -0.309 N 
ATOM     15  C   UNL     1       0.731   0.518   1.587  1.00  0.00     0.408 C 
ATOM     16  H   UNL     1       0.644  -0.539  -0.123  1.00  0.00     0.167 HD
ATOM     17  O   UNL     1       1.849   0.960   1.359  1.00  0.00    -0.225 OA
BRANCH  15  18
ATOM     18  O   UNL     1       0.016   0.693   2.725  1.00  0.00    -0.445 OA
BRANCH  18  19
ATOM     19  C   UNL     1       0.809   1.052   3.877  1.00  0.00     0.270 C 
BRANCH  19  20
ATOM     20  C   UNL     1       1.738  -0.099   4.176  1.00  0.00    -0.011 A 
ATOM     21  C   UNL     1       1.208  -1.385   4.298  1.00  0.00     0.007 A 
ATOM     22  C   UNL     1       3.127   0.069   4.129  1.00  0.00     0.007 A 
ATOM     23  C   UNL     1       2.054  -2.484   4.271  1.00  0.00     0.000 A 
ATOM     24  C   UNL     1       3.966  -1.044   4.112  1.00  0.00     0.000 A 
ATOM     25  C   UNL     1       3.432  -2.323   4.181  1.00  0.00     0.000 A 
ENDBRANCH  19  20
ENDBRANCH  18  19
ENDBRANCH  15  18
ENDBRANCH  10  14
ENDBRANCH   7  10
ENDBRANCH   5   6
ENDBRANCH   3   5
ENDBRANCH   2   3
ENDBRANCH   1   2
BRANCH   1  26
ATOM     26  C   UNL     1       2.779  -6.133   3.698  1.00  0.00     0.202 C 
BRANCH  26  27
ATOM     27  O   UNL     1       1.602  -6.931   3.847  1.00  0.00    -0.374 OA
BRANCH  27  28
ATOM     28  C   UNL     1       0.413  -6.220   4.199  1.00  0.00     0.202 C 
BRANCH  28  29
ATOM     29  C   UNL     1       0.208  -6.052   5.709  1.00  0.00     0.261 C 
BRANCH  29  30
ATOM     30  O   UNL     1       0.877  -4.877   6.216  1.00  0.00    -0.460 OA
BRANCH  30  31
ATOM     31  C   UNL     1       1.984  -5.085   6.973  1.00  0.00     0.338 C 
ATOM     32  O   UNL     1       2.470  -6.173   7.239  1.00  0.00    -0.246 OA
BRANCH  31  33
ATOM     33  C   UNL     1       2.623  -3.796   7.364  1.00  0.00     0.060 A 
ATOM     34  C   UNL     1       4.000  -3.805   7.630  1.00  0.00     0.016 A 
ATOM     35  C   UNL     1       1.915  -2.593   7.471  1.00  0.00     0.016 A 
ATOM     36  C   UNL     1       4.657  -2.635   8.030  1.00  0.00     0.010 A 
ATOM     37  C   UNL     1       2.582  -1.413   7.835  1.00  0.00     0.010 A 
ATOM     38  C   UNL     1       3.949  -1.434   8.162  1.00  0.00    -0.014 A 
BRANCH  38  39
ATOM     39  C   UNL     1       4.590  -0.271   8.838  1.00  0.00     0.031 A 
ATOM     40  C   UNL     1       4.292  -0.042  10.293  1.00  0.00     0.074 A 
ATOM     41  C   UNL     1       5.433   0.569   8.206  1.00  0.00     0.049 A 
ATOM     42  N   UNL     1       4.868   0.775  11.133  1.00  0.00    -0.248 NA
ATOM     43  C   UNL     1       3.208  -0.848  10.880  1.00  0.00     0.031 C 
ATOM     44  C   UNL     1       5.791   0.497   6.797  1.00  0.00     0.029 A 
ATOM     45  N   UNL     1       6.124   1.666   8.663  1.00  0.00    -0.354 N 
ATOM     46  C   UNL     1       4.238   0.564  12.351  1.00  0.00     0.074 A 
ATOM     47  C   UNL     1       3.190  -0.406  12.127  1.00  0.00     0.031 C 
ATOM     48  C   UNL     1       6.581   1.537   6.480  1.00  0.00     0.029 A 
ATOM     49  C   UNL     1       6.835   2.323   7.684  1.00  0.00     0.049 A 
ATOM     50  H   UNL     1       6.112   1.955   9.604  1.00  0.00     0.167 HD
ATOM     51  C   UNL     1       4.535   1.088  13.563  1.00  0.00     0.034 A 
ATOM     52  C   UNL     1       7.628   3.412   7.756  1.00  0.00     0.034 A 
ATOM     53  C   UNL     1       5.559   2.068  13.787  1.00  0.00     0.049 A 
ATOM     54  C   UNL     1       7.942   3.996   9.110  1.00  0.00     0.074 A 
ATOM     55  C   UNL     1       5.972   2.629  14.980  1.00  0.00     0.029 A 
ATOM     56  N   UNL     1       6.314   2.655  12.783  1.00  0.00    -0.354 N 
ATOM     57  N   UNL     1       7.503   3.627  10.289  1.00  0.00    -0.248 NA
ATOM     58  C   UNL     1       8.926   5.089   9.154  1.00  0.00     0.031 C 
ATOM     59  C   UNL     1       6.963   3.576  14.695  1.00  0.00     0.029 A 
ATOM     60  C   UNL     1       7.183   3.584  13.326  1.00  0.00     0.049 A 
ATOM     61  H   UNL     1       6.242   2.443  11.825  1.00  0.00     0.167 HD
ATOM     62  C   UNL     1       8.201   4.393  11.216  1.00  0.00     0.074 A 
ATOM     63  C   UNL     1       9.092   5.250  10.461  1.00  0.00     0.031 C 
ATOM     64  C   UNL     1       8.112   4.385  12.569  1.00  0.00     0.034 A 
BRANCH  51  65
ATOM     65  C   UNL     1       3.753   0.555  14.731  1.00  0.00     0.023 A 
ATOM     66  C   UNL     1       3.997  -0.762  15.176  1.00  0.00     0.012 A 
ATOM     67  C   UNL     1       2.762   1.327  15.361  1.00  0.00     0.148 A 
ATOM     68  C   UNL     1       3.230  -1.321  16.196  1.00  0.00     0.002 A 
ATOM     69  C   UNL     1       2.027   0.776  16.404  1.00  0.00     0.091 A 
ATOM     70  F   UNL     1       2.526   2.565  14.904  1.00  0.00    -0.205 F 
ATOM     71  C   UNL     1       2.250  -0.550  16.813  1.00  0.00     0.022 A 
BRANCH  69  72
ATOM     72  S   UNL     1       0.778   1.707  17.296  1.00  0.00     0.127 S 
ATOM     73  O   UNL     1      -0.455   1.129  16.764  1.00  0.00    -0.237 OA
ATOM     74  O   UNL     1       1.065   1.355  18.688  1.00  0.00    -0.237 OA
ATOM     75  O   UNL     1       1.012   3.106  16.966  1.00  0.00    -0.744 OA
ENDBRANCH  69  72
ENDBRANCH  51  65
BRANCH  52  76
ATOM     76  C   UNL     1       8.291   3.938   6.527  1.00  0.00     0.023 A 
ATOM     77  C   UNL     1       9.669   3.719   6.335  1.00  0.00     0.012 A 
ATOM     78  C   UNL     1       7.565   4.644   5.547  1.00  0.00     0.148 A 
ATOM     79  C   UNL     1      10.320   4.220   5.206  1.00  0.00     0.002 A 
ATOM     80  C   UNL     1       8.213   5.108   4.406  1.00  0.00     0.091 A 
ATOM     81  F   UNL     1       6.256   4.848   5.752  1.00  0.00    -0.205 F 
ATOM     82  C   UNL     1       9.592   4.909   4.240  1.00  0.00     0.022 A 
BRANCH  80  83
ATOM     83  S   UNL     1       7.349   5.930   3.061  1.00  0.00     0.127 S 
ATOM     84  O   UNL     1       7.883   7.287   3.148  1.00  0.00    -0.237 OA
ATOM     85  O   UNL     1       7.803   5.163   1.901  1.00  0.00    -0.237 OA
ATOM     86  O   UNL     1       5.930   5.792   3.361  1.00  0.00    -0.744 OA
ENDBRANCH  80  83
ENDBRANCH  52  76
BRANCH  64  87
ATOM     87  C   UNL     1       9.035   5.290  13.343  1.00  0.00     0.023 A 
ATOM     88  C   UNL     1       8.813   6.681  13.355  1.00  0.00     0.012 A 
ATOM     89  C   UNL     1      10.067   4.748  14.135  1.00  0.00     0.148 A 
ATOM     90  C   UNL     1       9.622   7.520  14.120  1.00  0.00     0.002 A 
ATOM     91  C   UNL     1      10.837   5.585  14.934  1.00  0.00     0.091 A 
ATOM     92  F   UNL     1      10.281   3.424  14.093  1.00  0.00    -0.205 F 
ATOM     93  C   UNL     1      10.623   6.973  14.920  1.00  0.00     0.022 A 
BRANCH  91  94
ATOM     94  S   UNL     1      12.073   4.944  16.069  1.00  0.00     0.127 S 
ATOM     95  O   UNL     1      13.312   5.185  15.331  1.00  0.00    -0.237 OA
ATOM     96  O   UNL     1      11.891   5.794  17.247  1.00  0.00    -0.237 OA
ATOM     97  O   UNL     1      11.726   3.545  16.282  1.00  0.00    -0.744 OA
ENDBRANCH  91  94
ENDBRANCH  64  87
ENDBRANCH  38  39
ENDBRANCH  31  33
ENDBRANCH  30  31
ENDBRANCH  29  30
ENDBRANCH  28  29
ENDBRANCH  27  28
ENDBRANCH  26  27
ENDBRANCH   1  26
TORSDOF 24
