REMARK SMILES O=C(COc1ccc(/C=C2\SC(=O)N(Cc3cc4c(cc3Cl)OCO4)C2=O)cc1)OCCOCCOC(=O)c1ccc(-c2c3nc(c(-c4cccc(S(=O)(=O)[O-])c4F)c4ccc([nH]4)c(-c4cccc(S(=O)(=O)[O-])c4F)c4nc(c(-c5cccc(S(=O)(=O)[O-])c5F)c5ccc2[nH]5)C=C4)C=C3)cc1
REMARK SMILES IDX 32 1 31 2 30 3 2 4 1 5 3 6 4 7 5 8 6 9 29 10 7 11 28 12 8 13
REMARK SMILES IDX 9 14 10 15 11 16 26 17 12 18 14 19 27 20 13 21 15 22 16 23
REMARK SMILES IDX 17 24 21 25 18 26 20 27 22 28 19 29 25 30 23 31 24 32 33 33
REMARK SMILES IDX 34 34 35 35 36 36 37 37 38 38 39 39 40 40 101 41 41 42
REMARK SMILES IDX 100 43 42 44 43 45 44 46 94 47 45 48 99 49 93 50 95 51 46 52
REMARK SMILES IDX 98 53 92 54 91 55 47 57 79 58 59 59 78 60 60 61 63 62 77 63
REMARK SMILES IDX 96 64 61 65 62 66 76 68 97 69 64 70 48 71 49 72 57 73 50 74
REMARK SMILES IDX 52 75 58 76 51 77 53 78 54 79 55 80 56 81 80 82 81 83 89 84
REMARK SMILES IDX 82 85 84 86 90 87 83 88 85 89 86 90 87 91 88 92 65 93 66 94
REMARK SMILES IDX 74 95 67 96 69 97 75 98 68 99 70 100 71 101 72 102 73 103
REMARK H PARENT 95 56 63 67
REMARK Flexibility Score: inf
ROOT
ATOM      1  C   UNL     1       4.817  -0.779  -0.874  1.00  0.00     0.202 C 
ENDROOT
BRANCH   1   2
ATOM      2  C   UNL     1       4.257  -0.253   0.441  1.00  0.00     0.261 C 
BRANCH   2   3
ATOM      3  O   UNL     1       2.821  -0.304   0.461  1.00  0.00    -0.461 OA
BRANCH   3   4
ATOM      4  C   UNL     1       2.023   0.695   0.013  1.00  0.00     0.344 C 
ATOM      5  O   UNL     1       0.824   0.484  -0.173  1.00  0.00    -0.248 OA
BRANCH   4   6
ATOM      6  C   UNL     1       2.619   2.081  -0.236  1.00  0.00     0.351 C 
BRANCH   6   7
ATOM      7  O   UNL     1       3.610   2.658   0.598  1.00  0.00    -0.482 OA
BRANCH   7   8
ATOM      8  C   UNL     1       3.246   2.879   1.894  1.00  0.00     0.120 A 
ATOM      9  C   UNL     1       3.845   3.976   2.522  1.00  0.00     0.047 A 
ATOM     10  C   UNL     1       2.365   2.076   2.609  1.00  0.00     0.047 A 
ATOM     11  C   UNL     1       3.480   4.330   3.825  1.00  0.00     0.012 A 
ATOM     12  C   UNL     1       2.009   2.412   3.894  1.00  0.00     0.012 A 
ATOM     13  C   UNL     1       2.539   3.552   4.494  1.00  0.00    -0.024 A 
BRANCH  13  14
ATOM     14  C   UNL     1       1.879   3.904   5.733  1.00  0.00     0.029 C 
ATOM     15  C   UNL     1       1.962   3.162   6.839  1.00  0.00     0.083 C 
ATOM     16  S   UNL     1       3.171   2.107   7.428  1.00  0.00    -0.022 SA
ATOM     17  C   UNL     1       0.853   3.207   7.797  1.00  0.00     0.268 C 
ATOM     18  C   UNL     1       2.516   2.227   9.072  1.00  0.00     0.293 C 
ATOM     19  N   UNL     1       1.342   2.939   9.036  1.00  0.00    -0.264 N 
ATOM     20  O   UNL     1      -0.315   3.390   7.483  1.00  0.00    -0.268 OA
ATOM     21  O   UNL     1       3.064   1.769  10.047  1.00  0.00    -0.261 OA
BRANCH  19  22
ATOM     22  C   UNL     1       0.617   3.363  10.206  1.00  0.00     0.167 C 
BRANCH  22  23
ATOM     23  C   UNL     1       1.107   4.725  10.684  1.00  0.00    -0.005 A 
ATOM     24  C   UNL     1       1.745   4.784  11.939  1.00  0.00     0.057 A 
ATOM     25  C   UNL     1       0.963   5.936   9.945  1.00  0.00     0.050 A 
ATOM     26  C   UNL     1       2.178   6.010  12.399  1.00  0.00     0.166 A 
ATOM     27  C   UNL     1       1.509   7.141  10.396  1.00  0.00     0.071 A 
ATOM     28  Cl  UNL     1       0.024   6.095   8.509  1.00  0.00    -0.084 Cl
ATOM     29  C   UNL     1       2.083   7.149  11.638  1.00  0.00     0.167 A 
ATOM     30  O   UNL     1       2.697   6.266  13.630  1.00  0.00    -0.454 OA
ATOM     31  O   UNL     1       2.547   8.251  12.282  1.00  0.00    -0.454 OA
ATOM     32  C   UNL     1       2.718   7.709  13.605  1.00  0.00     0.468 C 
ENDBRANCH  22  23
ENDBRANCH  19  22
ENDBRANCH  13  14
ENDBRANCH   7   8
ENDBRANCH   6   7
ENDBRANCH   4   6
ENDBRANCH   3   4
ENDBRANCH   2   3
ENDBRANCH   1   2
BRANCH   1  33
ATOM     33  O   UNL     1       4.327  -0.129  -2.049  1.00  0.00    -0.374 OA
BRANCH  33  34
ATOM     34  C   UNL     1       3.112  -0.647  -2.605  1.00  0.00     0.202 C 
BRANCH  34  35
ATOM     35  C   UNL     1       3.215  -1.921  -3.445  1.00  0.00     0.261 C 
BRANCH  35  36
ATOM     36  O   UNL     1       3.573  -3.055  -2.640  1.00  0.00    -0.460 OA
BRANCH  36  37
ATOM     37  C   UNL     1       4.862  -3.449  -2.770  1.00  0.00     0.338 C 
ATOM     38  O   UNL     1       5.682  -3.009  -3.561  1.00  0.00    -0.246 OA
BRANCH  37  39
ATOM     39  C   UNL     1       5.228  -4.370  -1.674  1.00  0.00     0.060 A 
ATOM     40  C   UNL     1       6.492  -4.194  -1.097  1.00  0.00     0.016 A 
ATOM     41  C   UNL     1       4.392  -5.406  -1.249  1.00  0.00     0.016 A 
ATOM     42  C   UNL     1       6.964  -5.107  -0.162  1.00  0.00     0.010 A 
ATOM     43  C   UNL     1       4.869  -6.327  -0.310  1.00  0.00     0.010 A 
ATOM     44  C   UNL     1       6.176  -6.210   0.192  1.00  0.00    -0.014 A 
BRANCH  44  45
ATOM     45  C   UNL     1       6.808  -7.318   0.943  1.00  0.00     0.031 A 
ATOM     46  C   UNL     1       7.308  -8.515   0.180  1.00  0.00     0.074 A 
ATOM     47  C   UNL     1       6.986  -7.229   2.272  1.00  0.00     0.049 A 
ATOM     48  N   UNL     1       7.948  -9.567   0.617  1.00  0.00    -0.248 NA
ATOM     49  C   UNL     1       7.054  -8.528  -1.272  1.00  0.00     0.031 C 
ATOM     50  C   UNL     1       6.535  -6.120   3.112  1.00  0.00     0.029 A 
ATOM     51  N   UNL     1       7.585  -8.096   3.149  1.00  0.00    -0.354 N 
ATOM     52  C   UNL     1       8.166 -10.368  -0.497  1.00  0.00     0.074 A 
ATOM     53  C   UNL     1       7.568  -9.696  -1.629  1.00  0.00     0.031 C 
ATOM     54  C   UNL     1       6.851  -6.387   4.391  1.00  0.00     0.029 A 
ATOM     55  C   UNL     1       7.519  -7.685   4.459  1.00  0.00     0.049 A 
ATOM     56  H   UNL     1       8.020  -8.933   2.868  1.00  0.00     0.167 HD
ATOM     57  C   UNL     1       8.829 -11.546  -0.577  1.00  0.00     0.034 A 
ATOM     58  C   UNL     1       7.942  -8.296   5.582  1.00  0.00     0.034 A 
ATOM     59  C   UNL     1       9.435 -12.203   0.549  1.00  0.00     0.049 A 
ATOM     60  C   UNL     1       8.674  -9.608   5.466  1.00  0.00     0.074 A 
ATOM     61  C   UNL     1      10.150 -13.386   0.574  1.00  0.00     0.029 A 
ATOM     62  N   UNL     1       9.392 -11.733   1.853  1.00  0.00    -0.354 N 
ATOM     63  N   UNL     1       8.978 -10.292   4.389  1.00  0.00    -0.248 NA
ATOM     64  C   UNL     1       9.159 -10.210   6.716  1.00  0.00     0.031 C 
ATOM     65  C   UNL     1      10.528 -13.639   1.898  1.00  0.00     0.029 A 
ATOM     66  C   UNL     1      10.065 -12.603   2.693  1.00  0.00     0.049 A 
ATOM     67  H   UNL     1       8.947 -10.902   2.139  1.00  0.00     0.167 HD
ATOM     68  C   UNL     1       9.709 -11.391   4.828  1.00  0.00     0.074 A 
ATOM     69  C   UNL     1       9.833 -11.259   6.266  1.00  0.00     0.031 C 
ATOM     70  C   UNL     1      10.214 -12.428   4.114  1.00  0.00     0.034 A 
BRANCH  57  71
ATOM     71  C   UNL     1       8.975 -12.176  -1.937  1.00  0.00     0.023 A 
ATOM     72  C   UNL     1       9.883 -11.620  -2.861  1.00  0.00     0.012 A 
ATOM     73  C   UNL     1       8.266 -13.343  -2.280  1.00  0.00     0.148 A 
ATOM     74  C   UNL     1      10.067 -12.202  -4.114  1.00  0.00     0.002 A 
ATOM     75  C   UNL     1       8.484 -13.940  -3.517  1.00  0.00     0.091 A 
ATOM     76  F   UNL     1       7.390 -13.842  -1.396  1.00  0.00    -0.205 F 
ATOM     77  C   UNL     1       9.377 -13.367  -4.438  1.00  0.00     0.022 A 
BRANCH  75  78
ATOM     78  S   UNL     1       7.696 -15.479  -4.006  1.00  0.00     0.127 S 
ATOM     79  O   UNL     1       6.806 -15.027  -5.075  1.00  0.00    -0.237 OA
ATOM     80  O   UNL     1       8.836 -16.277  -4.458  1.00  0.00    -0.237 OA
ATOM     81  O   UNL     1       7.030 -15.987  -2.816  1.00  0.00    -0.744 OA
ENDBRANCH  75  78
ENDBRANCH  57  71
BRANCH  58  82
ATOM     82  C   UNL     1       7.718  -7.656   6.909  1.00  0.00     0.023 A 
ATOM     83  C   UNL     1       8.813  -7.160   7.643  1.00  0.00     0.012 A 
ATOM     84  C   UNL     1       6.421  -7.526   7.441  1.00  0.00     0.148 A 
ATOM     85  C   UNL     1       8.622  -6.576   8.896  1.00  0.00     0.002 A 
ATOM     86  C   UNL     1       6.232  -6.894   8.664  1.00  0.00     0.091 A 
ATOM     87  F   UNL     1       5.392  -8.026   6.741  1.00  0.00    -0.205 F 
ATOM     88  C   UNL     1       7.333  -6.433   9.402  1.00  0.00     0.022 A 
BRANCH  86  89
ATOM     89  S   UNL     1       4.592  -6.557   9.314  1.00  0.00     0.127 S 
ATOM     90  O   UNL     1       4.441  -7.613  10.311  1.00  0.00    -0.237 OA
ATOM     91  O   UNL     1       4.748  -5.209   9.862  1.00  0.00    -0.237 OA
ATOM     92  O   UNL     1       3.701  -6.630   8.163  1.00  0.00    -0.744 OA
ENDBRANCH  86  89
ENDBRANCH  58  82
BRANCH  70  93
ATOM     93  C   UNL     1      10.956 -13.494   4.876  1.00  0.00     0.023 A 
ATOM     94  C   UNL     1      10.239 -14.390   5.694  1.00  0.00     0.012 A 
ATOM     95  C   UNL     1      12.350 -13.641   4.745  1.00  0.00     0.148 A 
ATOM     96  C   UNL     1      10.904 -15.389   6.403  1.00  0.00     0.002 A 
ATOM     97  C   UNL     1      13.000 -14.670   5.417  1.00  0.00     0.091 A 
ATOM     98  F   UNL     1      13.019 -12.768   3.978  1.00  0.00    -0.205 F 
ATOM     99  C   UNL     1      12.281 -15.536   6.256  1.00  0.00     0.022 A 
BRANCH  97 100
ATOM    100  S   UNL     1      14.757 -14.983   5.211  1.00  0.00     0.127 S 
ATOM    101  O   UNL     1      15.311 -14.392   6.427  1.00  0.00    -0.237 OA
ATOM    102  O   UNL     1      14.812 -16.445   5.165  1.00  0.00    -0.237 OA
ATOM    103  O   UNL     1      15.130 -14.330   3.964  1.00  0.00    -0.744 OA
ENDBRANCH  97 100
ENDBRANCH  70  93
ENDBRANCH  44  45
ENDBRANCH  37  39
ENDBRANCH  36  37
ENDBRANCH  35  36
ENDBRANCH  34  35
ENDBRANCH  33  34
ENDBRANCH   1  33
TORSDOF 22
