REMARK SMILES O=C(CNC(=O)N1CC(OCCOCCOC(=O)c2ccc(-c3c4nc(c(-c5cccc(S(=O)(=O)[O-])c5F)c5ccc([nH]5)c(-c5cccc(S(=O)(=O)[O-])c5F)c5nc(c(-c6cccc(S(=O)(=O)[O-])c6F)c6ccc3[nH]6)C=C5)C=C4)cc2)=Nc2ccccc21)N[C@H](C(=O)[O-])c1ccccc1
REMARK SMILES IDX 12 1 11 2 10 3 9 4 7 5 8 6 88 7 83 8 87 9 82 10 84 11 86 12
REMARK SMILES IDX 85 13 5 14 4 15 6 17 3 18 2 19 1 20 89 21 90 23 94 24 95 25
REMARK SMILES IDX 99 26 96 27 98 28 97 29 91 30 92 31 93 32 13 33 14 34 15 35
REMARK SMILES IDX 16 36 17 37 18 38 19 39 20 40 81 41 21 42 80 43 22 44 23 45
REMARK SMILES IDX 24 46 74 47 25 48 79 49 73 50 75 51 26 52 78 53 72 54 71 55
REMARK SMILES IDX 27 57 59 58 39 59 58 60 40 61 43 62 57 63 76 64 41 65 42 66
REMARK SMILES IDX 56 68 77 69 44 70 28 71 29 72 37 73 30 74 32 75 38 76 31 77
REMARK SMILES IDX 33 78 34 79 35 80 36 81 60 82 61 83 69 84 62 85 64 86 70 87
REMARK SMILES IDX 63 88 65 89 66 90 67 91 68 92 45 93 46 94 54 95 47 96 49 97
REMARK SMILES IDX 55 98 48 99 50 100 51 101 52 102 53 103
REMARK H PARENT 4 16 89 22 75 56 43 67
REMARK Flexibility Score: inf
ROOT
ATOM      1  C   UNL     1      -1.833   4.049   5.006  1.00  0.00     0.202 C 
ENDROOT
BRANCH   1   2
ATOM      2  C   UNL     1      -1.463   4.840   6.272  1.00  0.00     0.259 C 
BRANCH   2   3
ATOM      3  O   UNL     1      -0.061   5.183   6.360  1.00  0.00    -0.477 OA
BRANCH   3   4
ATOM      4  C   UNL     1       0.737   4.324   7.037  1.00  0.00     0.209 C 
ATOM      5  N   UNL     1       2.935   3.277   6.732  1.00  0.00    -0.283 N 
ATOM      6  C   UNL     1       2.213   4.551   6.809  1.00  0.00     0.224 C 
ATOM      7  C   UNL     1       2.449   2.236   7.593  1.00  0.00     0.072 A 
ATOM      8  C   UNL     1       1.126   2.326   8.089  1.00  0.00     0.091 A 
ATOM      9  C   UNL     1       3.211   1.113   7.931  1.00  0.00     0.029 A 
ATOM     10  N   UNL     1       0.247   3.364   7.750  1.00  0.00    -0.214 NA
ATOM     11  C   UNL     1       0.560   1.248   8.776  1.00  0.00     0.030 A 
ATOM     12  C   UNL     1       2.631   0.039   8.616  1.00  0.00     0.002 A 
ATOM     13  C   UNL     1       1.299   0.096   9.017  1.00  0.00     0.002 A 
BRANCH   5  14
ATOM     14  C   UNL     1       4.094   3.282   5.990  1.00  0.00     0.322 C 
ATOM     15  N   UNL     1       4.477   2.195   5.275  1.00  0.00    -0.329 N 
ATOM     16  H   UNL     1       5.422   2.194   4.999  1.00  0.00     0.165 HD
ATOM     17  O   UNL     1       4.785   4.298   5.881  1.00  0.00    -0.248 OA
BRANCH  15  18
ATOM     18  C   UNL     1       3.714   1.026   4.850  1.00  0.00     0.218 C 
BRANCH  18  19
ATOM     19  C   UNL     1       3.377   0.884   3.362  1.00  0.00     0.240 C 
ATOM     20  O   UNL     1       2.680  -0.062   2.998  1.00  0.00    -0.273 OA
ATOM     21  N   UNL     1       3.784   1.903   2.538  1.00  0.00    -0.342 N 
ATOM     22  H   UNL     1       4.304   2.651   2.909  1.00  0.00     0.164 HD
BRANCH  21  23
ATOM     23  C   UNL     1       3.448   1.888   1.093  1.00  0.00     0.158 C 
BRANCH  23  24
ATOM     24  C   UNL     1       3.714   3.265   0.471  1.00  0.00    -0.020 A 
ATOM     25  C   UNL     1       4.310   3.420  -0.791  1.00  0.00     0.006 A 
ATOM     26  C   UNL     1       3.292   4.433   1.135  1.00  0.00     0.006 A 
ATOM     27  C   UNL     1       4.492   4.685  -1.359  1.00  0.00     0.000 A 
ATOM     28  C   UNL     1       3.476   5.700   0.569  1.00  0.00     0.000 A 
ATOM     29  C   UNL     1       4.074   5.825  -0.681  1.00  0.00     0.000 A 
ENDBRANCH  23  24
BRANCH  23  30
ATOM     30  C   UNL     1       4.142   0.710   0.311  1.00  0.00     0.068 C 
ATOM     31  O   UNL     1       3.466   0.199  -0.632  1.00  0.00    -0.548 OA
ATOM     32  O   UNL     1       5.316   0.413   0.699  1.00  0.00    -0.548 OA
ENDBRANCH  23  30
ENDBRANCH  21  23
ENDBRANCH  18  19
ENDBRANCH  15  18
ENDBRANCH   5  14
ENDBRANCH   3   4
ENDBRANCH   2   3
ENDBRANCH   1   2
BRANCH   1  33
ATOM     33  O   UNL     1      -1.562   2.647   4.969  1.00  0.00    -0.374 OA
BRANCH  33  34
ATOM     34  C   UNL     1      -0.231   2.204   4.749  1.00  0.00     0.202 C 
BRANCH  34  35
ATOM     35  C   UNL     1       0.456   2.420   3.404  1.00  0.00     0.261 C 
BRANCH  35  36
ATOM     36  O   UNL     1       0.075   3.592   2.710  1.00  0.00    -0.460 OA
BRANCH  36  37
ATOM     37  C   UNL     1      -0.975   3.393   1.889  1.00  0.00     0.338 C 
ATOM     38  O   UNL     1      -1.636   2.369   1.763  1.00  0.00    -0.246 OA
BRANCH  37  39
ATOM     39  C   UNL     1      -1.300   4.656   1.214  1.00  0.00     0.060 A 
ATOM     40  C   UNL     1      -2.612   4.817   0.768  1.00  0.00     0.016 A 
ATOM     41  C   UNL     1      -0.333   5.642   0.977  1.00  0.00     0.016 A 
ATOM     42  C   UNL     1      -2.938   5.923   0.002  1.00  0.00     0.010 A 
ATOM     43  C   UNL     1      -0.657   6.753   0.211  1.00  0.00     0.010 A 
ATOM     44  C   UNL     1      -1.948   6.862  -0.317  1.00  0.00    -0.014 A 
BRANCH  44  45
ATOM     45  C   UNL     1      -2.269   7.907  -1.297  1.00  0.00     0.031 A 
ATOM     46  C   UNL     1      -1.958   7.666  -2.741  1.00  0.00     0.074 A 
ATOM     47  C   UNL     1      -2.868   9.029  -0.873  1.00  0.00     0.049 A 
ATOM     48  N   UNL     1      -2.361   8.335  -3.787  1.00  0.00    -0.248 NA
ATOM     49  C   UNL     1      -1.081   6.523  -3.053  1.00  0.00     0.031 C 
ATOM     50  C   UNL     1      -3.132   9.366   0.527  1.00  0.00     0.029 A 
ATOM     51  N   UNL     1      -3.357  10.091  -1.578  1.00  0.00    -0.354 N 
ATOM     52  C   UNL     1      -1.799   7.690  -4.883  1.00  0.00     0.074 A 
ATOM     53  C   UNL     1      -0.995   6.602  -4.373  1.00  0.00     0.031 C 
ATOM     54  C   UNL     1      -3.729  10.567   0.578  1.00  0.00     0.029 A 
ATOM     55  C   UNL     1      -3.907  11.064  -0.783  1.00  0.00     0.049 A 
ATOM     56  H   UNL     1      -3.317  10.153  -2.560  1.00  0.00     0.167 HD
ATOM     57  C   UNL     1      -1.972   7.975  -6.195  1.00  0.00     0.034 A 
ATOM     58  C   UNL     1      -4.514  12.213  -1.131  1.00  0.00     0.034 A 
ATOM     59  C   UNL     1      -2.776   9.074  -6.660  1.00  0.00     0.049 A 
ATOM     60  C   UNL     1      -4.737  12.479  -2.594  1.00  0.00     0.074 A 
ATOM     61  C   UNL     1      -3.088   9.431  -7.959  1.00  0.00     0.029 A 
ATOM     62  N   UNL     1      -3.381  10.010  -5.831  1.00  0.00    -0.354 N 
ATOM     63  N   UNL     1      -4.381  11.756  -3.630  1.00  0.00    -0.248 NA
ATOM     64  C   UNL     1      -5.502  13.684  -2.936  1.00  0.00     0.031 C 
ATOM     65  C   UNL     1      -3.859  10.599  -7.915  1.00  0.00     0.029 A 
ATOM     66  C   UNL     1      -4.053  10.954  -6.588  1.00  0.00     0.049 A 
ATOM     67  H   UNL     1      -3.338  10.002  -4.848  1.00  0.00     0.167 HD
ATOM     68  C   UNL     1      -4.905  12.396  -4.745  1.00  0.00     0.074 A 
ATOM     69  C   UNL     1      -5.628  13.553  -4.250  1.00  0.00     0.031 C 
ATOM     70  C   UNL     1      -4.792  12.073  -6.059  1.00  0.00     0.034 A 
BRANCH  57  71
ATOM     71  C   UNL     1      -1.323   7.063  -7.206  1.00  0.00     0.023 A 
ATOM     72  C   UNL     1      -1.809   5.749  -7.367  1.00  0.00     0.012 A 
ATOM     73  C   UNL     1      -0.279   7.516  -8.036  1.00  0.00     0.148 A 
ATOM     74  C   UNL     1      -1.248   4.891  -8.314  1.00  0.00     0.002 A 
ATOM     75  C   UNL     1       0.244   6.671  -9.011  1.00  0.00     0.091 A 
ATOM     76  F   UNL     1       0.186   8.760  -7.857  1.00  0.00    -0.205 F 
ATOM     77  C   UNL     1      -0.231   5.356  -9.142  1.00  0.00     0.022 A 
BRANCH  75  78
ATOM     78  S   UNL     1       1.489   7.205 -10.193  1.00  0.00     0.127 S 
ATOM     79  O   UNL     1       2.657   6.433  -9.772  1.00  0.00    -0.237 OA
ATOM     80  O   UNL     1       0.906   6.780 -11.467  1.00  0.00    -0.237 OA
ATOM     81  O   UNL     1       1.605   8.648 -10.034  1.00  0.00    -0.744 OA
ENDBRANCH  75  78
ENDBRANCH  57  71
BRANCH  58  82
ATOM     82  C   UNL     1      -5.046  13.111  -0.072  1.00  0.00     0.023 A 
ATOM     83  C   UNL     1      -6.437  13.203   0.126  1.00  0.00     0.012 A 
ATOM     84  C   UNL     1      -4.181  13.826   0.779  1.00  0.00     0.148 A 
ATOM     85  C   UNL     1      -6.959  14.014   1.133  1.00  0.00     0.002 A 
ATOM     86  C   UNL     1      -4.706  14.595   1.812  1.00  0.00     0.091 A 
ATOM     87  F   UNL     1      -2.860  13.731   0.570  1.00  0.00    -0.205 F 
ATOM     88  C   UNL     1      -6.095  14.702   1.981  1.00  0.00     0.022 A 
BRANCH  86  89
ATOM     89  S   UNL     1      -3.666  15.416   3.025  1.00  0.00     0.127 S 
ATOM     90  O   UNL     1      -3.788  16.816   2.625  1.00  0.00    -0.237 OA
ATOM     91  O   UNL     1      -4.336  15.077   4.281  1.00  0.00    -0.237 OA
ATOM     92  O   UNL     1      -2.343  14.825   2.873  1.00  0.00    -0.744 OA
ENDBRANCH  86  89
ENDBRANCH  58  82
BRANCH  70  93
ATOM     93  C   UNL     1      -5.472  12.986  -7.045  1.00  0.00     0.023 A 
ATOM     94  C   UNL     1      -4.948  14.275  -7.273  1.00  0.00     0.012 A 
ATOM     95  C   UNL     1      -6.599  12.558  -7.771  1.00  0.00     0.148 A 
ATOM     96  C   UNL     1      -5.565  15.140  -8.174  1.00  0.00     0.002 A 
ATOM     97  C   UNL     1      -7.179  13.409  -8.705  1.00  0.00     0.091 A 
ATOM     98  F   UNL     1      -7.096  11.336  -7.528  1.00  0.00    -0.205 F 
ATOM     99  C   UNL     1      -6.673  14.704  -8.896  1.00  0.00     0.022 A 
BRANCH  97 100
ATOM    100  S   UNL     1      -8.550  12.894  -9.745  1.00  0.00     0.127 S 
ATOM    101  O   UNL     1      -9.685  13.531  -9.081  1.00  0.00    -0.237 OA
ATOM    102  O   UNL     1      -8.199  13.478 -11.041  1.00  0.00    -0.237 OA
ATOM    103  O   UNL     1      -8.542  11.438  -9.722  1.00  0.00    -0.744 OA
ENDBRANCH  97 100
ENDBRANCH  70  93
ENDBRANCH  44  45
ENDBRANCH  37  39
ENDBRANCH  36  37
ENDBRANCH  35  36
ENDBRANCH  34  35
ENDBRANCH  33  34
ENDBRANCH   1  33
TORSDOF 22
