REMARK SMILES O=C(Cn1nc(-c2ccco2)ccc1=O)OCCOCCOC(=O)c1ccc(-c2c3nc(c(-c4cccc(S(=O)(=O)[O-])c4F)c4ccc([nH]4)c(-c4cccc(S(=O)(=O)[O-])c4F)c4nc(c(-c5cccc(S(=O)(=O)[O-])c5F)c5ccc2[nH]5)C=C4)C=C3)cc1
REMARK SMILES IDX 20 1 19 2 18 3 17 4 16 5 2 6 1 7 3 8 4 9 5 10 14 11 6 12
REMARK SMILES IDX 13 13 15 14 12 15 7 16 8 17 11 18 9 19 10 20 21 21 22 22
REMARK SMILES IDX 23 23 24 24 25 25 26 26 87 27 27 28 86 29 28 30 29 31 30 32
REMARK SMILES IDX 80 33 31 34 85 35 79 36 81 37 32 38 84 39 78 40 77 41 33 43
REMARK SMILES IDX 65 44 45 45 64 46 46 47 49 48 63 49 82 50 47 51 48 52 62 54
REMARK SMILES IDX 83 55 50 56 34 57 35 58 43 59 36 60 38 61 44 62 37 63 39 64
REMARK SMILES IDX 40 65 41 66 42 67 66 68 67 69 75 70 68 71 70 72 76 73 69 74
REMARK SMILES IDX 71 75 72 76 73 77 74 78 51 79 52 80 60 81 53 82 55 83 61 84
REMARK SMILES IDX 54 85 56 86 57 87 58 88 59 89
REMARK H PARENT 81 42 49 53
REMARK Flexibility Score: inf
ROOT
ATOM      1  C   UNL     1       2.981  -1.606   1.818  1.00  0.00     0.202 C 
ENDROOT
BRANCH   1   2
ATOM      2  O   UNL     1       4.210  -1.399   1.112  1.00  0.00    -0.374 OA
BRANCH   2   3
ATOM      3  C   UNL     1       4.739  -0.077   1.167  1.00  0.00     0.202 C 
BRANCH   3   4
ATOM      4  C   UNL     1       4.281   0.841   0.045  1.00  0.00     0.261 C 
BRANCH   4   5
ATOM      5  O   UNL     1       2.851   1.004   0.003  1.00  0.00    -0.462 OA
BRANCH   5   6
ATOM      6  C   UNL     1       1.987   0.237  -0.708  1.00  0.00     0.328 C 
ATOM      7  O   UNL     1       0.788   0.265  -0.415  1.00  0.00    -0.250 OA
BRANCH   6   8
ATOM      8  C   UNL     1       2.501  -0.786  -1.710  1.00  0.00     0.270 C 
BRANCH   8   9
ATOM      9  N   UNL     1       3.482  -0.342  -2.688  1.00  0.00    -0.218 N 
ATOM     10  N   UNL     1       3.564   1.013  -2.898  1.00  0.00    -0.166 NA
ATOM     11  C   UNL     1       4.325  -1.270  -3.279  1.00  0.00     0.267 A 
ATOM     12  C   UNL     1       4.530   1.461  -3.633  1.00  0.00     0.126 A 
ATOM     13  C   UNL     1       5.341  -0.716  -4.204  1.00  0.00     0.076 A 
ATOM     14  O   UNL     1       4.289  -2.481  -3.083  1.00  0.00    -0.268 OA
ATOM     15  C   UNL     1       5.459   0.601  -4.389  1.00  0.00     0.040 A 
BRANCH  12  16
ATOM     16  C   UNL     1       4.771   2.875  -3.598  1.00  0.00     0.154 A 
ATOM     17  C   UNL     1       5.464   3.632  -2.673  1.00  0.00     0.052 A 
ATOM     18  O   UNL     1       4.171   3.687  -4.514  1.00  0.00    -0.463 OA
ATOM     19  C   UNL     1       5.258   4.984  -3.028  1.00  0.00     0.043 A 
ATOM     20  C   UNL     1       4.460   4.965  -4.149  1.00  0.00     0.196 A 
ENDBRANCH  12  16
ENDBRANCH   8   9
ENDBRANCH   6   8
ENDBRANCH   5   6
ENDBRANCH   4   5
ENDBRANCH   3   4
ENDBRANCH   2   3
ENDBRANCH   1   2
BRANCH   1  21
ATOM     21  C   UNL     1       3.094  -1.770   3.338  1.00  0.00     0.261 C 
BRANCH  21  22
ATOM     22  O   UNL     1       3.380  -0.518   3.982  1.00  0.00    -0.460 OA
BRANCH  22  23
ATOM     23  C   UNL     1       4.665  -0.331   4.370  1.00  0.00     0.338 C 
ATOM     24  O   UNL     1       5.572  -1.146   4.316  1.00  0.00    -0.246 OA
BRANCH  23  25
ATOM     25  C   UNL     1       4.869   1.109   4.653  1.00  0.00     0.060 A 
ATOM     26  C   UNL     1       3.887   1.869   5.290  1.00  0.00     0.016 A 
ATOM     27  C   UNL     1       6.070   1.706   4.241  1.00  0.00     0.016 A 
ATOM     28  C   UNL     1       4.127   3.218   5.550  1.00  0.00     0.010 A 
ATOM     29  C   UNL     1       6.314   3.053   4.514  1.00  0.00     0.010 A 
ATOM     30  C   UNL     1       5.353   3.809   5.196  1.00  0.00    -0.014 A 
BRANCH  30  31
ATOM     31  C   UNL     1       5.672   5.159   5.716  1.00  0.00     0.031 A 
ATOM     32  C   UNL     1       5.687   6.370   4.839  1.00  0.00     0.074 A 
ATOM     33  C   UNL     1       5.935   5.269   7.033  1.00  0.00     0.049 A 
ATOM     34  N   UNL     1       5.774   7.626   5.191  1.00  0.00    -0.248 NA
ATOM     35  C   UNL     1       5.602   6.156   3.387  1.00  0.00     0.031 C 
ATOM     36  C   UNL     1       6.016   4.141   7.965  1.00  0.00     0.029 A 
ATOM     37  N   UNL     1       6.158   6.369   7.820  1.00  0.00    -0.354 N 
ATOM     38  C   UNL     1       5.762   8.356   4.011  1.00  0.00     0.074 A 
ATOM     39  C   UNL     1       5.678   7.400   2.926  1.00  0.00     0.031 C 
ATOM     40  C   UNL     1       6.217   4.610   9.205  1.00  0.00     0.029 A 
ATOM     41  C   UNL     1       6.300   6.066   9.153  1.00  0.00     0.049 A 
ATOM     42  H   UNL     1       6.212   7.286   7.465  1.00  0.00     0.167 HD
ATOM     43  C   UNL     1       5.796   9.700   3.856  1.00  0.00     0.034 A 
ATOM     44  C   UNL     1       6.453   6.869  10.223  1.00  0.00     0.034 A 
ATOM     45  C   UNL     1       5.862  10.638   4.945  1.00  0.00     0.049 A 
ATOM     46  C   UNL     1       6.456   8.355  10.026  1.00  0.00     0.074 A 
ATOM     47  C   UNL     1       5.821  12.020   4.888  1.00  0.00     0.029 A 
ATOM     48  N   UNL     1       6.000  10.295   6.281  1.00  0.00    -0.354 N 
ATOM     49  N   UNL     1       6.294   9.033   8.916  1.00  0.00    -0.248 NA
ATOM     50  C   UNL     1       6.636   9.189  11.223  1.00  0.00     0.031 C 
ATOM     51  C   UNL     1       5.964  12.514   6.187  1.00  0.00     0.029 A 
ATOM     52  C   UNL     1       6.065  11.439   7.057  1.00  0.00     0.049 A 
ATOM     53  H   UNL     1       6.045   9.374   6.627  1.00  0.00     0.167 HD
ATOM     54  C   UNL     1       6.330  10.372   9.280  1.00  0.00     0.074 A 
ATOM     55  C   UNL     1       6.522  10.411  10.716  1.00  0.00     0.031 C 
ATOM     56  C   UNL     1       6.220  11.466   8.489  1.00  0.00     0.034 A 
BRANCH  43  57
ATOM     57  C   UNL     1       5.717  10.256   2.462  1.00  0.00     0.023 A 
ATOM     58  C   UNL     1       4.473  10.289   1.802  1.00  0.00     0.012 A 
ATOM     59  C   UNL     1       6.843  10.844   1.853  1.00  0.00     0.148 A 
ATOM     60  C   UNL     1       4.351  10.890   0.550  1.00  0.00     0.002 A 
ATOM     61  C   UNL     1       6.708  11.464   0.617  1.00  0.00     0.091 A 
ATOM     62  F   UNL     1       8.017  10.791   2.497  1.00  0.00    -0.205 F 
ATOM     63  C   UNL     1       5.465  11.485  -0.037  1.00  0.00     0.022 A 
BRANCH  61  64
ATOM     64  S   UNL     1       8.070  12.294  -0.209  1.00  0.00     0.127 S 
ATOM     65  O   UNL     1       8.256  11.447  -1.387  1.00  0.00    -0.237 OA
ATOM     66  O   UNL     1       7.502  13.613  -0.489  1.00  0.00    -0.237 OA
ATOM     67  O   UNL     1       9.178  12.292   0.735  1.00  0.00    -0.744 OA
ENDBRANCH  61  64
ENDBRANCH  43  57
BRANCH  44  68
ATOM     68  C   UNL     1       6.519   6.257  11.577  1.00  0.00     0.023 A 
ATOM     69  C   UNL     1       5.383   6.300  12.407  1.00  0.00     0.012 A 
ATOM     70  C   UNL     1       7.658   5.544  11.995  1.00  0.00     0.148 A 
ATOM     71  C   UNL     1       5.381   5.642  13.636  1.00  0.00     0.002 A 
ATOM     72  C   UNL     1       7.636   4.861  13.205  1.00  0.00     0.091 A 
ATOM     73  F   UNL     1       8.719   5.513  11.178  1.00  0.00    -0.205 F 
ATOM     74  C   UNL     1       6.502   4.915  14.030  1.00  0.00     0.022 A 
BRANCH  72  75
ATOM     75  S   UNL     1       8.993   3.821  13.755  1.00  0.00     0.127 S 
ATOM     76  O   UNL     1       9.384   4.477  15.001  1.00  0.00    -0.237 OA
ATOM     77  O   UNL     1       8.328   2.529  13.921  1.00  0.00    -0.237 OA
ATOM     78  O   UNL     1       9.986   3.865  12.691  1.00  0.00    -0.744 OA
ENDBRANCH  72  75
ENDBRANCH  44  68
BRANCH  56  79
ATOM     79  C   UNL     1       6.292  12.821   9.135  1.00  0.00     0.023 A 
ATOM     80  C   UNL     1       7.545  13.356   9.485  1.00  0.00     0.012 A 
ATOM     81  C   UNL     1       5.136  13.618   9.246  1.00  0.00     0.148 A 
ATOM     82  C   UNL     1       7.648  14.672   9.934  1.00  0.00     0.002 A 
ATOM     83  C   UNL     1       5.250  14.939   9.660  1.00  0.00     0.091 A 
ATOM     84  F   UNL     1       3.955  13.078   8.910  1.00  0.00    -0.205 F 
ATOM     85  C   UNL     1       6.505  15.466  10.008  1.00  0.00     0.022 A 
BRANCH  83  86
ATOM     86  S   UNL     1       3.851  16.064   9.713  1.00  0.00     0.127 S 
ATOM     87  O   UNL     1       3.766  16.366  11.141  1.00  0.00    -0.237 OA
ATOM     88  O   UNL     1       4.317  17.172   8.880  1.00  0.00    -0.237 OA
ATOM     89  O   UNL     1       2.717  15.327   9.171  1.00  0.00    -0.744 OA
ENDBRANCH  83  86
ENDBRANCH  56  79
ENDBRANCH  30  31
ENDBRANCH  23  25
ENDBRANCH  22  23
ENDBRANCH  21  22
ENDBRANCH   1  21
TORSDOF 19
