REMARK SMILES C[C@@H](C(=O)OCCOCCOC(=O)c1ccc(-c2c3nc(c(-c4cccc(S(=O)(=O)[O-])c4F)c4ccc([nH]4)c(-c4cccc(S(=O)(=O)[O-])c4F)c4nc(c(-c5cccc(S(=O)(=O)[O-])c5F)c5ccc2[nH]5)C=C4)C=C3)cc1)c1ccc(C[C@@H]2CCC[C@@H]2O)cc1
REMARK SMILES IDX 7 1 6 2 5 3 3 4 4 5 2 6 1 7 77 8 78 9 89 10 79 11 88 12
REMARK SMILES IDX 80 13 81 14 82 15 83 16 86 17 84 18 85 19 87 20 8 22 9 23
REMARK SMILES IDX 10 24 11 25 12 26 13 27 14 28 15 29 76 30 16 31 75 32 17 33
REMARK SMILES IDX 18 34 19 35 69 36 20 37 74 38 68 39 70 40 21 41 73 42 67 43
REMARK SMILES IDX 66 44 22 46 54 47 34 48 53 49 35 50 38 51 52 52 71 53 36 54
REMARK SMILES IDX 37 55 51 57 72 58 39 59 23 60 24 61 32 62 25 63 27 64 33 65
REMARK SMILES IDX 26 66 28 67 29 68 30 69 31 70 55 71 56 72 64 73 57 74 59 75
REMARK SMILES IDX 65 76 58 77 60 78 61 79 62 80 63 81 40 82 41 83 49 84 42 85
REMARK SMILES IDX 44 86 50 87 43 88 45 89 46 90 47 91 48 92
REMARK H PARENT 87 21 70 45 38 56
REMARK Flexibility Score: inf
ROOT
ATOM      1  C   UNL     1     -11.477   1.296   9.368  1.00  0.00     0.202 C 
ENDROOT
BRANCH   1   2
ATOM      2  C   UNL     1     -10.335   2.283   9.635  1.00  0.00     0.261 C 
BRANCH   2   3
ATOM      3  O   UNL     1     -10.383   3.371   8.704  1.00  0.00    -0.463 OA
BRANCH   3   4
ATOM      4  C   UNL     1      -9.182   3.781   8.212  1.00  0.00     0.313 C 
ATOM      5  O   UNL     1      -8.097   3.460   8.685  1.00  0.00    -0.252 OA
BRANCH   4   6
ATOM      6  C   UNL     1      -9.334   4.566   6.907  1.00  0.00     0.126 C 
ATOM      7  C   UNL     1     -10.676   5.309   6.831  1.00  0.00     0.025 C 
BRANCH   6   8
ATOM      8  C   UNL     1      -9.022   3.747   5.646  1.00  0.00    -0.034 A 
ATOM      9  C   UNL     1      -8.466   2.458   5.702  1.00  0.00     0.005 A 
ATOM     10  C   UNL     1      -9.191   4.320   4.376  1.00  0.00     0.005 A 
ATOM     11  C   UNL     1      -8.032   1.800   4.545  1.00  0.00     0.004 A 
ATOM     12  C   UNL     1      -8.751   3.666   3.221  1.00  0.00     0.004 A 
ATOM     13  C   UNL     1      -8.112   2.425   3.300  1.00  0.00    -0.048 A 
BRANCH  13  14
ATOM     14  C   UNL     1      -7.452   1.827   2.084  1.00  0.00     0.041 C 
BRANCH  14  15
ATOM     15  C   UNL     1      -5.926   2.044   1.924  1.00  0.00     0.022 C 
ATOM     16  C   UNL     1      -5.060   1.365   2.993  1.00  0.00     0.007 C 
ATOM     17  C   UNL     1      -5.401   3.485   1.948  1.00  0.00     0.117 C 
ATOM     18  C   UNL     1      -4.686   2.446   4.011  1.00  0.00     0.003 C 
ATOM     19  C   UNL     1      -5.124   3.781   3.416  1.00  0.00     0.032 C 
BRANCH  17  20
ATOM     20  O   UNL     1      -6.273   4.431   1.364  1.00  0.00    -0.393 OA
ATOM     21  H   UNL     1      -7.115   4.435   1.845  1.00  0.00     0.210 HD
ENDBRANCH  17  20
ENDBRANCH  14  15
ENDBRANCH  13  14
ENDBRANCH   6   8
ENDBRANCH   4   6
ENDBRANCH   3   4
ENDBRANCH   2   3
ENDBRANCH   1   2
BRANCH   1  22
ATOM     22  O   UNL     1     -11.518   0.706   8.067  1.00  0.00    -0.374 OA
BRANCH  22  23
ATOM     23  C   UNL     1     -11.904   1.540   6.972  1.00  0.00     0.202 C 
BRANCH  23  24
ATOM     24  C   UNL     1     -13.373   1.978   6.901  1.00  0.00     0.261 C 
BRANCH  24  25
ATOM     25  O   UNL     1     -13.761   2.826   7.998  1.00  0.00    -0.460 OA
BRANCH  25  26
ATOM     26  C   UNL     1     -14.735   2.318   8.791  1.00  0.00     0.338 C 
ATOM     27  O   UNL     1     -15.346   1.266   8.627  1.00  0.00    -0.246 OA
BRANCH  26  28
ATOM     28  C   UNL     1     -14.869   3.111  10.024  1.00  0.00     0.060 A 
ATOM     29  C   UNL     1     -14.698   2.443  11.244  1.00  0.00     0.016 A 
ATOM     30  C   UNL     1     -15.255   4.452   9.998  1.00  0.00     0.016 A 
ATOM     31  C   UNL     1     -14.961   3.100  12.444  1.00  0.00     0.010 A 
ATOM     32  C   UNL     1     -15.527   5.108  11.206  1.00  0.00     0.010 A 
ATOM     33  C   UNL     1     -15.418   4.424  12.431  1.00  0.00    -0.014 A 
BRANCH  33  34
ATOM     34  C   UNL     1     -15.910   5.038  13.689  1.00  0.00     0.031 A 
ATOM     35  C   UNL     1     -17.392   5.096  13.947  1.00  0.00     0.074 A 
ATOM     36  C   UNL     1     -15.048   5.524  14.599  1.00  0.00     0.049 A 
ATOM     37  N   UNL     1     -18.035   5.592  14.972  1.00  0.00    -0.248 NA
ATOM     38  C   UNL     1     -18.265   4.518  12.912  1.00  0.00     0.031 C 
ATOM     39  C   UNL     1     -13.592   5.525  14.466  1.00  0.00     0.029 A 
ATOM     40  N   UNL     1     -15.277   6.134  15.808  1.00  0.00    -0.354 N 
ATOM     41  C   UNL     1     -19.385   5.408  14.699  1.00  0.00     0.074 A 
ATOM     42  C   UNL     1     -19.471   4.768  13.404  1.00  0.00     0.031 C 
ATOM     43  C   UNL     1     -13.058   6.135  15.538  1.00  0.00     0.029 A 
ATOM     44  C   UNL     1     -14.132   6.585  16.421  1.00  0.00     0.049 A 
ATOM     45  H   UNL     1     -16.175   6.238  16.198  1.00  0.00     0.167 HD
ATOM     46  C   UNL     1     -20.457   5.725  15.464  1.00  0.00     0.034 A 
ATOM     47  C   UNL     1     -13.972   7.297  17.555  1.00  0.00     0.034 A 
ATOM     48  C   UNL     1     -20.371   6.343  16.759  1.00  0.00     0.049 A 
ATOM     49  C   UNL     1     -15.181   7.655  18.378  1.00  0.00     0.074 A 
ATOM     50  C   UNL     1     -21.399   6.665  17.628  1.00  0.00     0.029 A 
ATOM     51  N   UNL     1     -19.192   6.743  17.369  1.00  0.00    -0.354 N 
ATOM     52  N   UNL     1     -16.442   7.366  18.164  1.00  0.00    -0.248 NA
ATOM     53  C   UNL     1     -14.943   8.408  19.619  1.00  0.00     0.031 C 
ATOM     54  C   UNL     1     -20.842   7.279  18.755  1.00  0.00     0.029 A 
ATOM     55  C   UNL     1     -19.466   7.318  18.599  1.00  0.00     0.049 A 
ATOM     56  H   UNL     1     -18.293   6.634  16.985  1.00  0.00     0.167 HD
ATOM     57  C   UNL     1     -17.142   7.870  19.256  1.00  0.00     0.074 A 
ATOM     58  C   UNL     1     -16.162   8.464  20.140  1.00  0.00     0.031 C 
ATOM     59  C   UNL     1     -18.477   7.856  19.496  1.00  0.00     0.034 A 
BRANCH  46  60
ATOM     60  C   UNL     1     -21.821   5.375  14.932  1.00  0.00     0.023 A 
ATOM     61  C   UNL     1     -22.238   4.028  14.923  1.00  0.00     0.012 A 
ATOM     62  C   UNL     1     -22.710   6.376  14.495  1.00  0.00     0.148 A 
ATOM     63  C   UNL     1     -23.507   3.680  14.462  1.00  0.00     0.002 A 
ATOM     64  C   UNL     1     -23.988   6.026  14.075  1.00  0.00     0.091 A 
ATOM     65  F   UNL     1     -22.286   7.648  14.489  1.00  0.00    -0.205 F 
ATOM     66  C   UNL     1     -24.384   4.679  14.048  1.00  0.00     0.022 A 
BRANCH  64  67
ATOM     67  S   UNL     1     -25.215   7.246  13.592  1.00  0.00     0.127 S 
ATOM     68  O   UNL     1     -25.274   7.048  12.144  1.00  0.00    -0.237 OA
ATOM     69  O   UNL     1     -26.402   6.793  14.317  1.00  0.00    -0.237 OA
ATOM     70  O   UNL     1     -24.693   8.534  14.027  1.00  0.00    -0.744 OA
ENDBRANCH  64  67
ENDBRANCH  46  60
BRANCH  47  71
ATOM     71  C   UNL     1     -12.604   7.692  17.995  1.00  0.00     0.023 A 
ATOM     72  C   UNL     1     -12.043   7.101  19.143  1.00  0.00     0.012 A 
ATOM     73  C   UNL     1     -11.851   8.636  17.270  1.00  0.00     0.148 A 
ATOM     74  C   UNL     1     -10.767   7.463  19.577  1.00  0.00     0.002 A 
ATOM     75  C   UNL     1     -10.560   8.951  17.676  1.00  0.00     0.091 A 
ATOM     76  F   UNL     1     -12.411   9.203  16.192  1.00  0.00    -0.205 F 
ATOM     77  C   UNL     1     -10.021   8.379  18.838  1.00  0.00     0.022 A 
BRANCH  75  78
ATOM     78  S   UNL     1      -9.485  10.021  16.712  1.00  0.00     0.127 S 
ATOM     79  O   UNL     1      -9.453  11.229  17.531  1.00  0.00    -0.237 OA
ATOM     80  O   UNL     1      -8.238   9.256  16.691  1.00  0.00    -0.237 OA
ATOM     81  O   UNL     1     -10.129  10.152  15.412  1.00  0.00    -0.744 OA
ENDBRANCH  75  78
ENDBRANCH  47  71
BRANCH  59  82
ATOM     82  C   UNL     1     -18.965   8.472  20.782  1.00  0.00     0.023 A 
ATOM     83  C   UNL     1     -18.969   9.873  20.929  1.00  0.00     0.012 A 
ATOM     84  C   UNL     1     -19.493   7.667  21.812  1.00  0.00     0.148 A 
ATOM     85  C   UNL     1     -19.464  10.462  22.093  1.00  0.00     0.002 A 
ATOM     86  C   UNL     1     -20.027   8.263  22.948  1.00  0.00     0.091 A 
ATOM     87  F   UNL     1     -19.463   6.335  21.662  1.00  0.00    -0.205 F 
ATOM     88  C   UNL     1     -20.003   9.659  23.096  1.00  0.00     0.022 A 
BRANCH  86  89
ATOM     89  S   UNL     1     -20.826   7.314  24.248  1.00  0.00     0.127 S 
ATOM     90  O   UNL     1     -19.827   7.367  25.314  1.00  0.00    -0.237 OA
ATOM     91  O   UNL     1     -22.036   8.096  24.507  1.00  0.00    -0.237 OA
ATOM     92  O   UNL     1     -21.072   5.993  23.684  1.00  0.00    -0.744 OA
ENDBRANCH  86  89
ENDBRANCH  59  82
ENDBRANCH  33  34
ENDBRANCH  26  28
ENDBRANCH  25  26
ENDBRANCH  24  25
ENDBRANCH  23  24
ENDBRANCH  22  23
ENDBRANCH   1  22
TORSDOF 21
