REMARK SMILES C[NH+]1CCC(NC(=O)N[C@H]2C=C[C@H](C(=O)OCCOCCOC(=O)c3ccc(-c4c5nc(c(-c6cccc(S(=O)(=O)[O-])c6F)c6ccc([nH]6)c(-c6cccc(S(=O)(=O)[O-])c6F)c6nc(c(-c7cccc(S(=O)(=O)[O-])c7F)c7ccc4[nH]7)C=C6)C=C5)cc3)C2)CC1
REMARK SMILES IDX 20 1 19 2 18 3 17 4 16 5 14 6 15 7 13 8 10 9 11 10 88 11
REMARK SMILES IDX 12 12 9 13 6 14 7 15 8 17 5 19 1 20 2 21 3 22 90 23 4 25
REMARK SMILES IDX 89 26 21 27 22 28 23 29 24 30 25 31 26 32 87 33 27 34 86 35
REMARK SMILES IDX 28 36 29 37 30 38 80 39 31 40 85 41 79 42 81 43 32 44 84 45
REMARK SMILES IDX 78 46 77 47 33 49 65 50 45 51 64 52 46 53 49 54 63 55 82 56
REMARK SMILES IDX 47 57 48 58 62 60 83 61 50 62 34 63 35 64 43 65 36 66 38 67
REMARK SMILES IDX 44 68 37 69 39 70 40 71 41 72 42 73 66 74 67 75 75 76 68 77
REMARK SMILES IDX 70 78 76 79 69 80 71 81 72 82 73 83 74 84 51 85 52 86 60 87
REMARK SMILES IDX 53 88 55 89 61 90 54 91 56 92 57 93 58 94 59 95
REMARK H PARENT 6 16 9 18 2 24 81 48 49 59
REMARK Flexibility Score: inf
ROOT
ATOM      1  C   UNL     1      -0.474   3.100  -3.533  1.00  0.00     0.202 C 
ENDROOT
BRANCH   1   2
ATOM      2  O   UNL     1      -1.543   2.905  -4.461  1.00  0.00    -0.374 OA
BRANCH   2   3
ATOM      3  C   UNL     1      -2.730   2.326  -3.912  1.00  0.00     0.202 C 
BRANCH   3   4
ATOM      4  C   UNL     1      -2.768   0.797  -3.973  1.00  0.00     0.261 C 
BRANCH   4   5
ATOM      5  O   UNL     1      -1.686   0.250  -3.211  1.00  0.00    -0.463 OA
BRANCH   5   6
ATOM      6  C   UNL     1      -0.576  -0.165  -3.894  1.00  0.00     0.312 C 
ATOM      7  O   UNL     1      -0.473  -0.289  -5.103  1.00  0.00    -0.252 OA
BRANCH   6   8
ATOM      8  C   UNL     1       0.531  -0.376  -2.877  1.00  0.00     0.124 C 
ATOM      9  C   UNL     1       2.985  -0.349  -2.902  1.00  0.00     0.107 C 
ATOM     10  C   UNL     1       2.448  -1.732  -2.790  1.00  0.00    -0.006 C 
ATOM     11  C   UNL     1       1.754   0.549  -3.056  1.00  0.00     0.048 C 
ATOM     12  C   UNL     1       1.111  -1.755  -2.841  1.00  0.00    -0.014 C 
BRANCH   9  13
ATOM     13  N   UNL     1       3.982  -0.044  -1.882  1.00  0.00    -0.332 N 
ATOM     14  N   UNL     1       3.231  -0.040   0.383  1.00  0.00    -0.335 N 
ATOM     15  C   UNL     1       4.168   0.037  -0.564  1.00  0.00     0.315 C 
ATOM     16  H   UNL     1       3.595  -0.117   1.294  1.00  0.00     0.165 HD
ATOM     17  O   UNL     1       5.336   0.193  -0.188  1.00  0.00    -0.249 OA
ATOM     18  H   UNL     1       4.827   0.186  -2.331  1.00  0.00     0.165 HD
BRANCH  14  19
ATOM     19  C   UNL     1       1.790  -0.032   0.334  1.00  0.00     0.095 C 
ATOM     20  C   UNL     1      -2.405   0.041   0.726  1.00  0.00     0.332 C 
ATOM     21  N   UNL     1      -0.997   0.034   1.147  1.00  0.00    -0.337 N 
ATOM     22  C   UNL     1      -0.325   1.246   0.669  1.00  0.00     0.264 C 
ATOM     23  C   UNL     1      -0.363  -1.229   0.747  1.00  0.00     0.264 C 
ATOM     24  H   UNL     1      -0.918   0.066   2.164  1.00  0.00     0.347 HD
ATOM     25  C   UNL     1       1.183   1.235   0.928  1.00  0.00     0.086 C 
ATOM     26  C   UNL     1       1.151  -1.253   0.977  1.00  0.00     0.086 C 
ENDBRANCH  14  19
ENDBRANCH   9  13
ENDBRANCH   6   8
ENDBRANCH   5   6
ENDBRANCH   4   5
ENDBRANCH   3   4
ENDBRANCH   2   3
ENDBRANCH   1   2
BRANCH   1  27
ATOM     27  C   UNL     1      -0.452   4.462  -2.836  1.00  0.00     0.261 C 
BRANCH  27  28
ATOM     28  O   UNL     1      -1.544   4.582  -1.914  1.00  0.00    -0.460 OA
BRANCH  28  29
ATOM     29  C   UNL     1      -2.617   5.243  -2.413  1.00  0.00     0.338 C 
ATOM     30  O   UNL     1      -2.702   5.804  -3.489  1.00  0.00    -0.246 OA
BRANCH  29  31
ATOM     31  C   UNL     1      -3.775   5.036  -1.525  1.00  0.00     0.060 A 
ATOM     32  C   UNL     1      -4.980   4.657  -2.126  1.00  0.00     0.016 A 
ATOM     33  C   UNL     1      -3.702   5.268  -0.150  1.00  0.00     0.016 A 
ATOM     34  C   UNL     1      -6.139   4.573  -1.363  1.00  0.00     0.010 A 
ATOM     35  C   UNL     1      -4.868   5.184   0.615  1.00  0.00     0.010 A 
ATOM     36  C   UNL     1      -6.097   4.882   0.002  1.00  0.00    -0.014 A 
BRANCH  36  37
ATOM     37  C   UNL     1      -7.367   5.030   0.751  1.00  0.00     0.031 A 
ATOM     38  C   UNL     1      -7.872   6.411   1.064  1.00  0.00     0.074 A 
ATOM     39  C   UNL     1      -8.067   3.945   1.124  1.00  0.00     0.049 A 
ATOM     40  N   UNL     1      -8.946   6.770   1.717  1.00  0.00    -0.248 NA
ATOM     41  C   UNL     1      -7.058   7.539   0.581  1.00  0.00     0.031 C 
ATOM     42  C   UNL     1      -7.679   2.560   0.866  1.00  0.00     0.029 A 
ATOM     43  N   UNL     1      -9.245   3.843   1.819  1.00  0.00    -0.354 N 
ATOM     44  C   UNL     1      -8.923   8.159   1.751  1.00  0.00     0.074 A 
ATOM     45  C   UNL     1      -7.720   8.579   1.066  1.00  0.00     0.031 C 
ATOM     46  C   UNL     1      -8.592   1.742   1.416  1.00  0.00     0.029 A 
ATOM     47  C   UNL     1      -9.609   2.546   2.089  1.00  0.00     0.049 A 
ATOM     48  H   UNL     1      -9.777   4.623   2.098  1.00  0.00     0.167 HD
ATOM     49  C   UNL     1      -9.829   9.009   2.290  1.00  0.00     0.034 A 
ATOM     50  C   UNL     1     -10.635   2.065   2.819  1.00  0.00     0.034 A 
ATOM     51  C   UNL     1     -11.030   8.584   2.957  1.00  0.00     0.049 A 
ATOM     52  C   UNL     1     -11.611   3.031   3.436  1.00  0.00     0.074 A 
ATOM     53  C   UNL     1     -12.035   9.364   3.499  1.00  0.00     0.029 A 
ATOM     54  N   UNL     1     -11.382   7.262   3.187  1.00  0.00    -0.354 N 
ATOM     55  N   UNL     1     -11.633   4.341   3.369  1.00  0.00    -0.248 NA
ATOM     56  C   UNL     1     -12.723   2.452   4.202  1.00  0.00     0.031 C 
ATOM     57  C   UNL     1     -12.975   8.516   4.093  1.00  0.00     0.029 A 
ATOM     58  C   UNL     1     -12.580   7.205   3.878  1.00  0.00     0.049 A 
ATOM     59  H   UNL     1     -10.857   6.480   2.901  1.00  0.00     0.167 HD
ATOM     60  C   UNL     1     -12.780   4.739   4.048  1.00  0.00     0.074 A 
ATOM     61  C   UNL     1     -13.435   3.530   4.502  1.00  0.00     0.031 C 
ATOM     62  C   UNL     1     -13.244   5.992   4.283  1.00  0.00     0.034 A 
BRANCH  49  63
ATOM     63  C   UNL     1      -9.561  10.487   2.171  1.00  0.00     0.023 A 
ATOM     64  C   UNL     1      -9.669  11.123   0.918  1.00  0.00     0.012 A 
ATOM     65  C   UNL     1      -9.255  11.256   3.311  1.00  0.00     0.148 A 
ATOM     66  C   UNL     1      -9.442  12.494   0.794  1.00  0.00     0.002 A 
ATOM     67  C   UNL     1      -9.078  12.629   3.189  1.00  0.00     0.091 A 
ATOM     68  F   UNL     1      -9.136  10.631   4.491  1.00  0.00    -0.205 F 
ATOM     69  C   UNL     1      -9.158  13.247   1.930  1.00  0.00     0.022 A 
BRANCH  67  70
ATOM     70  S   UNL     1      -8.789  13.699   4.602  1.00  0.00     0.127 S 
ATOM     71  O   UNL     1      -7.406  14.118   4.376  1.00  0.00    -0.237 OA
ATOM     72  O   UNL     1      -9.785  14.751   4.398  1.00  0.00    -0.237 OA
ATOM     73  O   UNL     1      -9.005  12.876   5.783  1.00  0.00    -0.744 OA
ENDBRANCH  67  70
ENDBRANCH  49  63
BRANCH  50  74
ATOM     74  C   UNL     1     -10.806   0.594   2.984  1.00  0.00     0.023 A 
ATOM     75  C   UNL     1     -11.905  -0.052   2.387  1.00  0.00     0.012 A 
ATOM     76  C   UNL     1      -9.877  -0.167   3.720  1.00  0.00     0.148 A 
ATOM     77  C   UNL     1     -12.095  -1.425   2.548  1.00  0.00     0.002 A 
ATOM     78  C   UNL     1     -10.040  -1.542   3.827  1.00  0.00     0.091 A 
ATOM     79  F   UNL     1      -8.845   0.470   4.290  1.00  0.00    -0.205 F 
ATOM     80  C   UNL     1     -11.159  -2.171   3.259  1.00  0.00     0.022 A 
BRANCH  78  81
ATOM     81  S   UNL     1      -8.818  -2.600   4.609  1.00  0.00     0.127 S 
ATOM     82  O   UNL     1      -9.538  -3.068   5.790  1.00  0.00    -0.237 OA
ATOM     83  O   UNL     1      -8.597  -3.614   3.577  1.00  0.00    -0.237 OA
ATOM     84  O   UNL     1      -7.666  -1.747   4.869  1.00  0.00    -0.744 OA
ENDBRANCH  78  81
ENDBRANCH  50  74
BRANCH  62  85
ATOM     85  C   UNL     1     -14.551   6.125   5.024  1.00  0.00     0.023 A 
ATOM     86  C   UNL     1     -14.621   5.819   6.397  1.00  0.00     0.012 A 
ATOM     87  C   UNL     1     -15.696   6.618   4.367  1.00  0.00     0.148 A 
ATOM     88  C   UNL     1     -15.820   5.962   7.095  1.00  0.00     0.002 A 
ATOM     89  C   UNL     1     -16.872   6.811   5.081  1.00  0.00     0.091 A 
ATOM     90  F   UNL     1     -15.614   6.890   3.056  1.00  0.00    -0.205 F 
ATOM     91  C   UNL     1     -16.941   6.468   6.441  1.00  0.00     0.022 A 
BRANCH  89  92
ATOM     92  S   UNL     1     -18.335   7.550   4.347  1.00  0.00     0.127 S 
ATOM     93  O   UNL     1     -19.244   6.407   4.278  1.00  0.00    -0.237 OA
ATOM     94  O   UNL     1     -18.701   8.561   5.340  1.00  0.00    -0.237 OA
ATOM     95  O   UNL     1     -17.913   8.089   3.062  1.00  0.00    -0.744 OA
ENDBRANCH  89  92
ENDBRANCH  62  85
ENDBRANCH  36  37
ENDBRANCH  29  31
ENDBRANCH  28  29
ENDBRANCH  27  28
ENDBRANCH   1  27
TORSDOF 19
