REMARK SMILES O=C(OCCOCCOC(=O)c1ccc(-c2c3nc(c(-c4cccc(S(=O)(=O)[O-])c4F)c4ccc([nH]4)c(-c4cccc(S(=O)(=O)[O-])c4F)c4nc(c(-c5cccc(S(=O)(=O)[O-])c5F)c5ccc2[nH]5)C=C4)C=C3)cc1)C1=Cc2cc(Cl)cc(-c3ccc(CO)cc3)c2O[C@@H]1C(F)(F)F
REMARK SMILES IDX 6 1 5 2 4 3 3 4 2 5 1 6 75 7 76 8 93 9 77 10 92 11 78 12
REMARK SMILES IDX 91 13 79 14 82 15 80 16 81 17 94 18 95 19 96 20 97 21 83 22
REMARK SMILES IDX 84 23 90 24 85 25 89 26 86 27 87 28 88 29 7 31 8 32 9 33
REMARK SMILES IDX 10 34 11 35 12 36 13 37 74 38 14 39 73 40 15 41 16 42 17 43
REMARK SMILES IDX 67 44 18 45 72 46 66 47 68 48 19 49 71 50 65 51 64 52 20 54
REMARK SMILES IDX 52 55 32 56 51 57 33 58 36 59 50 60 69 61 34 62 35 63 49 65
REMARK SMILES IDX 70 66 37 67 21 68 22 69 30 70 23 71 25 72 31 73 24 74 26 75
REMARK SMILES IDX 27 76 28 77 29 78 53 79 54 80 62 81 55 82 57 83 63 84 56 85
REMARK SMILES IDX 58 86 59 87 60 88 61 89 38 90 39 91 47 92 40 93 42 94 48 95
REMARK SMILES IDX 41 96 43 97 44 98 45 99 46 100
REMARK H PARENT 88 30 68 53 36 64
REMARK Flexibility Score: inf
ROOT
ATOM      1  O   UNL     1       3.889   2.143   1.171  1.00  0.00    -0.374 OA
ENDROOT
BRANCH   1   2
ATOM      2  C   UNL     1       4.424   0.590   0.850  1.00  0.00     0.202 C 
BRANCH   2   3
ATOM      3  C   UNL     1       3.495  -0.950  -0.377  1.00  0.00     0.261 C 
BRANCH   3   4
ATOM      4  O   UNL     1       2.449  -1.981   0.097  1.00  0.00    -0.460 OA
BRANCH   4   5
ATOM      5  C   UNL     1       2.589  -2.308   1.385  1.00  0.00     0.338 C 
ATOM      6  O   UNL     1       1.874  -2.978   2.088  1.00  0.00    -0.246 OA
BRANCH   5   7
ATOM      7  C   UNL     1       3.560  -1.278   1.707  1.00  0.00     0.087 C 
ATOM      8  C   UNL     1       4.906  -1.613   1.267  1.00  0.00     0.027 C 
ATOM      9  C   UNL     1       2.503   0.161   0.984  1.00  0.00     0.316 C 
ATOM     10  C   UNL     1       5.712  -0.888  -0.164  1.00  0.00     0.019 A 
ATOM     11  O   UNL     1       3.335   0.941  -0.611  1.00  0.00    -0.475 OA
ATOM     12  C   UNL     1       6.899  -1.473  -0.513  1.00  0.00     0.032 A 
ATOM     13  C   UNL     1       4.958   0.296  -1.209  1.00  0.00     0.135 A 
ATOM     14  C   UNL     1       7.379  -1.118  -1.771  1.00  0.00     0.042 A 
ATOM     15  C   UNL     1       5.588   0.647  -2.443  1.00  0.00     0.026 A 
ATOM     16  Cl  UNL     1       8.872  -1.845  -2.269  1.00  0.00    -0.084 Cl
ATOM     17  C   UNL     1       6.743  -0.184  -2.678  1.00  0.00     0.033 A 
BRANCH   9  18
ATOM     18  C   UNL     1       2.174   0.701   2.513  1.00  0.00     0.430 C 
ATOM     19  F   UNL     1       1.252   1.675   2.622  1.00  0.00    -0.167 F 
ATOM     20  F   UNL     1       1.606  -0.339   3.206  1.00  0.00    -0.167 F 
ATOM     21  F   UNL     1       3.253   1.032   3.265  1.00  0.00    -0.167 F 
ENDBRANCH   9  18
BRANCH  15  22
ATOM     22  C   UNL     1       5.264   1.777  -3.553  1.00  0.00    -0.015 A 
ATOM     23  C   UNL     1       3.705   1.240  -4.311  1.00  0.00     0.009 A 
ATOM     24  C   UNL     1       5.802   3.706  -3.903  1.00  0.00     0.009 A 
ATOM     25  C   UNL     1       2.761   2.400  -5.252  1.00  0.00     0.007 A 
ATOM     26  C   UNL     1       4.722   4.776  -4.852  1.00  0.00     0.007 A 
ATOM     27  C   UNL     1       3.256   4.091  -5.507  1.00  0.00    -0.023 A 
BRANCH  27  28
ATOM     28  C   UNL     1       2.610   4.907  -6.594  1.00  0.00     0.191 C 
BRANCH  28  29
ATOM     29  O   UNL     1       3.378   4.777  -7.780  1.00  0.00    -0.392 OA
ATOM     30  H   UNL     1       4.280   5.095  -7.617  1.00  0.00     0.211 HD
ENDBRANCH  28  29
ENDBRANCH  27  28
ENDBRANCH  15  22
ENDBRANCH   5   7
ENDBRANCH   4   5
ENDBRANCH   3   4
ENDBRANCH   2   3
ENDBRANCH   1   2
BRANCH   1  31
ATOM     31  C   UNL     1       2.631   2.848   0.930  1.00  0.00     0.202 C 
BRANCH  31  32
ATOM     32  C   UNL     1       2.610   4.173   0.176  1.00  0.00     0.261 C 
BRANCH  32  33
ATOM     33  O   UNL     1       3.277   4.029  -1.039  1.00  0.00    -0.460 OA
BRANCH  33  34
ATOM     34  C   UNL     1       4.602   3.953  -0.853  1.00  0.00     0.338 C 
ATOM     35  O   UNL     1       5.288   4.293   0.090  1.00  0.00    -0.246 OA
BRANCH  34  36
ATOM     36  C   UNL     1       5.070   3.300  -2.038  1.00  0.00     0.060 A 
ATOM     37  C   UNL     1       6.793   2.862  -2.162  1.00  0.00     0.016 A 
ATOM     38  C   UNL     1       4.035   3.219  -3.531  1.00  0.00     0.016 A 
ATOM     39  C   UNL     1       7.557   2.397  -3.709  1.00  0.00     0.010 A 
ATOM     40  C   UNL     1       4.971   2.671  -5.232  1.00  0.00     0.010 A 
ATOM     41  C   UNL     1       6.705   2.312  -5.234  1.00  0.00    -0.014 A 
BRANCH  41  42
ATOM     42  C   UNL     1       7.265   2.307  -6.622  1.00  0.00     0.031 A 
ATOM     43  C   UNL     1       7.567   3.607  -7.358  1.00  0.00     0.074 A 
ATOM     44  C   UNL     1       7.051   1.204  -7.365  1.00  0.00     0.049 A 
ATOM     45  N   UNL     1       7.832   3.815  -8.628  1.00  0.00    -0.248 NA
ATOM     46  C   UNL     1       7.485   4.853  -6.584  1.00  0.00     0.031 C 
ATOM     47  C   UNL     1       6.494  -0.049  -6.857  1.00  0.00     0.029 A 
ATOM     48  N   UNL     1       7.188   0.985  -8.714  1.00  0.00    -0.354 N 
ATOM     49  C   UNL     1       7.921   5.199  -8.796  1.00  0.00     0.074 A 
ATOM     50  C   UNL     1       7.593   5.787  -7.519  1.00  0.00     0.031 C 
ATOM     51  C   UNL     1       6.324  -0.902  -7.880  1.00  0.00     0.029 A 
ATOM     52  C   UNL     1       6.772  -0.264  -9.114  1.00  0.00     0.049 A 
ATOM     53  H   UNL     1       7.550   1.657  -9.336  1.00  0.00     0.167 HD
ATOM     54  C   UNL     1       8.294   5.919  -9.886  1.00  0.00     0.034 A 
ATOM     55  C   UNL     1       6.770  -0.841 -10.332  1.00  0.00     0.034 A 
ATOM     56  C   UNL     1       8.628   5.322 -11.152  1.00  0.00     0.049 A 
ATOM     57  C   UNL     1       7.311  -0.076 -11.511  1.00  0.00     0.074 A 
ATOM     58  C   UNL     1       9.196   5.912 -12.268  1.00  0.00     0.029 A 
ATOM     59  N   UNL     1       8.389   3.998 -11.479  1.00  0.00    -0.354 N 
ATOM     60  N   UNL     1       7.690   1.177 -11.579  1.00  0.00    -0.248 NA
ATOM     61  C   UNL     1       7.487  -0.824 -12.765  1.00  0.00     0.031 C 
ATOM     62  C   UNL     1       9.255   4.953 -13.286  1.00  0.00     0.029 A 
ATOM     63  C   UNL     1       8.787   3.752 -12.780  1.00  0.00     0.049 A 
ATOM     64  H   UNL     1       7.994   3.330 -10.873  1.00  0.00     0.167 HD
ATOM     65  C   UNL     1       8.200   1.351 -12.862  1.00  0.00     0.074 A 
ATOM     66  C   UNL     1       8.094   0.072 -13.531  1.00  0.00     0.031 C 
ATOM     67  C   UNL     1       8.712   2.470 -13.431  1.00  0.00     0.034 A 
BRANCH  54  68
ATOM     68  C   UNL     1       8.467   7.422  -9.746  1.00  0.00     0.023 A 
ATOM     69  C   UNL     1       9.457   7.921  -8.870  1.00  0.00     0.012 A 
ATOM     70  C   UNL     1       7.745   8.337 -10.542  1.00  0.00     0.148 A 
ATOM     71  C   UNL     1       9.687   9.292  -8.746  1.00  0.00     0.002 A 
ATOM     72  C   UNL     1       8.016   9.701 -10.452  1.00  0.00     0.091 A 
ATOM     73  F   UNL     1       6.813   7.861 -11.380  1.00  0.00    -0.205 F 
ATOM     74  C   UNL     1       8.973  10.180  -9.543  1.00  0.00     0.022 A 
BRANCH  72  75
ATOM     75  S   UNL     1       7.220  10.934 -11.491  1.00  0.00     0.127 S 
ATOM     76  O   UNL     1       6.463  11.706 -10.505  1.00  0.00    -0.237 OA
ATOM     77  O   UNL     1       8.368  11.639 -12.062  1.00  0.00    -0.237 OA
ATOM     78  O   UNL     1       6.413  10.196 -12.452  1.00  0.00    -0.744 OA
ENDBRANCH  72  75
ENDBRANCH  54  68
BRANCH  55  79
ATOM     79  C   UNL     1       6.393  -2.276 -10.472  1.00  0.00     0.023 A 
ATOM     80  C   UNL     1       7.411  -3.225 -10.700  1.00  0.00     0.012 A 
ATOM     81  C   UNL     1       5.060  -2.712 -10.361  1.00  0.00     0.148 A 
ATOM     82  C   UNL     1       7.104  -4.574 -10.871  1.00  0.00     0.002 A 
ATOM     83  C   UNL     1       4.766  -4.066 -10.482  1.00  0.00     0.091 A 
ATOM     84  F   UNL     1       4.111  -1.796 -10.123  1.00  0.00    -0.205 F 
ATOM     85  C   UNL     1       5.784  -4.995 -10.757  1.00  0.00     0.022 A 
BRANCH  83  86
ATOM     86  S   UNL     1       3.114  -4.726 -10.242  1.00  0.00     0.127 S 
ATOM     87  O   UNL     1       2.811  -5.260 -11.569  1.00  0.00    -0.237 OA
ATOM     88  O   UNL     1       3.345  -5.737  -9.210  1.00  0.00    -0.237 OA
ATOM     89  O   UNL     1       2.294  -3.601  -9.816  1.00  0.00    -0.744 OA
ENDBRANCH  83  86
ENDBRANCH  55  79
BRANCH  67  90
ATOM     90  C   UNL     1       9.264   2.361 -14.829  1.00  0.00     0.023 A 
ATOM     91  C   UNL     1       8.406   2.147 -15.925  1.00  0.00     0.012 A 
ATOM     92  C   UNL     1      10.644   2.538 -15.056  1.00  0.00     0.148 A 
ATOM     93  C   UNL     1       8.918   2.067 -17.220  1.00  0.00     0.002 A 
ATOM     94  C   UNL     1      11.139   2.517 -16.352  1.00  0.00     0.091 A 
ATOM     95  F   UNL     1      11.446   2.728 -13.998  1.00  0.00    -0.205 F 
ATOM     96  C   UNL     1      10.280   2.264 -17.434  1.00  0.00     0.022 A 
BRANCH  94  97
ATOM     97  S   UNL     1      12.860   2.858 -16.734  1.00  0.00     0.127 S 
ATOM     98  O   UNL     1      13.315   1.562 -17.236  1.00  0.00    -0.237 OA
ATOM     99  O   UNL     1      12.747   3.901 -17.753  1.00  0.00    -0.237 OA
ATOM    100  O   UNL     1      13.476   3.289 -15.486  1.00  0.00    -0.744 OA
ENDBRANCH  94  97
ENDBRANCH  67  90
ENDBRANCH  41  42
ENDBRANCH  34  36
ENDBRANCH  33  34
ENDBRANCH  32  33
ENDBRANCH  31  32
ENDBRANCH   1  31
TORSDOF 21
