REMARK SMILES O=C(OCCOCCOC(=O)[C@@H]1CCC[C@@H](C(=O)N2CCN3C(=O)NC[C@@H]3C2)C1)c1ccc(-c2c3nc(c(-c4cccc(S(=O)(=O)[O-])c4F)c4ccc([nH]4)c(-c4cccc(S(=O)(=O)[O-])c4F)c4nc(c(-c5cccc(S(=O)(=O)[O-])c5F)c5ccc2[nH]5)C=C4)C=C3)cc1
REMARK SMILES IDX 5 1 4 2 3 3 2 4 1 5 30 6 31 7 92 8 32 9 91 10 33 11 34 12
REMARK SMILES IDX 35 13 85 14 36 15 90 16 84 17 86 18 37 19 89 20 83 21 82 22
REMARK SMILES IDX 38 24 70 25 50 26 69 27 51 28 54 29 68 30 87 31 52 32 53 33
REMARK SMILES IDX 67 35 88 36 55 37 39 38 40 39 48 40 41 41 43 42 49 43 42 44
REMARK SMILES IDX 44 45 45 46 46 47 47 48 71 49 72 50 80 51 73 52 75 53 81 54
REMARK SMILES IDX 74 55 76 56 77 57 78 58 79 59 56 60 57 61 65 62 58 63 60 64
REMARK SMILES IDX 66 65 59 66 61 67 62 68 63 69 64 70 6 71 7 72 8 73 9 74
REMARK SMILES IDX 10 75 11 76 12 77 13 78 29 79 14 80 16 81 15 82 17 83 18 84
REMARK SMILES IDX 19 85 20 86 28 87 21 88 27 89 22 90 26 91 23 92 25 93 24 94
REMARK H PARENT 86 23 54 34 25 95
REMARK Flexibility Score: inf
ROOT
ATOM      1  C   UNL     1       4.774   0.783   0.812  1.00  0.00     0.202 C 
ENDROOT
BRANCH   1   2
ATOM      2  C   UNL     1       4.381   0.873  -0.674  1.00  0.00     0.261 C 
BRANCH   2   3
ATOM      3  O   UNL     1       2.969   0.709  -0.891  1.00  0.00    -0.460 OA
BRANCH   3   4
ATOM      4  C   UNL     1       2.326  -0.445  -1.213  1.00  0.00     0.338 C 
ATOM      5  O   UNL     1       1.119  -0.409  -1.442  1.00  0.00    -0.246 OA
BRANCH   4   6
ATOM      6  C   UNL     1       3.031  -1.759  -1.280  1.00  0.00     0.060 A 
ATOM      7  C   UNL     1       4.199  -2.039  -0.579  1.00  0.00     0.016 A 
ATOM      8  C   UNL     1       2.462  -2.799  -2.026  1.00  0.00     0.016 A 
ATOM      9  C   UNL     1       4.830  -3.249  -0.623  1.00  0.00     0.010 A 
ATOM     10  C   UNL     1       3.072  -4.059  -2.058  1.00  0.00     0.010 A 
ATOM     11  C   UNL     1       4.259  -4.271  -1.349  1.00  0.00    -0.014 A 
BRANCH  11  12
ATOM     12  C   UNL     1       5.073  -5.482  -1.405  1.00  0.00     0.031 A 
ATOM     13  C   UNL     1       5.889  -5.701  -2.631  1.00  0.00     0.074 A 
ATOM     14  C   UNL     1       5.247  -6.188  -0.273  1.00  0.00     0.049 A 
ATOM     15  N   UNL     1       6.683  -6.689  -2.917  1.00  0.00    -0.248 NA
ATOM     16  C   UNL     1       5.825  -4.651  -3.667  1.00  0.00     0.031 C 
ATOM     17  C   UNL     1       4.626  -5.878   1.024  1.00  0.00     0.029 A 
ATOM     18  N   UNL     1       6.022  -7.280  -0.014  1.00  0.00    -0.354 N 
ATOM     19  C   UNL     1       7.147  -6.426  -4.196  1.00  0.00     0.074 A 
ATOM     20  C   UNL     1       6.591  -5.163  -4.617  1.00  0.00     0.031 C 
ATOM     21  C   UNL     1       5.038  -6.772   1.935  1.00  0.00     0.029 A 
ATOM     22  C   UNL     1       5.873  -7.758   1.266  1.00  0.00     0.049 A 
ATOM     23  H   UNL     1       6.627  -7.686  -0.677  1.00  0.00     0.167 HD
ATOM     24  C   UNL     1       7.948  -7.208  -4.949  1.00  0.00     0.034 A 
ATOM     25  C   UNL     1       6.316  -8.909   1.801  1.00  0.00     0.034 A 
ATOM     26  C   UNL     1       8.479  -8.451  -4.471  1.00  0.00     0.049 A 
ATOM     27  C   UNL     1       7.130  -9.802   0.906  1.00  0.00     0.074 A 
ATOM     28  C   UNL     1       9.254  -9.374  -5.143  1.00  0.00     0.029 A 
ATOM     29  N   UNL     1       8.273  -8.946  -3.189  1.00  0.00    -0.354 N 
ATOM     30  N   UNL     1       7.540  -9.581  -0.323  1.00  0.00    -0.248 NA
ATOM     31  C   UNL     1       7.549 -11.092   1.460  1.00  0.00     0.031 C 
ATOM     32  C   UNL     1       9.483 -10.447  -4.277  1.00  0.00     0.029 A 
ATOM     33  C   UNL     1       8.894 -10.170  -3.050  1.00  0.00     0.049 A 
ATOM     34  H   UNL     1       7.759  -8.490  -2.484  1.00  0.00     0.167 HD
ATOM     35  C   UNL     1       8.291 -10.690  -0.680  1.00  0.00     0.074 A 
ATOM     36  C   UNL     1       8.298 -11.569   0.475  1.00  0.00     0.031 C 
ATOM     37  C   UNL     1       8.906 -10.975  -1.854  1.00  0.00     0.034 A 
BRANCH  24  38
ATOM     38  C   UNL     1       8.201  -6.777  -6.363  1.00  0.00     0.023 A 
ATOM     39  C   UNL     1       9.056  -5.694  -6.646  1.00  0.00     0.012 A 
ATOM     40  C   UNL     1       7.567  -7.456  -7.421  1.00  0.00     0.148 A 
ATOM     41  C   UNL     1       9.255  -5.278  -7.963  1.00  0.00     0.002 A 
ATOM     42  C   UNL     1       7.806  -7.067  -8.731  1.00  0.00     0.091 A 
ATOM     43  F   UNL     1       6.726  -8.457  -7.122  1.00  0.00    -0.205 F 
ATOM     44  C   UNL     1       8.640  -5.971  -9.004  1.00  0.00     0.022 A 
BRANCH  42  45
ATOM     45  S   UNL     1       7.110  -7.934 -10.140  1.00  0.00     0.127 S 
ATOM     46  O   UNL     1       6.274  -6.896 -10.742  1.00  0.00    -0.237 OA
ATOM     47  O   UNL     1       8.309  -8.273 -10.907  1.00  0.00    -0.237 OA
ATOM     48  O   UNL     1       6.384  -9.074  -9.598  1.00  0.00    -0.744 OA
ENDBRANCH  42  45
ENDBRANCH  24  38
BRANCH  25  49
ATOM     49  C   UNL     1       5.950  -9.301   3.191  1.00  0.00     0.023 A 
ATOM     50  C   UNL     1       6.955  -9.476   4.161  1.00  0.00     0.012 A 
ATOM     51  C   UNL     1       4.605  -9.518   3.556  1.00  0.00     0.148 A 
ATOM     52  C   UNL     1       6.632  -9.901   5.452  1.00  0.00     0.002 A 
ATOM     53  C   UNL     1       4.284  -9.883   4.858  1.00  0.00     0.091 A 
ATOM     54  F   UNL     1       3.658  -9.366   2.619  1.00  0.00    -0.205 F 
ATOM     55  C   UNL     1       5.298 -10.097   5.803  1.00  0.00     0.022 A 
BRANCH  53  56
ATOM     56  S   UNL     1       2.586 -10.041   5.422  1.00  0.00     0.127 S 
ATOM     57  O   UNL     1       2.448 -11.489   5.553  1.00  0.00    -0.237 OA
ATOM     58  O   UNL     1       2.616  -9.308   6.688  1.00  0.00    -0.237 OA
ATOM     59  O   UNL     1       1.769  -9.417   4.389  1.00  0.00    -0.744 OA
ENDBRANCH  53  56
ENDBRANCH  25  49
BRANCH  37  60
ATOM     60  C   UNL     1       9.681 -12.259  -1.919  1.00  0.00     0.023 A 
ATOM     61  C   UNL     1       9.002 -13.490  -1.985  1.00  0.00     0.012 A 
ATOM     62  C   UNL     1      11.085 -12.225  -2.007  1.00  0.00     0.148 A 
ATOM     63  C   UNL     1       9.717 -14.678  -2.105  1.00  0.00     0.002 A 
ATOM     64  C   UNL     1      11.785 -13.407  -2.189  1.00  0.00     0.091 A 
ATOM     65  F   UNL     1      11.704 -11.038  -1.923  1.00  0.00    -0.205 F 
ATOM     66  C   UNL     1      11.105 -14.636  -2.222  1.00  0.00     0.022 A 
BRANCH  64  67
ATOM     67  S   UNL     1      13.557 -13.433  -2.469  1.00  0.00     0.127 S 
ATOM     68  O   UNL     1      14.047 -14.011  -1.218  1.00  0.00    -0.237 OA
ATOM     69  O   UNL     1      13.672 -14.310  -3.634  1.00  0.00    -0.237 OA
ATOM     70  O   UNL     1      13.948 -12.051  -2.712  1.00  0.00    -0.744 OA
ENDBRANCH  64  67
ENDBRANCH  37  60
ENDBRANCH  11  12
ENDBRANCH   4   6
ENDBRANCH   3   4
ENDBRANCH   2   3
ENDBRANCH   1   2
BRANCH   1  71
ATOM     71  O   UNL     1       4.149  -0.208   1.631  1.00  0.00    -0.374 OA
BRANCH  71  72
ATOM     72  C   UNL     1       2.759  -0.057   1.921  1.00  0.00     0.202 C 
BRANCH  72  73
ATOM     73  C   UNL     1       2.549   0.036   3.426  1.00  0.00     0.261 C 
BRANCH  73  74
ATOM     74  O   UNL     1       3.054   1.317   3.832  1.00  0.00    -0.463 OA
BRANCH  74  75
ATOM     75  C   UNL     1       4.396   1.343   4.040  1.00  0.00     0.309 C 
ATOM     76  O   UNL     1       5.105   0.376   4.284  1.00  0.00    -0.252 OA
BRANCH  75  77
ATOM     77  C   UNL     1       4.918   2.759   4.033  1.00  0.00     0.100 C 
ATOM     78  C   UNL     1       4.651   3.294   5.435  1.00  0.00     0.015 C 
ATOM     79  C   UNL     1       4.329   3.709   2.971  1.00  0.00     0.028 C 
ATOM     80  C   UNL     1       5.198   4.697   5.571  1.00  0.00     0.002 C 
ATOM     81  C   UNL     1       4.910   5.134   3.079  1.00  0.00     0.079 C 
ATOM     82  C   UNL     1       4.630   5.625   4.494  1.00  0.00     0.013 C 
BRANCH  81  83
ATOM     83  C   UNL     1       6.316   5.230   2.405  1.00  0.00     0.225 C 
ATOM     84  O   UNL     1       6.561   4.491   1.441  1.00  0.00    -0.275 OA
BRANCH  83  85
ATOM     85  N   UNL     1       7.190   6.265   2.695  1.00  0.00    -0.339 N 
ATOM     86  C   UNL     1       7.417   6.877   4.011  1.00  0.00     0.141 C 
ATOM     87  C   UNL     1       8.046   6.810   1.615  1.00  0.00     0.146 C 
ATOM     88  C   UNL     1       8.895   6.919   4.423  1.00  0.00     0.143 C 
ATOM     89  C   UNL     1       9.527   6.849   2.004  1.00  0.00     0.125 C 
ATOM     90  N   UNL     1       9.716   7.387   3.339  1.00  0.00    -0.317 N 
ATOM     91  C   UNL     1      10.413   7.776   1.170  1.00  0.00     0.144 C 
ATOM     92  C   UNL     1      10.871   8.131   3.432  1.00  0.00     0.317 C 
ATOM     93  N   UNL     1      11.343   8.308   2.141  1.00  0.00    -0.336 N 
ATOM     94  O   UNL     1      11.391   8.574   4.443  1.00  0.00    -0.249 OA
ATOM     95  H   UNL     1      12.198   8.740   1.915  1.00  0.00     0.165 HD
ENDBRANCH  83  85
ENDBRANCH  81  83
ENDBRANCH  75  77
ENDBRANCH  74  75
ENDBRANCH  73  74
ENDBRANCH  72  73
ENDBRANCH  71  72
ENDBRANCH   1  71
TORSDOF 19
