REMARK SMILES Nn1c(S[C@@H](C(=O)OCCOCCOC(=O)c2ccc(-c3c4nc(c(-c5cccc(S(=O)(=O)[O-])c5F)c5ccc([nH]5)c(-c5cccc(S(=O)(=O)[O-])c5F)c5nc(c(-c6cccc(S(=O)(=O)[O-])c6F)c6ccc3[nH]6)C=C5)C=C4)cc2)c2ccccc2)nc2ccc(Br)cc2c1=O
REMARK SMILES IDX 11 1 10 2 9 3 8 4 6 5 7 6 5 7 4 8 3 9 2 10 94 11 86 12 93 13
REMARK SMILES IDX 95 14 87 15 92 16 88 17 90 18 89 19 91 20 1 21 80 24 81 25
REMARK SMILES IDX 85 26 82 27 84 28 83 29 12 30 13 31 14 32 15 33 16 34 17 35
REMARK SMILES IDX 18 36 79 37 19 38 78 39 20 40 21 41 22 42 72 43 23 44 77 45
REMARK SMILES IDX 71 46 73 47 24 48 76 49 70 50 69 51 25 53 57 54 37 55 56 56
REMARK SMILES IDX 38 57 41 58 55 59 74 60 39 61 40 62 54 64 75 65 42 66 26 67
REMARK SMILES IDX 27 68 35 69 28 70 30 71 36 72 29 73 31 74 32 75 33 76 34 77
REMARK SMILES IDX 58 78 59 79 67 80 60 81 62 82 68 83 61 84 63 85 64 86 65 87
REMARK SMILES IDX 66 88 43 89 44 90 52 91 45 92 47 93 53 94 46 95 48 96 49 97
REMARK SMILES IDX 50 98 51 99
REMARK H PARENT 1 22 1 23 73 52 41 63
REMARK Flexibility Score: inf
ROOT
ATOM      1  O   UNL     1       2.936  -2.406   1.729  1.00  0.00    -0.374 OA
ENDROOT
BRANCH   1   2
ATOM      2  C   UNL     1       4.219  -1.786   1.779  1.00  0.00     0.202 C 
BRANCH   2   3
ATOM      3  C   UNL     1       4.625  -0.849   0.630  1.00  0.00     0.261 C 
BRANCH   3   4
ATOM      4  O   UNL     1       3.659   0.185   0.316  1.00  0.00    -0.462 OA
BRANCH   4   5
ATOM      5  C   UNL     1       3.463   0.398  -1.018  1.00  0.00     0.324 C 
ATOM      6  O   UNL     1       4.111  -0.197  -1.880  1.00  0.00    -0.251 OA
BRANCH   5   7
ATOM      7  C   UNL     1       2.387   1.430  -1.403  1.00  0.00     0.194 C 
BRANCH   7   8
ATOM      8  S   UNL     1       1.760   2.501  -0.092  1.00  0.00    -0.066 SA
BRANCH   8   9
ATOM      9  C   UNL     1       0.299   2.053   0.763  1.00  0.00     0.191 A 
ATOM     10  N   UNL     1      -0.490   0.921   0.546  1.00  0.00    -0.202 N 
ATOM     11  C   UNL     1      -1.488   0.522   1.444  1.00  0.00     0.280 A 
ATOM     12  N   UNL     1       0.014   2.886   1.723  1.00  0.00    -0.222 NA
ATOM     13  C   UNL     1      -1.775   1.435   2.548  1.00  0.00     0.069 A 
ATOM     14  O   UNL     1      -2.094  -0.545   1.345  1.00  0.00    -0.267 OA
ATOM     15  C   UNL     1      -1.057   2.626   2.590  1.00  0.00     0.079 A 
ATOM     16  C   UNL     1      -2.749   1.116   3.500  1.00  0.00     0.031 A 
ATOM     17  C   UNL     1      -1.387   3.554   3.582  1.00  0.00     0.030 A 
ATOM     18  C   UNL     1      -3.047   2.043   4.490  1.00  0.00     0.018 A 
ATOM     19  C   UNL     1      -2.386   3.270   4.524  1.00  0.00     0.018 A 
ATOM     20  Br  UNL     1      -4.363   1.636   5.784  1.00  0.00    -0.051 Br
BRANCH  10  21
ATOM     21  N   UNL     1      -0.382   0.099  -0.572  1.00  0.00    -0.334 N 
ATOM     22  H   UNL     1       0.290   0.294  -1.264  1.00  0.00     0.178 HD
ATOM     23  H   UNL     1      -0.979  -0.678  -0.671  1.00  0.00     0.178 HD
ENDBRANCH  10  21
ENDBRANCH   8   9
ENDBRANCH   7   8
BRANCH   7  24
ATOM     24  C   UNL     1       1.411   0.999  -2.498  1.00  0.00    -0.023 A 
ATOM     25  C   UNL     1       1.282  -0.344  -2.913  1.00  0.00     0.005 A 
ATOM     26  C   UNL     1       0.547   1.949  -3.074  1.00  0.00     0.005 A 
ATOM     27  C   UNL     1       0.244  -0.736  -3.761  1.00  0.00     0.000 A 
ATOM     28  C   UNL     1      -0.486   1.554  -3.925  1.00  0.00     0.000 A 
ATOM     29  C   UNL     1      -0.655   0.209  -4.246  1.00  0.00     0.000 A 
ENDBRANCH   7  24
ENDBRANCH   5   7
ENDBRANCH   4   5
ENDBRANCH   3   4
ENDBRANCH   2   3
ENDBRANCH   1   2
BRANCH   1  30
ATOM     30  C   UNL     1       1.805  -1.552   1.661  1.00  0.00     0.202 C 
BRANCH  30  31
ATOM     31  C   UNL     1       1.503  -0.622   2.840  1.00  0.00     0.261 C 
BRANCH  31  32
ATOM     32  O   UNL     1       2.626   0.075   3.359  1.00  0.00    -0.460 OA
BRANCH  32  33
ATOM     33  C   UNL     1       2.933  -0.256   4.634  1.00  0.00     0.338 C 
ATOM     34  O   UNL     1       2.348  -1.033   5.370  1.00  0.00    -0.246 OA
BRANCH  33  35
ATOM     35  C   UNL     1       4.225   0.359   4.939  1.00  0.00     0.060 A 
ATOM     36  C   UNL     1       4.367   1.748   4.945  1.00  0.00     0.016 A 
ATOM     37  C   UNL     1       5.304  -0.491   5.200  1.00  0.00     0.016 A 
ATOM     38  C   UNL     1       5.611   2.293   5.245  1.00  0.00     0.010 A 
ATOM     39  C   UNL     1       6.544   0.057   5.497  1.00  0.00     0.010 A 
ATOM     40  C   UNL     1       6.696   1.450   5.543  1.00  0.00    -0.014 A 
BRANCH  40  41
ATOM     41  C   UNL     1       7.956   2.017   6.059  1.00  0.00     0.031 A 
ATOM     42  C   UNL     1       9.201   2.025   5.232  1.00  0.00     0.074 A 
ATOM     43  C   UNL     1       7.962   2.457   7.331  1.00  0.00     0.049 A 
ATOM     44  N   UNL     1      10.382   2.484   5.546  1.00  0.00    -0.248 NA
ATOM     45  C   UNL     1       9.119   1.437   3.885  1.00  0.00     0.031 C 
ATOM     46  C   UNL     1       6.808   2.421   8.235  1.00  0.00     0.029 A 
ATOM     47  N   UNL     1       8.963   3.002   8.088  1.00  0.00    -0.354 N 
ATOM     48  C   UNL     1      11.192   2.230   4.448  1.00  0.00     0.074 A 
ATOM     49  C   UNL     1      10.371   1.562   3.461  1.00  0.00     0.031 C 
ATOM     50  C   UNL     1       7.164   2.935   9.421  1.00  0.00     0.029 A 
ATOM     51  C   UNL     1       8.573   3.309   9.369  1.00  0.00     0.049 A 
ATOM     52  H   UNL     1       9.874   3.159   7.748  1.00  0.00     0.167 HD
ATOM     53  C   UNL     1      12.496   2.547   4.282  1.00  0.00     0.034 A 
ATOM     54  C   UNL     1       9.274   3.832  10.392  1.00  0.00     0.034 A 
ATOM     55  C   UNL     1      13.290   3.222   5.273  1.00  0.00     0.049 A 
ATOM     56  C   UNL     1      10.714   4.185  10.174  1.00  0.00     0.074 A 
ATOM     57  C   UNL     1      14.602   3.649   5.173  1.00  0.00     0.029 A 
ATOM     58  N   UNL     1      12.854   3.555   6.546  1.00  0.00    -0.354 N 
ATOM     59  N   UNL     1      11.430   4.058   9.084  1.00  0.00    -0.248 NA
ATOM     60  C   UNL     1      11.437   4.771  11.310  1.00  0.00     0.031 C 
ATOM     61  C   UNL     1      14.967   4.218   6.396  1.00  0.00     0.029 A 
ATOM     62  C   UNL     1      13.874   4.169   7.248  1.00  0.00     0.049 A 
ATOM     63  H   UNL     1      11.951   3.379   6.899  1.00  0.00     0.167 HD
ATOM     64  C   UNL     1      12.685   4.563   9.393  1.00  0.00     0.074 A 
ATOM     65  C   UNL     1      12.627   5.012  10.771  1.00  0.00     0.031 C 
ATOM     66  C   UNL     1      13.786   4.638   8.608  1.00  0.00     0.034 A 
BRANCH  53  67
ATOM     67  C   UNL     1      13.145   2.219   2.967  1.00  0.00     0.023 A 
ATOM     68  C   UNL     1      12.877   3.031   1.847  1.00  0.00     0.012 A 
ATOM     69  C   UNL     1      14.096   1.186   2.865  1.00  0.00     0.148 A 
ATOM     70  C   UNL     1      13.542   2.815   0.641  1.00  0.00     0.002 A 
ATOM     71  C   UNL     1      14.775   0.994   1.668  1.00  0.00     0.091 A 
ATOM     72  F   UNL     1      14.324   0.421   3.942  1.00  0.00    -0.205 F 
ATOM     73  C   UNL     1      14.497   1.806   0.555  1.00  0.00     0.022 A 
BRANCH  71  74
ATOM     74  S   UNL     1      16.055  -0.249   1.461  1.00  0.00     0.127 S 
ATOM     75  O   UNL     1      15.454  -1.124   0.455  1.00  0.00    -0.237 OA
ATOM     76  O   UNL     1      17.181   0.550   0.980  1.00  0.00    -0.237 OA
ATOM     77  O   UNL     1      16.246  -0.855   2.771  1.00  0.00    -0.744 OA
ENDBRANCH  71  74
ENDBRANCH  53  67
BRANCH  54  78
ATOM     78  C   UNL     1       8.577   4.106  11.675  1.00  0.00     0.023 A 
ATOM     79  C   UNL     1       8.202   5.427  11.982  1.00  0.00     0.012 A 
ATOM     80  C   UNL     1       8.187   3.057  12.529  1.00  0.00     0.148 A 
ATOM     81  C   UNL     1       7.450   5.701  13.124  1.00  0.00     0.002 A 
ATOM     82  C   UNL     1       7.408   3.333  13.646  1.00  0.00     0.091 A 
ATOM     83  F   UNL     1       8.548   1.809  12.203  1.00  0.00    -0.205 F 
ATOM     84  C   UNL     1       7.044   4.655  13.949  1.00  0.00     0.022 A 
BRANCH  82  85
ATOM     85  S   UNL     1       6.756   2.047  14.717  1.00  0.00     0.127 S 
ATOM     86  O   UNL     1       7.386   2.377  15.994  1.00  0.00    -0.237 OA
ATOM     87  O   UNL     1       5.318   2.307  14.653  1.00  0.00    -0.237 OA
ATOM     88  O   UNL     1       7.174   0.784  14.124  1.00  0.00    -0.744 OA
ENDBRANCH  82  85
ENDBRANCH  54  78
BRANCH  66  89
ATOM     89  C   UNL     1      15.033   5.231   9.199  1.00  0.00     0.023 A 
ATOM     90  C   UNL     1      15.834   4.446  10.051  1.00  0.00     0.012 A 
ATOM     91  C   UNL     1      15.480   6.504   8.796  1.00  0.00     0.148 A 
ATOM     92  C   UNL     1      17.066   4.923  10.495  1.00  0.00     0.002 A 
ATOM     93  C   UNL     1      16.723   6.958   9.214  1.00  0.00     0.091 A 
ATOM     94  F   UNL     1      14.693   7.228   7.987  1.00  0.00    -0.205 F 
ATOM     95  C   UNL     1      17.516   6.170  10.066  1.00  0.00     0.022 A 
BRANCH  93  96
ATOM     96  S   UNL     1      17.422   8.517   8.660  1.00  0.00     0.127 S 
ATOM     97  O   UNL     1      17.504   9.267   9.913  1.00  0.00    -0.237 OA
ATOM     98  O   UNL     1      18.712   8.098   8.113  1.00  0.00    -0.237 OA
ATOM     99  O   UNL     1      16.488   9.056   7.681  1.00  0.00    -0.744 OA
ENDBRANCH  93  96
ENDBRANCH  66  89
ENDBRANCH  40  41
ENDBRANCH  33  35
ENDBRANCH  32  33
ENDBRANCH  31  32
ENDBRANCH  30  31
ENDBRANCH   1  30
TORSDOF 21
