REMARK SMILES C/C(=C\CN1CC(=O)N2CCC[C@H]2C1=O)C(=O)OCCOCCOC(=O)c1ccc(-c2c3nc(c(-c4cccc(S(=O)(=O)[O-])c4F)c4ccc([nH]4)c(-c4cccc(S(=O)(=O)[O-])c4F)c4nc(c(-c5cccc(S(=O)(=O)[O-])c5F)c5ccc2[nH]5)C=C4)C=C3)cc1
REMARK SMILES IDX 22 1 21 2 20 3 19 4 18 5 16 6 17 7 2 8 1 9 3 10 4 11 5 12
REMARK SMILES IDX 6 13 14 14 7 15 13 16 15 17 8 18 9 19 12 20 10 21 11 22
REMARK SMILES IDX 23 23 24 24 25 25 26 26 27 27 28 28 89 29 29 30 88 31 30 32
REMARK SMILES IDX 31 33 32 34 82 35 33 36 87 37 81 38 83 39 34 40 86 41 80 42
REMARK SMILES IDX 79 43 35 45 67 46 47 47 66 48 48 49 51 50 65 51 84 52 49 53
REMARK SMILES IDX 50 54 64 56 85 57 52 58 36 59 37 60 45 61 38 62 40 63 46 64
REMARK SMILES IDX 39 65 41 66 42 67 43 68 44 69 68 70 69 71 77 72 70 73 72 74
REMARK SMILES IDX 78 75 71 76 73 77 74 78 75 79 76 80 53 81 54 82 62 83 55 84
REMARK SMILES IDX 57 85 63 86 56 87 58 88 59 89 60 90 61 91
REMARK H PARENT 83 44 51 55
REMARK Flexibility Score: inf
ROOT
ATOM      1  C   UNL     1       0.002   2.391   2.679  1.00  0.00     0.202 C 
ENDROOT
BRANCH   1   2
ATOM      2  O   UNL     1       0.915   3.419   3.058  1.00  0.00    -0.374 OA
BRANCH   2   3
ATOM      3  C   UNL     1       0.942   4.596   2.249  1.00  0.00     0.202 C 
BRANCH   3   4
ATOM      4  C   UNL     1       1.712   4.504   0.927  1.00  0.00     0.261 C 
BRANCH   4   5
ATOM      5  O   UNL     1       1.123   3.537   0.041  1.00  0.00    -0.460 OA
BRANCH   5   6
ATOM      6  C   UNL     1       1.860   2.416  -0.159  1.00  0.00     0.333 C 
ATOM      7  O   UNL     1       2.993   2.214   0.251  1.00  0.00    -0.247 OA
BRANCH   6   8
ATOM      8  C   UNL     1       1.050   1.347  -0.822  1.00  0.00     0.032 C 
ATOM      9  C   UNL     1       1.382  -0.026  -0.318  1.00  0.00     0.052 C 
ATOM     10  C   UNL     1       0.161   1.652  -1.789  1.00  0.00     0.005 C 
BRANCH  10  11
ATOM     11  C   UNL     1      -0.560   0.689  -2.685  1.00  0.00     0.148 C 
BRANCH  11  12
ATOM     12  N   UNL     1      -1.976   0.520  -2.390  1.00  0.00    -0.328 N 
ATOM     13  C   UNL     1      -2.835   1.661  -2.013  1.00  0.00     0.220 C 
ATOM     14  C   UNL     1      -2.574  -0.709  -2.712  1.00  0.00     0.246 C 
ATOM     15  C   UNL     1      -4.016   1.818  -2.976  1.00  0.00     0.242 C 
ATOM     16  C   UNL     1      -4.107  -0.651  -2.806  1.00  0.00     0.174 C 
ATOM     17  O   UNL     1      -1.948  -1.762  -2.819  1.00  0.00    -0.272 OA
ATOM     18  O   UNL     1      -4.549   2.893  -3.221  1.00  0.00    -0.273 OA
ATOM     19  N   UNL     1      -4.508   0.610  -3.416  1.00  0.00    -0.329 N 
ATOM     20  C   UNL     1      -4.727  -1.696  -3.732  1.00  0.00     0.037 C 
ATOM     21  C   UNL     1      -5.547   0.453  -4.411  1.00  0.00     0.120 C 
ATOM     22  C   UNL     1      -5.984  -0.997  -4.258  1.00  0.00     0.024 C 
ENDBRANCH  11  12
ENDBRANCH  10  11
ENDBRANCH   6   8
ENDBRANCH   5   6
ENDBRANCH   4   5
ENDBRANCH   3   4
ENDBRANCH   2   3
ENDBRANCH   1   2
BRANCH   1  23
ATOM     23  C   UNL     1      -1.470   2.589   3.061  1.00  0.00     0.261 C 
BRANCH  23  24
ATOM     24  O   UNL     1      -2.058   3.731   2.416  1.00  0.00    -0.460 OA
BRANCH  24  25
ATOM     25  C   UNL     1      -2.309   4.780   3.236  1.00  0.00     0.338 C 
ATOM     26  O   UNL     1      -2.164   4.816   4.452  1.00  0.00    -0.246 OA
BRANCH  25  27
ATOM     27  C   UNL     1      -2.621   5.979   2.438  1.00  0.00     0.060 A 
ATOM     28  C   UNL     1      -1.858   7.130   2.670  1.00  0.00     0.016 A 
ATOM     29  C   UNL     1      -3.664   5.994   1.510  1.00  0.00     0.016 A 
ATOM     30  C   UNL     1      -2.154   8.313   1.995  1.00  0.00     0.010 A 
ATOM     31  C   UNL     1      -3.965   7.184   0.840  1.00  0.00     0.010 A 
ATOM     32  C   UNL     1      -3.227   8.355   1.095  1.00  0.00    -0.014 A 
BRANCH  32  33
ATOM     33  C   UNL     1      -3.624   9.640   0.473  1.00  0.00     0.031 A 
ATOM     34  C   UNL     1      -4.817  10.385   1.003  1.00  0.00     0.074 A 
ATOM     35  C   UNL     1      -2.934  10.126  -0.575  1.00  0.00     0.049 A 
ATOM     36  N   UNL     1      -5.357  11.495   0.572  1.00  0.00    -0.248 NA
ATOM     37  C   UNL     1      -5.494   9.801   2.173  1.00  0.00     0.031 C 
ATOM     38  C   UNL     1      -1.762   9.493  -1.177  1.00  0.00     0.029 A 
ATOM     39  N   UNL     1      -3.141  11.249  -1.337  1.00  0.00    -0.354 N 
ATOM     40  C   UNL     1      -6.451  11.731   1.395  1.00  0.00     0.074 A 
ATOM     41  C   UNL     1      -6.503  10.643   2.349  1.00  0.00     0.031 C 
ATOM     42  C   UNL     1      -1.373  10.219  -2.239  1.00  0.00     0.029 A 
ATOM     43  C   UNL     1      -2.285  11.349  -2.407  1.00  0.00     0.049 A 
ATOM     44  H   UNL     1      -3.836  11.917  -1.137  1.00  0.00     0.167 HD
ATOM     45  C   UNL     1      -7.324  12.765   1.368  1.00  0.00     0.034 A 
ATOM     46  C   UNL     1      -2.259  12.232  -3.425  1.00  0.00     0.034 A 
ATOM     47  C   UNL     1      -7.260  13.853   0.428  1.00  0.00     0.049 A 
ATOM     48  C   UNL     1      -3.269  13.349  -3.457  1.00  0.00     0.074 A 
ATOM     49  C   UNL     1      -8.057  14.982   0.363  1.00  0.00     0.029 A 
ATOM     50  N   UNL     1      -6.363  13.937  -0.626  1.00  0.00    -0.354 N 
ATOM     51  N   UNL     1      -4.209  13.638  -2.590  1.00  0.00    -0.248 NA
ATOM     52  C   UNL     1      -3.199  14.277  -4.596  1.00  0.00     0.031 C 
ATOM     53  C   UNL     1      -7.665  15.731  -0.751  1.00  0.00     0.029 A 
ATOM     54  C   UNL     1      -6.605  15.083  -1.365  1.00  0.00     0.049 A 
ATOM     55  H   UNL     1      -5.658  13.278  -0.821  1.00  0.00     0.167 HD
ATOM     56  C   UNL     1      -4.828  14.789  -3.066  1.00  0.00     0.074 A 
ATOM     57  C   UNL     1      -4.135  15.162  -4.282  1.00  0.00     0.031 C 
ATOM     58  C   UNL     1      -5.886  15.466  -2.553  1.00  0.00     0.034 A 
BRANCH  45  59
ATOM     59  C   UNL     1      -8.418  12.787   2.404  1.00  0.00     0.023 A 
ATOM     60  C   UNL     1      -8.104  13.096   3.743  1.00  0.00     0.012 A 
ATOM     61  C   UNL     1      -9.761  12.566   2.042  1.00  0.00     0.148 A 
ATOM     62  C   UNL     1      -9.105  13.156   4.711  1.00  0.00     0.002 A 
ATOM     63  C   UNL     1     -10.758  12.668   3.004  1.00  0.00     0.091 A 
ATOM     64  F   UNL     1     -10.037  12.252   0.768  1.00  0.00    -0.205 F 
ATOM     65  C   UNL     1     -10.431  12.952   4.340  1.00  0.00     0.022 A 
BRANCH  63  66
ATOM     66  S   UNL     1     -12.504  12.495   2.614  1.00  0.00     0.127 S 
ATOM     67  O   UNL     1     -12.820  11.213   3.240  1.00  0.00    -0.237 OA
ATOM     68  O   UNL     1     -13.085  13.660   3.283  1.00  0.00    -0.237 OA
ATOM     69  O   UNL     1     -12.595  12.521   1.161  1.00  0.00    -0.744 OA
ENDBRANCH  63  66
ENDBRANCH  45  59
BRANCH  46  70
ATOM     70  C   UNL     1      -1.227  12.104  -4.493  1.00  0.00     0.023 A 
ATOM     71  C   UNL     1      -0.209  13.071  -4.596  1.00  0.00     0.012 A 
ATOM     72  C   UNL     1      -1.237  11.019  -5.392  1.00  0.00     0.148 A 
ATOM     73  C   UNL     1       0.765  12.975  -5.590  1.00  0.00     0.002 A 
ATOM     74  C   UNL     1      -0.231  10.898  -6.343  1.00  0.00     0.091 A 
ATOM     75  F   UNL     1      -2.225  10.119  -5.291  1.00  0.00    -0.205 F 
ATOM     76  C   UNL     1       0.762  11.884  -6.455  1.00  0.00     0.022 A 
BRANCH  74  77
ATOM     77  S   UNL     1      -0.080   9.461  -7.410  1.00  0.00     0.127 S 
ATOM     78  O   UNL     1      -0.423  10.019  -8.715  1.00  0.00    -0.237 OA
ATOM     79  O   UNL     1       1.331   9.108  -7.242  1.00  0.00    -0.237 OA
ATOM     80  O   UNL     1      -1.011   8.476  -6.878  1.00  0.00    -0.744 OA
ENDBRANCH  74  77
ENDBRANCH  46  70
BRANCH  58  81
ATOM     81  C   UNL     1      -6.363  16.686  -3.298  1.00  0.00     0.023 A 
ATOM     82  C   UNL     1      -7.052  16.531  -4.517  1.00  0.00     0.012 A 
ATOM     83  C   UNL     1      -6.199  17.977  -2.757  1.00  0.00     0.148 A 
ATOM     84  C   UNL     1      -7.544  17.642  -5.202  1.00  0.00     0.002 A 
ATOM     85  C   UNL     1      -6.734  19.076  -3.421  1.00  0.00     0.091 A 
ATOM     86  F   UNL     1      -5.529  18.106  -1.603  1.00  0.00    -0.205 F 
ATOM     87  C   UNL     1      -7.396  18.911  -4.649  1.00  0.00     0.022 A 
BRANCH  85  88
ATOM     88  S   UNL     1      -6.674  20.739  -2.744  1.00  0.00     0.127 S 
ATOM     89  O   UNL     1      -5.742  21.399  -3.658  1.00  0.00    -0.237 OA
ATOM     90  O   UNL     1      -8.065  21.175  -2.872  1.00  0.00    -0.237 OA
ATOM     91  O   UNL     1      -6.206  20.601  -1.372  1.00  0.00    -0.744 OA
ENDBRANCH  85  88
ENDBRANCH  58  81
ENDBRANCH  32  33
ENDBRANCH  25  27
ENDBRANCH  24  25
ENDBRANCH  23  24
ENDBRANCH   1  23
TORSDOF 19
