REMARK SMILES CC[C@@H](C)[C@@H](C(=O)OCCOCCOC(=O)c1ccc(-c2c3nc(c(-c4cccc(S(=O)(=O)[O-])c4F)c4ccc([nH]4)c(-c4cccc(S(=O)(=O)[O-])c4F)c4nc(c(-c5cccc(S(=O)(=O)[O-])c5F)c5ccc2[nH]5)C=C4)C=C3)cc1)S(=O)(=O)c1ccc(OC)cc1
REMARK SMILES IDX 11 1 10 2 9 3 8 4 6 5 7 6 5 7 3 8 4 9 2 10 1 11 80 12 81 13
REMARK SMILES IDX 82 14 83 15 84 16 90 17 85 18 89 19 86 20 87 21 88 22 12 23
REMARK SMILES IDX 13 24 14 25 15 26 16 27 17 28 18 29 79 30 19 31 78 32 20 33
REMARK SMILES IDX 21 34 22 35 72 36 23 37 77 38 71 39 73 40 24 41 76 42 70 43
REMARK SMILES IDX 69 44 25 46 57 47 37 48 56 49 38 50 41 51 55 52 74 53 39 54
REMARK SMILES IDX 40 55 54 57 75 58 42 59 26 60 27 61 35 62 28 63 30 64 36 65
REMARK SMILES IDX 29 66 31 67 32 68 33 69 34 70 58 71 59 72 67 73 60 74 62 75
REMARK SMILES IDX 68 76 61 77 63 78 64 79 65 80 66 81 43 82 44 83 52 84 45 85
REMARK SMILES IDX 47 86 53 87 46 88 48 89 49 90 50 91 51 92
REMARK H PARENT 73 45 41 56
REMARK Flexibility Score: inf
ROOT
ATOM      1  O   UNL     1       2.866   3.461  -4.307  1.00  0.00    -0.374 OA
ENDROOT
BRANCH   1   2
ATOM      2  C   UNL     1       1.554   3.706  -3.780  1.00  0.00     0.202 C 
BRANCH   2   3
ATOM      3  C   UNL     1       0.392   2.943  -4.436  1.00  0.00     0.261 C 
BRANCH   3   4
ATOM      4  O   UNL     1       0.237   1.620  -3.857  1.00  0.00    -0.462 OA
BRANCH   4   5
ATOM      5  C   UNL     1       0.398   0.538  -4.665  1.00  0.00     0.325 C 
ATOM      6  O   UNL     1       0.601   0.670  -5.862  1.00  0.00    -0.251 OA
BRANCH   5   7
ATOM      7  C   UNL     1       0.271  -0.792  -3.916  1.00  0.00     0.225 C 
BRANCH   7   8
ATOM      8  C   UNL     1       0.875  -0.904  -2.454  1.00  0.00     0.015 C 
ATOM      9  C   UNL     1       0.509  -2.255  -1.807  1.00  0.00     0.009 C 
BRANCH   8  10
ATOM     10  C   UNL     1       0.431   0.231  -1.481  1.00  0.00     0.002 C 
ATOM     11  C   UNL     1       0.906   0.102  -0.034  1.00  0.00     0.004 C 
ENDBRANCH   8  10
ENDBRANCH   7   8
BRANCH   7  12
ATOM     12  S   UNL     1       0.887  -2.119  -5.042  1.00  0.00     0.192 S 
ATOM     13  O   UNL     1       0.460  -3.399  -4.498  1.00  0.00    -0.223 OA
ATOM     14  O   UNL     1       0.560  -1.863  -6.431  1.00  0.00    -0.223 OA
BRANCH  12  15
ATOM     15  C   UNL     1       2.680  -2.114  -4.952  1.00  0.00     0.068 A 
ATOM     16  C   UNL     1       3.365  -3.253  -4.525  1.00  0.00     0.024 A 
ATOM     17  C   UNL     1       3.404  -1.002  -5.379  1.00  0.00     0.024 A 
ATOM     18  C   UNL     1       4.765  -3.238  -4.455  1.00  0.00     0.048 A 
ATOM     19  C   UNL     1       4.802  -0.972  -5.254  1.00  0.00     0.048 A 
ATOM     20  C   UNL     1       5.489  -2.086  -4.777  1.00  0.00     0.118 A 
BRANCH  20  21
ATOM     21  O   UNL     1       6.844  -2.186  -4.630  1.00  0.00    -0.497 OA
ATOM     22  C   UNL     1       7.587  -0.970  -4.647  1.00  0.00     0.278 C 
ENDBRANCH  20  21
ENDBRANCH  12  15
ENDBRANCH   7  12
ENDBRANCH   5   7
ENDBRANCH   4   5
ENDBRANCH   3   4
ENDBRANCH   2   3
ENDBRANCH   1   2
BRANCH   1  23
ATOM     23  C   UNL     1       3.368   2.137  -4.205  1.00  0.00     0.202 C 
BRANCH  23  24
ATOM     24  C   UNL     1       4.039   1.704  -2.896  1.00  0.00     0.261 C 
BRANCH  24  25
ATOM     25  O   UNL     1       3.547   2.422  -1.773  1.00  0.00    -0.460 OA
BRANCH  25  26
ATOM     26  C   UNL     1       4.253   3.555  -1.557  1.00  0.00     0.338 C 
ATOM     27  O   UNL     1       5.330   3.864  -2.051  1.00  0.00    -0.246 OA
BRANCH  26  28
ATOM     28  C   UNL     1       3.430   4.482  -0.781  1.00  0.00     0.060 A 
ATOM     29  C   UNL     1       3.281   5.767  -1.308  1.00  0.00     0.016 A 
ATOM     30  C   UNL     1       2.851   4.119   0.439  1.00  0.00     0.016 A 
ATOM     31  C   UNL     1       2.629   6.732  -0.563  1.00  0.00     0.010 A 
ATOM     32  C   UNL     1       2.186   5.092   1.183  1.00  0.00     0.010 A 
ATOM     33  C   UNL     1       2.128   6.412   0.707  1.00  0.00    -0.014 A 
BRANCH  33  34
ATOM     34  C   UNL     1       1.699   7.528   1.572  1.00  0.00     0.031 A 
ATOM     35  C   UNL     1       2.640   8.027   2.632  1.00  0.00     0.074 A 
ATOM     36  C   UNL     1       0.536   8.152   1.323  1.00  0.00     0.049 A 
ATOM     37  N   UNL     1       2.541   9.088   3.387  1.00  0.00    -0.248 NA
ATOM     38  C   UNL     1       3.857   7.231   2.869  1.00  0.00     0.031 C 
ATOM     39  C   UNL     1      -0.439   7.742   0.313  1.00  0.00     0.029 A 
ATOM     40  N   UNL     1      -0.012   9.270   1.891  1.00  0.00    -0.354 N 
ATOM     41  C   UNL     1       3.670   9.081   4.197  1.00  0.00     0.074 A 
ATOM     42  C   UNL     1       4.430   7.898   3.860  1.00  0.00     0.031 C 
ATOM     43  C   UNL     1      -1.469   8.604   0.329  1.00  0.00     0.029 A 
ATOM     44  C   UNL     1      -1.230   9.612   1.358  1.00  0.00     0.049 A 
ATOM     45  H   UNL     1       0.425   9.780   2.611  1.00  0.00     0.167 HD
ATOM     46  C   UNL     1       4.048   9.992   5.123  1.00  0.00     0.034 A 
ATOM     47  C   UNL     1      -2.056  10.629   1.670  1.00  0.00     0.034 A 
ATOM     48  C   UNL     1       3.286  11.170   5.438  1.00  0.00     0.049 A 
ATOM     49  C   UNL     1      -1.612  11.625   2.706  1.00  0.00     0.074 A 
ATOM     50  C   UNL     1       3.588  12.176   6.337  1.00  0.00     0.029 A 
ATOM     51  N   UNL     1       2.062  11.492   4.871  1.00  0.00    -0.354 N 
ATOM     52  N   UNL     1      -0.490  11.666   3.386  1.00  0.00    -0.248 NA
ATOM     53  C   UNL     1      -2.527  12.738   2.987  1.00  0.00     0.031 C 
ATOM     54  C   UNL     1       2.528  13.089   6.338  1.00  0.00     0.029 A 
ATOM     55  C   UNL     1       1.587  12.675   5.408  1.00  0.00     0.049 A 
ATOM     56  H   UNL     1       1.598  10.957   4.187  1.00  0.00     0.167 HD
ATOM     57  C   UNL     1      -0.548  12.828   4.147  1.00  0.00     0.074 A 
ATOM     58  C   UNL     1      -1.805  13.472   3.823  1.00  0.00     0.031 C 
ATOM     59  C   UNL     1       0.349  13.315   5.040  1.00  0.00     0.034 A 
BRANCH  46  60
ATOM     60  C   UNL     1       5.345   9.752   5.852  1.00  0.00     0.023 A 
ATOM     61  C   UNL     1       6.572   9.901   5.174  1.00  0.00     0.012 A 
ATOM     62  C   UNL     1       5.348   9.420   7.220  1.00  0.00     0.148 A 
ATOM     63  C   UNL     1       7.781   9.692   5.838  1.00  0.00     0.002 A 
ATOM     64  C   UNL     1       6.557   9.259   7.887  1.00  0.00     0.091 A 
ATOM     65  F   UNL     1       4.171   9.255   7.840  1.00  0.00    -0.205 F 
ATOM     66  C   UNL     1       7.773   9.383   7.196  1.00  0.00     0.022 A 
BRANCH  64  67
ATOM     67  S   UNL     1       6.653   8.936   9.651  1.00  0.00     0.127 S 
ATOM     68  O   UNL     1       7.146   7.559   9.671  1.00  0.00    -0.237 OA
ATOM     69  O   UNL     1       7.623   9.937  10.094  1.00  0.00    -0.237 OA
ATOM     70  O   UNL     1       5.306   9.123  10.169  1.00  0.00    -0.744 OA
ENDBRANCH  64  67
ENDBRANCH  46  60
BRANCH  47  71
ATOM     71  C   UNL     1      -3.357  10.771   0.961  1.00  0.00     0.023 A 
ATOM     72  C   UNL     1      -3.569  11.853   0.085  1.00  0.00     0.012 A 
ATOM     73  C   UNL     1      -4.377   9.816   1.133  1.00  0.00     0.148 A 
ATOM     74  C   UNL     1      -4.787  11.998  -0.581  1.00  0.00     0.002 A 
ATOM     75  C   UNL     1      -5.564   9.933   0.421  1.00  0.00     0.091 A 
ATOM     76  F   UNL     1      -4.160   8.801   1.982  1.00  0.00    -0.205 F 
ATOM     77  C   UNL     1      -5.779  11.034  -0.422  1.00  0.00     0.022 A 
BRANCH  75  78
ATOM     78  S   UNL     1      -6.834   8.665   0.460  1.00  0.00     0.127 S 
ATOM     79  O   UNL     1      -7.899   9.330   1.204  1.00  0.00    -0.237 OA
ATOM     80  O   UNL     1      -7.105   8.467  -0.965  1.00  0.00    -0.237 OA
ATOM     81  O   UNL     1      -6.223   7.517   1.117  1.00  0.00    -0.744 OA
ENDBRANCH  75  78
ENDBRANCH  47  71
BRANCH  59  82
ATOM     82  C   UNL     1       0.019  14.629   5.700  1.00  0.00     0.023 A 
ATOM     83  C   UNL     1      -1.024  14.704   6.644  1.00  0.00     0.012 A 
ATOM     84  C   UNL     1       0.776  15.782   5.412  1.00  0.00     0.148 A 
ATOM     85  C   UNL     1      -1.344  15.917   7.251  1.00  0.00     0.002 A 
ATOM     86  C   UNL     1       0.489  16.974   6.064  1.00  0.00     0.091 A 
ATOM     87  F   UNL     1       1.754  15.696   4.499  1.00  0.00    -0.205 F 
ATOM     88  C   UNL     1      -0.582  17.049   6.970  1.00  0.00     0.022 A 
BRANCH  86  89
ATOM     89  S   UNL     1       1.484  18.451   5.838  1.00  0.00     0.127 S 
ATOM     90  O   UNL     1       0.620  19.266   4.986  1.00  0.00    -0.237 OA
ATOM     91  O   UNL     1       1.628  18.943   7.209  1.00  0.00    -0.237 OA
ATOM     92  O   UNL     1       2.728  18.004   5.226  1.00  0.00    -0.744 OA
ENDBRANCH  86  89
ENDBRANCH  59  82
ENDBRANCH  33  34
ENDBRANCH  26  28
ENDBRANCH  25  26
ENDBRANCH  24  25
ENDBRANCH  23  24
ENDBRANCH   1  23
TORSDOF 22
