REMARK SMILES [NH3+][C@]1(C(=O)OCCOCCOC(=O)c2ccc(-c3c4nc(c(-c5cccc(S(=O)(=O)[O-])c5F)c5ccc([nH]5)c(-c5cccc(S(=O)(=O)[O-])c5F)c5nc(c(-c6cccc(S(=O)(=O)[O-])c6F)c6ccc3[nH]6)C=C5)C=C4)cc2)CC[C@@H]([NH+]2CCC(C(F)(F)F)CC2)C1
REMARK SMILES IDX 9 1 8 2 7 3 6 4 5 5 3 6 4 7 2 8 77 9 90 10 78 11 79 12 1 13
REMARK SMILES IDX 80 17 81 18 89 19 82 21 88 22 83 23 84 24 85 25 86 26 87 27
REMARK SMILES IDX 10 28 11 29 12 30 13 31 14 32 15 33 76 34 16 35 75 36 17 37
REMARK SMILES IDX 18 38 19 39 69 40 20 41 74 42 68 43 70 44 21 45 73 46 67 47
REMARK SMILES IDX 66 48 22 50 54 51 34 52 53 53 35 54 38 55 52 56 71 57 36 58
REMARK SMILES IDX 37 59 51 61 72 62 39 63 23 64 24 65 32 66 25 67 27 68 33 69
REMARK SMILES IDX 26 70 28 71 29 72 30 73 31 74 55 75 56 76 64 77 57 78 59 79
REMARK SMILES IDX 65 80 58 81 60 82 61 83 62 84 63 85 40 86 41 87 49 88 42 89
REMARK SMILES IDX 44 90 50 91 43 92 45 93 46 94 47 95 48 96
REMARK H PARENT 1 14 1 15 1 16 80 20 70 49 38 60
REMARK Flexibility Score: inf
ROOT
ATOM      1  C   UNL     1      -0.305  -1.829  -1.282  1.00  0.00     0.202 C 
ENDROOT
BRANCH   1   2
ATOM      2  O   UNL     1       0.368  -1.385  -2.458  1.00  0.00    -0.374 OA
BRANCH   2   3
ATOM      3  C   UNL     1       1.770  -1.125  -2.338  1.00  0.00     0.202 C 
BRANCH   3   4
ATOM      4  C   UNL     1       2.147   0.224  -1.714  1.00  0.00     0.261 C 
BRANCH   4   5
ATOM      5  O   UNL     1       1.806   0.261  -0.316  1.00  0.00    -0.459 OA
BRANCH   5   6
ATOM      6  C   UNL     1       0.742   1.031   0.021  1.00  0.00     0.368 C 
ATOM      7  O   UNL     1       0.135   1.767  -0.753  1.00  0.00    -0.245 OA
BRANCH   6   8
ATOM      8  C   UNL     1       0.284   0.829   1.488  1.00  0.00     0.198 C 
ATOM      9  C   UNL     1       1.018  -0.242   2.306  1.00  0.00     0.087 C 
ATOM     10  C   UNL     1       0.503   2.153   2.240  1.00  0.00     0.145 C 
ATOM     11  C   UNL     1       1.068   0.326   3.719  1.00  0.00     0.072 C 
ATOM     12  C   UNL     1       1.279   1.836   3.532  1.00  0.00     0.191 C 
BRANCH   8  13
ATOM     13  N   UNL     1      -1.177   0.528   1.492  1.00  0.00    -0.343 N 
ATOM     14  H   UNL     1      -1.494   0.392   2.453  1.00  0.00     0.345 HD
ATOM     15  H   UNL     1      -1.351  -0.321   0.954  1.00  0.00     0.345 HD
ATOM     16  H   UNL     1      -1.686   1.306   1.073  1.00  0.00     0.345 HD
ENDBRANCH   8  13
BRANCH  12  17
ATOM     17  N   UNL     1       2.676   2.313   3.587  1.00  0.00    -0.332 N 
ATOM     18  C   UNL     1       3.663   1.554   2.815  1.00  0.00     0.263 C 
ATOM     19  C   UNL     1       2.776   3.761   3.352  1.00  0.00     0.263 C 
ATOM     20  H   UNL     1       2.949   2.122   4.551  1.00  0.00     0.348 HD
ATOM     21  C   UNL     1       5.090   2.046   3.075  1.00  0.00     0.074 C 
ATOM     22  C   UNL     1       4.175   4.296   3.631  1.00  0.00     0.074 C 
ATOM     23  C   UNL     1       5.216   3.543   2.799  1.00  0.00     0.106 C 
BRANCH  23  24
ATOM     24  C   UNL     1       6.612   4.056   3.092  1.00  0.00     0.392 C 
ATOM     25  F   UNL     1       7.527   3.420   2.340  1.00  0.00    -0.171 F 
ATOM     26  F   UNL     1       6.690   5.377   2.799  1.00  0.00    -0.171 F 
ATOM     27  F   UNL     1       6.937   3.908   4.392  1.00  0.00    -0.171 F 
ENDBRANCH  23  24
ENDBRANCH  12  17
ENDBRANCH   6   8
ENDBRANCH   5   6
ENDBRANCH   4   5
ENDBRANCH   3   4
ENDBRANCH   2   3
ENDBRANCH   1   2
BRANCH   1  28
ATOM     28  C   UNL     1      -0.233  -3.325  -0.968  1.00  0.00     0.261 C 
BRANCH  28  29
ATOM     29  O   UNL     1       1.116  -3.747  -0.713  1.00  0.00    -0.460 OA
BRANCH  29  30
ATOM     30  C   UNL     1       1.679  -4.442  -1.728  1.00  0.00     0.338 C 
ATOM     31  O   UNL     1       1.129  -4.816  -2.757  1.00  0.00    -0.246 OA
BRANCH  30  32
ATOM     32  C   UNL     1       3.133  -4.559  -1.523  1.00  0.00     0.060 A 
ATOM     33  C   UNL     1       3.955  -4.253  -2.615  1.00  0.00     0.016 A 
ATOM     34  C   UNL     1       3.684  -5.018  -0.324  1.00  0.00     0.016 A 
ATOM     35  C   UNL     1       5.326  -4.475  -2.538  1.00  0.00     0.010 A 
ATOM     36  C   UNL     1       5.062  -5.245  -0.250  1.00  0.00     0.010 A 
ATOM     37  C   UNL     1       5.880  -5.018  -1.372  1.00  0.00    -0.014 A 
BRANCH  37  38
ATOM     38  C   UNL     1       7.282  -5.497  -1.398  1.00  0.00     0.031 A 
ATOM     39  C   UNL     1       7.545  -6.965  -1.596  1.00  0.00     0.074 A 
ATOM     40  C   UNL     1       8.305  -4.631  -1.288  1.00  0.00     0.049 A 
ATOM     41  N   UNL     1       8.686  -7.598  -1.676  1.00  0.00    -0.248 NA
ATOM     42  C   UNL     1       6.365  -7.837  -1.724  1.00  0.00     0.031 C 
ATOM     43  C   UNL     1       8.174  -3.186  -1.103  1.00  0.00     0.029 A 
ATOM     44  N   UNL     1       9.659  -4.847  -1.305  1.00  0.00    -0.354 N 
ATOM     45  C   UNL     1       8.364  -8.939  -1.849  1.00  0.00     0.074 A 
ATOM     46  C   UNL     1       6.921  -9.034  -1.838  1.00  0.00     0.031 C 
ATOM     47  C   UNL     1       9.401  -2.647  -1.003  1.00  0.00     0.029 A 
ATOM     48  C   UNL     1      10.401  -3.708  -1.101  1.00  0.00     0.049 A 
ATOM     49  H   UNL     1      10.062  -5.734  -1.450  1.00  0.00     0.167 HD
ATOM     50  C   UNL     1       9.194  -9.995  -2.026  1.00  0.00     0.034 A 
ATOM     51  C   UNL     1      11.735  -3.546  -0.994  1.00  0.00     0.034 A 
ATOM     52  C   UNL     1      10.628  -9.896  -2.052  1.00  0.00     0.049 A 
ATOM     53  C   UNL     1      12.634  -4.744  -1.159  1.00  0.00     0.074 A 
ATOM     54  C   UNL     1      11.556 -10.903  -2.247  1.00  0.00     0.029 A 
ATOM     55  N   UNL     1      11.342  -8.722  -1.873  1.00  0.00    -0.354 N 
ATOM     56  N   UNL     1      12.315  -5.987  -1.431  1.00  0.00    -0.248 NA
ATOM     57  C   UNL     1      14.081  -4.510  -1.037  1.00  0.00     0.031 C 
ATOM     58  C   UNL     1      12.834 -10.339  -2.169  1.00  0.00     0.029 A 
ATOM     59  C   UNL     1      12.700  -8.978  -1.947  1.00  0.00     0.049 A 
ATOM     60  H   UNL     1      10.942  -7.837  -1.715  1.00  0.00     0.167 HD
ATOM     61  C   UNL     1      13.520  -6.672  -1.553  1.00  0.00     0.074 A 
ATOM     62  C   UNL     1      14.574  -5.701  -1.344  1.00  0.00     0.031 C 
ATOM     63  C   UNL     1      13.736  -7.988  -1.798  1.00  0.00     0.034 A 
BRANCH  50  64
ATOM     64  C   UNL     1       8.566 -11.345  -2.246  1.00  0.00     0.023 A 
ATOM     65  C   UNL     1       7.949 -11.628  -3.482  1.00  0.00     0.012 A 
ATOM     66  C   UNL     1       8.630 -12.349  -1.260  1.00  0.00     0.148 A 
ATOM     67  C   UNL     1       7.380 -12.878  -3.724  1.00  0.00     0.002 A 
ATOM     68  C   UNL     1       8.097 -13.606  -1.523  1.00  0.00     0.091 A 
ATOM     69  F   UNL     1       9.199 -12.053  -0.083  1.00  0.00    -0.205 F 
ATOM     70  C   UNL     1       7.464 -13.869  -2.749  1.00  0.00     0.022 A 
BRANCH  68  71
ATOM     71  S   UNL     1       8.215 -14.970  -0.361  1.00  0.00     0.127 S 
ATOM     72  O   UNL     1       6.829 -15.097   0.087  1.00  0.00    -0.237 OA
ATOM     73  O   UNL     1       8.682 -16.063  -1.215  1.00  0.00    -0.237 OA
ATOM     74  O   UNL     1       9.165 -14.548   0.659  1.00  0.00    -0.744 OA
ENDBRANCH  68  71
ENDBRANCH  50  64
BRANCH  51  75
ATOM     75  C   UNL     1      12.309  -2.192  -0.756  1.00  0.00     0.023 A 
ATOM     76  C   UNL     1      13.061  -1.568  -1.770  1.00  0.00     0.012 A 
ATOM     77  C   UNL     1      12.115  -1.522   0.466  1.00  0.00     0.148 A 
ATOM     78  C   UNL     1      13.638  -0.315  -1.558  1.00  0.00     0.002 A 
ATOM     79  C   UNL     1      12.647  -0.251   0.651  1.00  0.00     0.091 A 
ATOM     80  F   UNL     1      11.416  -2.141   1.428  1.00  0.00    -0.205 F 
ATOM     81  C   UNL     1      13.423   0.348  -0.353  1.00  0.00     0.022 A 
BRANCH  79  82
ATOM     82  S   UNL     1      12.309   0.719   2.124  1.00  0.00     0.127 S 
ATOM     83  O   UNL     1      13.567   0.600   2.856  1.00  0.00    -0.237 OA
ATOM     84  O   UNL     1      12.045   2.044   1.562  1.00  0.00    -0.237 OA
ATOM     85  O   UNL     1      11.149   0.089   2.741  1.00  0.00    -0.744 OA
ENDBRANCH  79  82
ENDBRANCH  51  75
BRANCH  63  86
ATOM     86  C   UNL     1      15.164  -8.455  -1.898  1.00  0.00     0.023 A 
ATOM     87  C   UNL     1      15.952  -8.552  -0.734  1.00  0.00     0.012 A 
ATOM     88  C   UNL     1      15.703  -8.863  -3.135  1.00  0.00     0.148 A 
ATOM     89  C   UNL     1      17.265  -9.015  -0.804  1.00  0.00     0.002 A 
ATOM     90  C   UNL     1      16.996  -9.370  -3.189  1.00  0.00     0.091 A 
ATOM     91  F   UNL     1      14.944  -8.746  -4.234  1.00  0.00    -0.205 F 
ATOM     92  C   UNL     1      17.783  -9.435  -2.028  1.00  0.00     0.022 A 
BRANCH  90  93
ATOM     93  S   UNL     1      17.709 -10.020  -4.704  1.00  0.00     0.127 S 
ATOM     94  O   UNL     1      18.641  -8.957  -5.076  1.00  0.00    -0.237 OA
ATOM     95  O   UNL     1      18.345 -11.256  -4.244  1.00  0.00    -0.237 OA
ATOM     96  O   UNL     1      16.592 -10.223  -5.617  1.00  0.00    -0.744 OA
ENDBRANCH  90  93
ENDBRANCH  63  86
ENDBRANCH  37  38
ENDBRANCH  30  32
ENDBRANCH  29  30
ENDBRANCH  28  29
ENDBRANCH   1  28
TORSDOF 20
