REMARK SMILES O=C(OCCOCCOC(=O)[C@H]1CC2(CC[NH+](C(=O)C3CC3)CC2)CN1C(=O)CCn1cccn1)c1ccc(-c2c3nc(c(-c4cccc(S(=O)(=O)[O-])c4F)c4ccc([nH]4)c(-c4cccc(S(=O)(=O)[O-])c4F)c4nc(c(-c5cccc(S(=O)(=O)[O-])c5F)c5ccc2[nH]5)C=C4)C=C3)cc1
REMARK SMILES IDX 7 1 6 2 5 3 4 4 3 5 2 6 1 7 36 8 37 9 98 10 38 11 97 12
REMARK SMILES IDX 39 13 40 14 41 15 91 16 42 17 96 18 90 19 92 20 43 21 95 22
REMARK SMILES IDX 89 23 88 24 44 26 76 27 56 28 75 29 57 30 60 31 74 32 93 33
REMARK SMILES IDX 58 34 59 35 73 37 94 38 61 39 45 40 46 41 54 42 47 43 49 44
REMARK SMILES IDX 55 45 48 46 50 47 51 48 52 49 53 50 77 51 78 52 86 53 79 54
REMARK SMILES IDX 81 55 87 56 80 57 82 58 83 59 84 60 85 61 62 62 63 63 71 64
REMARK SMILES IDX 64 65 66 66 72 67 65 68 67 69 68 70 69 71 70 72 8 73 9 74
REMARK SMILES IDX 10 75 11 76 12 77 13 78 26 79 14 80 25 81 15 82 24 83 16 84
REMARK SMILES IDX 23 85 17 86 27 88 28 89 29 90 30 91 31 92 32 93 35 94 33 95
REMARK SMILES IDX 34 96 18 97 19 98 20 99 21 100 22 101
REMARK H PARENT 92 25 60 36 17 87
REMARK Flexibility Score: inf
ROOT
ATOM      1  C   UNL     1       4.885   4.334  -6.157  1.00  0.00     0.202 C 
ENDROOT
BRANCH   1   2
ATOM      2  O   UNL     1       3.985   3.941  -7.203  1.00  0.00    -0.374 OA
BRANCH   2   3
ATOM      3  C   UNL     1       3.769   2.620  -7.689  1.00  0.00     0.202 C 
BRANCH   3   4
ATOM      4  C   UNL     1       4.840   1.706  -8.358  1.00  0.00     0.261 C 
BRANCH   4   5
ATOM      5  O   UNL     1       6.242   1.997  -8.212  1.00  0.00    -0.460 OA
BRANCH   5   6
ATOM      6  C   UNL     1       6.846   3.209  -8.285  1.00  0.00     0.338 C 
ATOM      7  O   UNL     1       7.815   3.461  -7.575  1.00  0.00    -0.246 OA
BRANCH   6   8
ATOM      8  C   UNL     1       6.452   4.109  -9.398  1.00  0.00     0.060 A 
ATOM      9  C   UNL     1       5.386   3.700 -10.175  1.00  0.00     0.016 A 
ATOM     10  C   UNL     1       7.579   4.638 -10.021  1.00  0.00     0.016 A 
ATOM     11  C   UNL     1       5.697   3.062 -11.332  1.00  0.00     0.010 A 
ATOM     12  C   UNL     1       7.791   4.306 -11.337  1.00  0.00     0.010 A 
ATOM     13  C   UNL     1       6.906   3.400 -11.926  1.00  0.00    -0.014 A 
BRANCH  13  14
ATOM     14  C   UNL     1       6.983   3.039 -13.321  1.00  0.00     0.031 A 
ATOM     15  C   UNL     1       5.775   3.516 -14.073  1.00  0.00     0.074 A 
ATOM     16  C   UNL     1       8.093   2.481 -13.820  1.00  0.00     0.049 A 
ATOM     17  N   UNL     1       4.960   2.840 -14.820  1.00  0.00    -0.248 NA
ATOM     18  C   UNL     1       5.267   4.862 -13.711  1.00  0.00     0.031 C 
ATOM     19  C   UNL     1       9.375   2.260 -13.148  1.00  0.00     0.029 A 
ATOM     20  N   UNL     1       8.369   2.236 -15.120  1.00  0.00    -0.354 N 
ATOM     21  C   UNL     1       3.966   3.752 -15.179  1.00  0.00     0.074 A 
ATOM     22  C   UNL     1       4.064   4.859 -14.276  1.00  0.00     0.031 C 
ATOM     23  C   UNL     1      10.347   2.273 -14.085  1.00  0.00     0.029 A 
ATOM     24  C   UNL     1       9.721   2.384 -15.392  1.00  0.00     0.049 A 
ATOM     25  H   UNL     1       7.694   1.985 -15.791  1.00  0.00     0.167 HD
ATOM     26  C   UNL     1       3.321   3.688 -16.373  1.00  0.00     0.034 A 
ATOM     27  C   UNL     1      10.230   2.784 -16.580  1.00  0.00     0.034 A 
ATOM     28  C   UNL     1       3.380   2.370 -16.938  1.00  0.00     0.049 A 
ATOM     29  C   UNL     1       9.165   2.608 -17.605  1.00  0.00     0.074 A 
ATOM     30  C   UNL     1       2.938   1.125 -16.538  1.00  0.00     0.029 A 
ATOM     31  N   UNL     1       4.323   2.145 -17.912  1.00  0.00    -0.354 N 
ATOM     32  N   UNL     1       8.654   1.448 -17.921  1.00  0.00    -0.248 NA
ATOM     33  C   UNL     1       8.334   3.759 -17.934  1.00  0.00     0.031 C 
ATOM     34  C   UNL     1       3.971   0.228 -16.936  1.00  0.00     0.029 A 
ATOM     35  C   UNL     1       4.956   0.972 -17.591  1.00  0.00     0.049 A 
ATOM     36  H   UNL     1       4.508   2.717 -18.691  1.00  0.00     0.167 HD
ATOM     37  C   UNL     1       7.294   1.687 -18.093  1.00  0.00     0.074 A 
ATOM     38  C   UNL     1       7.176   3.142 -18.192  1.00  0.00     0.031 C 
ATOM     39  C   UNL     1       6.359   0.720 -17.839  1.00  0.00     0.034 A 
BRANCH  26  40
ATOM     40  C   UNL     1       2.996   4.914 -17.196  1.00  0.00     0.023 A 
ATOM     41  C   UNL     1       2.220   4.728 -18.358  1.00  0.00     0.012 A 
ATOM     42  C   UNL     1       3.635   6.171 -17.049  1.00  0.00     0.148 A 
ATOM     43  C   UNL     1       2.138   5.716 -19.346  1.00  0.00     0.002 A 
ATOM     44  C   UNL     1       3.483   7.177 -17.993  1.00  0.00     0.091 A 
ATOM     45  F   UNL     1       4.521   6.375 -16.073  1.00  0.00    -0.205 F 
ATOM     46  C   UNL     1       2.765   6.944 -19.162  1.00  0.00     0.022 A 
BRANCH  44  47
ATOM     47  S   UNL     1       4.250   8.785 -17.744  1.00  0.00     0.127 S 
ATOM     48  O   UNL     1       5.439   8.669 -18.598  1.00  0.00    -0.237 OA
ATOM     49  O   UNL     1       3.215   9.691 -18.259  1.00  0.00    -0.237 OA
ATOM     50  O   UNL     1       4.481   8.892 -16.325  1.00  0.00    -0.744 OA
ENDBRANCH  44  47
ENDBRANCH  26  40
BRANCH  27  51
ATOM     51  C   UNL     1      11.412   3.655 -16.768  1.00  0.00     0.023 A 
ATOM     52  C   UNL     1      12.129   3.601 -17.973  1.00  0.00     0.012 A 
ATOM     53  C   UNL     1      11.732   4.679 -15.843  1.00  0.00     0.148 A 
ATOM     54  C   UNL     1      13.140   4.530 -18.247  1.00  0.00     0.002 A 
ATOM     55  C   UNL     1      12.758   5.580 -16.105  1.00  0.00     0.091 A 
ATOM     56  F   UNL     1      10.978   4.825 -14.745  1.00  0.00    -0.205 F 
ATOM     57  C   UNL     1      13.459   5.514 -17.313  1.00  0.00     0.022 A 
BRANCH  55  58
ATOM     58  S   UNL     1      13.233   6.858 -14.930  1.00  0.00     0.127 S 
ATOM     59  O   UNL     1      14.691   6.725 -14.912  1.00  0.00    -0.237 OA
ATOM     60  O   UNL     1      12.737   8.067 -15.580  1.00  0.00    -0.237 OA
ATOM     61  O   UNL     1      12.587   6.501 -13.673  1.00  0.00    -0.744 OA
ENDBRANCH  55  58
ENDBRANCH  27  51
BRANCH  39  62
ATOM     62  C   UNL     1       6.848  -0.670 -17.497  1.00  0.00     0.023 A 
ATOM     63  C   UNL     1       7.577  -0.926 -16.315  1.00  0.00     0.012 A 
ATOM     64  C   UNL     1       6.390  -1.761 -18.251  1.00  0.00     0.148 A 
ATOM     65  C   UNL     1       7.874  -2.230 -15.911  1.00  0.00     0.002 A 
ATOM     66  C   UNL     1       6.647  -3.060 -17.823  1.00  0.00     0.091 A 
ATOM     67  F   UNL     1       5.673  -1.511 -19.357  1.00  0.00    -0.205 F 
ATOM     68  C   UNL     1       7.398  -3.299 -16.660  1.00  0.00     0.022 A 
BRANCH  66  69
ATOM     69  S   UNL     1       5.944  -4.483 -18.658  1.00  0.00     0.127 S 
ATOM     70  O   UNL     1       7.099  -5.018 -19.375  1.00  0.00    -0.237 OA
ATOM     71  O   UNL     1       5.481  -5.308 -17.540  1.00  0.00    -0.237 OA
ATOM     72  O   UNL     1       4.869  -3.963 -19.495  1.00  0.00    -0.744 OA
ENDBRANCH  66  69
ENDBRANCH  39  62
ENDBRANCH  13  14
ENDBRANCH   6   8
ENDBRANCH   5   6
ENDBRANCH   4   5
ENDBRANCH   3   4
ENDBRANCH   2   3
ENDBRANCH   1   2
BRANCH   1  73
ATOM     73  C   UNL     1       4.493   4.322  -4.641  1.00  0.00     0.261 C 
BRANCH  73  74
ATOM     74  O   UNL     1       5.300   3.384  -3.836  1.00  0.00    -0.462 OA
BRANCH  74  75
ATOM     75  C   UNL     1       4.716   2.737  -2.779  1.00  0.00     0.328 C 
ATOM     76  O   UNL     1       3.678   3.143  -2.251  1.00  0.00    -0.250 OA
BRANCH  75  77
ATOM     77  C   UNL     1       5.427   1.375  -2.264  1.00  0.00     0.195 C 
ATOM     78  C   UNL     1       4.421   0.174  -2.107  1.00  0.00     0.046 C 
ATOM     79  N   UNL     1       6.680   0.619  -2.507  1.00  0.00    -0.328 N 
ATOM     80  C   UNL     1       5.242  -1.168  -2.011  1.00  0.00     0.001 C 
ATOM     81  C   UNL     1       6.651  -0.625  -1.741  1.00  0.00     0.128 C 
ATOM     82  C   UNL     1       5.345  -2.117  -3.249  1.00  0.00     0.071 C 
ATOM     83  C   UNL     1       4.671  -2.048  -0.891  1.00  0.00     0.071 C 
ATOM     84  C   UNL     1       4.096  -2.932  -3.619  1.00  0.00     0.270 C 
ATOM     85  C   UNL     1       3.331  -2.666  -1.319  1.00  0.00     0.270 C 
ATOM     86  N   UNL     1       3.502  -3.573  -2.458  1.00  0.00    -0.272 N 
ATOM     87  H   UNL     1       3.932  -2.703  -2.621  1.00  0.00     0.356 HD
BRANCH  79  88
ATOM     88  C   UNL     1       7.667   0.751  -3.443  1.00  0.00     0.225 C 
ATOM     89  O   UNL     1       8.691   0.066  -3.429  1.00  0.00    -0.275 OA
BRANCH  88  90
ATOM     90  C   UNL     1       7.444   1.702  -4.545  1.00  0.00     0.124 C 
BRANCH  90  91
ATOM     91  C   UNL     1       6.449   1.153  -5.563  1.00  0.00     0.154 C 
BRANCH  91  92
ATOM     92  N   UNL     1       5.104   0.642  -5.327  1.00  0.00    -0.272 N 
ATOM     93  C   UNL     1       4.550  -0.497  -5.870  1.00  0.00     0.108 A 
ATOM     94  N   UNL     1       4.122   1.460  -4.918  1.00  0.00    -0.182 NA
ATOM     95  C   UNL     1       3.182  -0.414  -5.707  1.00  0.00     0.042 A 
ATOM     96  C   UNL     1       2.973   0.814  -5.085  1.00  0.00     0.135 A 
ENDBRANCH  91  92
ENDBRANCH  90  91
ENDBRANCH  88  90
ENDBRANCH  79  88
BRANCH  86  97
ATOM     97  C   UNL     1       2.933  -4.848  -2.362  1.00  0.00     0.315 C 
ATOM     98  O   UNL     1       2.350  -5.185  -1.330  1.00  0.00    -0.231 OA
BRANCH  97  99
ATOM     99  C   UNL     1       2.982  -5.915  -3.413  1.00  0.00     0.119 C 
ATOM    100  C   UNL     1       3.119  -5.837  -4.905  1.00  0.00     0.019 C 
ATOM    101  C   UNL     1       4.273  -6.330  -4.072  1.00  0.00     0.019 C 
ENDBRANCH  97  99
ENDBRANCH  86  97
ENDBRANCH  75  77
ENDBRANCH  74  75
ENDBRANCH  73  74
ENDBRANCH   1  73
TORSDOF 23
