REMARK SMILES O=C(OCCOCCOC(=O)[C@H]1[C@@H]2C[C@H]3C[C@@H](C2)C[C@]1(n1ncc(N2CCN(c4ccc(F)cc4)CC2)c(Cl)c1=O)C3)c1ccc(-c2c3nc(c(-c4cccc(S(=O)(=O)[O-])c4F)c4ccc([nH]4)c(-c4cccc(S(=O)(=O)[O-])c4F)c4nc(c(-c5cccc(S(=O)(=O)[O-])c5F)c5ccc2[nH]5)C=C4)C=C3)cc1
REMARK SMILES IDX 6 1 5 2 4 3 3 4 2 5 1 6 43 7 44 8 105 9 45 10 104 11 46 12
REMARK SMILES IDX 47 13 48 14 98 15 49 16 103 17 97 18 99 19 50 20 102 21
REMARK SMILES IDX 96 22 95 23 51 25 83 26 63 27 82 28 64 29 67 30 81 31 100 32
REMARK SMILES IDX 65 33 66 34 80 36 101 37 68 38 52 39 53 40 61 41 54 42 56 43
REMARK SMILES IDX 62 44 55 45 57 46 58 47 59 48 60 49 84 50 85 51 93 52 86 53
REMARK SMILES IDX 88 54 94 55 87 56 89 57 90 58 91 59 92 60 69 61 70 62 78 63
REMARK SMILES IDX 71 64 73 65 79 66 72 67 74 68 75 69 76 70 77 71 7 72 8 73
REMARK SMILES IDX 9 74 10 75 11 76 12 77 13 78 20 79 18 80 14 81 42 82 19 83
REMARK SMILES IDX 17 84 15 85 16 86 21 87 22 88 40 89 23 90 38 91 41 92 24 93
REMARK SMILES IDX 39 94 25 95 26 96 37 97 27 98 36 99 28 100 29 101 30 102
REMARK SMILES IDX 35 103 31 104 34 105 32 106 33 107
REMARK H PARENT 99 24 67 35
REMARK Flexibility Score: inf
ROOT
ATOM      1  O   UNL     1       4.669   0.856  -0.624  1.00  0.00    -0.374 OA
ENDROOT
BRANCH   1   2
ATOM      2  C   UNL     1       4.965  -0.529  -0.776  1.00  0.00     0.202 C 
BRANCH   2   3
ATOM      3  C   UNL     1       4.565  -1.442   0.382  1.00  0.00     0.261 C 
BRANCH   3   4
ATOM      4  O   UNL     1       3.167  -1.363   0.696  1.00  0.00    -0.460 OA
BRANCH   4   5
ATOM      5  C   UNL     1       2.559  -0.574   1.615  1.00  0.00     0.338 C 
ATOM      6  O   UNL     1       1.402  -0.853   1.931  1.00  0.00    -0.246 OA
BRANCH   5   7
ATOM      7  C   UNL     1       3.141   0.712   2.124  1.00  0.00     0.060 A 
ATOM      8  C   UNL     1       2.220   1.652   2.623  1.00  0.00     0.016 A 
ATOM      9  C   UNL     1       4.484   1.092   2.068  1.00  0.00     0.016 A 
ATOM     10  C   UNL     1       2.620   2.947   2.959  1.00  0.00     0.010 A 
ATOM     11  C   UNL     1       4.880   2.400   2.323  1.00  0.00     0.010 A 
ATOM     12  C   UNL     1       3.950   3.330   2.773  1.00  0.00    -0.014 A 
BRANCH  12  13
ATOM     13  C   UNL     1       4.455   4.616   3.266  1.00  0.00     0.031 A 
ATOM     14  C   UNL     1       4.617   5.795   2.367  1.00  0.00     0.074 A 
ATOM     15  C   UNL     1       4.878   4.625   4.542  1.00  0.00     0.049 A 
ATOM     16  N   UNL     1       4.936   7.018   2.690  1.00  0.00    -0.248 NA
ATOM     17  C   UNL     1       4.412   5.584   0.925  1.00  0.00     0.031 C 
ATOM     18  C   UNL     1       4.872   3.453   5.426  1.00  0.00     0.029 A 
ATOM     19  N   UNL     1       5.415   5.619   5.305  1.00  0.00    -0.354 N 
ATOM     20  C   UNL     1       4.969   7.729   1.499  1.00  0.00     0.074 A 
ATOM     21  C   UNL     1       4.655   6.797   0.438  1.00  0.00     0.031 C 
ATOM     22  C   UNL     1       5.378   3.800   6.616  1.00  0.00     0.029 A 
ATOM     23  C   UNL     1       5.721   5.215   6.580  1.00  0.00     0.049 A 
ATOM     24  H   UNL     1       5.568   6.534   4.974  1.00  0.00     0.167 HD
ATOM     25  C   UNL     1       5.226   9.047   1.335  1.00  0.00     0.034 A 
ATOM     26  C   UNL     1       6.191   5.923   7.621  1.00  0.00     0.034 A 
ATOM     27  C   UNL     1       5.544   9.925   2.430  1.00  0.00     0.049 A 
ATOM     28  C   UNL     1       6.393   7.393   7.432  1.00  0.00     0.074 A 
ATOM     29  C   UNL     1       5.703  11.298   2.416  1.00  0.00     0.029 A 
ATOM     30  N   UNL     1       5.782   9.505   3.732  1.00  0.00    -0.354 N 
ATOM     31  N   UNL     1       6.202   8.107   6.347  1.00  0.00    -0.248 NA
ATOM     32  C   UNL     1       6.831   8.165   8.598  1.00  0.00     0.031 C 
ATOM     33  C   UNL     1       6.066  11.703   3.704  1.00  0.00     0.029 A 
ATOM     34  C   UNL     1       6.112  10.586   4.526  1.00  0.00     0.049 A 
ATOM     35  H   UNL     1       5.724   8.572   4.044  1.00  0.00     0.167 HD
ATOM     36  C   UNL     1       6.482   9.417   6.699  1.00  0.00     0.074 A 
ATOM     37  C   UNL     1       6.845   9.398   8.105  1.00  0.00     0.031 C 
ATOM     38  C   UNL     1       6.448  10.530   5.928  1.00  0.00     0.034 A 
BRANCH  25  39
ATOM     39  C   UNL     1       5.115   9.642  -0.044  1.00  0.00     0.023 A 
ATOM     40  C   UNL     1       3.836   9.858  -0.596  1.00  0.00     0.012 A 
ATOM     41  C   UNL     1       6.253  10.099  -0.739  1.00  0.00     0.148 A 
ATOM     42  C   UNL     1       3.690  10.508  -1.821  1.00  0.00     0.002 A 
ATOM     43  C   UNL     1       6.098  10.771  -1.948  1.00  0.00     0.091 A 
ATOM     44  F   UNL     1       7.460   9.880  -0.200  1.00  0.00    -0.205 F 
ATOM     45  C   UNL     1       4.819  10.973  -2.491  1.00  0.00     0.022 A 
BRANCH  43  46
ATOM     46  S   UNL     1       7.479  11.459  -2.870  1.00  0.00     0.127 S 
ATOM     47  O   UNL     1       7.440  10.665  -4.097  1.00  0.00    -0.237 OA
ATOM     48  O   UNL     1       7.072  12.854  -3.035  1.00  0.00    -0.237 OA
ATOM     49  O   UNL     1       8.660  11.259  -2.041  1.00  0.00    -0.744 OA
ENDBRANCH  43  46
ENDBRANCH  25  39
BRANCH  26  50
ATOM     50  C   UNL     1       6.332   5.234   8.928  1.00  0.00     0.023 A 
ATOM     51  C   UNL     1       5.292   5.349   9.868  1.00  0.00     0.012 A 
ATOM     52  C   UNL     1       7.377   4.317   9.156  1.00  0.00     0.148 A 
ATOM     53  C   UNL     1       5.285   4.556  11.015  1.00  0.00     0.002 A 
ATOM     54  C   UNL     1       7.347   3.507  10.285  1.00  0.00     0.091 A 
ATOM     55  F   UNL     1       8.339   4.211   8.228  1.00  0.00    -0.205 F 
ATOM     56  C   UNL     1       6.304   3.628  11.218  1.00  0.00     0.022 A 
BRANCH  54  57
ATOM     57  S   UNL     1       8.547   2.202  10.578  1.00  0.00     0.127 S 
ATOM     58  O   UNL     1       9.190   2.660  11.808  1.00  0.00    -0.237 OA
ATOM     59  O   UNL     1       7.685   1.031  10.732  1.00  0.00    -0.237 OA
ATOM     60  O   UNL     1       9.403   2.176   9.399  1.00  0.00    -0.744 OA
ENDBRANCH  54  57
ENDBRANCH  26  50
BRANCH  38  61
ATOM     61  C   UNL     1       6.832  11.830   6.569  1.00  0.00     0.023 A 
ATOM     62  C   UNL     1       8.197  12.144   6.714  1.00  0.00     0.012 A 
ATOM     63  C   UNL     1       5.852  12.795   6.869  1.00  0.00     0.148 A 
ATOM     64  C   UNL     1       8.583  13.410   7.144  1.00  0.00     0.002 A 
ATOM     65  C   UNL     1       6.246  14.066   7.263  1.00  0.00     0.091 A 
ATOM     66  F   UNL     1       4.562  12.460   6.722  1.00  0.00    -0.205 F 
ATOM     67  C   UNL     1       7.610  14.374   7.404  1.00  0.00     0.022 A 
BRANCH  65  68
ATOM     68  S   UNL     1       5.076  15.397   7.545  1.00  0.00     0.127 S 
ATOM     69  O   UNL     1       5.302  15.698   8.959  1.00  0.00    -0.237 OA
ATOM     70  O   UNL     1       5.550  16.424   6.619  1.00  0.00    -0.237 OA
ATOM     71  O   UNL     1       3.759  14.854   7.237  1.00  0.00    -0.744 OA
ENDBRANCH  65  68
ENDBRANCH  38  61
ENDBRANCH  12  13
ENDBRANCH   5   7
ENDBRANCH   4   5
ENDBRANCH   3   4
ENDBRANCH   2   3
ENDBRANCH   1   2
BRANCH   1  72
ATOM     72  C   UNL     1       3.423   1.332  -1.138  1.00  0.00     0.202 C 
BRANCH  72  73
ATOM     73  C   UNL     1       3.618   2.153  -2.419  1.00  0.00     0.261 C 
BRANCH  73  74
ATOM     74  O   UNL     1       3.549   1.305  -3.572  1.00  0.00    -0.463 OA
BRANCH  74  75
ATOM     75  C   UNL     1       4.539   0.407  -3.749  1.00  0.00     0.311 C 
ATOM     76  O   UNL     1       5.703   0.542  -3.377  1.00  0.00    -0.252 OA
BRANCH  75  77
ATOM     77  C   UNL     1       3.991  -0.909  -4.291  1.00  0.00     0.130 C 
ATOM     78  C   UNL     1       2.592  -1.262  -3.660  1.00  0.00     0.006 C 
ATOM     79  C   UNL     1       3.926  -1.051  -5.832  1.00  0.00     0.081 C 
ATOM     80  C   UNL     1       1.440  -0.409  -4.235  1.00  0.00     0.008 C 
ATOM     81  C   UNL     1       2.253  -2.728  -3.966  1.00  0.00     0.008 C 
ATOM     82  C   UNL     1       3.502  -2.552  -6.096  1.00  0.00     0.035 C 
ATOM     83  C   UNL     1       2.789  -0.143  -6.367  1.00  0.00     0.035 C 
ATOM     84  C   UNL     1       1.422  -0.527  -5.762  1.00  0.00    -0.008 C 
ATOM     85  C   UNL     1       2.154  -2.912  -5.482  1.00  0.00    -0.008 C 
ATOM     86  C   UNL     1       1.095  -1.986  -6.097  1.00  0.00     0.007 C 
BRANCH  79  87
ATOM     87  N   UNL     1       5.221  -0.800  -6.564  1.00  0.00    -0.222 N 
ATOM     88  N   UNL     1       5.607  -1.831  -7.394  1.00  0.00    -0.175 NA
ATOM     89  C   UNL     1       5.869   0.440  -6.593  1.00  0.00     0.288 A 
ATOM     90  C   UNL     1       6.552  -1.620  -8.237  1.00  0.00     0.161 A 
ATOM     91  C   UNL     1       7.092   0.536  -7.454  1.00  0.00     0.132 A 
ATOM     92  O   UNL     1       5.431   1.445  -6.040  1.00  0.00    -0.266 OA
ATOM     93  C   UNL     1       7.351  -0.393  -8.383  1.00  0.00     0.082 A 
ATOM     94  Cl  UNL     1       7.983   2.017  -7.379  1.00  0.00    -0.076 Cl
BRANCH  93  95
ATOM     95  N   UNL     1       8.221  -0.376  -9.463  1.00  0.00    -0.365 N 
ATOM     96  C   UNL     1       7.693  -0.273 -10.844  1.00  0.00     0.138 C 
ATOM     97  C   UNL     1       9.689  -0.294  -9.355  1.00  0.00     0.138 C 
ATOM     98  C   UNL     1       8.222   1.000 -11.543  1.00  0.00     0.138 C 
ATOM     99  C   UNL     1      10.251   0.931 -10.106  1.00  0.00     0.138 C 
ATOM    100  N   UNL     1       9.684   1.007 -11.463  1.00  0.00    -0.368 N 
BRANCH 100 101
ATOM    101  C   UNL     1      10.482   1.185 -12.563  1.00  0.00     0.037 A 
ATOM    102  C   UNL     1      11.566   0.326 -12.799  1.00  0.00     0.029 A 
ATOM    103  C   UNL     1      10.244   2.215 -13.483  1.00  0.00     0.029 A 
ATOM    104  C   UNL     1      12.392   0.491 -13.911  1.00  0.00     0.041 A 
ATOM    105  C   UNL     1      11.078   2.398 -14.589  1.00  0.00     0.041 A 
ATOM    106  C   UNL     1      12.144   1.533 -14.792  1.00  0.00     0.123 A 
ATOM    107  F   UNL     1      12.945   1.704 -15.852  1.00  0.00    -0.207 F 
ENDBRANCH 100 101
ENDBRANCH  93  95
ENDBRANCH  79  87
ENDBRANCH  75  77
ENDBRANCH  74  75
ENDBRANCH  73  74
ENDBRANCH  72  73
ENDBRANCH   1  72
TORSDOF 20
