REMARK SMILES Cc1nc2nc(CNC(=O)OC(C)(C)C)nn2c(C)c1CCC(=O)OCCOCCOC(=O)c1ccc(-c2c3nc(c(-c4cccc(S(=O)(=O)[O-])c4F)c4ccc([nH]4)c(-c4cccc(S(=O)(=O)[O-])c4F)c4nc(c(-c5cccc(S(=O)(=O)[O-])c5F)c5ccc2[nH]5)C=C4)C=C3)cc1
REMARK SMILES IDX 26 1 25 2 23 3 24 4 22 5 21 6 20 7 1 8 2 9 3 10 4 11 18 12
REMARK SMILES IDX 5 13 17 14 19 15 6 16 16 17 7 18 8 19 9 20 10 22 11 23 12 24
REMARK SMILES IDX 13 25 14 26 15 27 27 28 28 29 29 30 30 31 31 32 32 33 33 34
REMARK SMILES IDX 34 35 35 36 96 37 36 38 95 39 37 40 38 41 39 42 89 43 40 44
REMARK SMILES IDX 94 45 88 46 90 47 41 48 93 49 87 50 86 51 42 53 74 54 54 55
REMARK SMILES IDX 73 56 55 57 58 58 72 59 91 60 56 61 57 62 71 64 92 65 59 66
REMARK SMILES IDX 43 67 44 68 52 69 45 70 47 71 53 72 46 73 48 74 49 75 50 76
REMARK SMILES IDX 51 77 75 78 76 79 84 80 77 81 79 82 85 83 78 84 80 85 81 86
REMARK SMILES IDX 82 87 83 88 60 89 61 90 69 91 62 92 64 93 70 94 63 95 65 96
REMARK SMILES IDX 66 97 67 98 68 99
REMARK H PARENT 8 21 90 52 58 63
REMARK Flexibility Score: inf
ROOT
ATOM      1  C   UNL     1       4.006  -6.346   1.147  1.00  0.00     0.261 C 
ENDROOT
BRANCH   1   2
ATOM      2  O   UNL     1       3.673  -4.926   1.203  1.00  0.00    -0.463 OA
BRANCH   2   3
ATOM      3  C   UNL     1       4.502  -3.986   0.701  1.00  0.00     0.306 C 
ATOM      4  O   UNL     1       5.628  -4.228   0.282  1.00  0.00    -0.252 OA
BRANCH   3   5
ATOM      5  C   UNL     1       3.912  -2.569   0.755  1.00  0.00     0.127 C 
BRANCH   5   6
ATOM      6  C   UNL     1       2.657  -2.190  -0.084  1.00  0.00     0.051 C 
BRANCH   6   7
ATOM      7  C   UNL     1       1.294  -2.383   0.567  1.00  0.00    -0.005 A 
ATOM      8  C   UNL     1       0.642   0.155   0.517  1.00  0.00     0.067 C 
ATOM      9  C   UNL     1       0.305  -1.264   0.929  1.00  0.00     0.046 A 
ATOM     10  N   UNL     1      -0.870  -1.431   1.487  1.00  0.00    -0.216 NA
ATOM     11  C   UNL     1      -1.278  -2.710   1.738  1.00  0.00     0.252 A 
ATOM     12  C   UNL     1       0.752  -3.595   0.770  1.00  0.00     0.048 A 
ATOM     13  N   UNL     1      -2.430  -3.226   2.139  1.00  0.00    -0.192 NA
ATOM     14  N   UNL     1      -0.445  -3.757   1.426  1.00  0.00    -0.201 N 
ATOM     15  C   UNL     1       1.260  -4.881   0.276  1.00  0.00     0.067 C 
ATOM     16  C   UNL     1      -2.217  -4.586   2.085  1.00  0.00     0.172 A 
ATOM     17  N   UNL     1      -0.970  -4.932   1.803  1.00  0.00    -0.148 NA
BRANCH  16  18
ATOM     18  C   UNL     1      -3.204  -5.668   2.313  1.00  0.00     0.199 C 
BRANCH  18  19
ATOM     19  N   UNL     1      -3.130  -6.098   3.691  1.00  0.00    -0.314 N 
ATOM     20  C   UNL     1      -4.182  -6.606   4.375  1.00  0.00     0.408 C 
ATOM     21  H   UNL     1      -2.267  -6.018   4.157  1.00  0.00     0.167 HD
ATOM     22  O   UNL     1      -4.113  -6.863   5.568  1.00  0.00    -0.225 OA
BRANCH  20  23
ATOM     23  O   UNL     1      -5.262  -6.751   3.579  1.00  0.00    -0.444 OA
BRANCH  23  24
ATOM     24  C   UNL     1      -6.583  -6.928   4.130  1.00  0.00     0.106 C 
ATOM     25  C   UNL     1      -6.697  -8.228   4.928  1.00  0.00     0.056 C 
ATOM     26  C   UNL     1      -6.960  -5.694   4.955  1.00  0.00     0.056 C 
ATOM     27  C   UNL     1      -7.508  -7.013   2.908  1.00  0.00     0.056 C 
ENDBRANCH  23  24
ENDBRANCH  20  23
ENDBRANCH  18  19
ENDBRANCH  16  18
ENDBRANCH   6   7
ENDBRANCH   5   6
ENDBRANCH   3   5
ENDBRANCH   2   3
ENDBRANCH   1   2
BRANCH   1  28
ATOM     28  C   UNL     1       3.469  -7.123  -0.086  1.00  0.00     0.202 C 
BRANCH  28  29
ATOM     29  O   UNL     1       4.286  -7.053  -1.253  1.00  0.00    -0.374 OA
BRANCH  29  30
ATOM     30  C   UNL     1       4.183  -5.875  -2.046  1.00  0.00     0.202 C 
BRANCH  30  31
ATOM     31  C   UNL     1       3.172  -5.933  -3.184  1.00  0.00     0.261 C 
BRANCH  31  32
ATOM     32  O   UNL     1       1.846  -5.782  -2.694  1.00  0.00    -0.460 OA
BRANCH  32  33
ATOM     33  C   UNL     1       1.072  -6.889  -2.599  1.00  0.00     0.338 C 
ATOM     34  O   UNL     1       1.417  -8.041  -2.705  1.00  0.00    -0.246 OA
BRANCH  33  35
ATOM     35  C   UNL     1      -0.316  -6.413  -2.412  1.00  0.00     0.060 A 
ATOM     36  C   UNL     1      -1.346  -7.353  -2.353  1.00  0.00     0.016 A 
ATOM     37  C   UNL     1      -0.584  -5.028  -2.393  1.00  0.00     0.016 A 
ATOM     38  C   UNL     1      -2.641  -6.901  -2.514  1.00  0.00     0.010 A 
ATOM     39  C   UNL     1      -1.869  -4.577  -2.443  1.00  0.00     0.010 A 
ATOM     40  C   UNL     1      -2.849  -5.526  -2.668  1.00  0.00    -0.014 A 
BRANCH  40  41
ATOM     41  C   UNL     1      -4.082  -5.047  -3.235  1.00  0.00     0.031 A 
ATOM     42  C   UNL     1      -5.205  -5.024  -2.285  1.00  0.00     0.074 A 
ATOM     43  C   UNL     1      -4.104  -4.569  -4.496  1.00  0.00     0.049 A 
ATOM     44  N   UNL     1      -6.179  -5.866  -2.233  1.00  0.00    -0.248 NA
ATOM     45  C   UNL     1      -5.142  -4.101  -1.144  1.00  0.00     0.031 C 
ATOM     46  C   UNL     1      -2.987  -4.257  -5.399  1.00  0.00     0.029 A 
ATOM     47  N   UNL     1      -5.173  -4.134  -5.199  1.00  0.00    -0.354 N 
ATOM     48  C   UNL     1      -6.992  -5.424  -1.197  1.00  0.00     0.074 A 
ATOM     49  C   UNL     1      -6.198  -4.500  -0.432  1.00  0.00     0.031 C 
ATOM     50  C   UNL     1      -3.428  -3.439  -6.386  1.00  0.00     0.029 A 
ATOM     51  C   UNL     1      -4.869  -3.304  -6.269  1.00  0.00     0.049 A 
ATOM     52  H   UNL     1      -6.096  -4.387  -4.971  1.00  0.00     0.167 HD
ATOM     53  C   UNL     1      -8.331  -5.664  -1.211  1.00  0.00     0.034 A 
ATOM     54  C   UNL     1      -5.755  -2.507  -6.919  1.00  0.00     0.034 A 
ATOM     55  C   UNL     1      -8.678  -6.621  -2.235  1.00  0.00     0.049 A 
ATOM     56  C   UNL     1      -7.109  -3.054  -6.630  1.00  0.00     0.074 A 
ATOM     57  C   UNL     1      -8.342  -7.936  -2.488  1.00  0.00     0.029 A 
ATOM     58  N   UNL     1      -9.141  -6.113  -3.428  1.00  0.00    -0.354 N 
ATOM     59  N   UNL     1      -7.500  -4.231  -7.038  1.00  0.00    -0.248 NA
ATOM     60  C   UNL     1      -7.814  -2.528  -5.468  1.00  0.00     0.031 C 
ATOM     61  C   UNL     1      -8.152  -7.999  -3.901  1.00  0.00     0.029 A 
ATOM     62  C   UNL     1      -8.462  -6.748  -4.438  1.00  0.00     0.049 A 
ATOM     63  H   UNL     1      -9.832  -5.420  -3.537  1.00  0.00     0.167 HD
ATOM     64  C   UNL     1      -8.151  -4.782  -5.940  1.00  0.00     0.074 A 
ATOM     65  C   UNL     1      -8.387  -3.656  -5.032  1.00  0.00     0.031 C 
ATOM     66  C   UNL     1      -8.154  -6.130  -5.711  1.00  0.00     0.034 A 
BRANCH  53  67
ATOM     67  C   UNL     1      -9.376  -4.801  -0.556  1.00  0.00     0.023 A 
ATOM     68  C   UNL     1     -10.688  -5.318  -0.494  1.00  0.00     0.012 A 
ATOM     69  C   UNL     1      -9.206  -3.437  -0.229  1.00  0.00     0.148 A 
ATOM     70  C   UNL     1     -11.780  -4.509  -0.167  1.00  0.00     0.002 A 
ATOM     71  C   UNL     1     -10.283  -2.656   0.174  1.00  0.00     0.091 A 
ATOM     72  F   UNL     1      -8.029  -2.840  -0.433  1.00  0.00    -0.205 F 
ATOM     73  C   UNL     1     -11.577  -3.180   0.177  1.00  0.00     0.022 A 
BRANCH  71  74
ATOM     74  S   UNL     1     -10.075  -0.944   0.679  1.00  0.00     0.127 S 
ATOM     75  O   UNL     1     -10.670  -0.232  -0.448  1.00  0.00    -0.237 OA
ATOM     76  O   UNL     1     -10.853  -0.904   1.918  1.00  0.00    -0.237 OA
ATOM     77  O   UNL     1      -8.642  -0.763   0.867  1.00  0.00    -0.744 OA
ENDBRANCH  71  74
ENDBRANCH  53  67
BRANCH  54  78
ATOM     78  C   UNL     1      -5.562  -1.117  -7.408  1.00  0.00     0.023 A 
ATOM     79  C   UNL     1      -6.479  -0.561  -8.323  1.00  0.00     0.012 A 
ATOM     80  C   UNL     1      -4.668  -0.239  -6.751  1.00  0.00     0.148 A 
ATOM     81  C   UNL     1      -6.530   0.823  -8.547  1.00  0.00     0.002 A 
ATOM     82  C   UNL     1      -4.727   1.135  -6.972  1.00  0.00     0.091 A 
ATOM     83  F   UNL     1      -3.825  -0.741  -5.840  1.00  0.00    -0.205 F 
ATOM     84  C   UNL     1      -5.664   1.671  -7.862  1.00  0.00     0.022 A 
BRANCH  82  85
ATOM     85  S   UNL     1      -3.676   2.293  -6.081  1.00  0.00     0.127 S 
ATOM     86  O   UNL     1      -3.126   3.100  -7.170  1.00  0.00    -0.237 OA
ATOM     87  O   UNL     1      -4.642   2.984  -5.233  1.00  0.00    -0.237 OA
ATOM     88  O   UNL     1      -2.689   1.480  -5.380  1.00  0.00    -0.744 OA
ENDBRANCH  82  85
ENDBRANCH  54  78
BRANCH  66  89
ATOM     89  C   UNL     1      -7.570  -7.037  -6.772  1.00  0.00     0.023 A 
ATOM     90  C   UNL     1      -6.209  -6.993  -7.149  1.00  0.00     0.012 A 
ATOM     91  C   UNL     1      -8.368  -8.082  -7.265  1.00  0.00     0.148 A 
ATOM     92  C   UNL     1      -5.666  -7.950  -8.014  1.00  0.00     0.002 A 
ATOM     93  C   UNL     1      -7.815  -9.058  -8.087  1.00  0.00     0.091 A 
ATOM     94  F   UNL     1      -9.656  -8.121  -6.895  1.00  0.00    -0.205 F 
ATOM     95  C   UNL     1      -6.467  -8.991  -8.473  1.00  0.00     0.022 A 
BRANCH  93  96
ATOM     96  S   UNL     1      -8.764 -10.490  -8.600  1.00  0.00     0.127 S 
ATOM     97  O   UNL     1      -9.075 -10.167  -9.991  1.00  0.00    -0.237 OA
ATOM     98  O   UNL     1      -7.806 -11.583  -8.425  1.00  0.00    -0.237 OA
ATOM     99  O   UNL     1      -9.907 -10.555  -7.697  1.00  0.00    -0.744 OA
ENDBRANCH  93  96
ENDBRANCH  66  89
ENDBRANCH  40  41
ENDBRANCH  33  35
ENDBRANCH  32  33
ENDBRANCH  31  32
ENDBRANCH  30  31
ENDBRANCH  29  30
ENDBRANCH  28  29
ENDBRANCH   1  28
TORSDOF 23
