REMARK SMILES CC(C)[C@H](NC(=O)[C@H]1CC(=O)N(c2ccc(F)cc2)C1)C(=O)N1CCC[C@@H]1C(=O)OCCOCCOC(=O)c1ccc(-c2c3nc(c(-c4cccc(S(=O)(=O)[O-])c4F)c4ccc([nH]4)c(-c4cccc(S(=O)(=O)[O-])c4F)c4nc(c(-c5cccc(S(=O)(=O)[O-])c5F)c5ccc2[nH]5)C=C4)C=C3)cc1
REMARK SMILES IDX 32 1 31 2 30 3 28 4 29 5 27 6 23 7 24 8 25 9 26 10 21 11
REMARK SMILES IDX 22 12 4 13 2 14 1 15 3 16 5 17 6 18 7 20 8 21 9 22 20 23
REMARK SMILES IDX 10 24 12 25 11 26 13 27 14 28 19 29 15 30 18 31 16 32 17 33
REMARK SMILES IDX 33 34 34 35 35 36 36 37 37 38 38 39 39 40 40 41 101 42 41 43
REMARK SMILES IDX 100 44 42 45 43 46 44 47 94 48 45 49 99 50 93 51 95 52 46 53
REMARK SMILES IDX 98 54 92 55 91 56 47 58 79 59 59 60 78 61 60 62 63 63 77 64
REMARK SMILES IDX 96 65 61 66 62 67 76 69 97 70 64 71 48 72 49 73 57 74 50 75
REMARK SMILES IDX 52 76 58 77 51 78 53 79 54 80 55 81 56 82 80 83 81 84 89 85
REMARK SMILES IDX 82 86 84 87 90 88 83 89 85 90 86 91 87 92 88 93 65 94 66 95
REMARK SMILES IDX 74 96 67 97 69 98 75 99 68 100 70 101 71 102 72 103 73 104
REMARK H PARENT 5 19 95 57 63 68
REMARK Flexibility Score: inf
ROOT
ATOM      1  C   UNL     1      -1.011  -5.886   2.872  1.00  0.00     0.202 C 
ENDROOT
BRANCH   1   2
ATOM      2  C   UNL     1      -1.267  -4.426   2.481  1.00  0.00     0.261 C 
BRANCH   2   3
ATOM      3  O   UNL     1      -2.618  -4.122   2.117  1.00  0.00    -0.462 OA
BRANCH   3   4
ATOM      4  C   UNL     1      -2.843  -4.081   0.772  1.00  0.00     0.328 C 
ATOM      5  O   UNL     1      -2.022  -4.418  -0.075  1.00  0.00    -0.250 OA
BRANCH   4   6
ATOM      6  C   UNL     1      -4.240  -3.543   0.426  1.00  0.00     0.195 C 
ATOM      7  N   UNL     1      -4.330  -2.091   0.571  1.00  0.00    -0.327 N 
ATOM      8  C   UNL     1      -5.623  -1.728   1.133  1.00  0.00     0.120 C 
ATOM      9  C   UNL     1      -5.991  -2.897   2.016  1.00  0.00     0.024 C 
ATOM     10  C   UNL     1      -5.367  -4.102   1.319  1.00  0.00     0.039 C 
BRANCH   7  11
ATOM     11  C   UNL     1      -3.385  -1.273  -0.030  1.00  0.00     0.246 C 
ATOM     12  O   UNL     1      -2.621  -1.712  -0.892  1.00  0.00    -0.272 OA
BRANCH  11  13
ATOM     13  C   UNL     1      -3.126   0.137   0.569  1.00  0.00     0.174 C 
BRANCH  13  14
ATOM     14  C   UNL     1      -2.363   0.050   1.917  1.00  0.00     0.015 C 
ATOM     15  C   UNL     1      -3.012  -0.787   3.018  1.00  0.00     0.010 C 
ATOM     16  C   UNL     1      -0.898  -0.362   1.738  1.00  0.00     0.010 C 
ENDBRANCH  13  14
BRANCH  13  17
ATOM     17  N   UNL     1      -4.396   0.856   0.588  1.00  0.00    -0.344 N 
ATOM     18  C   UNL     1      -4.811   2.062   1.026  1.00  0.00     0.226 C 
ATOM     19  H   UNL     1      -5.127   0.334   0.185  1.00  0.00     0.164 HD
ATOM     20  O   UNL     1      -6.009   2.292   0.841  1.00  0.00    -0.275 OA
BRANCH  18  21
ATOM     21  C   UNL     1      -3.869   3.058   1.665  1.00  0.00     0.107 C 
ATOM     22  C   UNL     1      -4.413   4.473   1.459  1.00  0.00     0.116 C 
ATOM     23  C   UNL     1      -3.783   2.905   3.178  1.00  0.00     0.139 C 
ATOM     24  C   UNL     1      -4.233   5.178   2.774  1.00  0.00     0.227 C 
ATOM     25  N   UNL     1      -3.857   4.226   3.710  1.00  0.00    -0.312 N 
ATOM     26  O   UNL     1      -4.417   6.381   2.877  1.00  0.00    -0.274 OA
BRANCH  25  27
ATOM     27  C   UNL     1      -3.103   4.586   4.847  1.00  0.00     0.044 A 
ATOM     28  C   UNL     1      -4.040   5.335   6.374  1.00  0.00     0.029 A 
ATOM     29  C   UNL     1      -1.164   4.438   4.724  1.00  0.00     0.029 A 
ATOM     30  C   UNL     1      -3.013   6.295   7.724  1.00  0.00     0.041 A 
ATOM     31  C   UNL     1      -0.131   5.485   6.005  1.00  0.00     0.041 A 
ATOM     32  C   UNL     1      -1.114   6.518   7.350  1.00  0.00     0.123 A 
ATOM     33  F   UNL     1      -0.432   7.397   8.111  1.00  0.00    -0.207 F 
ENDBRANCH  25  27
ENDBRANCH  18  21
ENDBRANCH  13  17
ENDBRANCH  11  13
ENDBRANCH   7  11
ENDBRANCH   4   6
ENDBRANCH   3   4
ENDBRANCH   2   3
ENDBRANCH   1   2
BRANCH   1  34
ATOM     34  O   UNL     1      -1.541  -6.936   2.076  1.00  0.00    -0.374 OA
BRANCH  34  35
ATOM     35  C   UNL     1      -2.950  -7.087   1.965  1.00  0.00     0.202 C 
BRANCH  35  36
ATOM     36  C   UNL     1      -3.809  -7.295   3.221  1.00  0.00     0.261 C 
BRANCH  36  37
ATOM     37  O   UNL     1      -3.655  -6.293   4.240  1.00  0.00    -0.460 OA
BRANCH  37  38
ATOM     38  C   UNL     1      -3.067  -6.749   5.377  1.00  0.00     0.338 C 
ATOM     39  O   UNL     1      -2.644  -7.875   5.585  1.00  0.00    -0.246 OA
BRANCH  38  40
ATOM     40  C   UNL     1      -2.857  -5.656   6.341  1.00  0.00     0.060 A 
ATOM     41  C   UNL     1      -1.542  -5.290   6.652  1.00  0.00     0.016 A 
ATOM     42  C   UNL     1      -3.930  -5.128   7.059  1.00  0.00     0.016 A 
ATOM     43  C   UNL     1      -1.291  -4.423   7.714  1.00  0.00     0.010 A 
ATOM     44  C   UNL     1      -3.674  -4.261   8.126  1.00  0.00     0.010 A 
ATOM     45  C   UNL     1      -2.354  -3.930   8.483  1.00  0.00    -0.014 A 
BRANCH  45  46
ATOM     46  C   UNL     1      -2.088  -3.131   9.704  1.00  0.00     0.031 A 
ATOM     47  C   UNL     1      -2.297  -3.727  11.069  1.00  0.00     0.074 A 
ATOM     48  C   UNL     1      -1.667  -1.858   9.612  1.00  0.00     0.049 A 
ATOM     49  N   UNL     1      -2.183  -3.156  12.242  1.00  0.00    -0.248 NA
ATOM     50  C   UNL     1      -2.678  -5.146  11.123  1.00  0.00     0.031 C 
ATOM     51  C   UNL     1      -1.372  -1.145   8.372  1.00  0.00     0.029 A 
ATOM     52  N   UNL     1      -1.439  -0.933  10.600  1.00  0.00    -0.354 N 
ATOM     53  C   UNL     1      -2.503  -4.133  13.174  1.00  0.00     0.074 A 
ATOM     54  C   UNL     1      -2.827  -5.332  12.428  1.00  0.00     0.031 C 
ATOM     55  C   UNL     1      -1.014   0.114   8.672  1.00  0.00     0.029 A 
ATOM     56  C   UNL     1      -1.102   0.306  10.120  1.00  0.00     0.049 A 
ATOM     57  H   UNL     1      -1.511  -1.139  11.560  1.00  0.00     0.167 HD
ATOM     58  C   UNL     1      -2.516  -4.050  14.526  1.00  0.00     0.034 A 
ATOM     59  C   UNL     1      -0.908   1.470  10.768  1.00  0.00     0.034 A 
ATOM     60  C   UNL     1      -2.182  -2.877  15.292  1.00  0.00     0.049 A 
ATOM     61  C   UNL     1      -1.023   1.560  12.258  1.00  0.00     0.074 A 
ATOM     62  C   UNL     1      -2.123  -2.745  16.670  1.00  0.00     0.029 A 
ATOM     63  N   UNL     1      -1.877  -1.637  14.765  1.00  0.00    -0.354 N 
ATOM     64  N   UNL     1      -1.248   0.612  13.127  1.00  0.00    -0.248 NA
ATOM     65  C   UNL     1      -0.819   2.891  12.854  1.00  0.00     0.031 C 
ATOM     66  C   UNL     1      -1.833  -1.413  16.977  1.00  0.00     0.029 A 
ATOM     67  C   UNL     1      -1.655  -0.729  15.789  1.00  0.00     0.049 A 
ATOM     68  H   UNL     1      -1.824  -1.428  13.804  1.00  0.00     0.167 HD
ATOM     69  C   UNL     1      -1.161   1.219  14.374  1.00  0.00     0.074 A 
ATOM     70  C   UNL     1      -0.857   2.615  14.149  1.00  0.00     0.031 C 
ATOM     71  C   UNL     1      -1.317   0.655  15.594  1.00  0.00     0.034 A 
BRANCH  58  72
ATOM     72  C   UNL     1      -2.898  -5.282  15.299  1.00  0.00     0.023 A 
ATOM     73  C   UNL     1      -1.993  -6.356  15.396  1.00  0.00     0.012 A 
ATOM     74  C   UNL     1      -4.102  -5.315  16.027  1.00  0.00     0.148 A 
ATOM     75  C   UNL     1      -2.291  -7.457  16.197  1.00  0.00     0.002 A 
ATOM     76  C   UNL     1      -4.367  -6.390  16.864  1.00  0.00     0.091 A 
ATOM     77  F   UNL     1      -4.953  -4.287  15.900  1.00  0.00    -0.205 F 
ATOM     78  C   UNL     1      -3.468  -7.466  16.942  1.00  0.00     0.022 A 
BRANCH  76  79
ATOM     79  S   UNL     1      -5.803  -6.445  17.939  1.00  0.00     0.127 S 
ATOM     80  O   UNL     1      -6.562  -7.552  17.358  1.00  0.00    -0.237 OA
ATOM     81  O   UNL     1      -5.199  -6.734  19.239  1.00  0.00    -0.237 OA
ATOM     82  O   UNL     1      -6.437  -5.138  17.835  1.00  0.00    -0.744 OA
ENDBRANCH  76  79
ENDBRANCH  58  72
BRANCH  59  83
ATOM     83  C   UNL     1      -0.461   2.656  10.008  1.00  0.00     0.023 A 
ATOM     84  C   UNL     1       0.880   3.045  10.165  1.00  0.00     0.012 A 
ATOM     85  C   UNL     1      -1.315   3.357   9.132  1.00  0.00     0.148 A 
ATOM     86  C   UNL     1       1.370   4.126   9.463  1.00  0.00     0.002 A 
ATOM     87  C   UNL     1      -0.810   4.389   8.332  1.00  0.00     0.091 A 
ATOM     88  F   UNL     1      -2.602   2.986   9.065  1.00  0.00    -0.205 F 
ATOM     89  C   UNL     1       0.554   4.754   8.521  1.00  0.00     0.022 A 
BRANCH  87  90
ATOM     90  S   UNL     1      -2.004   4.707   6.688  1.00  0.00     0.127 S 
ATOM     91  O   UNL     1      -2.548   6.301   6.019  1.00  0.00    -0.237 OA
ATOM     92  O   UNL     1      -1.729   5.977   5.410  1.00  0.00    -0.237 OA
ATOM     93  O   UNL     1      -2.507   3.330   6.486  1.00  0.00    -0.744 OA
ENDBRANCH  87  90
ENDBRANCH  59  83
BRANCH  71  94
ATOM     94  C   UNL     1      -1.108   1.523  16.807  1.00  0.00     0.023 A 
ATOM     95  C   UNL     1      -2.030   2.540  17.126  1.00  0.00     0.012 A 
ATOM     96  C   UNL     1      -0.016   1.288  17.665  1.00  0.00     0.148 A 
ATOM     97  C   UNL     1      -1.849   3.329  18.262  1.00  0.00     0.002 A 
ATOM     98  C   UNL     1       0.125   2.038  18.826  1.00  0.00     0.091 A 
ATOM     99  F   UNL     1       0.866   0.336  17.330  1.00  0.00    -0.205 F 
ATOM    100  C   UNL     1      -0.782   3.070  19.118  1.00  0.00     0.022 A 
BRANCH  98 101
ATOM    101  S   UNL     1       1.409   1.711  20.038  1.00  0.00     0.127 S 
ATOM    102  O   UNL     1       2.223   2.922  19.944  1.00  0.00    -0.237 OA
ATOM    103  O   UNL     1       0.637   1.587  21.274  1.00  0.00    -0.237 OA
ATOM    104  O   UNL     1       2.070   0.486  19.607  1.00  0.00    -0.744 OA
ENDBRANCH  98 101
ENDBRANCH  71  94
ENDBRANCH  45  46
ENDBRANCH  38  40
ENDBRANCH  37  38
ENDBRANCH  36  37
ENDBRANCH  35  36
ENDBRANCH  34  35
ENDBRANCH   1  34
TORSDOF 23
