REMARK SMILES [NH3+][C@H](Cc1ccc2nsnc2c1)C(=O)OCCOCCOC(=O)c1ccc(-c2c3nc(c(-c4cccc(S(=O)(=O)[O-])c4F)c4ccc([nH]4)c(-c4cccc(S(=O)(=O)[O-])c4F)c4nc(c(-c5cccc(S(=O)(=O)[O-])c5F)c5ccc2[nH]5)C=C4)C=C3)cc1
REMARK SMILES IDX 19 1 18 2 17 3 16 4 15 5 13 6 14 7 2 8 1 9 3 13 4 14 5 15
REMARK SMILES IDX 12 16 6 17 11 18 7 19 10 20 8 21 9 22 20 23 21 24 22 25
REMARK SMILES IDX 23 26 24 27 25 28 86 29 26 30 85 31 27 32 28 33 29 34 79 35
REMARK SMILES IDX 30 36 84 37 78 38 80 39 31 40 83 41 77 42 76 43 32 45 64 46
REMARK SMILES IDX 44 47 63 48 45 49 48 50 62 51 81 52 46 53 47 54 61 56 82 57
REMARK SMILES IDX 49 58 33 59 34 60 42 61 35 62 37 63 43 64 36 65 38 66 39 67
REMARK SMILES IDX 40 68 41 69 65 70 66 71 74 72 67 73 69 74 75 75 68 76 70 77
REMARK SMILES IDX 71 78 72 79 73 80 50 81 51 82 59 83 52 84 54 85 60 86 53 87
REMARK SMILES IDX 55 88 56 89 57 90 58 91
REMARK H PARENT 1 10 1 11 1 12 80 44 48 55
REMARK Flexibility Score: inf
ROOT
ATOM      1  C   UNL     1      -2.095  -1.778  -0.865  1.00  0.00     0.202 C 
ENDROOT
BRANCH   1   2
ATOM      2  O   UNL     1      -3.295  -1.757  -0.095  1.00  0.00    -0.374 OA
BRANCH   2   3
ATOM      3  C   UNL     1      -3.659  -0.525   0.526  1.00  0.00     0.202 C 
BRANCH   3   4
ATOM      4  C   UNL     1      -2.916  -0.139   1.808  1.00  0.00     0.261 C 
BRANCH   4   5
ATOM      5  O   UNL     1      -1.501   0.027   1.600  1.00  0.00    -0.459 OA
BRANCH   5   6
ATOM      6  C   UNL     1      -0.728  -0.957   2.133  1.00  0.00     0.365 C 
ATOM      7  O   UNL     1      -1.161  -1.918   2.763  1.00  0.00    -0.245 OA
BRANCH   6   8
ATOM      8  C   UNL     1       0.777  -0.763   1.865  1.00  0.00     0.296 C 
BRANCH   8   9
ATOM      9  N   UNL     1       1.445  -0.374   3.120  1.00  0.00    -0.346 N 
ATOM     10  H   UNL     1       1.114  -0.967   3.880  1.00  0.00     0.345 HD
ATOM     11  H   UNL     1       1.231   0.601   3.331  1.00  0.00     0.345 HD
ATOM     12  H   UNL     1       2.454  -0.485   3.017  1.00  0.00     0.345 HD
ENDBRANCH   8   9
BRANCH   8  13
ATOM     13  C   UNL     1       1.164   0.041   0.596  1.00  0.00     0.113 C 
BRANCH  13  14
ATOM     14  C   UNL     1       1.459   1.527   0.716  1.00  0.00    -0.039 A 
ATOM     15  C   UNL     1       2.642   1.954   1.388  1.00  0.00     0.006 A 
ATOM     16  C   UNL     1       0.600   2.454   0.080  1.00  0.00     0.035 A 
ATOM     17  C   UNL     1       3.028   3.299   1.534  1.00  0.00     0.032 A 
ATOM     18  C   UNL     1       0.957   3.824   0.168  1.00  0.00     0.105 A 
ATOM     19  C   UNL     1       2.189   4.252   0.916  1.00  0.00     0.104 A 
ATOM     20  N   UNL     1       0.292   4.848  -0.386  1.00  0.00    -0.173 NA
ATOM     21  N   UNL     1       2.385   5.578   0.906  1.00  0.00    -0.173 NA
ATOM     22  S   UNL     1       1.093   6.233   0.085  1.00  0.00     0.069 S 
ENDBRANCH  13  14
ENDBRANCH   8  13
ENDBRANCH   6   8
ENDBRANCH   5   6
ENDBRANCH   4   5
ENDBRANCH   3   4
ENDBRANCH   2   3
ENDBRANCH   1   2
BRANCH   1  23
ATOM     23  C   UNL     1      -2.128  -1.087  -2.235  1.00  0.00     0.261 C 
BRANCH  23  24
ATOM     24  O   UNL     1      -2.323   0.335  -2.132  1.00  0.00    -0.460 OA
BRANCH  24  25
ATOM     25  C   UNL     1      -3.508   0.776  -2.623  1.00  0.00     0.338 C 
ATOM     26  O   UNL     1      -4.357   0.108  -3.200  1.00  0.00    -0.246 OA
BRANCH  25  27
ATOM     27  C   UNL     1      -3.758   2.168  -2.206  1.00  0.00     0.060 A 
ATOM     28  C   UNL     1      -4.974   2.437  -1.563  1.00  0.00     0.016 A 
ATOM     29  C   UNL     1      -2.870   3.203  -2.506  1.00  0.00     0.016 A 
ATOM     30  C   UNL     1      -5.335   3.751  -1.273  1.00  0.00     0.010 A 
ATOM     31  C   UNL     1      -3.239   4.522  -2.219  1.00  0.00     0.010 A 
ATOM     32  C   UNL     1      -4.490   4.805  -1.642  1.00  0.00    -0.014 A 
BRANCH  32  33
ATOM     33  C   UNL     1      -4.987   6.200  -1.556  1.00  0.00     0.031 A 
ATOM     34  C   UNL     1      -5.505   6.870  -2.800  1.00  0.00     0.074 A 
ATOM     35  C   UNL     1      -4.997   6.856  -0.382  1.00  0.00     0.049 A 
ATOM     36  N   UNL     1      -5.979   8.079  -2.953  1.00  0.00    -0.248 NA
ATOM     37  C   UNL     1      -5.484   6.072  -4.037  1.00  0.00     0.031 C 
ATOM     38  C   UNL     1      -4.529   6.314   0.892  1.00  0.00     0.029 A 
ATOM     39  N   UNL     1      -5.398   8.134  -0.079  1.00  0.00    -0.354 N 
ATOM     40  C   UNL     1      -6.288   8.198  -4.303  1.00  0.00     0.074 A 
ATOM     41  C   UNL     1      -5.939   6.941  -4.929  1.00  0.00     0.031 C 
ATOM     42  C   UNL     1      -4.644   7.262   1.837  1.00  0.00     0.029 A 
ATOM     43  C   UNL     1      -5.172   8.483   1.231  1.00  0.00     0.049 A 
ATOM     44  H   UNL     1      -5.807   8.741  -0.737  1.00  0.00     0.167 HD
ATOM     45  C   UNL     1      -6.829   9.251  -4.960  1.00  0.00     0.034 A 
ATOM     46  C   UNL     1      -5.353   9.661   1.863  1.00  0.00     0.034 A 
ATOM     47  C   UNL     1      -7.198  10.492  -4.334  1.00  0.00     0.049 A 
ATOM     48  C   UNL     1      -5.937  10.824   1.104  1.00  0.00     0.074 A 
ATOM     49  C   UNL     1      -7.796  11.600  -4.907  1.00  0.00     0.029 A 
ATOM     50  N   UNL     1      -6.995  10.794  -2.997  1.00  0.00    -0.354 N 
ATOM     51  N   UNL     1      -6.336  10.880  -0.144  1.00  0.00    -0.248 NA
ATOM     52  C   UNL     1      -6.126  12.078   1.849  1.00  0.00     0.031 C 
ATOM     53  C   UNL     1      -7.933  12.582  -3.921  1.00  0.00     0.029 A 
ATOM     54  C   UNL     1      -7.444  12.075  -2.728  1.00  0.00     0.049 A 
ATOM     55  H   UNL     1      -6.590  10.187  -2.336  1.00  0.00     0.167 HD
ATOM     56  C   UNL     1      -6.858  12.158  -0.322  1.00  0.00     0.074 A 
ATOM     57  C   UNL     1      -6.739  12.838   0.951  1.00  0.00     0.031 C 
ATOM     58  C   UNL     1      -7.376  12.721  -1.442  1.00  0.00     0.034 A 
BRANCH  45  59
ATOM     59  C   UNL     1      -7.084   9.098  -6.436  1.00  0.00     0.023 A 
ATOM     60  C   UNL     1      -8.155   8.295  -6.878  1.00  0.00     0.012 A 
ATOM     61  C   UNL     1      -6.307   9.797  -7.381  1.00  0.00     0.148 A 
ATOM     62  C   UNL     1      -8.431   8.166  -8.239  1.00  0.00     0.002 A 
ATOM     63  C   UNL     1      -6.614   9.696  -8.733  1.00  0.00     0.091 A 
ATOM     64  F   UNL     1      -5.279  10.537  -6.942  1.00  0.00    -0.205 F 
ATOM     65  C   UNL     1      -7.668   8.875  -9.164  1.00  0.00     0.022 A 
BRANCH  63  66
ATOM     66  S   UNL     1      -5.738  10.628  -9.995  1.00  0.00     0.127 S 
ATOM     67  O   UNL     1      -4.960   9.577 -10.650  1.00  0.00    -0.237 OA
ATOM     68  O   UNL     1      -6.836  11.165 -10.800  1.00  0.00    -0.237 OA
ATOM     69  O   UNL     1      -4.960  11.632  -9.284  1.00  0.00    -0.744 OA
ENDBRANCH  63  66
ENDBRANCH  45  59
BRANCH  46  70
ATOM     70  C   UNL     1      -5.007   9.789   3.306  1.00  0.00     0.023 A 
ATOM     71  C   UNL     1      -6.034   9.950   4.257  1.00  0.00     0.012 A 
ATOM     72  C   UNL     1      -3.669   9.737   3.743  1.00  0.00     0.148 A 
ATOM     73  C   UNL     1      -5.732  10.084   5.613  1.00  0.00     0.002 A 
ATOM     74  C   UNL     1      -3.379   9.815   5.099  1.00  0.00     0.091 A 
ATOM     75  F   UNL     1      -2.705   9.604   2.821  1.00  0.00    -0.205 F 
ATOM     76  C   UNL     1      -4.408  10.006   6.035  1.00  0.00     0.022 A 
BRANCH  74  77
ATOM     77  S   UNL     1      -1.716   9.595   5.741  1.00  0.00     0.127 S 
ATOM     78  O   UNL     1      -1.375  10.952   6.161  1.00  0.00    -0.237 OA
ATOM     79  O   UNL     1      -1.936   8.648   6.834  1.00  0.00    -0.237 OA
ATOM     80  O   UNL     1      -0.937   9.059   4.632  1.00  0.00    -0.744 OA
ENDBRANCH  74  77
ENDBRANCH  46  70
BRANCH  58  81
ATOM     81  C   UNL     1      -7.896  14.132  -1.344  1.00  0.00     0.023 A 
ATOM     82  C   UNL     1      -6.991  15.207  -1.248  1.00  0.00     0.012 A 
ATOM     83  C   UNL     1      -9.277  14.396  -1.435  1.00  0.00     0.148 A 
ATOM     84  C   UNL     1      -7.455  16.522  -1.213  1.00  0.00     0.002 A 
ATOM     85  C   UNL     1      -9.729  15.711  -1.447  1.00  0.00     0.091 A 
ATOM     86  F   UNL     1     -10.124  13.359  -1.508  1.00  0.00    -0.205 F 
ATOM     87  C   UNL     1      -8.820  16.775  -1.325  1.00  0.00     0.022 A 
BRANCH  85  88
ATOM     88  S   UNL     1     -11.459  16.132  -1.684  1.00  0.00     0.127 S 
ATOM     89  O   UNL     1     -11.850  16.557  -0.341  1.00  0.00    -0.237 OA
ATOM     90  O   UNL     1     -11.386  17.213  -2.668  1.00  0.00    -0.237 OA
ATOM     91  O   UNL     1     -12.104  14.919  -2.169  1.00  0.00    -0.744 OA
ENDBRANCH  85  88
ENDBRANCH  58  81
ENDBRANCH  32  33
ENDBRANCH  25  27
ENDBRANCH  24  25
ENDBRANCH  23  24
ENDBRANCH   1  23
TORSDOF 20
