REMARK SMILES O=C(OCCOCCOC(=O)c1cccc(Nc2ccc([N+](=O)[O-])cc2)c1)c1ccc(-c2c3nc(c(-c4cccc(S(=O)(=O)[O-])c4F)c4ccc([nH]4)c(-c4cccc(S(=O)(=O)[O-])c4F)c4nc(c(-c5cccc(S(=O)(=O)[O-])c5F)c5ccc2[nH]5)C=C4)C=C3)cc1
REMARK SMILES IDX 6 1 5 2 4 3 3 4 2 5 1 6 28 7 29 8 90 9 30 10 89 11 31 12
REMARK SMILES IDX 32 13 33 14 83 15 34 16 88 17 82 18 84 19 35 20 87 21 81 22
REMARK SMILES IDX 80 23 36 25 68 26 48 27 67 28 49 29 52 30 66 31 85 32 50 33
REMARK SMILES IDX 51 34 65 36 86 37 53 38 37 39 38 40 46 41 39 42 41 43 47 44
REMARK SMILES IDX 40 45 42 46 43 47 44 48 45 49 69 50 70 51 78 52 71 53 73 54
REMARK SMILES IDX 79 55 72 56 74 57 75 58 76 59 77 60 54 61 55 62 63 63 56 64
REMARK SMILES IDX 58 65 64 66 57 67 59 68 60 69 61 70 62 71 7 72 8 73 9 74
REMARK SMILES IDX 10 75 11 76 12 77 13 78 27 79 14 80 16 81 15 82 17 83 18 85
REMARK SMILES IDX 19 86 26 87 20 88 25 89 21 90 22 91 23 92 24 93
REMARK H PARENT 84 24 52 35 17 84
REMARK Flexibility Score: inf
ROOT
ATOM      1  O   UNL     1       4.011   1.611  -0.673  1.00  0.00    -0.374 OA
ENDROOT
BRANCH   1   2
ATOM      2  C   UNL     1       4.240   0.520  -1.563  1.00  0.00     0.202 C 
BRANCH   2   3
ATOM      3  C   UNL     1       3.926  -0.859  -0.979  1.00  0.00     0.261 C 
BRANCH   3   4
ATOM      4  O   UNL     1       2.544  -0.934  -0.593  1.00  0.00    -0.460 OA
BRANCH   4   5
ATOM      5  C   UNL     1       2.022  -0.903   0.657  1.00  0.00     0.338 C 
ATOM      6  O   UNL     1       0.810  -1.062   0.787  1.00  0.00    -0.246 OA
BRANCH   5   7
ATOM      7  C   UNL     1       2.843  -0.686   1.887  1.00  0.00     0.060 A 
ATOM      8  C   UNL     1       4.037   0.036   1.927  1.00  0.00     0.016 A 
ATOM      9  C   UNL     1       2.323  -1.161   3.102  1.00  0.00     0.016 A 
ATOM     10  C   UNL     1       4.735   0.231   3.105  1.00  0.00     0.010 A 
ATOM     11  C   UNL     1       2.995  -0.931   4.306  1.00  0.00     0.010 A 
ATOM     12  C   UNL     1       4.213  -0.243   4.301  1.00  0.00    -0.014 A 
BRANCH  12  13
ATOM     13  C   UNL     1       5.029  -0.060   5.510  1.00  0.00     0.031 A 
ATOM     14  C   UNL     1       5.775  -1.236   6.048  1.00  0.00     0.074 A 
ATOM     15  C   UNL     1       5.183   1.178   6.013  1.00  0.00     0.049 A 
ATOM     16  N   UNL     1       6.545  -1.312   7.096  1.00  0.00    -0.248 NA
ATOM     17  C   UNL     1       5.651  -2.497   5.294  1.00  0.00     0.031 C 
ATOM     18  C   UNL     1       4.567   2.391   5.466  1.00  0.00     0.029 A 
ATOM     19  N   UNL     1       5.915   1.627   7.077  1.00  0.00    -0.354 N 
ATOM     20  C   UNL     1       6.951  -2.637   7.163  1.00  0.00     0.074 A 
ATOM     21  C   UNL     1       6.366  -3.327   6.037  1.00  0.00     0.031 C 
ATOM     22  C   UNL     1       4.949   3.447   6.201  1.00  0.00     0.029 A 
ATOM     23  C   UNL     1       5.778   2.977   7.303  1.00  0.00     0.049 A 
ATOM     24  H   UNL     1       6.484   1.042   7.627  1.00  0.00     0.167 HD
ATOM     25  C   UNL     1       7.736  -3.219   8.098  1.00  0.00     0.034 A 
ATOM     26  C   UNL     1       6.243   3.731   8.316  1.00  0.00     0.034 A 
ATOM     27  C   UNL     1       8.306  -2.496   9.199  1.00  0.00     0.049 A 
ATOM     28  C   UNL     1       7.074   3.047   9.367  1.00  0.00     0.074 A 
ATOM     29  C   UNL     1       9.088  -2.973  10.232  1.00  0.00     0.029 A 
ATOM     30  N   UNL     1       8.141  -1.133   9.410  1.00  0.00    -0.354 N 
ATOM     31  N   UNL     1       7.465   1.795   9.421  1.00  0.00    -0.248 NA
ATOM     32  C   UNL     1       7.538   3.872  10.489  1.00  0.00     0.031 C 
ATOM     33  C   UNL     1       9.370  -1.901  11.086  1.00  0.00     0.029 A 
ATOM     34  C   UNL     1       8.796  -0.750  10.565  1.00  0.00     0.049 A 
ATOM     35  H   UNL     1       7.631  -0.529   8.823  1.00  0.00     0.167 HD
ATOM     36  C   UNL     1       8.239   1.683  10.567  1.00  0.00     0.074 A 
ATOM     37  C   UNL     1       8.282   3.006  11.164  1.00  0.00     0.031 C 
ATOM     38  C   UNL     1       8.846   0.591  11.094  1.00  0.00     0.034 A 
BRANCH  25  39
ATOM     39  C   UNL     1       7.960  -4.701   7.982  1.00  0.00     0.023 A 
ATOM     40  C   UNL     1       8.804  -5.218   6.979  1.00  0.00     0.012 A 
ATOM     41  C   UNL     1       7.307  -5.585   8.862  1.00  0.00     0.148 A 
ATOM     42  C   UNL     1       8.965  -6.597   6.831  1.00  0.00     0.002 A 
ATOM     43  C   UNL     1       7.505  -6.954   8.735  1.00  0.00     0.091 A 
ATOM     44  F   UNL     1       6.485  -5.073   9.788  1.00  0.00    -0.205 F 
ATOM     45  C   UNL     1       8.322  -7.463   7.712  1.00  0.00     0.022 A 
BRANCH  43  46
ATOM     46  S   UNL     1       6.765  -8.148   9.854  1.00  0.00     0.127 S 
ATOM     47  O   UNL     1       5.824  -8.836   8.971  1.00  0.00    -0.237 OA
ATOM     48  O   UNL     1       7.923  -8.948  10.255  1.00  0.00    -0.237 OA
ATOM     49  O   UNL     1       6.158  -7.373  10.927  1.00  0.00    -0.744 OA
ENDBRANCH  43  46
ENDBRANCH  25  39
BRANCH  26  50
ATOM     50  C   UNL     1       5.918   5.184   8.386  1.00  0.00     0.023 A 
ATOM     51  C   UNL     1       6.942   6.141   8.259  1.00  0.00     0.012 A 
ATOM     52  C   UNL     1       4.588   5.626   8.549  1.00  0.00     0.148 A 
ATOM     53  C   UNL     1       6.653   7.507   8.319  1.00  0.00     0.002 A 
ATOM     54  C   UNL     1       4.299   6.985   8.550  1.00  0.00     0.091 A 
ATOM     55  F   UNL     1       3.626   4.703   8.690  1.00  0.00    -0.205 F 
ATOM     56  C   UNL     1       5.332   7.929   8.453  1.00  0.00     0.022 A 
BRANCH  54  57
ATOM     57  S   UNL     1       2.615   7.611   8.588  1.00  0.00     0.127 S 
ATOM     58  O   UNL     1       2.533   8.166   9.936  1.00  0.00    -0.237 OA
ATOM     59  O   UNL     1       2.635   8.603   7.513  1.00  0.00    -0.237 OA
ATOM     60  O   UNL     1       1.762   6.460   8.323  1.00  0.00    -0.744 OA
ENDBRANCH  54  57
ENDBRANCH  26  50
BRANCH  38  61
ATOM     61  C   UNL     1       9.632   0.789  12.359  1.00  0.00     0.023 A 
ATOM     62  C   UNL     1       8.959   0.975  13.582  1.00  0.00     0.012 A 
ATOM     63  C   UNL     1      11.036   0.692  12.342  1.00  0.00     0.148 A 
ATOM     64  C   UNL     1       9.677   1.089  14.770  1.00  0.00     0.002 A 
ATOM     65  C   UNL     1      11.741   0.751  13.536  1.00  0.00     0.091 A 
ATOM     66  F   UNL     1      11.653   0.535  11.162  1.00  0.00    -0.205 F 
ATOM     67  C   UNL     1      11.065   0.962  14.749  1.00  0.00     0.022 A 
BRANCH  65  68
ATOM     68  S   UNL     1      13.514   0.485  13.613  1.00  0.00     0.127 S 
ATOM     69  O   UNL     1      14.007   1.836  13.873  1.00  0.00    -0.237 OA
ATOM     70  O   UNL     1      13.641  -0.439  14.740  1.00  0.00    -0.237 OA
ATOM     71  O   UNL     1      13.891  -0.082  12.325  1.00  0.00    -0.744 OA
ENDBRANCH  65  68
ENDBRANCH  38  61
ENDBRANCH  12  13
ENDBRANCH   5   7
ENDBRANCH   4   5
ENDBRANCH   3   4
ENDBRANCH   2   3
ENDBRANCH   1   2
BRANCH   1  72
ATOM     72  C   UNL     1       2.676   2.127  -0.623  1.00  0.00     0.202 C 
BRANCH  72  73
ATOM     73  C   UNL     1       2.732   3.658  -0.640  1.00  0.00     0.261 C 
BRANCH  73  74
ATOM     74  O   UNL     1       3.335   4.065  -1.878  1.00  0.00    -0.460 OA
BRANCH  74  75
ATOM     75  C   UNL     1       4.693   4.067  -1.867  1.00  0.00     0.338 C 
ATOM     76  O   UNL     1       5.434   4.197  -0.908  1.00  0.00    -0.246 OA
BRANCH  75  77
ATOM     77  C   UNL     1       5.146   3.658  -3.211  1.00  0.00     0.062 A 
ATOM     78  C   UNL     1       6.248   2.805  -3.322  1.00  0.00     0.016 A 
ATOM     79  C   UNL     1       4.444   4.058  -4.350  1.00  0.00     0.041 A 
ATOM     80  C   UNL     1       6.621   2.328  -4.575  1.00  0.00     0.003 A 
ATOM     81  C   UNL     1       4.850   3.639  -5.619  1.00  0.00     0.039 A 
ATOM     82  C   UNL     1       5.927   2.746  -5.714  1.00  0.00     0.026 A 
BRANCH  81  83
ATOM     83  N   UNL     1       4.157   4.141  -6.739  1.00  0.00    -0.355 N 
ATOM     84  H   UNL     1       3.241   4.465  -6.582  1.00  0.00     0.167 HD
BRANCH  83  85
ATOM     85  C   UNL     1       4.640   4.225  -8.052  1.00  0.00     0.039 A 
ATOM     86  C   UNL     1       5.130   5.452  -8.518  1.00  0.00     0.033 A 
ATOM     87  C   UNL     1       4.714   3.096  -8.872  1.00  0.00     0.033 A 
ATOM     88  C   UNL     1       5.693   5.556  -9.790  1.00  0.00     0.088 A 
ATOM     89  C   UNL     1       5.267   3.186 -10.151  1.00  0.00     0.088 A 
ATOM     90  C   UNL     1       5.759   4.418 -10.603  1.00  0.00     0.269 A 
BRANCH  90  91
ATOM     91  N   UNL     1       6.359   4.517 -11.938  1.00  0.00     0.062 N 
ATOM     92  O   UNL     1       6.763   5.629 -12.308  1.00  0.00    -0.258 OA
ATOM     93  O   UNL     1       6.425   3.484 -12.619  1.00  0.00    -0.258 OA
ENDBRANCH  90  91
ENDBRANCH  83  85
ENDBRANCH  81  83
ENDBRANCH  75  77
ENDBRANCH  74  75
ENDBRANCH  73  74
ENDBRANCH  72  73
ENDBRANCH   1  72
TORSDOF 20
