REMARK SMILES COCCN1C(=O)C[C@H](C(=O)OCCOCCOC(=O)c2ccc(-c3c4nc(c(-c5cccc(S(=O)(=O)[O-])c5F)c5ccc([nH]5)c(-c5cccc(S(=O)(=O)[O-])c5F)c5nc(c(-c6cccc(S(=O)(=O)[O-])c6F)c6ccc3[nH]6)C=C5)C=C4)cc2)[C@@H]1c1ccccc1N1CCOCC1
REMARK SMILES IDX 15 1 14 2 13 3 12 4 10 5 11 6 9 7 5 8 6 9 84 10 7 11 8 12
REMARK SMILES IDX 4 13 3 14 2 15 1 16 85 17 86 18 90 19 87 20 89 21 88 22
REMARK SMILES IDX 91 23 92 24 96 25 93 26 95 27 94 28 16 29 17 30 18 31 19 32
REMARK SMILES IDX 20 33 21 34 22 35 83 36 23 37 82 38 24 39 25 40 26 41 76 42
REMARK SMILES IDX 27 43 81 44 75 45 77 46 28 47 80 48 74 49 73 50 29 52 61 53
REMARK SMILES IDX 41 54 60 55 42 56 45 57 59 58 78 59 43 60 44 61 58 63 79 64
REMARK SMILES IDX 46 65 30 66 31 67 39 68 32 69 34 70 40 71 33 72 35 73 36 74
REMARK SMILES IDX 37 75 38 76 62 77 63 78 71 79 64 80 66 81 72 82 65 83 67 84
REMARK SMILES IDX 68 85 69 86 70 87 47 88 48 89 56 90 49 91 51 92 57 93 50 94
REMARK SMILES IDX 52 95 53 96 54 97 55 98
REMARK H PARENT 77 51 45 62
REMARK Flexibility Score: inf
ROOT
ATOM      1  O   UNL     1       2.829   1.132   7.056  1.00  0.00    -0.374 OA
ENDROOT
BRANCH   1   2
ATOM      2  C   UNL     1       1.782   2.009   7.434  1.00  0.00     0.202 C 
BRANCH   2   3
ATOM      3  C   UNL     1       1.035   2.844   6.385  1.00  0.00     0.261 C 
BRANCH   3   4
ATOM      4  O   UNL     1       0.836   2.285   5.092  1.00  0.00    -0.463 OA
BRANCH   4   5
ATOM      5  C   UNL     1       1.899   2.354   4.253  1.00  0.00     0.312 C 
ATOM      6  O   UNL     1       3.048   2.609   4.589  1.00  0.00    -0.252 OA
BRANCH   5   7
ATOM      7  C   UNL     1       1.568   1.939   2.857  1.00  0.00     0.136 C 
ATOM      8  N   UNL     1       0.458   2.271   0.876  1.00  0.00    -0.332 N 
ATOM      9  C   UNL     1      -0.169   1.173   1.438  1.00  0.00     0.224 C 
ATOM     10  C   UNL     1       1.216   3.058   1.875  1.00  0.00     0.132 C 
ATOM     11  O   UNL     1      -1.045   0.485   0.936  1.00  0.00    -0.275 OA
ATOM     12  C   UNL     1       0.427   0.925   2.784  1.00  0.00     0.118 C 
BRANCH   8  13
ATOM     13  C   UNL     1       0.244   2.675  -0.513  1.00  0.00     0.148 C 
BRANCH  13  14
ATOM     14  C   UNL     1       1.246   2.059  -1.506  1.00  0.00     0.181 C 
BRANCH  14  15
ATOM     15  O   UNL     1       0.913   0.758  -1.996  1.00  0.00    -0.383 OA
ATOM     16  C   UNL     1       1.238  -0.316  -1.129  1.00  0.00     0.194 C 
ENDBRANCH  14  15
ENDBRANCH  13  14
ENDBRANCH   8  13
BRANCH  10  17
ATOM     17  C   UNL     1       0.447   4.269   2.442  1.00  0.00    -0.001 A 
ATOM     18  C   UNL     1      -0.935   4.373   2.116  1.00  0.00     0.008 A 
ATOM     19  C   UNL     1       1.006   5.260   3.314  1.00  0.00     0.042 A 
ATOM     20  C   UNL     1      -1.761   5.374   2.619  1.00  0.00     0.001 A 
ATOM     21  C   UNL     1       0.123   6.260   3.800  1.00  0.00     0.026 A 
ATOM     22  C   UNL     1      -1.232   6.316   3.472  1.00  0.00     0.002 A 
BRANCH  19  23
ATOM     23  N   UNL     1       2.330   5.264   3.779  1.00  0.00    -0.367 N 
ATOM     24  C   UNL     1       3.464   5.422   2.848  1.00  0.00     0.145 C 
ATOM     25  C   UNL     1       2.640   5.915   5.085  1.00  0.00     0.145 C 
ATOM     26  C   UNL     1       4.776   4.930   3.505  1.00  0.00     0.181 C 
ATOM     27  C   UNL     1       3.956   5.377   5.671  1.00  0.00     0.181 C 
ATOM     28  O   UNL     1       5.045   5.583   4.758  1.00  0.00    -0.378 OA
ENDBRANCH  19  23
ENDBRANCH  10  17
ENDBRANCH   5   7
ENDBRANCH   4   5
ENDBRANCH   3   4
ENDBRANCH   2   3
ENDBRANCH   1   2
BRANCH   1  29
ATOM     29  C   UNL     1       2.548  -0.005   6.245  1.00  0.00     0.202 C 
BRANCH  29  30
ATOM     30  C   UNL     1       1.484  -1.003   6.699  1.00  0.00     0.261 C 
BRANCH  30  31
ATOM     31  O   UNL     1       0.171  -0.422   6.730  1.00  0.00    -0.460 OA
BRANCH  31  32
ATOM     32  C   UNL     1      -0.394  -0.392   7.960  1.00  0.00     0.338 C 
ATOM     33  O   UNL     1       0.077  -0.828   8.999  1.00  0.00    -0.246 OA
BRANCH  32  34
ATOM     34  C   UNL     1      -1.603   0.444   7.940  1.00  0.00     0.060 A 
ATOM     35  C   UNL     1      -1.675   1.499   8.860  1.00  0.00     0.016 A 
ATOM     36  C   UNL     1      -2.691   0.120   7.129  1.00  0.00     0.016 A 
ATOM     37  C   UNL     1      -2.867   2.190   9.030  1.00  0.00     0.010 A 
ATOM     38  C   UNL     1      -3.893   0.803   7.314  1.00  0.00     0.010 A 
ATOM     39  C   UNL     1      -3.996   1.797   8.304  1.00  0.00    -0.014 A 
BRANCH  39  40
ATOM     40  C   UNL     1      -5.327   2.264   8.746  1.00  0.00     0.031 A 
ATOM     41  C   UNL     1      -6.141   1.359   9.628  1.00  0.00     0.074 A 
ATOM     42  C   UNL     1      -5.787   3.473   8.386  1.00  0.00     0.049 A 
ATOM     43  N   UNL     1      -7.349   1.524  10.097  1.00  0.00    -0.248 NA
ATOM     44  C   UNL     1      -5.506   0.092  10.033  1.00  0.00     0.031 C 
ATOM     45  C   UNL     1      -5.069   4.434   7.553  1.00  0.00     0.029 A 
ATOM     46  N   UNL     1      -6.987   4.079   8.653  1.00  0.00    -0.354 N 
ATOM     47  C   UNL     1      -7.631   0.375  10.825  1.00  0.00     0.074 A 
ATOM     48  C   UNL     1      -6.474  -0.487  10.726  1.00  0.00     0.031 C 
ATOM     49  C   UNL     1      -5.864   5.496   7.336  1.00  0.00     0.029 A 
ATOM     50  C   UNL     1      -7.151   5.271   7.992  1.00  0.00     0.049 A 
ATOM     51  H   UNL     1      -7.663   3.698   9.259  1.00  0.00     0.167 HD
ATOM     52  C   UNL     1      -8.748   0.071  11.526  1.00  0.00     0.034 A 
ATOM     53  C   UNL     1      -8.234   6.066   7.897  1.00  0.00     0.034 A 
ATOM     54  C   UNL     1      -9.891   0.937  11.618  1.00  0.00     0.049 A 
ATOM     55  C   UNL     1      -9.482   5.693   8.653  1.00  0.00     0.074 A 
ATOM     56  C   UNL     1     -11.066   0.743  12.321  1.00  0.00     0.029 A 
ATOM     57  N   UNL     1     -10.008   2.159  10.972  1.00  0.00    -0.354 N 
ATOM     58  N   UNL     1      -9.704   4.651   9.418  1.00  0.00    -0.248 NA
ATOM     59  C   UNL     1     -10.617   6.622   8.563  1.00  0.00     0.031 C 
ATOM     60  C   UNL     1     -11.906   1.834  12.073  1.00  0.00     0.029 A 
ATOM     61  C   UNL     1     -11.239   2.727  11.249  1.00  0.00     0.049 A 
ATOM     62  H   UNL     1      -9.316   2.563  10.400  1.00  0.00     0.167 HD
ATOM     63  C   UNL     1     -10.989   4.813   9.926  1.00  0.00     0.074 A 
ATOM     64  C   UNL     1     -11.487   6.067   9.396  1.00  0.00     0.031 C 
ATOM     65  C   UNL     1     -11.698   3.997  10.746  1.00  0.00     0.034 A 
BRANCH  52  66
ATOM     66  C   UNL     1      -8.775  -1.250  12.251  1.00  0.00     0.023 A 
ATOM     67  C   UNL     1      -7.957  -1.445  13.383  1.00  0.00     0.012 A 
ATOM     68  C   UNL     1      -9.624  -2.290  11.826  1.00  0.00     0.148 A 
ATOM     69  C   UNL     1      -7.953  -2.667  14.056  1.00  0.00     0.002 A 
ATOM     70  C   UNL     1      -9.650  -3.488  12.531  1.00  0.00     0.091 A 
ATOM     71  F   UNL     1     -10.376  -2.097  10.733  1.00  0.00    -0.205 F 
ATOM     72  C   UNL     1      -8.806  -3.684  13.636  1.00  0.00     0.022 A 
BRANCH  70  73
ATOM     73  S   UNL     1     -10.769  -4.831  12.116  1.00  0.00     0.127 S 
ATOM     74  O   UNL     1      -9.847  -5.828  11.575  1.00  0.00    -0.237 OA
ATOM     75  O   UNL     1     -11.337  -5.171  13.421  1.00  0.00    -0.237 OA
ATOM     76  O   UNL     1     -11.723  -4.279  11.165  1.00  0.00    -0.744 OA
ENDBRANCH  70  73
ENDBRANCH  52  66
BRANCH  53  77
ATOM     77  C   UNL     1      -8.173   7.296   7.060  1.00  0.00     0.023 A 
ATOM     78  C   UNL     1      -8.192   8.563   7.671  1.00  0.00     0.012 A 
ATOM     79  C   UNL     1      -8.051   7.209   5.659  1.00  0.00     0.148 A 
ATOM     80  C   UNL     1      -8.119   9.724   6.899  1.00  0.00     0.002 A 
ATOM     81  C   UNL     1      -7.917   8.366   4.902  1.00  0.00     0.091 A 
ATOM     82  F   UNL     1      -8.047   5.992   5.096  1.00  0.00    -0.205 F 
ATOM     83  C   UNL     1      -7.969   9.625   5.518  1.00  0.00     0.022 A 
BRANCH  81  84
ATOM     84  S   UNL     1      -7.573   8.331   3.140  1.00  0.00     0.127 S 
ATOM     85  O   UNL     1      -8.804   8.885   2.583  1.00  0.00    -0.237 OA
ATOM     86  O   UNL     1      -6.404   9.206   3.047  1.00  0.00    -0.237 OA
ATOM     87  O   UNL     1      -7.305   6.936   2.816  1.00  0.00    -0.744 OA
ENDBRANCH  81  84
ENDBRANCH  53  77
BRANCH  65  88
ATOM     88  C   UNL     1     -13.075   4.448  11.158  1.00  0.00     0.023 A 
ATOM     89  C   UNL     1     -14.131   4.432  10.225  1.00  0.00     0.012 A 
ATOM     90  C   UNL     1     -13.338   4.815  12.493  1.00  0.00     0.148 A 
ATOM     91  C   UNL     1     -15.418   4.809  10.606  1.00  0.00     0.002 A 
ATOM     92  C   UNL     1     -14.633   5.139  12.877  1.00  0.00     0.091 A 
ATOM     93  F   UNL     1     -12.316   4.839  13.361  1.00  0.00    -0.205 F 
ATOM     94  C   UNL     1     -15.671   5.151  11.932  1.00  0.00     0.022 A 
BRANCH  92  95
ATOM     95  S   UNL     1     -15.071   5.495  14.582  1.00  0.00     0.127 S 
ATOM     96  O   UNL     1     -15.333   6.933  14.528  1.00  0.00    -0.237 OA
ATOM     97  O   UNL     1     -16.260   4.665  14.776  1.00  0.00    -0.237 OA
ATOM     98  O   UNL     1     -13.921   5.102  15.384  1.00  0.00    -0.744 OA
ENDBRANCH  92  95
ENDBRANCH  65  88
ENDBRANCH  39  40
ENDBRANCH  32  34
ENDBRANCH  31  32
ENDBRANCH  30  31
ENDBRANCH  29  30
ENDBRANCH   1  29
TORSDOF 22
