REMARK SMILES CC(C)OC(=O)c1c(NC(=O)[C@H]2[C@@H](C(=O)OCCOCCOC(=O)c3ccc(-c4c5nc(c(-c6cccc(S(=O)(=O)[O-])c6F)c6ccc([nH]6)c(-c6cccc(S(=O)(=O)[O-])c6F)c6nc(c(-c7cccc(S(=O)(=O)[O-])c7F)c7ccc4[nH]7)C=C6)C=C5)cc3)[C@@H]3C=C[C@H]2CC3)sc2c1CCC2
REMARK SMILES IDX 18 1 17 2 16 3 14 4 15 5 13 6 12 7 91 8 88 9 90 10 92 11
REMARK SMILES IDX 89 12 93 13 10 14 9 15 11 17 8 18 7 19 96 20 94 21 95 22
REMARK SMILES IDX 97 23 99 24 98 25 5 26 6 27 4 28 2 29 1 30 3 31 19 32 20 33
REMARK SMILES IDX 21 34 22 35 23 36 24 37 25 38 26 39 87 40 27 41 86 42 28 43
REMARK SMILES IDX 29 44 30 45 80 46 31 47 85 48 79 49 81 50 32 51 84 52 78 53
REMARK SMILES IDX 77 54 33 56 65 57 45 58 64 59 46 60 49 61 63 62 82 63 47 64
REMARK SMILES IDX 48 65 62 67 83 68 50 69 34 70 35 71 43 72 36 73 38 74 44 75
REMARK SMILES IDX 37 76 39 77 40 78 41 79 42 80 66 81 67 82 75 83 68 84 70 85
REMARK SMILES IDX 76 86 69 87 71 88 72 89 73 90 74 91 51 92 52 93 60 94 53 95
REMARK SMILES IDX 55 96 61 97 54 98 56 99 57 100 58 101 59 102
REMARK H PARENT 9 16 81 55 49 66
REMARK Flexibility Score: inf
ROOT
ATOM      1  C   UNL     1      -9.156   4.019  -5.633  1.00  0.00     0.202 C 
ENDROOT
BRANCH   1   2
ATOM      2  C   UNL     1      -9.459   3.657  -4.178  1.00  0.00     0.261 C 
BRANCH   2   3
ATOM      3  O   UNL     1      -8.271   3.414  -3.423  1.00  0.00    -0.463 OA
BRANCH   3   4
ATOM      4  C   UNL     1      -8.100   2.126  -3.017  1.00  0.00     0.310 C 
ATOM      5  O   UNL     1      -8.946   1.246  -3.093  1.00  0.00    -0.252 OA
BRANCH   4   6
ATOM      6  C   UNL     1      -6.702   1.943  -2.464  1.00  0.00     0.119 C 
ATOM      7  C   UNL     1      -6.210   0.444  -2.475  1.00  0.00     0.100 C 
ATOM      8  C   UNL     1      -6.111   0.004  -1.008  1.00  0.00     0.025 C 
ATOM      9  C   UNL     1      -6.649   2.543  -1.022  1.00  0.00     0.026 C 
ATOM     10  C   UNL     1      -5.056   0.876  -0.350  1.00  0.00    -0.027 C 
ATOM     11  C   UNL     1      -7.449   0.312  -0.278  1.00  0.00     0.009 C 
ATOM     12  C   UNL     1      -5.320   2.192  -0.382  1.00  0.00    -0.027 C 
ATOM     13  C   UNL     1      -7.697   1.824  -0.157  1.00  0.00     0.009 C 
BRANCH   7  14
ATOM     14  C   UNL     1      -6.777  -0.460  -3.609  1.00  0.00     0.229 C 
ATOM     15  N   UNL     1      -7.709  -1.453  -3.564  1.00  0.00    -0.317 N 
ATOM     16  H   UNL     1      -7.963  -1.799  -4.450  1.00  0.00     0.170 HD
ATOM     17  O   UNL     1      -6.400  -0.174  -4.763  1.00  0.00    -0.274 OA
BRANCH  15  18
ATOM     18  C   UNL     1      -8.364  -2.065  -2.523  1.00  0.00     0.110 A 
ATOM     19  C   UNL     1      -9.711  -2.425  -2.421  1.00  0.00     0.098 A 
ATOM     20  C   UNL     1      -9.989  -2.621  -1.035  1.00  0.00    -0.017 A 
ATOM     21  S   UNL     1      -7.476  -2.801  -1.251  1.00  0.00    -0.122 S 
ATOM     22  C   UNL     1      -8.841  -2.702  -0.295  1.00  0.00     0.011 A 
ATOM     23  C   UNL     1     -11.172  -2.719  -0.143  1.00  0.00     0.038 C 
ATOM     24  C   UNL     1      -9.033  -2.683   1.169  1.00  0.00     0.047 C 
ATOM     25  C   UNL     1     -10.556  -2.353   1.250  1.00  0.00     0.010 C 
BRANCH  19  26
ATOM     26  C   UNL     1     -10.616  -2.448  -3.564  1.00  0.00     0.341 C 
ATOM     27  O   UNL     1     -10.207  -2.550  -4.707  1.00  0.00    -0.246 OA
BRANCH  26  28
ATOM     28  O   UNL     1     -11.931  -2.477  -3.197  1.00  0.00    -0.459 OA
BRANCH  28  29
ATOM     29  C   UNL     1     -12.930  -2.893  -4.157  1.00  0.00     0.170 C 
ATOM     30  C   UNL     1     -12.927  -2.130  -5.479  1.00  0.00     0.052 C 
ATOM     31  C   UNL     1     -12.856  -4.405  -4.347  1.00  0.00     0.052 C 
ENDBRANCH  28  29
ENDBRANCH  26  28
ENDBRANCH  19  26
ENDBRANCH  15  18
ENDBRANCH   7  14
ENDBRANCH   4   6
ENDBRANCH   3   4
ENDBRANCH   2   3
ENDBRANCH   1   2
BRANCH   1  32
ATOM     32  O   UNL     1      -8.376   3.144  -6.446  1.00  0.00    -0.374 OA
BRANCH  32  33
ATOM     33  C   UNL     1      -7.068   2.725  -6.062  1.00  0.00     0.202 C 
BRANCH  33  34
ATOM     34  C   UNL     1      -5.937   3.738  -5.923  1.00  0.00     0.261 C 
BRANCH  34  35
ATOM     35  O   UNL     1      -6.291   4.836  -5.103  1.00  0.00    -0.460 OA
BRANCH  35  36
ATOM     36  C   UNL     1      -6.712   5.897  -5.825  1.00  0.00     0.338 C 
ATOM     37  O   UNL     1      -6.998   5.915  -7.011  1.00  0.00    -0.246 OA
BRANCH  36  38
ATOM     38  C   UNL     1      -6.656   7.101  -4.996  1.00  0.00     0.060 A 
ATOM     39  C   UNL     1      -7.014   8.270  -5.667  1.00  0.00     0.016 A 
ATOM     40  C   UNL     1      -5.822   7.090  -3.871  1.00  0.00     0.016 A 
ATOM     41  C   UNL     1      -6.252   9.382  -5.434  1.00  0.00     0.010 A 
ATOM     42  C   UNL     1      -5.053   8.199  -3.648  1.00  0.00     0.010 A 
ATOM     43  C   UNL     1      -5.205   9.280  -4.512  1.00  0.00    -0.014 A 
BRANCH  43  44
ATOM     44  C   UNL     1      -4.335  10.419  -4.374  1.00  0.00     0.031 A 
ATOM     45  C   UNL     1      -5.016  11.489  -3.619  1.00  0.00     0.074 A 
ATOM     46  C   UNL     1      -3.068  10.408  -4.825  1.00  0.00     0.049 A 
ATOM     47  N   UNL     1      -5.525  12.579  -4.089  1.00  0.00    -0.248 NA
ATOM     48  C   UNL     1      -5.444  11.168  -2.245  1.00  0.00     0.031 C 
ATOM     49  C   UNL     1      -2.290   9.268  -5.323  1.00  0.00     0.029 A 
ATOM     50  N   UNL     1      -2.151  11.406  -4.796  1.00  0.00    -0.354 N 
ATOM     51  C   UNL     1      -6.082  13.203  -2.978  1.00  0.00     0.074 A 
ATOM     52  C   UNL     1      -6.284  12.173  -2.001  1.00  0.00     0.031 C 
ATOM     53  C   UNL     1      -0.973   9.581  -5.273  1.00  0.00     0.029 A 
ATOM     54  C   UNL     1      -0.833  10.967  -4.858  1.00  0.00     0.049 A 
ATOM     55  H   UNL     1      -2.397  12.358  -4.737  1.00  0.00     0.167 HD
ATOM     56  C   UNL     1      -5.959  14.547  -2.815  1.00  0.00     0.034 A 
ATOM     57  C   UNL     1       0.262  11.674  -4.473  1.00  0.00     0.034 A 
ATOM     58  C   UNL     1      -5.640  15.185  -4.072  1.00  0.00     0.049 A 
ATOM     59  C   UNL     1      -0.141  13.101  -4.405  1.00  0.00     0.074 A 
ATOM     60  C   UNL     1      -6.235  15.237  -5.317  1.00  0.00     0.029 A 
ATOM     61  N   UNL     1      -4.327  15.547  -4.259  1.00  0.00    -0.354 N 
ATOM     62  N   UNL     1      -0.491  13.798  -5.451  1.00  0.00    -0.248 NA
ATOM     63  C   UNL     1      -0.627  13.602  -3.127  1.00  0.00     0.031 C 
ATOM     64  C   UNL     1      -5.154  15.182  -6.245  1.00  0.00     0.029 A 
ATOM     65  C   UNL     1      -3.957  15.184  -5.525  1.00  0.00     0.049 A 
ATOM     66  H   UNL     1      -3.751  15.991  -3.596  1.00  0.00     0.167 HD
ATOM     67  C   UNL     1      -1.601  14.518  -5.027  1.00  0.00     0.074 A 
ATOM     68  C   UNL     1      -1.578  14.432  -3.566  1.00  0.00     0.031 C 
ATOM     69  C   UNL     1      -2.602  14.842  -5.898  1.00  0.00     0.034 A 
BRANCH  56  70
ATOM     70  C   UNL     1      -5.660  15.216  -1.485  1.00  0.00     0.023 A 
ATOM     71  C   UNL     1      -5.584  16.626  -1.498  1.00  0.00     0.012 A 
ATOM     72  C   UNL     1      -5.173  14.568  -0.322  1.00  0.00     0.148 A 
ATOM     73  C   UNL     1      -4.976  17.339  -0.460  1.00  0.00     0.002 A 
ATOM     74  C   UNL     1      -4.630  15.284   0.736  1.00  0.00     0.091 A 
ATOM     75  F   UNL     1      -5.112  13.240  -0.251  1.00  0.00    -0.205 F 
ATOM     76  C   UNL     1      -4.495  16.668   0.657  1.00  0.00     0.022 A 
BRANCH  74  77
ATOM     77  S   UNL     1      -4.020  14.459   2.216  1.00  0.00     0.127 S 
ATOM     78  O   UNL     1      -2.579  14.648   2.079  1.00  0.00    -0.237 OA
ATOM     79  O   UNL     1      -4.654  15.245   3.273  1.00  0.00    -0.237 OA
ATOM     80  O   UNL     1      -4.492  13.082   2.132  1.00  0.00    -0.744 OA
ENDBRANCH  74  77
ENDBRANCH  56  70
BRANCH  57  81
ATOM     81  C   UNL     1       1.505  11.185  -3.822  1.00  0.00     0.023 A 
ATOM     82  C   UNL     1       2.660  11.995  -3.809  1.00  0.00     0.012 A 
ATOM     83  C   UNL     1       1.484  10.054  -2.975  1.00  0.00     0.148 A 
ATOM     84  C   UNL     1       3.744  11.698  -2.971  1.00  0.00     0.002 A 
ATOM     85  C   UNL     1       2.567   9.756  -2.153  1.00  0.00     0.091 A 
ATOM     86  F   UNL     1       0.365   9.323  -2.904  1.00  0.00    -0.205 F 
ATOM     87  C   UNL     1       3.696  10.583  -2.139  1.00  0.00     0.022 A 
BRANCH  85  88
ATOM     88  S   UNL     1       2.561   8.345  -1.037  1.00  0.00     0.127 S 
ATOM     89  O   UNL     1       3.831   7.697  -1.365  1.00  0.00    -0.237 OA
ATOM     90  O   UNL     1       2.523   8.993   0.271  1.00  0.00    -0.237 OA
ATOM     91  O   UNL     1       1.382   7.563  -1.387  1.00  0.00    -0.744 OA
ENDBRANCH  85  88
ENDBRANCH  57  81
BRANCH  69  92
ATOM     92  C   UNL     1      -2.361  14.623  -7.370  1.00  0.00     0.023 A 
ATOM     93  C   UNL     1      -2.224  13.340  -7.943  1.00  0.00     0.012 A 
ATOM     94  C   UNL     1      -2.484  15.736  -8.215  1.00  0.00     0.148 A 
ATOM     95  C   UNL     1      -2.201  13.178  -9.332  1.00  0.00     0.002 A 
ATOM     96  C   UNL     1      -2.513  15.566  -9.592  1.00  0.00     0.091 A 
ATOM     97  F   UNL     1      -2.616  16.945  -7.649  1.00  0.00    -0.205 F 
ATOM     98  C   UNL     1      -2.363  14.290 -10.157  1.00  0.00     0.022 A 
BRANCH  96  99
ATOM     99  S   UNL     1      -2.858  16.939 -10.692  1.00  0.00     0.127 S 
ATOM    100  O   UNL     1      -1.554  17.169 -11.311  1.00  0.00    -0.237 OA
ATOM    101  O   UNL     1      -3.871  16.377 -11.586  1.00  0.00    -0.237 OA
ATOM    102  O   UNL     1      -3.347  18.021  -9.846  1.00  0.00    -0.744 OA
ENDBRANCH  96  99
ENDBRANCH  69  92
ENDBRANCH  43  44
ENDBRANCH  36  38
ENDBRANCH  35  36
ENDBRANCH  34  35
ENDBRANCH  33  34
ENDBRANCH  32  33
ENDBRANCH   1  32
TORSDOF 22
