REMARK SMILES O=C(OCCOCCOC(=O)[C@@H]1[C@@H](C(=O)Nc2cccc([N+](=O)[O-])c2)[C@@H]2C=C[C@H]1O2)c1ccc(-c2c3nc(c(-c4cccc(S(=O)(=O)[O-])c4F)c4ccc([nH]4)c(-c4cccc(S(=O)(=O)[O-])c4F)c4nc(c(-c5cccc(S(=O)(=O)[O-])c5F)c5ccc2[nH]5)C=C4)C=C3)cc1
REMARK SMILES IDX 6 1 5 2 4 3 3 4 2 5 1 6 31 7 32 8 93 9 33 10 92 11 34 12
REMARK SMILES IDX 35 13 36 14 86 15 37 16 91 17 85 18 87 19 38 20 90 21 84 22
REMARK SMILES IDX 83 23 39 25 71 26 51 27 70 28 52 29 55 30 69 31 88 32 53 33
REMARK SMILES IDX 54 34 68 36 89 37 56 38 40 39 41 40 49 41 42 42 44 43 50 44
REMARK SMILES IDX 43 45 45 46 46 47 47 48 48 49 72 50 73 51 81 52 74 53 76 54
REMARK SMILES IDX 82 55 75 56 77 57 78 58 79 59 80 60 57 61 58 62 66 63 59 64
REMARK SMILES IDX 61 65 67 66 60 67 62 68 63 69 64 70 65 71 7 72 8 73 9 74
REMARK SMILES IDX 10 75 11 76 12 77 13 78 29 79 26 80 28 81 30 82 27 83 14 84
REMARK SMILES IDX 15 85 16 86 17 88 18 89 25 90 19 91 21 92 20 93 22 94 23 95
REMARK SMILES IDX 24 96
REMARK H PARENT 87 24 55 35 16 87
REMARK Flexibility Score: inf
ROOT
ATOM      1  O   UNL     1       4.193   1.410   0.820  1.00  0.00    -0.374 OA
ENDROOT
BRANCH   1   2
ATOM      2  C   UNL     1       4.686   1.006  -0.455  1.00  0.00     0.202 C 
BRANCH   2   3
ATOM      3  C   UNL     1       4.200  -0.304  -1.101  1.00  0.00     0.261 C 
BRANCH   3   4
ATOM      4  O   UNL     1       2.769  -0.475  -1.011  1.00  0.00    -0.460 OA
BRANCH   4   5
ATOM      5  C   UNL     1       2.102  -1.306  -0.159  1.00  0.00     0.338 C 
ATOM      6  O   UNL     1       0.894  -1.477  -0.285  1.00  0.00    -0.246 OA
BRANCH   5   7
ATOM      7  C   UNL     1       2.836  -2.012   0.923  1.00  0.00     0.060 A 
ATOM      8  C   UNL     1       3.951  -1.438   1.504  1.00  0.00     0.016 A 
ATOM      9  C   UNL     1       2.425  -3.252   1.410  1.00  0.00     0.016 A 
ATOM     10  C   UNL     1       4.789  -2.101   2.340  1.00  0.00     0.010 A 
ATOM     11  C   UNL     1       3.178  -3.884   2.414  1.00  0.00     0.010 A 
ATOM     12  C   UNL     1       4.377  -3.305   2.860  1.00  0.00    -0.014 A 
BRANCH  12  13
ATOM     13  C   UNL     1       5.345  -3.893   3.788  1.00  0.00     0.031 A 
ATOM     14  C   UNL     1       6.126  -5.069   3.317  1.00  0.00     0.074 A 
ATOM     15  C   UNL     1       5.688  -3.181   4.883  1.00  0.00     0.049 A 
ATOM     16  N   UNL     1       7.053  -5.733   3.942  1.00  0.00    -0.248 NA
ATOM     17  C   UNL     1       5.845  -5.553   1.952  1.00  0.00     0.031 C 
ATOM     18  C   UNL     1       5.083  -1.899   5.287  1.00  0.00     0.029 A 
ATOM     19  N   UNL     1       6.666  -3.384   5.814  1.00  0.00    -0.354 N 
ATOM     20  C   UNL     1       7.415  -6.755   3.080  1.00  0.00     0.074 A 
ATOM     21  C   UNL     1       6.631  -6.614   1.876  1.00  0.00     0.031 C 
ATOM     22  C   UNL     1       5.721  -1.427   6.367  1.00  0.00     0.029 A 
ATOM     23  C   UNL     1       6.692  -2.419   6.794  1.00  0.00     0.049 A 
ATOM     24  H   UNL     1       7.290  -4.144   5.787  1.00  0.00     0.167 HD
ATOM     25  C   UNL     1       8.322  -7.730   3.300  1.00  0.00     0.034 A 
ATOM     26  C   UNL     1       7.382  -2.387   7.947  1.00  0.00     0.034 A 
ATOM     27  C   UNL     1       9.081  -7.817   4.513  1.00  0.00     0.049 A 
ATOM     28  C   UNL     1       8.311  -3.538   8.206  1.00  0.00     0.074 A 
ATOM     29  C   UNL     1       9.961  -8.800   4.915  1.00  0.00     0.029 A 
ATOM     30  N   UNL     1       9.042  -6.867   5.527  1.00  0.00    -0.354 N 
ATOM     31  N   UNL     1       8.604  -4.549   7.420  1.00  0.00    -0.248 NA
ATOM     32  C   UNL     1       9.008  -3.549   9.494  1.00  0.00     0.031 C 
ATOM     33  C   UNL     1      10.433  -8.458   6.186  1.00  0.00     0.029 A 
ATOM     34  C   UNL     1       9.881  -7.239   6.558  1.00  0.00     0.049 A 
ATOM     35  H   UNL     1       8.495  -6.048   5.513  1.00  0.00     0.167 HD
ATOM     36  C   UNL     1       9.534  -5.310   8.111  1.00  0.00     0.074 A 
ATOM     37  C   UNL     1       9.782  -4.616   9.362  1.00  0.00     0.031 C 
ATOM     38  C   UNL     1      10.116  -6.485   7.764  1.00  0.00     0.034 A 
BRANCH  25  39
ATOM     39  C   UNL     1       8.462  -8.781   2.238  1.00  0.00     0.023 A 
ATOM     40  C   UNL     1       9.097  -8.482   1.016  1.00  0.00     0.012 A 
ATOM     41  C   UNL     1       7.921 -10.064   2.443  1.00  0.00     0.148 A 
ATOM     42  C   UNL     1       9.163  -9.436   0.001  1.00  0.00     0.002 A 
ATOM     43  C   UNL     1       8.031 -11.024   1.446  1.00  0.00     0.091 A 
ATOM     44  F   UNL     1       7.287 -10.312   3.598  1.00  0.00    -0.205 F 
ATOM     45  C   UNL     1       8.638 -10.708   0.220  1.00  0.00     0.022 A 
BRANCH  43  46
ATOM     46  S   UNL     1       7.437 -12.705   1.651  1.00  0.00     0.127 S 
ATOM     47  O   UNL     1       6.399 -12.780   0.623  1.00  0.00    -0.237 OA
ATOM     48  O   UNL     1       8.640 -13.486   1.362  1.00  0.00    -0.237 OA
ATOM     49  O   UNL     1       6.957 -12.802   3.022  1.00  0.00    -0.744 OA
ENDBRANCH  43  46
ENDBRANCH  25  39
BRANCH  26  50
ATOM     50  C   UNL     1       7.159  -1.302   8.946  1.00  0.00     0.023 A 
ATOM     51  C   UNL     1       8.215  -0.451   9.320  1.00  0.00     0.012 A 
ATOM     52  C   UNL     1       5.893  -1.117   9.541  1.00  0.00     0.148 A 
ATOM     53  C   UNL     1       8.026   0.531  10.296  1.00  0.00     0.002 A 
ATOM     54  C   UNL     1       5.695  -0.098  10.465  1.00  0.00     0.091 A 
ATOM     55  F   UNL     1       4.898  -1.947   9.195  1.00  0.00    -0.205 F 
ATOM     56  C   UNL     1       6.766   0.714  10.861  1.00  0.00     0.022 A 
BRANCH  54  57
ATOM     57  S   UNL     1       4.074   0.280  11.142  1.00  0.00     0.127 S 
ATOM     58  O   UNL     1       4.194  -0.230  12.505  1.00  0.00    -0.237 OA
ATOM     59  O   UNL     1       4.031   1.739  11.032  1.00  0.00    -0.237 OA
ATOM     60  O   UNL     1       3.121  -0.412  10.286  1.00  0.00    -0.744 OA
ENDBRANCH  54  57
ENDBRANCH  26  50
BRANCH  38  61
ATOM     61  C   UNL     1      11.101  -7.056   8.742  1.00  0.00     0.023 A 
ATOM     62  C   UNL     1      10.649  -7.610   9.955  1.00  0.00     0.012 A 
ATOM     63  C   UNL     1      12.471  -7.092   8.422  1.00  0.00     0.148 A 
ATOM     64  C   UNL     1      11.557  -8.155  10.859  1.00  0.00     0.002 A 
ATOM     65  C   UNL     1      13.360  -7.693   9.299  1.00  0.00     0.091 A 
ATOM     66  F   UNL     1      12.875  -6.539   7.269  1.00  0.00    -0.205 F 
ATOM     67  C   UNL     1      12.909  -8.209  10.525  1.00  0.00     0.022 A 
BRANCH  65  68
ATOM     68  S   UNL     1      15.095  -7.907   8.898  1.00  0.00     0.127 S 
ATOM     69  O   UNL     1      15.726  -6.918   9.770  1.00  0.00    -0.237 OA
ATOM     70  O   UNL     1      15.331  -9.299   9.281  1.00  0.00    -0.237 OA
ATOM     71  O   UNL     1      15.212  -7.647   7.469  1.00  0.00    -0.744 OA
ENDBRANCH  65  68
ENDBRANCH  38  61
ENDBRANCH  12  13
ENDBRANCH   5   7
ENDBRANCH   4   5
ENDBRANCH   3   4
ENDBRANCH   2   3
ENDBRANCH   1   2
BRANCH   1  72
ATOM     72  C   UNL     1       2.810   1.754   0.943  1.00  0.00     0.202 C 
BRANCH  72  73
ATOM     73  C   UNL     1       2.701   3.194   1.421  1.00  0.00     0.261 C 
BRANCH  73  74
ATOM     74  O   UNL     1       3.178   4.011   0.340  1.00  0.00    -0.463 OA
BRANCH  74  75
ATOM     75  C   UNL     1       4.526   4.154   0.263  1.00  0.00     0.312 C 
ATOM     76  O   UNL     1       5.313   3.974   1.190  1.00  0.00    -0.252 OA
BRANCH  75  77
ATOM     77  C   UNL     1       4.963   4.634  -1.091  1.00  0.00     0.147 C 
ATOM     78  C   UNL     1       4.184   5.911  -1.441  1.00  0.00     0.129 C 
ATOM     79  C   UNL     1       4.711   3.782  -2.343  1.00  0.00     0.157 C 
ATOM     80  C   UNL     1       3.762   5.652  -2.892  1.00  0.00     0.155 C 
ATOM     81  C   UNL     1       3.260   3.457  -2.582  1.00  0.00     0.004 C 
ATOM     82  O   UNL     1       4.853   4.820  -3.358  1.00  0.00    -0.365 OA
ATOM     83  C   UNL     1       2.671   4.614  -2.908  1.00  0.00     0.004 C 
BRANCH  78  84
ATOM     84  C   UNL     1       5.074   7.114  -1.286  1.00  0.00     0.231 C 
ATOM     85  O   UNL     1       6.272   7.093  -1.573  1.00  0.00    -0.274 OA
ATOM     86  N   UNL     1       4.542   8.312  -0.913  1.00  0.00    -0.325 N 
ATOM     87  H   UNL     1       5.182   9.061  -0.911  1.00  0.00     0.169 HD
BRANCH  86  88
ATOM     88  C   UNL     1       3.241   8.660  -0.534  1.00  0.00     0.048 A 
ATOM     89  C   UNL     1       2.763   9.867  -1.046  1.00  0.00     0.026 A 
ATOM     90  C   UNL     1       2.428   7.894   0.307  1.00  0.00     0.111 A 
ATOM     91  C   UNL     1       1.446  10.261  -0.819  1.00  0.00     0.009 A 
ATOM     92  C   UNL     1       1.101   8.289   0.528  1.00  0.00     0.271 A 
ATOM     93  C   UNL     1       0.604   9.466  -0.045  1.00  0.00     0.086 A 
BRANCH  92  94
ATOM     94  N   UNL     1       0.213   7.452   1.345  1.00  0.00     0.062 N 
ATOM     95  O   UNL     1      -0.923   7.887   1.584  1.00  0.00    -0.258 OA
ATOM     96  O   UNL     1       0.642   6.355   1.725  1.00  0.00    -0.258 OA
ENDBRANCH  92  94
ENDBRANCH  86  88
ENDBRANCH  78  84
ENDBRANCH  75  77
ENDBRANCH  74  75
ENDBRANCH  73  74
ENDBRANCH  72  73
ENDBRANCH   1  72
TORSDOF 20
