REMARK SMILES CC(C)c1ccc(O[C@H](C)C(=O)Nc2cccc(C(=O)OCCOCCOC(=O)c3ccc(-c4c5nc(c(-c6cccc(S(=O)(=O)[O-])c6F)c6ccc([nH]6)c(-c6cccc(S(=O)(=O)[O-])c6F)c6nc(c(-c7cccc(S(=O)(=O)[O-])c7F)c7ccc4[nH]7)C=C6)C=C5)cc3)c2)cc1
REMARK SMILES IDX 23 1 22 2 21 3 19 4 20 5 18 6 14 7 15 8 93 9 16 10 17 11
REMARK SMILES IDX 13 12 11 13 12 14 9 16 10 17 8 18 7 19 4 20 5 21 95 22 6 23
REMARK SMILES IDX 94 24 2 25 1 26 3 27 24 28 25 29 26 30 27 31 28 32 29 33
REMARK SMILES IDX 30 34 31 35 92 36 32 37 91 38 33 39 34 40 35 41 85 42 36 43
REMARK SMILES IDX 90 44 84 45 86 46 37 47 89 48 83 49 82 50 38 52 70 53 50 54
REMARK SMILES IDX 69 55 51 56 54 57 68 58 87 59 52 60 53 61 67 63 88 64 55 65
REMARK SMILES IDX 39 66 40 67 48 68 41 69 43 70 49 71 42 72 44 73 45 74 46 75
REMARK SMILES IDX 47 76 71 77 72 78 80 79 73 80 75 81 81 82 74 83 76 84 77 85
REMARK SMILES IDX 78 86 79 87 56 88 57 89 65 90 58 91 60 92 66 93 59 94 61 95
REMARK SMILES IDX 62 96 63 97 64 98
REMARK H PARENT 13 15 86 51 54 62
REMARK Flexibility Score: inf
ROOT
ATOM      1  C   UNL     1      -1.800   5.023  -0.380  1.00  0.00     0.202 C 
ENDROOT
BRANCH   1   2
ATOM      2  C   UNL     1      -2.636   4.096  -1.270  1.00  0.00     0.261 C 
BRANCH   2   3
ATOM      3  O   UNL     1      -2.735   2.777  -0.711  1.00  0.00    -0.460 OA
BRANCH   3   4
ATOM      4  C   UNL     1      -2.041   1.804  -1.350  1.00  0.00     0.338 C 
ATOM      5  O   UNL     1      -1.377   1.933  -2.371  1.00  0.00    -0.246 OA
BRANCH   4   6
ATOM      6  C   UNL     1      -2.072   0.543  -0.562  1.00  0.00     0.062 A 
ATOM      7  C   UNL     1      -3.123  -0.914   1.071  1.00  0.00     0.042 A 
ATOM      8  C   UNL     1      -2.133  -1.872   0.832  1.00  0.00     0.026 A 
ATOM      9  C   UNL     1      -3.023   0.320   0.440  1.00  0.00     0.041 A 
ATOM     10  C   UNL     1      -1.143  -1.643  -0.128  1.00  0.00     0.003 A 
ATOM     11  C   UNL     1      -1.132  -0.449  -0.847  1.00  0.00     0.016 A 
BRANCH   7  12
ATOM     12  N   UNL     1      -4.170  -1.255   1.938  1.00  0.00    -0.323 N 
ATOM     13  C   UNL     1      -5.496  -0.900   1.969  1.00  0.00     0.265 C 
ATOM     14  O   UNL     1      -6.148  -1.332   2.930  1.00  0.00    -0.270 OA
ATOM     15  H   UNL     1      -3.904  -1.865   2.663  1.00  0.00     0.170 HD
BRANCH  13  16
ATOM     16  C   UNL     1      -6.200  -0.067   0.865  1.00  0.00     0.259 C 
ATOM     17  C   UNL     1      -6.235   1.403   1.273  1.00  0.00     0.064 C 
BRANCH  16  18
ATOM     18  O   UNL     1      -5.745  -0.519  -0.407  1.00  0.00    -0.481 OA
BRANCH  18  19
ATOM     19  C   UNL     1      -5.536   0.173  -1.550  1.00  0.00     0.120 A 
ATOM     20  C   UNL     1      -4.664   1.345  -4.001  1.00  0.00    -0.045 A 
ATOM     21  C   UNL     1      -5.336   2.090  -3.019  1.00  0.00     0.008 A 
ATOM     22  C   UNL     1      -4.488  -0.021  -3.748  1.00  0.00     0.008 A 
ATOM     23  C   UNL     1      -5.781   1.509  -1.816  1.00  0.00     0.047 A 
ATOM     24  C   UNL     1      -4.924  -0.593  -2.548  1.00  0.00     0.047 A 
BRANCH  20  25
ATOM     25  C   UNL     1      -4.054   1.973  -5.253  1.00  0.00     0.013 C 
ATOM     26  C   UNL     1      -4.381   1.193  -6.535  1.00  0.00     0.012 C 
ATOM     27  C   UNL     1      -4.412   3.449  -5.479  1.00  0.00     0.012 C 
ENDBRANCH  20  25
ENDBRANCH  18  19
ENDBRANCH  16  18
ENDBRANCH  13  16
ENDBRANCH   7  12
ENDBRANCH   4   6
ENDBRANCH   3   4
ENDBRANCH   2   3
ENDBRANCH   1   2
BRANCH   1  28
ATOM     28  O   UNL     1      -0.415   4.699  -0.246  1.00  0.00    -0.374 OA
BRANCH  28  29
ATOM     29  C   UNL     1      -0.079   3.631   0.639  1.00  0.00     0.202 C 
BRANCH  29  30
ATOM     30  C   UNL     1      -0.028   3.955   2.136  1.00  0.00     0.261 C 
BRANCH  30  31
ATOM     31  O   UNL     1      -1.280   4.440   2.645  1.00  0.00    -0.460 OA
BRANCH  31  32
ATOM     32  C   UNL     1      -1.304   5.772   2.884  1.00  0.00     0.338 C 
ATOM     33  O   UNL     1      -0.371   6.558   2.769  1.00  0.00    -0.246 OA
BRANCH  32  34
ATOM     34  C   UNL     1      -2.677   6.222   3.170  1.00  0.00     0.060 A 
ATOM     35  C   UNL     1      -3.155   7.322   2.447  1.00  0.00     0.016 A 
ATOM     36  C   UNL     1      -3.451   5.643   4.178  1.00  0.00     0.016 A 
ATOM     37  C   UNL     1      -4.384   7.888   2.773  1.00  0.00     0.010 A 
ATOM     38  C   UNL     1      -4.686   6.215   4.505  1.00  0.00     0.010 A 
ATOM     39  C   UNL     1      -5.137   7.365   3.832  1.00  0.00    -0.014 A 
BRANCH  39  40
ATOM     40  C   UNL     1      -6.335   8.100   4.304  1.00  0.00     0.031 A 
ATOM     41  C   UNL     1      -6.238   8.958   5.535  1.00  0.00     0.074 A 
ATOM     42  C   UNL     1      -7.496   8.014   3.631  1.00  0.00     0.049 A 
ATOM     43  N   UNL     1      -7.154   9.702   6.098  1.00  0.00    -0.248 NA
ATOM     44  C   UNL     1      -4.938   8.978   6.226  1.00  0.00     0.031 C 
ATOM     45  C   UNL     1      -7.718   7.205   2.435  1.00  0.00     0.029 A 
ATOM     46  N   UNL     1      -8.713   8.599   3.876  1.00  0.00    -0.354 N 
ATOM     47  C   UNL     1      -6.554  10.257   7.222  1.00  0.00     0.074 A 
ATOM     48  C   UNL     1      -5.198   9.752   7.269  1.00  0.00     0.031 C 
ATOM     49  C   UNL     1      -9.003   7.323   2.063  1.00  0.00     0.029 A 
ATOM     50  C   UNL     1      -9.697   8.202   3.004  1.00  0.00     0.049 A 
ATOM     51  H   UNL     1      -8.865   9.242   4.606  1.00  0.00     0.167 HD
ATOM     52  C   UNL     1      -7.077  11.121   8.124  1.00  0.00     0.034 A 
ATOM     53  C   UNL     1     -11.011   8.500   2.976  1.00  0.00     0.034 A 
ATOM     54  C   UNL     1      -8.418  11.639   8.063  1.00  0.00     0.049 A 
ATOM     55  C   UNL     1     -11.571   9.461   3.991  1.00  0.00     0.074 A 
ATOM     56  C   UNL     1      -9.016  12.577   8.887  1.00  0.00     0.029 A 
ATOM     57  N   UNL     1      -9.375  11.251   7.139  1.00  0.00    -0.354 N 
ATOM     58  N   UNL     1     -10.952  10.095   4.957  1.00  0.00    -0.248 NA
ATOM     59  C   UNL     1     -13.003   9.777   3.888  1.00  0.00     0.031 C 
ATOM     60  C   UNL     1     -10.345  12.733   8.478  1.00  0.00     0.029 A 
ATOM     61  C   UNL     1     -10.567  11.912   7.383  1.00  0.00     0.049 A 
ATOM     62  H   UNL     1      -9.229  10.599   6.416  1.00  0.00     0.167 HD
ATOM     63  C   UNL     1     -11.910  10.904   5.560  1.00  0.00     0.074 A 
ATOM     64  C   UNL     1     -13.146  10.697   4.833  1.00  0.00     0.031 C 
ATOM     65  C   UNL     1     -11.781  11.731   6.628  1.00  0.00     0.034 A 
BRANCH  52  66
ATOM     66  C   UNL     1      -6.182  11.584   9.244  1.00  0.00     0.023 A 
ATOM     67  C   UNL     1      -5.136  12.489   8.974  1.00  0.00     0.012 A 
ATOM     68  C   UNL     1      -6.402  11.157  10.568  1.00  0.00     0.148 A 
ATOM     69  C   UNL     1      -4.299  12.934   9.997  1.00  0.00     0.002 A 
ATOM     70  C   UNL     1      -5.590  11.638  11.590  1.00  0.00     0.091 A 
ATOM     71  F   UNL     1      -7.385  10.276  10.803  1.00  0.00    -0.205 F 
ATOM     72  C   UNL     1      -4.533  12.517  11.305  1.00  0.00     0.022 A 
BRANCH  70  73
ATOM     73  S   UNL     1      -5.861  11.214  13.314  1.00  0.00     0.127 S 
ATOM     74  O   UNL     1      -4.779  10.262  13.558  1.00  0.00    -0.237 OA
ATOM     75  O   UNL     1      -5.697  12.507  13.981  1.00  0.00    -0.237 OA
ATOM     76  O   UNL     1      -7.209  10.668  13.383  1.00  0.00    -0.744 OA
ENDBRANCH  70  73
ENDBRANCH  52  66
BRANCH  53  77
ATOM     77  C   UNL     1     -11.875   7.905   1.919  1.00  0.00     0.023 A 
ATOM     78  C   UNL     1     -12.378   8.721   0.888  1.00  0.00     0.012 A 
ATOM     79  C   UNL     1     -12.159   6.526   1.907  1.00  0.00     0.148 A 
ATOM     80  C   UNL     1     -13.165   8.176  -0.127  1.00  0.00     0.002 A 
ATOM     81  C   UNL     1     -12.895   5.980   0.863  1.00  0.00     0.091 A 
ATOM     82  F   UNL     1     -11.683   5.771   2.908  1.00  0.00    -0.205 F 
ATOM     83  C   UNL     1     -13.413   6.806  -0.146  1.00  0.00     0.022 A 
BRANCH  81  84
ATOM     84  S   UNL     1     -13.141   4.210   0.681  1.00  0.00     0.127 S 
ATOM     85  O   UNL     1     -14.572   4.079   0.941  1.00  0.00    -0.237 OA
ATOM     86  O   UNL     1     -12.743   3.995  -0.711  1.00  0.00    -0.237 OA
ATOM     87  O   UNL     1     -12.259   3.588   1.659  1.00  0.00    -0.744 OA
ENDBRANCH  81  84
ENDBRANCH  53  77
BRANCH  65  88
ATOM     88  C   UNL     1     -13.003  12.493   7.072  1.00  0.00     0.023 A 
ATOM     89  C   UNL     1     -14.052  11.814   7.723  1.00  0.00     0.012 A 
ATOM     90  C   UNL     1     -13.083  13.891   6.909  1.00  0.00     0.148 A 
ATOM     91  C   UNL     1     -15.175  12.507   8.174  1.00  0.00     0.002 A 
ATOM     92  C   UNL     1     -14.184  14.582   7.403  1.00  0.00     0.091 A 
ATOM     93  F   UNL     1     -12.085  14.519   6.270  1.00  0.00    -0.205 F 
ATOM     94  C   UNL     1     -15.236  13.890   8.024  1.00  0.00     0.022 A 
BRANCH  92  95
ATOM     95  S   UNL     1     -14.302  16.374   7.337  1.00  0.00     0.127 S 
ATOM     96  O   UNL     1     -15.276  16.570   6.265  1.00  0.00    -0.237 OA
ATOM     97  O   UNL     1     -14.793  16.704   8.676  1.00  0.00    -0.237 OA
ATOM     98  O   UNL     1     -12.955  16.852   7.056  1.00  0.00    -0.744 OA
ENDBRANCH  92  95
ENDBRANCH  65  88
ENDBRANCH  39  40
ENDBRANCH  32  34
ENDBRANCH  31  32
ENDBRANCH  30  31
ENDBRANCH  29  30
ENDBRANCH  28  29
ENDBRANCH   1  28
TORSDOF 22
