REMARK SMILES O=C(OCCOCCOC(=O)[C@@]1([NH2+]C2CC2)CCC[C@@H](n2cncn2)C1)c1ccc(-c2c3nc(c(-c4cccc(S(=O)(=O)[O-])c4F)c4ccc([nH]4)c(-c4cccc(S(=O)(=O)[O-])c4F)c4nc(c(-c5cccc(S(=O)(=O)[O-])c5F)c5ccc2[nH]5)C=C4)C=C3)cc1
REMARK SMILES IDX 5 1 4 2 3 3 2 4 1 5 27 6 28 7 89 8 29 9 88 10 30 11 31 12
REMARK SMILES IDX 32 13 82 14 33 15 87 16 81 17 83 18 34 19 86 20 80 21 79 22
REMARK SMILES IDX 35 24 67 25 47 26 66 27 48 28 51 29 65 30 84 31 49 32 50 33
REMARK SMILES IDX 64 35 85 36 52 37 36 38 37 39 45 40 38 41 40 42 46 43 39 44
REMARK SMILES IDX 41 45 42 46 43 47 44 48 68 49 69 50 77 51 70 52 72 53 78 54
REMARK SMILES IDX 71 55 73 56 74 57 75 58 76 59 53 60 54 61 62 62 55 63 57 64
REMARK SMILES IDX 63 65 56 66 58 67 59 68 60 69 61 70 6 71 7 72 8 73 9 74
REMARK SMILES IDX 10 75 11 76 12 77 17 78 26 79 18 80 20 81 19 82 13 83 14 86
REMARK SMILES IDX 15 87 16 88 21 89 22 90 25 91 23 92 24 93
REMARK H PARENT 83 23 51 34 13 84 13 85
REMARK Flexibility Score: inf
ROOT
ATOM      1  C   UNL     1       4.519  -0.341   0.552  1.00  0.00     0.202 C 
ENDROOT
BRANCH   1   2
ATOM      2  C   UNL     1       4.078   0.903  -0.238  1.00  0.00     0.261 C 
BRANCH   2   3
ATOM      3  O   UNL     1       2.706   1.228  -0.011  1.00  0.00    -0.460 OA
BRANCH   3   4
ATOM      4  C   UNL     1       1.644   0.554  -0.512  1.00  0.00     0.338 C 
ATOM      5  O   UNL     1       0.551   0.686   0.035  1.00  0.00    -0.246 OA
BRANCH   4   6
ATOM      6  C   UNL     1       1.739  -0.241  -1.764  1.00  0.00     0.060 A 
ATOM      7  C   UNL     1       2.920  -0.676  -2.365  1.00  0.00     0.016 A 
ATOM      8  C   UNL     1       0.525  -0.446  -2.431  1.00  0.00     0.016 A 
ATOM      9  C   UNL     1       2.950  -0.923  -3.712  1.00  0.00     0.010 A 
ATOM     10  C   UNL     1       0.528  -0.833  -3.753  1.00  0.00     0.010 A 
ATOM     11  C   UNL     1       1.750  -0.930  -4.407  1.00  0.00    -0.014 A 
BRANCH  11  12
ATOM     12  C   UNL     1       1.844  -1.140  -5.833  1.00  0.00     0.031 A 
ATOM     13  C   UNL     1       2.553  -2.396  -6.198  1.00  0.00     0.074 A 
ATOM     14  C   UNL     1       1.289  -0.268  -6.692  1.00  0.00     0.049 A 
ATOM     15  N   UNL     1       3.637  -2.532  -6.889  1.00  0.00    -0.248 NA
ATOM     16  C   UNL     1       2.104  -3.633  -5.534  1.00  0.00     0.031 C 
ATOM     17  C   UNL     1       0.389   0.851  -6.395  1.00  0.00     0.029 A 
ATOM     18  N   UNL     1       1.285  -0.312  -8.045  1.00  0.00    -0.354 N 
ATOM     19  C   UNL     1       3.874  -3.905  -6.932  1.00  0.00     0.074 A 
ATOM     20  C   UNL     1       3.028  -4.503  -5.936  1.00  0.00     0.031 C 
ATOM     21  C   UNL     1      -0.304   1.161  -7.512  1.00  0.00     0.029 A 
ATOM     22  C   UNL     1       0.216   0.369  -8.612  1.00  0.00     0.049 A 
ATOM     23  H   UNL     1       1.971  -0.780  -8.574  1.00  0.00     0.167 HD
ATOM     24  C   UNL     1       4.562  -4.481  -7.954  1.00  0.00     0.034 A 
ATOM     25  C   UNL     1      -0.269   0.178  -9.861  1.00  0.00     0.034 A 
ATOM     26  C   UNL     1       5.376  -3.527  -8.655  1.00  0.00     0.049 A 
ATOM     27  C   UNL     1       0.792  -0.501 -10.645  1.00  0.00     0.074 A 
ATOM     28  C   UNL     1       6.437  -2.718  -8.302  1.00  0.00     0.029 A 
ATOM     29  N   UNL     1       4.871  -3.005  -9.821  1.00  0.00    -0.354 N 
ATOM     30  N   UNL     1       1.937   0.055 -10.932  1.00  0.00    -0.248 NA
ATOM     31  C   UNL     1       0.771  -1.955 -10.700  1.00  0.00     0.031 C 
ATOM     32  C   UNL     1       6.205  -1.492  -8.992  1.00  0.00     0.029 A 
ATOM     33  C   UNL     1       5.058  -1.647  -9.774  1.00  0.00     0.049 A 
ATOM     34  H   UNL     1       4.452  -3.511 -10.554  1.00  0.00     0.167 HD
ATOM     35  C   UNL     1       2.870  -0.960 -10.758  1.00  0.00     0.074 A 
ATOM     36  C   UNL     1       2.087  -2.194 -10.717  1.00  0.00     0.031 C 
ATOM     37  C   UNL     1       4.151  -0.687 -10.366  1.00  0.00     0.034 A 
BRANCH  24  38
ATOM     38  C   UNL     1       4.221  -5.833  -8.526  1.00  0.00     0.023 A 
ATOM     39  C   UNL     1       5.119  -6.409  -9.448  1.00  0.00     0.012 A 
ATOM     40  C   UNL     1       2.948  -6.441  -8.404  1.00  0.00     0.148 A 
ATOM     41  C   UNL     1       4.756  -7.514 -10.227  1.00  0.00     0.002 A 
ATOM     42  C   UNL     1       2.624  -7.588  -9.115  1.00  0.00     0.091 A 
ATOM     43  F   UNL     1       1.982  -5.838  -7.705  1.00  0.00    -0.205 F 
ATOM     44  C   UNL     1       3.513  -8.112 -10.052  1.00  0.00     0.022 A 
BRANCH  42  45
ATOM     45  S   UNL     1       1.051  -8.423  -8.876  1.00  0.00     0.127 S 
ATOM     46  O   UNL     1       0.333  -8.049 -10.090  1.00  0.00    -0.237 OA
ATOM     47  O   UNL     1       1.465  -9.825  -8.806  1.00  0.00    -0.237 OA
ATOM     48  O   UNL     1       0.518  -7.898  -7.625  1.00  0.00    -0.744 OA
ENDBRANCH  42  45
ENDBRANCH  24  38
BRANCH  25  49
ATOM     49  C   UNL     1      -1.682   0.218 -10.300  1.00  0.00     0.023 A 
ATOM     50  C   UNL     1      -1.983   0.414 -11.660  1.00  0.00     0.012 A 
ATOM     51  C   UNL     1      -2.725  -0.194  -9.436  1.00  0.00     0.148 A 
ATOM     52  C   UNL     1      -3.276   0.189 -12.149  1.00  0.00     0.002 A 
ATOM     53  C   UNL     1      -4.009  -0.405  -9.925  1.00  0.00     0.091 A 
ATOM     54  F   UNL     1      -2.436  -0.467  -8.157  1.00  0.00    -0.205 F 
ATOM     55  C   UNL     1      -4.287  -0.225 -11.284  1.00  0.00     0.022 A 
BRANCH  53  56
ATOM     56  S   UNL     1      -5.357  -0.962  -8.872  1.00  0.00     0.127 S 
ATOM     57  O   UNL     1      -6.419  -0.016  -9.216  1.00  0.00    -0.237 OA
ATOM     58  O   UNL     1      -5.571  -2.324  -9.353  1.00  0.00    -0.237 OA
ATOM     59  O   UNL     1      -4.869  -0.843  -7.503  1.00  0.00    -0.744 OA
ENDBRANCH  53  56
ENDBRANCH  25  49
BRANCH  37  60
ATOM     60  C   UNL     1       4.576   0.762 -10.297  1.00  0.00     0.023 A 
ATOM     61  C   UNL     1       3.988   1.679  -9.398  1.00  0.00     0.012 A 
ATOM     62  C   UNL     1       5.712   1.163 -11.018  1.00  0.00     0.148 A 
ATOM     63  C   UNL     1       4.503   2.970  -9.242  1.00  0.00     0.002 A 
ATOM     64  C   UNL     1       6.250   2.430 -10.827  1.00  0.00     0.091 A 
ATOM     65  F   UNL     1       6.271   0.280 -11.860  1.00  0.00    -0.205 F 
ATOM     66  C   UNL     1       5.643   3.341  -9.948  1.00  0.00     0.022 A 
BRANCH  64  67
ATOM     67  S   UNL     1       7.791   2.920 -11.604  1.00  0.00     0.127 S 
ATOM     68  O   UNL     1       7.328   3.814 -12.662  1.00  0.00    -0.237 OA
ATOM     69  O   UNL     1       8.499   3.584 -10.508  1.00  0.00    -0.237 OA
ATOM     70  O   UNL     1       8.421   1.685 -12.054  1.00  0.00    -0.744 OA
ENDBRANCH  64  67
ENDBRANCH  37  60
ENDBRANCH  11  12
ENDBRANCH   4   6
ENDBRANCH   3   4
ENDBRANCH   2   3
ENDBRANCH   1   2
BRANCH   1  71
ATOM     71  O   UNL     1       3.741  -1.530   0.485  1.00  0.00    -0.374 OA
BRANCH  71  72
ATOM     72  C   UNL     1       2.641  -1.698   1.388  1.00  0.00     0.202 C 
BRANCH  72  73
ATOM     73  C   UNL     1       2.948  -1.790   2.883  1.00  0.00     0.261 C 
BRANCH  73  74
ATOM     74  O   UNL     1       3.346  -0.505   3.397  1.00  0.00    -0.459 OA
BRANCH  74  75
ATOM     75  C   UNL     1       4.659  -0.377   3.773  1.00  0.00     0.368 C 
ATOM     76  O   UNL     1       5.449  -1.300   3.813  1.00  0.00    -0.245 OA
BRANCH  75  77
ATOM     77  C   UNL     1       4.958   1.101   4.184  1.00  0.00     0.196 C 
ATOM     78  C   UNL     1       4.362   2.193   3.270  1.00  0.00     0.081 C 
ATOM     79  C   UNL     1       4.242   1.223   5.547  1.00  0.00     0.108 C 
ATOM     80  C   UNL     1       4.565   3.597   3.839  1.00  0.00     0.009 C 
ATOM     81  C   UNL     1       4.293   2.611   6.199  1.00  0.00     0.116 C 
ATOM     82  C   UNL     1       3.910   3.730   5.206  1.00  0.00     0.028 C 
BRANCH  77  83
ATOM     83  N   UNL     1       6.416   1.306   4.377  1.00  0.00    -0.330 N 
ATOM     84  H   UNL     1       6.677   0.763   5.200  1.00  0.00     0.347 HD
ATOM     85  H   UNL     1       6.492   2.322   4.420  1.00  0.00     0.347 HD
BRANCH  83  86
ATOM     86  C   UNL     1       7.387   0.960   3.326  1.00  0.00     0.183 C 
ATOM     87  C   UNL     1       7.261   1.095   1.838  1.00  0.00     0.071 C 
ATOM     88  C   UNL     1       8.027   2.123   2.591  1.00  0.00     0.071 C 
ENDBRANCH  83  86
ENDBRANCH  77  83
BRANCH  81  89
ATOM     89  N   UNL     1       3.452   2.619   7.399  1.00  0.00    -0.250 N 
ATOM     90  C   UNL     1       3.397   1.677   8.385  1.00  0.00     0.220 A 
ATOM     91  N   UNL     1       2.542   3.587   7.625  1.00  0.00    -0.160 NA
ATOM     92  N   UNL     1       2.442   1.977   9.234  1.00  0.00    -0.224 NA
ATOM     93  C   UNL     1       1.938   3.137   8.725  1.00  0.00     0.246 A 
ENDBRANCH  81  89
ENDBRANCH  75  77
ENDBRANCH  74  75
ENDBRANCH  73  74
ENDBRANCH  72  73
ENDBRANCH  71  72
ENDBRANCH   1  71
TORSDOF 20
