REMARK SMILES CC(=O)[NH+]1CCC2(CC1)C[C@H](C(=O)OCCOCCOC(=O)c1ccc(-c3c4nc(c(-c5cccc(S(=O)(=O)[O-])c5F)c5ccc([nH]5)c(-c5cccc(S(=O)(=O)[O-])c5F)c5nc(c(-c6cccc(S(=O)(=O)[O-])c6F)c6ccc3[nH]6)C=C5)C=C4)cc1)[N@H+](Cc1ncc[nH]1)C2
REMARK SMILES IDX 18 1 17 2 16 3 15 4 14 5 12 6 13 7 11 8 4 9 5 10 9 11 6 13
REMARK SMILES IDX 8 14 7 15 10 16 93 17 86 18 2 20 1 21 3 22 87 23 88 24 89 25
REMARK SMILES IDX 92 26 90 27 91 28 19 30 20 31 21 32 22 33 23 34 24 35 85 36
REMARK SMILES IDX 25 37 84 38 26 39 27 40 28 41 78 42 29 43 83 44 77 45 79 46
REMARK SMILES IDX 30 47 82 48 76 49 75 50 31 52 63 53 43 54 62 55 44 56 47 57
REMARK SMILES IDX 61 58 80 59 45 60 46 61 60 63 81 64 48 65 32 66 33 67 41 68
REMARK SMILES IDX 34 69 36 70 42 71 35 72 37 73 38 74 39 75 40 76 64 77 65 78
REMARK SMILES IDX 73 79 66 80 68 81 74 82 67 83 69 84 70 85 71 86 72 87 49 88
REMARK SMILES IDX 50 89 58 90 51 91 53 92 59 93 52 94 54 95 55 96 56 97 57 98
REMARK H PARENT 4 12 86 19 92 29 79 51 47 62
REMARK Flexibility Score: inf
ROOT
ATOM      1  C   UNL     1       2.462   2.013 -10.114  1.00  0.00     0.202 C 
ENDROOT
BRANCH   1   2
ATOM      2  O   UNL     1       1.368   2.131 -11.020  1.00  0.00    -0.374 OA
BRANCH   2   3
ATOM      3  C   UNL     1       0.188   2.797 -10.577  1.00  0.00     0.202 C 
BRANCH   3   4
ATOM      4  C   UNL     1      -0.716   2.107  -9.550  1.00  0.00     0.261 C 
BRANCH   4   5
ATOM      5  O   UNL     1      -0.020   1.647  -8.386  1.00  0.00    -0.459 OA
BRANCH   5   6
ATOM      6  C   UNL     1       0.247   0.308  -8.402  1.00  0.00     0.365 C 
ATOM      7  O   UNL     1       0.049  -0.422  -9.373  1.00  0.00    -0.245 OA
BRANCH   6   8
ATOM      8  C   UNL     1       1.024  -0.137  -7.153  1.00  0.00     0.296 C 
ATOM      9  N   UNL     1       0.974  -1.171  -1.861  1.00  0.00    -0.272 N 
ATOM     10  C   UNL     1      -0.087  -1.600  -2.748  1.00  0.00     0.270 C 
ATOM     11  C   UNL     1       2.274  -0.933  -2.490  1.00  0.00     0.270 C 
ATOM     12  H   UNL     1       0.579  -0.527  -1.230  1.00  0.00     0.356 HD
ATOM     13  C   UNL     1      -0.234  -0.560  -3.851  1.00  0.00     0.075 C 
ATOM     14  C   UNL     1       2.170   0.001  -3.705  1.00  0.00     0.075 C 
ATOM     15  C   UNL     1       1.049  -0.413  -4.696  1.00  0.00     0.036 C 
ATOM     16  C   UNL     1       0.866   0.632  -5.831  1.00  0.00     0.091 C 
ATOM     17  C   UNL     1       1.400  -1.703  -5.465  1.00  0.00     0.270 C 
ATOM     18  N   UNL     1       0.865  -1.573  -6.817  1.00  0.00    -0.316 N 
ATOM     19  H   UNL     1       1.390  -2.152  -7.472  1.00  0.00     0.349 HD
BRANCH   9  20
ATOM     20  C   UNL     1       0.665  -1.019  -0.520  1.00  0.00     0.308 C 
ATOM     21  C   UNL     1       1.514  -0.064   0.268  1.00  0.00     0.164 C 
ATOM     22  O   UNL     1      -0.301  -1.573   0.006  1.00  0.00    -0.231 OA
ENDBRANCH   9  20
BRANCH  18  23
ATOM     23  C   UNL     1      -0.451  -2.191  -7.079  1.00  0.00     0.339 C 
BRANCH  23  24
ATOM     24  C   UNL     1      -1.699  -1.460  -6.665  1.00  0.00     0.161 A 
ATOM     25  N   UNL     1      -1.980  -0.178  -6.816  1.00  0.00    -0.236 NA
ATOM     26  N   UNL     1      -2.744  -2.091  -6.028  1.00  0.00    -0.344 N 
ATOM     27  C   UNL     1      -3.174   0.037  -6.179  1.00  0.00     0.131 A 
ATOM     28  C   UNL     1      -3.660  -1.141  -5.670  1.00  0.00     0.104 A 
ATOM     29  H   UNL     1      -2.818  -3.058  -5.859  1.00  0.00     0.167 HD
ENDBRANCH  23  24
ENDBRANCH  18  23
ENDBRANCH   6   8
ENDBRANCH   5   6
ENDBRANCH   4   5
ENDBRANCH   3   4
ENDBRANCH   2   3
ENDBRANCH   1   2
BRANCH   1  30
ATOM     30  C   UNL     1       3.239   3.280  -9.738  1.00  0.00     0.261 C 
BRANCH  30  31
ATOM     31  O   UNL     1       2.427   4.261  -9.073  1.00  0.00    -0.460 OA
BRANCH  31  32
ATOM     32  C   UNL     1       2.246   5.403  -9.775  1.00  0.00     0.338 C 
ATOM     33  O   UNL     1       2.754   5.695 -10.854  1.00  0.00    -0.246 OA
BRANCH  32  34
ATOM     34  C   UNL     1       1.187   6.224  -9.166  1.00  0.00     0.060 A 
ATOM     35  C   UNL     1       0.100   6.575  -9.978  1.00  0.00     0.016 A 
ATOM     36  C   UNL     1       1.300   6.728  -7.870  1.00  0.00     0.016 A 
ATOM     37  C   UNL     1      -0.848   7.481  -9.516  1.00  0.00     0.010 A 
ATOM     38  C   UNL     1       0.351   7.649  -7.412  1.00  0.00     0.010 A 
ATOM     39  C   UNL     1      -0.701   8.061  -8.249  1.00  0.00    -0.014 A 
BRANCH  39  40
ATOM     40  C   UNL     1      -1.565   9.209  -7.886  1.00  0.00     0.031 A 
ATOM     41  C   UNL     1      -1.026  10.606  -8.046  1.00  0.00     0.074 A 
ATOM     42  C   UNL     1      -2.829   9.010  -7.473  1.00  0.00     0.049 A 
ATOM     43  N   UNL     1      -1.619  11.751  -7.830  1.00  0.00    -0.248 NA
ATOM     44  C   UNL     1       0.365  10.730  -8.516  1.00  0.00     0.031 C 
ATOM     45  C   UNL     1      -3.460   7.705  -7.285  1.00  0.00     0.029 A 
ATOM     46  N   UNL     1      -3.804   9.910  -7.126  1.00  0.00    -0.354 N 
ATOM     47  C   UNL     1      -0.679  12.729  -8.132  1.00  0.00     0.074 A 
ATOM     48  C   UNL     1       0.535  12.045  -8.519  1.00  0.00     0.031 C 
ATOM     49  C   UNL     1      -4.712   7.888  -6.830  1.00  0.00     0.029 A 
ATOM     50  C   UNL     1      -4.965   9.320  -6.686  1.00  0.00     0.049 A 
ATOM     51  H   UNL     1      -3.685  10.885  -7.187  1.00  0.00     0.167 HD
ATOM     52  C   UNL     1      -0.821  14.075  -8.117  1.00  0.00     0.034 A 
ATOM     53  C   UNL     1      -6.097   9.876  -6.210  1.00  0.00     0.034 A 
ATOM     54  C   UNL     1      -2.032  14.754  -7.743  1.00  0.00     0.049 A 
ATOM     55  C   UNL     1      -6.218  11.378  -6.180  1.00  0.00     0.074 A 
ATOM     56  C   UNL     1      -2.279  16.115  -7.700  1.00  0.00     0.029 A 
ATOM     57  N   UNL     1      -3.201  14.123  -7.347  1.00  0.00    -0.354 N 
ATOM     58  N   UNL     1      -5.356  12.286  -6.572  1.00  0.00    -0.248 NA
ATOM     59  C   UNL     1      -7.486  11.933  -5.681  1.00  0.00     0.031 C 
ATOM     60  C   UNL     1      -3.595  16.307  -7.268  1.00  0.00     0.029 A 
ATOM     61  C   UNL     1      -4.173  15.065  -7.060  1.00  0.00     0.049 A 
ATOM     62  H   UNL     1      -3.321  13.148  -7.280  1.00  0.00     0.167 HD
ATOM     63  C   UNL     1      -5.989  13.513  -6.401  1.00  0.00     0.074 A 
ATOM     64  C   UNL     1      -7.317  13.230  -5.897  1.00  0.00     0.031 C 
ATOM     65  C   UNL     1      -5.510  14.762  -6.619  1.00  0.00     0.034 A 
BRANCH  52  66
ATOM     66  C   UNL     1       0.350  14.908  -8.567  1.00  0.00     0.023 A 
ATOM     67  C   UNL     1       0.658  14.974  -9.941  1.00  0.00     0.012 A 
ATOM     68  C   UNL     1       1.097  15.675  -7.653  1.00  0.00     0.148 A 
ATOM     69  C   UNL     1       1.705  15.774 -10.397  1.00  0.00     0.002 A 
ATOM     70  C   UNL     1       2.115  16.500  -8.119  1.00  0.00     0.091 A 
ATOM     71  F   UNL     1       0.801  15.582  -6.349  1.00  0.00    -0.205 F 
ATOM     72  C   UNL     1       2.425  16.545  -9.488  1.00  0.00     0.022 A 
BRANCH  70  73
ATOM     73  S   UNL     1       3.058  17.585  -7.042  1.00  0.00     0.127 S 
ATOM     74  O   UNL     1       4.386  16.975  -7.097  1.00  0.00    -0.237 OA
ATOM     75  O   UNL     1       2.950  18.872  -7.730  1.00  0.00    -0.237 OA
ATOM     76  O   UNL     1       2.404  17.532  -5.742  1.00  0.00    -0.744 OA
ENDBRANCH  70  73
ENDBRANCH  52  66
BRANCH  53  77
ATOM     77  C   UNL     1      -7.223   9.012  -5.752  1.00  0.00     0.023 A 
ATOM     78  C   UNL     1      -8.433   8.999  -6.471  1.00  0.00     0.012 A 
ATOM     79  C   UNL     1      -7.101   8.211  -4.600  1.00  0.00     0.148 A 
ATOM     80  C   UNL     1      -9.515   8.236  -6.029  1.00  0.00     0.002 A 
ATOM     81  C   UNL     1      -8.164   7.409  -4.198  1.00  0.00     0.091 A 
ATOM     82  F   UNL     1      -5.952   8.253  -3.912  1.00  0.00    -0.205 F 
ATOM     83  C   UNL     1      -9.378   7.435  -4.899  1.00  0.00     0.022 A 
BRANCH  81  84
ATOM     84  S   UNL     1      -8.013   6.252  -2.832  1.00  0.00     0.127 S 
ATOM     85  O   UNL     1      -8.683   6.972  -1.753  1.00  0.00    -0.237 OA
ATOM     86  O   UNL     1      -8.736   5.084  -3.337  1.00  0.00    -0.237 OA
ATOM     87  O   UNL     1      -6.581   6.038  -2.669  1.00  0.00    -0.744 OA
ENDBRANCH  81  84
ENDBRANCH  53  77
BRANCH  65  88
ATOM     88  C   UNL     1      -6.436  15.920  -6.348  1.00  0.00     0.023 A 
ATOM     89  C   UNL     1      -6.749  16.267  -5.019  1.00  0.00     0.012 A 
ATOM     90  C   UNL     1      -6.947  16.699  -7.405  1.00  0.00     0.148 A 
ATOM     91  C   UNL     1      -7.587  17.348  -4.747  1.00  0.00     0.002 A 
ATOM     92  C   UNL     1      -7.743  17.803  -7.125  1.00  0.00     0.091 A 
ATOM     93  F   UNL     1      -6.653  16.342  -8.664  1.00  0.00    -0.205 F 
ATOM     94  C   UNL     1      -8.075  18.121  -5.798  1.00  0.00     0.022 A 
BRANCH  92  95
ATOM     95  S   UNL     1      -8.338  18.907  -8.410  1.00  0.00     0.127 S 
ATOM     96  O   UNL     1      -9.741  18.511  -8.519  1.00  0.00    -0.237 OA
ATOM     97  O   UNL     1      -8.122  20.227  -7.814  1.00  0.00    -0.237 OA
ATOM     98  O   UNL     1      -7.516  18.635  -9.581  1.00  0.00    -0.744 OA
ENDBRANCH  92  95
ENDBRANCH  65  88
ENDBRANCH  39  40
ENDBRANCH  32  34
ENDBRANCH  31  32
ENDBRANCH  30  31
ENDBRANCH   1  30
TORSDOF 20
