REMARK SMILES C[NH+](C)CCc1nc(Nc2ccc(O)c(C(=O)OCCOCCOC(=O)c3ccc(-c4c5nc(c(-c6cccc(S(=O)(=O)[O-])c6F)c6ccc([nH]6)c(-c6cccc(S(=O)(=O)[O-])c6F)c6nc(c(-c7cccc(S(=O)(=O)[O-])c7F)c7ccc4[nH]7)C=C6)C=C5)cc3)c2)c2ccccc2n1
REMARK SMILES IDX 20 1 19 2 18 3 16 4 17 5 15 6 10 7 11 8 90 9 12 10 13 11
REMARK SMILES IDX 9 12 8 14 6 15 7 16 97 17 96 18 91 19 95 20 92 21 94 22
REMARK SMILES IDX 93 23 5 24 4 25 2 26 1 27 3 28 14 30 21 32 22 33 23 34 24 35
REMARK SMILES IDX 25 36 26 37 27 38 28 39 89 40 29 41 88 42 30 43 31 44 32 45
REMARK SMILES IDX 82 46 33 47 87 48 81 49 83 50 34 51 86 52 80 53 79 54 35 56
REMARK SMILES IDX 67 57 47 58 66 59 48 60 51 61 65 62 84 63 49 64 50 65 64 67
REMARK SMILES IDX 85 68 52 69 36 70 37 71 45 72 38 73 40 74 46 75 39 76 41 77
REMARK SMILES IDX 42 78 43 79 44 80 68 81 69 82 77 83 70 84 72 85 78 86 71 87
REMARK SMILES IDX 73 88 74 89 75 90 76 91 53 92 54 93 62 94 55 95 57 96 63 97
REMARK SMILES IDX 56 98 58 99 59 100 60 101 61 102
REMARK H PARENT 9 13 2 29 14 31 83 55 51 66
REMARK Flexibility Score: inf
ROOT
ATOM      1  C   UNL     1      -5.173   5.253  -0.509  1.00  0.00     0.202 C 
ENDROOT
BRANCH   1   2
ATOM      2  C   UNL     1      -5.026   3.840   0.065  1.00  0.00     0.261 C 
BRANCH   2   3
ATOM      3  O   UNL     1      -3.643   3.578   0.340  1.00  0.00    -0.460 OA
BRANCH   3   4
ATOM      4  C   UNL     1      -3.143   2.416  -0.133  1.00  0.00     0.342 C 
ATOM      5  O   UNL     1      -3.787   1.482  -0.596  1.00  0.00    -0.246 OA
BRANCH   4   6
ATOM      6  C   UNL     1      -1.672   2.527  -0.281  1.00  0.00     0.103 A 
ATOM      7  C   UNL     1       0.248   2.010  -1.687  1.00  0.00     0.041 A 
ATOM      8  C   UNL     1       1.072   2.700  -0.791  1.00  0.00     0.030 A 
ATOM      9  C   UNL     1      -1.125   1.946  -1.435  1.00  0.00     0.045 A 
ATOM     10  C   UNL     1       0.534   3.293   0.357  1.00  0.00     0.049 A 
ATOM     11  C   UNL     1      -0.833   3.188   0.622  1.00  0.00     0.130 A 
BRANCH   7  12
ATOM     12  N   UNL     1       0.810   1.269  -2.749  1.00  0.00    -0.340 N 
ATOM     13  H   UNL     1       1.032   1.736  -3.587  1.00  0.00     0.168 HD
BRANCH  12  14
ATOM     14  C   UNL     1       1.069  -0.128  -2.656  1.00  0.00     0.142 A 
ATOM     15  C   UNL     1       0.913  -2.077  -1.428  1.00  0.00     0.137 A 
ATOM     16  N   UNL     1       0.671  -0.769  -1.542  1.00  0.00    -0.215 NA
ATOM     17  N   UNL     1       1.522  -2.806  -2.378  1.00  0.00    -0.233 NA
ATOM     18  C   UNL     1       1.908  -2.174  -3.492  1.00  0.00     0.076 A 
ATOM     19  C   UNL     1       1.714  -0.802  -3.702  1.00  0.00     0.043 A 
ATOM     20  C   UNL     1       2.517  -2.917  -4.496  1.00  0.00     0.029 A 
ATOM     21  C   UNL     1       2.159  -0.207  -4.911  1.00  0.00     0.014 A 
ATOM     22  C   UNL     1       2.939  -2.337  -5.696  1.00  0.00     0.002 A 
ATOM     23  C   UNL     1       2.762  -0.976  -5.903  1.00  0.00     0.001 A 
BRANCH  15  24
ATOM     24  C   UNL     1       0.334  -2.807  -0.246  1.00  0.00     0.138 C 
BRANCH  24  25
ATOM     25  C   UNL     1       0.917  -2.458   1.136  1.00  0.00     0.269 C 
BRANCH  25  26
ATOM     26  N   UNL     1       0.488  -1.263   1.881  1.00  0.00    -0.339 N 
ATOM     27  C   UNL     1       1.188  -0.053   1.474  1.00  0.00     0.332 C 
ATOM     28  C   UNL     1      -0.957  -1.040   1.867  1.00  0.00     0.332 C 
ATOM     29  H   UNL     1       0.751  -1.471   2.844  1.00  0.00     0.347 HD
ENDBRANCH  25  26
ENDBRANCH  24  25
ENDBRANCH  15  24
ENDBRANCH  12  14
ENDBRANCH   7  12
BRANCH  11  30
ATOM     30  O   UNL     1      -1.332   3.703   1.782  1.00  0.00    -0.507 OA
ATOM     31  H   UNL     1      -0.764   4.144   2.382  1.00  0.00     0.293 HD
ENDBRANCH  11  30
ENDBRANCH   4   6
ENDBRANCH   3   4
ENDBRANCH   2   3
ENDBRANCH   1   2
BRANCH   1  32
ATOM     32  O   UNL     1      -4.642   5.453  -1.825  1.00  0.00    -0.374 OA
BRANCH  32  33
ATOM     33  C   UNL     1      -3.222   5.513  -1.953  1.00  0.00     0.202 C 
BRANCH  33  34
ATOM     34  C   UNL     1      -2.542   6.841  -1.597  1.00  0.00     0.261 C 
BRANCH  34  35
ATOM     35  O   UNL     1      -2.810   7.276  -0.255  1.00  0.00    -0.460 OA
BRANCH  35  36
ATOM     36  C   UNL     1      -3.695   8.297  -0.170  1.00  0.00     0.338 C 
ATOM     37  O   UNL     1      -4.205   8.907  -1.101  1.00  0.00    -0.246 OA
BRANCH  36  38
ATOM     38  C   UNL     1      -4.108   8.515   1.228  1.00  0.00     0.060 A 
ATOM     39  C   UNL     1      -5.483   8.572   1.484  1.00  0.00     0.016 A 
ATOM     40  C   UNL     1      -3.186   8.752   2.251  1.00  0.00     0.016 A 
ATOM     41  C   UNL     1      -5.942   8.931   2.748  1.00  0.00     0.010 A 
ATOM     42  C   UNL     1      -3.651   9.114   3.522  1.00  0.00     0.010 A 
ATOM     43  C   UNL     1      -5.030   9.247   3.764  1.00  0.00    -0.014 A 
BRANCH  43  44
ATOM     44  C   UNL     1      -5.543   9.828   5.030  1.00  0.00     0.031 A 
ATOM     45  C   UNL     1      -5.448  11.313   5.259  1.00  0.00     0.074 A 
ATOM     46  C   UNL     1      -6.130   9.042   5.952  1.00  0.00     0.049 A 
ATOM     47  N   UNL     1      -5.921  12.028   6.248  1.00  0.00    -0.248 NA
ATOM     48  C   UNL     1      -4.725  12.098   4.245  1.00  0.00     0.031 C 
ATOM     49  C   UNL     1      -6.257   7.588   5.863  1.00  0.00     0.029 A 
ATOM     50  N   UNL     1      -6.718   9.360   7.150  1.00  0.00    -0.354 N 
ATOM     51  C   UNL     1      -5.532  13.338   5.992  1.00  0.00     0.074 A 
ATOM     52  C   UNL     1      -4.773  13.319   4.760  1.00  0.00     0.031 C 
ATOM     53  C   UNL     1      -6.869   7.136   6.971  1.00  0.00     0.029 A 
ATOM     54  C   UNL     1      -7.171   8.266   7.848  1.00  0.00     0.049 A 
ATOM     55  H   UNL     1      -6.808  10.283   7.479  1.00  0.00     0.167 HD
ATOM     56  C   UNL     1      -5.799  14.457   6.706  1.00  0.00     0.034 A 
ATOM     57  C   UNL     1      -7.761   8.184   9.058  1.00  0.00     0.034 A 
ATOM     58  C   UNL     1      -6.586  14.482   7.910  1.00  0.00     0.049 A 
ATOM     59  C   UNL     1      -8.073   9.450   9.813  1.00  0.00     0.074 A 
ATOM     60  C   UNL     1      -6.982  15.580   8.655  1.00  0.00     0.029 A 
ATOM     61  N   UNL     1      -7.083  13.362   8.555  1.00  0.00    -0.354 N 
ATOM     62  N   UNL     1      -7.852  10.696   9.467  1.00  0.00    -0.248 NA
ATOM     63  C   UNL     1      -8.761   9.301  11.104  1.00  0.00     0.031 C 
ATOM     64  C   UNL     1      -7.697  15.120   9.766  1.00  0.00     0.029 A 
ATOM     65  C   UNL     1      -7.768  13.738   9.698  1.00  0.00     0.049 A 
ATOM     66  H   UNL     1      -6.967  12.434   8.246  1.00  0.00     0.167 HD
ATOM     67  C   UNL     1      -8.400  11.476  10.480  1.00  0.00     0.074 A 
ATOM     68  C   UNL     1      -8.992  10.564  11.436  1.00  0.00     0.031 C 
ATOM     69  C   UNL     1      -8.398  12.826  10.617  1.00  0.00     0.034 A 
BRANCH  56  70
ATOM     70  C   UNL     1      -5.265  15.767   6.189  1.00  0.00     0.023 A 
ATOM     71  C   UNL     1      -5.869  16.375   5.070  1.00  0.00     0.012 A 
ATOM     72  C   UNL     1      -4.222  16.434   6.861  1.00  0.00     0.148 A 
ATOM     73  C   UNL     1      -5.430  17.617   4.614  1.00  0.00     0.002 A 
ATOM     74  C   UNL     1      -3.816  17.690   6.425  1.00  0.00     0.091 A 
ATOM     75  F   UNL     1      -3.646  15.828   7.908  1.00  0.00    -0.205 F 
ATOM     76  C   UNL     1      -4.413  18.279   5.298  1.00  0.00     0.022 A 
BRANCH  74  77
ATOM     77  S   UNL     1      -2.569  18.657   7.283  1.00  0.00     0.127 S 
ATOM     78  O   UNL     1      -1.459  18.616   6.333  1.00  0.00    -0.237 OA
ATOM     79  O   UNL     1      -3.220  19.962   7.404  1.00  0.00    -0.237 OA
ATOM     80  O   UNL     1      -2.332  17.977   8.549  1.00  0.00    -0.744 OA
ENDBRANCH  74  77
ENDBRANCH  56  70
BRANCH  57  81
ATOM     81  C   UNL     1      -8.139   6.855   9.615  1.00  0.00     0.023 A 
ATOM     82  C   UNL     1      -9.498   6.512   9.746  1.00  0.00     0.012 A 
ATOM     83  C   UNL     1      -7.156   5.930  10.015  1.00  0.00     0.148 A 
ATOM     84  C   UNL     1      -9.872   5.286  10.300  1.00  0.00     0.002 A 
ATOM     85  C   UNL     1      -7.534   4.689  10.512  1.00  0.00     0.091 A 
ATOM     86  F   UNL     1      -5.867   6.283   9.904  1.00  0.00    -0.205 F 
ATOM     87  C   UNL     1      -8.891   4.371  10.673  1.00  0.00     0.022 A 
BRANCH  85  88
ATOM     88  S   UNL     1      -6.333   3.408  10.891  1.00  0.00     0.127 S 
ATOM     89  O   UNL     1      -6.290   3.459  12.350  1.00  0.00    -0.237 OA
ATOM     90  O   UNL     1      -6.972   2.215  10.334  1.00  0.00    -0.237 OA
ATOM     91  O   UNL     1      -5.113   3.807  10.202  1.00  0.00    -0.744 OA
ENDBRANCH  85  88
ENDBRANCH  57  81
BRANCH  69  92
ATOM     92  C   UNL     1      -9.079  13.404  11.831  1.00  0.00     0.023 A 
ATOM     93  C   UNL     1      -8.492  13.248  13.103  1.00  0.00     0.012 A 
ATOM     94  C   UNL     1     -10.271  14.145  11.709  1.00  0.00     0.148 A 
ATOM     95  C   UNL     1      -9.104  13.780  14.238  1.00  0.00     0.002 A 
ATOM     96  C   UNL     1     -10.849  14.714  12.838  1.00  0.00     0.091 A 
ATOM     97  F   UNL     1     -10.828  14.270  10.495  1.00  0.00    -0.205 F 
ATOM     98  C   UNL     1     -10.275  14.521  14.105  1.00  0.00     0.022 A 
BRANCH  96  99
ATOM     99  S   UNL     1     -12.304  15.764  12.738  1.00  0.00     0.127 S 
ATOM    100  O   UNL     1     -13.364  14.846  13.148  1.00  0.00    -0.237 OA
ATOM    101  O   UNL     1     -12.001  16.817  13.709  1.00  0.00    -0.237 OA
ATOM    102  O   UNL     1     -12.363  16.223  11.356  1.00  0.00    -0.744 OA
ENDBRANCH  96  99
ENDBRANCH  69  92
ENDBRANCH  43  44
ENDBRANCH  36  38
ENDBRANCH  35  36
ENDBRANCH  34  35
ENDBRANCH  33  34
ENDBRANCH  32  33
ENDBRANCH   1  32
TORSDOF 23
