REMARK SMILES O=C(CCC[NH2+][C@H]1CCOC2(CCOCC2)C1)OCCOCCOC(=O)c1ccc(-c2c3nc(c(-c4cccc(S(=O)(=O)[O-])c4F)c4ccc([nH]4)c(-c4cccc(S(=O)(=O)[O-])c4F)c4nc(c(-c5cccc(S(=O)(=O)[O-])c5F)c5ccc2[nH]5)C=C4)C=C3)cc1
REMARK SMILES IDX 20 1 19 2 18 3 2 4 1 5 3 6 4 7 5 8 6 9 7 12 8 13 17 14 9 15
REMARK SMILES IDX 11 16 10 17 12 18 16 19 13 20 15 21 14 22 21 23 22 24 23 25
REMARK SMILES IDX 24 26 25 27 26 28 27 29 28 30 89 31 29 32 88 33 30 34 31 35
REMARK SMILES IDX 32 36 82 37 33 38 87 39 81 40 83 41 34 42 86 43 80 44 79 45
REMARK SMILES IDX 35 47 67 48 47 49 66 50 48 51 51 52 65 53 84 54 49 55 50 56
REMARK SMILES IDX 64 58 85 59 52 60 36 61 37 62 45 63 38 64 40 65 46 66 39 67
REMARK SMILES IDX 41 68 42 69 43 70 44 71 68 72 69 73 77 74 70 75 72 76 78 77
REMARK SMILES IDX 71 78 73 79 74 80 75 81 76 82 53 83 54 84 62 85 55 86 57 87
REMARK SMILES IDX 63 88 56 89 58 90 59 91 60 92 61 93
REMARK H PARENT 6 10 6 11 83 46 51 57
REMARK Flexibility Score: inf
ROOT
ATOM      1  C   UNL     1       8.868  -3.311   0.124  1.00  0.00     0.202 C 
ENDROOT
BRANCH   1   2
ATOM      2  C   UNL     1       8.257  -3.541   1.495  1.00  0.00     0.261 C 
BRANCH   2   3
ATOM      3  O   UNL     1       7.976  -4.914   1.770  1.00  0.00    -0.463 OA
BRANCH   3   4
ATOM      4  C   UNL     1       6.711  -5.394   1.751  1.00  0.00     0.306 C 
ATOM      5  O   UNL     1       6.420  -6.370   2.442  1.00  0.00    -0.252 OA
BRANCH   4   6
ATOM      6  C   UNL     1       5.705  -4.818   0.770  1.00  0.00     0.128 C 
BRANCH   6   7
ATOM      7  C   UNL     1       4.664  -3.830   1.300  1.00  0.00     0.073 C 
BRANCH   7   8
ATOM      8  C   UNL     1       4.987  -2.320   1.287  1.00  0.00     0.261 C 
BRANCH   8   9
ATOM      9  N   UNL     1       5.529  -1.789   0.030  1.00  0.00    -0.344 N 
ATOM     10  H   UNL     1       4.811  -1.881  -0.689  1.00  0.00     0.346 HD
ATOM     11  H   UNL     1       6.370  -2.329  -0.172  1.00  0.00     0.346 HD
BRANCH   9  12
ATOM     12  C   UNL     1       5.947  -0.364   0.088  1.00  0.00     0.187 C 
ATOM     13  C   UNL     1       6.954  -0.055   1.208  1.00  0.00     0.093 C 
ATOM     14  C   UNL     1       6.543   0.067  -1.278  1.00  0.00     0.100 C 
ATOM     15  C   UNL     1       7.463   1.370   1.129  1.00  0.00     0.167 C 
ATOM     16  C   UNL     1       7.139   1.500  -1.262  1.00  0.00     0.078 C 
ATOM     17  O   UNL     1       8.033   1.625  -0.146  1.00  0.00    -0.374 OA
ATOM     18  C   UNL     1       6.049   2.589  -1.232  1.00  0.00     0.064 C 
ATOM     19  C   UNL     1       7.997   1.766  -2.521  1.00  0.00     0.064 C 
ATOM     20  C   UNL     1       6.678   3.979  -1.290  1.00  0.00     0.163 C 
ATOM     21  C   UNL     1       8.536   3.197  -2.515  1.00  0.00     0.163 C 
ATOM     22  O   UNL     1       7.452   4.125  -2.481  1.00  0.00    -0.381 OA
ENDBRANCH   9  12
ENDBRANCH   8   9
ENDBRANCH   7   8
ENDBRANCH   6   7
ENDBRANCH   4   6
ENDBRANCH   3   4
ENDBRANCH   2   3
ENDBRANCH   1   2
BRANCH   1  23
ATOM     23  O   UNL     1       8.214  -3.997  -0.941  1.00  0.00    -0.374 OA
BRANCH  23  24
ATOM     24  C   UNL     1       8.866  -5.221  -1.299  1.00  0.00     0.202 C 
BRANCH  24  25
ATOM     25  C   UNL     1       9.989  -5.036  -2.333  1.00  0.00     0.261 C 
BRANCH  25  26
ATOM     26  O   UNL     1      10.936  -4.029  -1.928  1.00  0.00    -0.460 OA
BRANCH  26  27
ATOM     27  C   UNL     1      10.681  -2.791  -2.432  1.00  0.00     0.338 C 
ATOM     28  O   UNL     1       9.880  -2.513  -3.302  1.00  0.00    -0.246 OA
BRANCH  27  29
ATOM     29  C   UNL     1      11.360  -1.758  -1.612  1.00  0.00     0.060 A 
ATOM     30  C   UNL     1      10.599  -0.634  -1.278  1.00  0.00     0.016 A 
ATOM     31  C   UNL     1      12.679  -1.849  -1.175  1.00  0.00     0.016 A 
ATOM     32  C   UNL     1      11.151   0.427  -0.569  1.00  0.00     0.010 A 
ATOM     33  C   UNL     1      13.242  -0.779  -0.461  1.00  0.00     0.010 A 
ATOM     34  C   UNL     1      12.490   0.381  -0.185  1.00  0.00    -0.014 A 
BRANCH  34  35
ATOM     35  C   UNL     1      13.130   1.612   0.342  1.00  0.00     0.031 A 
ATOM     36  C   UNL     1      14.037   2.393  -0.569  1.00  0.00     0.074 A 
ATOM     37  C   UNL     1      12.868   2.071   1.581  1.00  0.00     0.049 A 
ATOM     38  N   UNL     1      14.789   3.428  -0.303  1.00  0.00    -0.248 NA
ATOM     39  C   UNL     1      14.098   1.948  -1.972  1.00  0.00     0.031 C 
ATOM     40  C   UNL     1      11.937   1.465   2.531  1.00  0.00     0.029 A 
ATOM     41  N   UNL     1      13.383   3.150   2.258  1.00  0.00    -0.354 N 
ATOM     42  C   UNL     1      15.453   3.725  -1.487  1.00  0.00     0.074 A 
ATOM     43  C   UNL     1      15.007   2.770  -2.477  1.00  0.00     0.031 C 
ATOM     44  C   UNL     1      11.973   2.160   3.682  1.00  0.00     0.029 A 
ATOM     45  C   UNL     1      12.966   3.226   3.567  1.00  0.00     0.049 A 
ATOM     46  H   UNL     1      13.992   3.806   1.847  1.00  0.00     0.167 HD
ATOM     47  C   UNL     1      16.356   4.704  -1.728  1.00  0.00     0.034 A 
ATOM     48  C   UNL     1      13.377   4.030   4.569  1.00  0.00     0.034 A 
ATOM     49  C   UNL     1      16.773   5.673  -0.752  1.00  0.00     0.049 A 
ATOM     50  C   UNL     1      14.435   5.069   4.292  1.00  0.00     0.074 A 
ATOM     51  C   UNL     1      17.673   6.713  -0.905  1.00  0.00     0.029 A 
ATOM     52  N   UNL     1      16.328   5.719   0.559  1.00  0.00    -0.354 N 
ATOM     53  N   UNL     1      15.026   5.368   3.160  1.00  0.00    -0.248 NA
ATOM     54  C   UNL     1      14.870   5.897   5.428  1.00  0.00     0.031 C 
ATOM     55  C   UNL     1      17.801   7.363   0.325  1.00  0.00     0.029 A 
ATOM     56  C   UNL     1      16.946   6.758   1.232  1.00  0.00     0.049 A 
ATOM     57  H   UNL     1      15.668   5.103   0.954  1.00  0.00     0.167 HD
ATOM     58  C   UNL     1      15.871   6.438   3.440  1.00  0.00     0.074 A 
ATOM     59  C   UNL     1      15.699   6.750   4.843  1.00  0.00     0.031 C 
ATOM     60  C   UNL     1      16.724   7.094   2.614  1.00  0.00     0.034 A 
BRANCH  47  61
ATOM     61  C   UNL     1      16.973   4.768  -3.098  1.00  0.00     0.023 A 
ATOM     62  C   UNL     1      16.223   5.237  -4.194  1.00  0.00     0.012 A 
ATOM     63  C   UNL     1      18.324   4.415  -3.282  1.00  0.00     0.148 A 
ATOM     64  C   UNL     1      16.803   5.331  -5.459  1.00  0.00     0.002 A 
ATOM     65  C   UNL     1      18.908   4.556  -4.534  1.00  0.00     0.091 A 
ATOM     66  F   UNL     1      19.011   3.948  -2.229  1.00  0.00    -0.205 F 
ATOM     67  C   UNL     1      18.146   5.002  -5.626  1.00  0.00     0.022 A 
BRANCH  65  68
ATOM     68  S   UNL     1      20.649   4.234  -4.832  1.00  0.00     0.127 S 
ATOM     69  O   UNL     1      20.587   3.063  -5.706  1.00  0.00    -0.237 OA
ATOM     70  O   UNL     1      21.079   5.466  -5.493  1.00  0.00    -0.237 OA
ATOM     71  O   UNL     1      21.247   4.001  -3.525  1.00  0.00    -0.744 OA
ENDBRANCH  65  68
ENDBRANCH  47  61
BRANCH  48  72
ATOM     72  C   UNL     1      12.813   3.876   5.943  1.00  0.00     0.023 A 
ATOM     73  C   UNL     1      12.057   4.918   6.515  1.00  0.00     0.012 A 
ATOM     74  C   UNL     1      13.048   2.709   6.697  1.00  0.00     0.148 A 
ATOM     75  C   UNL     1      11.580   4.816   7.823  1.00  0.00     0.002 A 
ATOM     76  C   UNL     1      12.517   2.588   7.975  1.00  0.00     0.091 A 
ATOM     77  F   UNL     1      13.791   1.737   6.148  1.00  0.00    -0.205 F 
ATOM     78  C   UNL     1      11.801   3.649   8.549  1.00  0.00     0.022 A 
BRANCH  76  79
ATOM     79  S   UNL     1      12.639   1.070   8.926  1.00  0.00     0.127 S 
ATOM     80  O   UNL     1      13.565   1.454   9.987  1.00  0.00    -0.237 OA
ATOM     81  O   UNL     1      11.253   0.874   9.355  1.00  0.00    -0.237 OA
ATOM     82  O   UNL     1      13.124   0.061   7.994  1.00  0.00    -0.744 OA
ENDBRANCH  76  79
ENDBRANCH  48  72
BRANCH  60  83
ATOM     83  C   UNL     1      17.502   8.253   3.182  1.00  0.00     0.023 A 
ATOM     84  C   UNL     1      18.554   8.022   4.090  1.00  0.00     0.012 A 
ATOM     85  C   UNL     1      17.237   9.569   2.752  1.00  0.00     0.148 A 
ATOM     86  C   UNL     1      19.306   9.085   4.588  1.00  0.00     0.002 A 
ATOM     87  C   UNL     1      18.024  10.617   3.212  1.00  0.00     0.091 A 
ATOM     88  F   UNL     1      16.222   9.771   1.899  1.00  0.00    -0.205 F 
ATOM     89  C   UNL     1      19.050  10.379   4.141  1.00  0.00     0.022 A 
BRANCH  87  90
ATOM     90  S   UNL     1      17.834  12.301   2.615  1.00  0.00     0.127 S 
ATOM     91  O   UNL     1      17.278  12.972   3.789  1.00  0.00    -0.237 OA
ATOM     92  O   UNL     1      19.213  12.673   2.295  1.00  0.00    -0.237 OA
ATOM     93  O   UNL     1      16.946  12.222   1.463  1.00  0.00    -0.744 OA
ENDBRANCH  87  90
ENDBRANCH  60  83
ENDBRANCH  34  35
ENDBRANCH  27  29
ENDBRANCH  26  27
ENDBRANCH  25  26
ENDBRANCH  24  25
ENDBRANCH  23  24
ENDBRANCH   1  23
TORSDOF 21
