REMARK SMILES O=C(OCCOCCOC(=O)[C@@H](CCC(F)(F)F)c1ccc(Cl)cc1)c1ccc(-c2c3nc(c(-c4cccc(S(=O)(=O)[O-])c4F)c4ccc([nH]4)c(-c4cccc(S(=O)(=O)[O-])c4F)c4nc(c(-c5cccc(S(=O)(=O)[O-])c5F)c5ccc2[nH]5)C=C4)C=C3)cc1
REMARK SMILES IDX 6 1 5 2 4 3 3 4 2 5 1 6 26 7 27 8 88 9 28 10 87 11 29 12
REMARK SMILES IDX 30 13 31 14 81 15 32 16 86 17 80 18 82 19 33 20 85 21 79 22
REMARK SMILES IDX 78 23 34 25 66 26 46 27 65 28 47 29 50 30 64 31 83 32 48 33
REMARK SMILES IDX 49 34 63 36 84 37 51 38 35 39 36 40 44 41 37 42 39 43 45 44
REMARK SMILES IDX 38 45 40 46 41 47 42 48 43 49 67 50 68 51 76 52 69 53 71 54
REMARK SMILES IDX 77 55 70 56 72 57 73 58 74 59 75 60 52 61 53 62 61 63 54 64
REMARK SMILES IDX 56 65 62 66 55 67 57 68 58 69 59 70 60 71 7 72 8 73 9 74
REMARK SMILES IDX 10 75 11 76 12 77 13 78 14 79 15 80 16 81 17 82 18 83 19 84
REMARK SMILES IDX 20 85 25 86 21 87 24 88 22 89 23 90
REMARK H PARENT 82 24 50 35
REMARK Flexibility Score: inf
ROOT
ATOM      1  O   UNL     1       4.120   1.190   0.779  1.00  0.00    -0.374 OA
ENDROOT
BRANCH   1   2
ATOM      2  C   UNL     1       4.475   0.959  -0.584  1.00  0.00     0.202 C 
BRANCH   2   3
ATOM      3  C   UNL     1       4.104  -0.395  -1.212  1.00  0.00     0.261 C 
BRANCH   3   4
ATOM      4  O   UNL     1       2.706  -0.694  -1.043  1.00  0.00    -0.460 OA
BRANCH   4   5
ATOM      5  C   UNL     1       2.133  -1.482  -0.095  1.00  0.00     0.338 C 
ATOM      6  O   UNL     1       0.925  -1.690  -0.148  1.00  0.00    -0.246 OA
BRANCH   5   7
ATOM      7  C   UNL     1       2.915  -2.086   1.025  1.00  0.00     0.060 A 
ATOM      8  C   UNL     1       4.145  -1.596   1.444  1.00  0.00     0.016 A 
ATOM      9  C   UNL     1       2.371  -3.162   1.744  1.00  0.00     0.016 A 
ATOM     10  C   UNL     1       4.854  -2.140   2.474  1.00  0.00     0.010 A 
ATOM     11  C   UNL     1       3.065  -3.712   2.832  1.00  0.00     0.010 A 
ATOM     12  C   UNL     1       4.312  -3.190   3.188  1.00  0.00    -0.014 A 
BRANCH  12  13
ATOM     13  C   UNL     1       5.233  -3.742   4.181  1.00  0.00     0.031 A 
ATOM     14  C   UNL     1       6.005  -4.958   3.796  1.00  0.00     0.074 A 
ATOM     15  C   UNL     1       5.581  -2.958   5.220  1.00  0.00     0.049 A 
ATOM     16  N   UNL     1       6.943  -5.574   4.452  1.00  0.00    -0.248 NA
ATOM     17  C   UNL     1       5.710  -5.538   2.470  1.00  0.00     0.031 C 
ATOM     18  C   UNL     1       5.001  -1.638   5.513  1.00  0.00     0.029 A 
ATOM     19  N   UNL     1       6.543  -3.114   6.175  1.00  0.00    -0.354 N 
ATOM     20  C   UNL     1       7.311  -6.644   3.652  1.00  0.00     0.074 A 
ATOM     21  C   UNL     1       6.520  -6.584   2.446  1.00  0.00     0.031 C 
ATOM     22  C   UNL     1       5.624  -1.109   6.577  1.00  0.00     0.029 A 
ATOM     23  C   UNL     1       6.578  -2.084   7.085  1.00  0.00     0.049 A 
ATOM     24  H   UNL     1       7.152  -3.887   6.209  1.00  0.00     0.167 HD
ATOM     25  C   UNL     1       8.228  -7.597   3.924  1.00  0.00     0.034 A 
ATOM     26  C   UNL     1       7.269  -1.984   8.233  1.00  0.00     0.034 A 
ATOM     27  C   UNL     1       8.987  -7.611   5.140  1.00  0.00     0.049 A 
ATOM     28  C   UNL     1       8.196  -3.119   8.566  1.00  0.00     0.074 A 
ATOM     29  C   UNL     1       9.863  -8.570   5.604  1.00  0.00     0.029 A 
ATOM     30  N   UNL     1       8.946  -6.600   6.094  1.00  0.00    -0.354 N 
ATOM     31  N   UNL     1       8.494  -4.175   7.844  1.00  0.00    -0.248 NA
ATOM     32  C   UNL     1       8.889  -3.052   9.855  1.00  0.00     0.031 C 
ATOM     33  C   UNL     1      10.331  -8.151   6.855  1.00  0.00     0.029 A 
ATOM     34  C   UNL     1       9.780  -6.910   7.149  1.00  0.00     0.049 A 
ATOM     35  H   UNL     1       8.402  -5.782   6.027  1.00  0.00     0.167 HD
ATOM     36  C   UNL     1       9.422  -4.892   8.582  1.00  0.00     0.074 A 
ATOM     37  C   UNL     1       9.665  -4.125   9.791  1.00  0.00     0.031 C 
ATOM     38  C   UNL     1      10.009  -6.085   8.309  1.00  0.00     0.034 A 
BRANCH  25  39
ATOM     39  C   UNL     1       8.375  -8.706   2.923  1.00  0.00     0.023 A 
ATOM     40  C   UNL     1       9.018  -8.475   1.690  1.00  0.00     0.012 A 
ATOM     41  C   UNL     1       7.826  -9.974   3.192  1.00  0.00     0.148 A 
ATOM     42  C   UNL     1       9.084  -9.482   0.727  1.00  0.00     0.002 A 
ATOM     43  C   UNL     1       7.933 -10.985   2.246  1.00  0.00     0.091 A 
ATOM     44  F   UNL     1       7.186 -10.158   4.355  1.00  0.00    -0.205 F 
ATOM     45  C   UNL     1       8.549 -10.737   1.008  1.00  0.00     0.022 A 
BRANCH  43  46
ATOM     46  S   UNL     1       7.321 -12.648   2.530  1.00  0.00     0.127 S 
ATOM     47  O   UNL     1       6.284 -12.761   1.505  1.00  0.00    -0.237 OA
ATOM     48  O   UNL     1       8.515 -13.455   2.283  1.00  0.00    -0.237 OA
ATOM     49  O   UNL     1       6.837 -12.672   3.904  1.00  0.00    -0.744 OA
ENDBRANCH  43  46
ENDBRANCH  25  39
BRANCH  26  50
ATOM     50  C   UNL     1       7.051  -0.836   9.160  1.00  0.00     0.023 A 
ATOM     51  C   UNL     1       8.110   0.032   9.484  1.00  0.00     0.012 A 
ATOM     52  C   UNL     1       5.784  -0.610   9.740  1.00  0.00     0.148 A 
ATOM     53  C   UNL     1       7.922   1.073  10.397  1.00  0.00     0.002 A 
ATOM     54  C   UNL     1       5.588   0.463  10.600  1.00  0.00     0.091 A 
ATOM     55  F   UNL     1       4.787  -1.457   9.444  1.00  0.00    -0.205 F 
ATOM     56  C   UNL     1       6.662   1.294  10.948  1.00  0.00     0.022 A 
BRANCH  54  57
ATOM     57  S   UNL     1       3.968   0.885  11.252  1.00  0.00     0.127 S 
ATOM     58  O   UNL     1       4.081   0.447  12.640  1.00  0.00    -0.237 OA
ATOM     59  O   UNL     1       3.931   2.336  11.063  1.00  0.00    -0.237 OA
ATOM     60  O   UNL     1       3.014   0.153  10.429  1.00  0.00    -0.744 OA
ENDBRANCH  54  57
ENDBRANCH  26  50
BRANCH  38  61
ATOM     61  C   UNL     1      10.991  -6.597   9.322  1.00  0.00     0.023 A 
ATOM     62  C   UNL     1      10.533  -7.088  10.559  1.00  0.00     0.012 A 
ATOM     63  C   UNL     1      12.362  -6.650   9.010  1.00  0.00     0.148 A 
ATOM     64  C   UNL     1      11.436  -7.589  11.493  1.00  0.00     0.002 A 
ATOM     65  C   UNL     1      13.247  -7.207   9.920  1.00  0.00     0.091 A 
ATOM     66  F   UNL     1      12.772  -6.156   7.833  1.00  0.00    -0.205 F 
ATOM     67  C   UNL     1      12.790  -7.662  11.168  1.00  0.00     0.022 A 
BRANCH  65  68
ATOM     68  S   UNL     1      14.984  -7.443   9.537  1.00  0.00     0.127 S 
ATOM     69  O   UNL     1      15.612  -6.404  10.350  1.00  0.00    -0.237 OA
ATOM     70  O   UNL     1      15.219  -8.810  10.002  1.00  0.00    -0.237 OA
ATOM     71  O   UNL     1      15.102  -7.269   8.095  1.00  0.00    -0.744 OA
ENDBRANCH  65  68
ENDBRANCH  38  61
ENDBRANCH  12  13
ENDBRANCH   5   7
ENDBRANCH   4   5
ENDBRANCH   3   4
ENDBRANCH   2   3
ENDBRANCH   1   2
BRANCH   1  72
ATOM     72  C   UNL     1       2.755   1.499   1.071  1.00  0.00     0.202 C 
BRANCH  72  73
ATOM     73  C   UNL     1       2.648   2.924   1.600  1.00  0.00     0.261 C 
BRANCH  73  74
ATOM     74  O   UNL     1       3.000   3.807   0.525  1.00  0.00    -0.463 OA
BRANCH  74  75
ATOM     75  C   UNL     1       4.321   4.089   0.399  1.00  0.00     0.313 C 
ATOM     76  O   UNL     1       5.188   3.839   1.236  1.00  0.00    -0.252 OA
BRANCH  75  77
ATOM     77  C   UNL     1       4.615   4.799  -0.912  1.00  0.00     0.129 C 
BRANCH  77  78
ATOM     78  C   UNL     1       4.242   4.083  -2.233  1.00  0.00     0.029 C 
BRANCH  78  79
ATOM     79  C   UNL     1       2.841   3.490  -2.468  1.00  0.00     0.117 C 
BRANCH  79  80
ATOM     80  C   UNL     1       1.788   4.437  -2.985  1.00  0.00     0.389 C 
ATOM     81  F   UNL     1       2.222   5.102  -4.075  1.00  0.00    -0.171 F 
ATOM     82  F   UNL     1       0.685   3.741  -3.346  1.00  0.00    -0.171 F 
ATOM     83  F   UNL     1       1.408   5.331  -2.059  1.00  0.00    -0.171 F 
ENDBRANCH  79  80
ENDBRANCH  78  79
ENDBRANCH  77  78
BRANCH  77  84
ATOM     84  C   UNL     1       4.252   6.267  -0.870  1.00  0.00    -0.034 A 
ATOM     85  C   UNL     1       5.165   7.203  -1.379  1.00  0.00     0.006 A 
ATOM     86  C   UNL     1       3.057   6.728  -0.301  1.00  0.00     0.006 A 
ATOM     87  C   UNL     1       4.890   8.567  -1.309  1.00  0.00     0.021 A 
ATOM     88  C   UNL     1       2.780   8.091  -0.234  1.00  0.00     0.021 A 
ATOM     89  C   UNL     1       3.698   9.005  -0.737  1.00  0.00     0.041 A 
ATOM     90  Cl  UNL     1       3.359  10.687  -0.649  1.00  0.00    -0.084 Cl
ENDBRANCH  77  84
ENDBRANCH  75  77
ENDBRANCH  74  75
ENDBRANCH  73  74
ENDBRANCH  72  73
ENDBRANCH   1  72
TORSDOF 21
