REMARK SMILES CCN(CC(C)C)C(=O)N[C@](C)(CC)C(=O)OCCOCCOC(=O)c1ccc(-c2c3nc(c(-c4cccc(S(=O)(=O)[O-])c4F)c4ccc([nH]4)c(-c4cccc(S(=O)(=O)[O-])c4F)c4nc(c(-c5cccc(S(=O)(=O)[O-])c5F)c5ccc2[nH]5)C=C4)C=C3)cc1
REMARK SMILES IDX 19 1 18 2 17 3 15 4 16 5 11 6 12 7 10 8 8 9 9 10 3 12 2 13
REMARK SMILES IDX 1 14 4 15 5 16 6 17 7 18 13 19 14 20 20 21 21 22 22 23 23 24
REMARK SMILES IDX 24 25 25 26 26 27 27 28 88 29 28 30 87 31 29 32 30 33 31 34
REMARK SMILES IDX 81 35 32 36 86 37 80 38 82 39 33 40 85 41 79 42 78 43 34 45
REMARK SMILES IDX 66 46 46 47 65 48 47 49 50 50 64 51 83 52 48 53 49 54 63 56
REMARK SMILES IDX 84 57 51 58 35 59 36 60 44 61 37 62 39 63 45 64 38 65 40 66
REMARK SMILES IDX 41 67 42 68 43 69 67 70 68 71 76 72 69 73 71 74 77 75 70 76
REMARK SMILES IDX 72 77 73 78 74 79 75 80 52 81 53 82 61 83 54 84 56 85 62 86
REMARK SMILES IDX 55 87 57 88 58 89 59 90 60 91
REMARK H PARENT 10 11 82 44 50 55
REMARK Flexibility Score: inf
ROOT
ATOM      1  C   UNL     1      -2.133   3.568   0.214  1.00  0.00     0.202 C 
ENDROOT
BRANCH   1   2
ATOM      2  C   UNL     1      -1.409   4.643   1.051  1.00  0.00     0.261 C 
BRANCH   2   3
ATOM      3  O   UNL     1      -0.097   5.126   0.706  1.00  0.00    -0.462 OA
BRANCH   3   4
ATOM      4  C   UNL     1       0.931   4.281   0.976  1.00  0.00     0.331 C 
ATOM      5  O   UNL     1       0.762   3.080   1.113  1.00  0.00    -0.249 OA
BRANCH   4   6
ATOM      6  C   UNL     1       2.313   4.948   1.196  1.00  0.00     0.136 C 
ATOM      7  C   UNL     1       3.456   4.009   0.732  1.00  0.00     0.047 C 
BRANCH   6   8
ATOM      8  N   UNL     1       2.527   5.343   2.642  1.00  0.00    -0.322 N 
ATOM      9  C   UNL     1       2.741   4.899   3.890  1.00  0.00     0.318 C 
ATOM     10  O   UNL     1       3.015   5.810   4.685  1.00  0.00    -0.249 OA
ATOM     11  H   UNL     1       2.495   6.326   2.683  1.00  0.00     0.166 HD
BRANCH   9  12
ATOM     12  N   UNL     1       2.653   3.612   4.333  1.00  0.00    -0.325 N 
BRANCH  12  13
ATOM     13  C   UNL     1       2.694   3.408   5.794  1.00  0.00     0.118 C 
ATOM     14  C   UNL     1       4.093   3.324   6.381  1.00  0.00     0.027 C 
ENDBRANCH  12  13
BRANCH  12  15
ATOM     15  C   UNL     1       2.356   2.406   3.571  1.00  0.00     0.124 C 
BRANCH  15  16
ATOM     16  C   UNL     1       0.922   1.863   3.790  1.00  0.00     0.002 C 
ATOM     17  C   UNL     1      -0.103   2.984   4.003  1.00  0.00     0.009 C 
ATOM     18  C   UNL     1       0.531   0.872   2.681  1.00  0.00     0.009 C 
ENDBRANCH  15  16
ENDBRANCH  12  15
ENDBRANCH   9  12
ENDBRANCH   6   8
BRANCH   6  19
ATOM     19  C   UNL     1       2.415   6.260   0.350  1.00  0.00     0.037 C 
ATOM     20  C   UNL     1       2.103   6.121  -1.141  1.00  0.00     0.007 C 
ENDBRANCH   6  19
ENDBRANCH   4   6
ENDBRANCH   3   4
ENDBRANCH   2   3
ENDBRANCH   1   2
BRANCH   1  21
ATOM     21  O   UNL     1      -1.460   2.489  -0.389  1.00  0.00    -0.374 OA
BRANCH  21  22
ATOM     22  C   UNL     1      -0.604   2.660  -1.505  1.00  0.00     0.202 C 
BRANCH  22  23
ATOM     23  C   UNL     1      -0.685   3.814  -2.520  1.00  0.00     0.261 C 
BRANCH  23  24
ATOM     24  O   UNL     1      -1.347   5.007  -2.101  1.00  0.00    -0.460 OA
BRANCH  24  25
ATOM     25  C   UNL     1      -2.600   5.141  -2.598  1.00  0.00     0.338 C 
ATOM     26  O   UNL     1      -3.188   4.364  -3.337  1.00  0.00    -0.246 OA
BRANCH  25  27
ATOM     27  C   UNL     1      -3.265   6.285  -1.959  1.00  0.00     0.060 A 
ATOM     28  C   UNL     1      -4.450   6.033  -1.254  1.00  0.00     0.016 A 
ATOM     29  C   UNL     1      -2.798   7.587  -2.142  1.00  0.00     0.016 A 
ATOM     30  C   UNL     1      -5.217   7.092  -0.791  1.00  0.00     0.010 A 
ATOM     31  C   UNL     1      -3.581   8.651  -1.692  1.00  0.00     0.010 A 
ATOM     32  C   UNL     1      -4.818   8.404  -1.069  1.00  0.00    -0.014 A 
BRANCH  32  33
ATOM     33  C   UNL     1      -5.804   9.492  -0.901  1.00  0.00     0.031 A 
ATOM     34  C   UNL     1      -6.543   9.980  -2.118  1.00  0.00     0.074 A 
ATOM     35  C   UNL     1      -6.066   9.999   0.315  1.00  0.00     0.049 A 
ATOM     36  N   UNL     1      -7.431  10.932  -2.220  1.00  0.00    -0.248 NA
ATOM     37  C   UNL     1      -6.239   9.302  -3.391  1.00  0.00     0.031 C 
ATOM     38  C   UNL     1      -5.431   9.572   1.560  1.00  0.00     0.029 A 
ATOM     39  N   UNL     1      -6.923  10.998   0.694  1.00  0.00    -0.354 N 
ATOM     40  C   UNL     1      -7.766  10.992  -3.568  1.00  0.00     0.074 A 
ATOM     41  C   UNL     1      -6.982   9.986  -4.248  1.00  0.00     0.031 C 
ATOM     42  C   UNL     1      -5.900  10.329   2.567  1.00  0.00     0.029 A 
ATOM     43  C   UNL     1      -6.839  11.311   2.029  1.00  0.00     0.049 A 
ATOM     44  H   UNL     1      -7.538  11.448   0.070  1.00  0.00     0.167 HD
ATOM     45  C   UNL     1      -8.655  11.808  -4.180  1.00  0.00     0.034 A 
ATOM     46  C   UNL     1      -7.431  12.300   2.725  1.00  0.00     0.034 A 
ATOM     47  C   UNL     1      -9.440  12.793  -3.489  1.00  0.00     0.049 A 
ATOM     48  C   UNL     1      -8.386  13.220   2.012  1.00  0.00     0.074 A 
ATOM     49  C   UNL     1     -10.397  13.648  -4.005  1.00  0.00     0.029 A 
ATOM     50  N   UNL     1      -9.347  13.067  -2.133  1.00  0.00    -0.354 N 
ATOM     51  N   UNL     1      -8.762  13.210   0.755  1.00  0.00    -0.248 NA
ATOM     52  C   UNL     1      -9.024  14.270   2.819  1.00  0.00     0.031 C 
ATOM     53  C   UNL     1     -10.853  14.467  -2.968  1.00  0.00     0.029 A 
ATOM     54  C   UNL     1     -10.216  14.090  -1.796  1.00  0.00     0.049 A 
ATOM     55  H   UNL     1      -8.750  12.602  -1.502  1.00  0.00     0.167 HD
ATOM     56  C   UNL     1      -9.708  14.221   0.630  1.00  0.00     0.074 A 
ATOM     57  C   UNL     1      -9.859  14.813   1.944  1.00  0.00     0.031 C 
ATOM     58  C   UNL     1     -10.385  14.631  -0.472  1.00  0.00     0.034 A 
BRANCH  45  59
ATOM     59  C   UNL     1      -8.825  11.671  -5.671  1.00  0.00     0.023 A 
ATOM     60  C   UNL     1      -9.473  10.540  -6.208  1.00  0.00     0.012 A 
ATOM     61  C   UNL     1      -8.388  12.693  -6.537  1.00  0.00     0.148 A 
ATOM     62  C   UNL     1      -9.654  10.413  -7.585  1.00  0.00     0.002 A 
ATOM     63  C   UNL     1      -8.616  12.582  -7.903  1.00  0.00     0.091 A 
ATOM     64  F   UNL     1      -7.753  13.749  -6.010  1.00  0.00    -0.205 F 
ATOM     65  C   UNL     1      -9.237  11.438  -8.430  1.00  0.00     0.022 A 
BRANCH  63  66
ATOM     66  S   UNL     1      -8.187  13.882  -9.066  1.00  0.00     0.127 S 
ATOM     67  O   UNL     1      -7.108  13.252  -9.827  1.00  0.00    -0.237 OA
ATOM     68  O   UNL     1      -9.437  14.054  -9.807  1.00  0.00    -0.237 OA
ATOM     69  O   UNL     1      -7.792  15.030  -8.261  1.00  0.00    -0.744 OA
ENDBRANCH  63  66
ENDBRANCH  45  59
BRANCH  46  70
ATOM     70  C   UNL     1      -7.145  12.463   4.177  1.00  0.00     0.023 A 
ATOM     71  C   UNL     1      -8.157  12.215   5.124  1.00  0.00     0.012 A 
ATOM     72  C   UNL     1      -5.866  12.851   4.623  1.00  0.00     0.148 A 
ATOM     73  C   UNL     1      -7.910  12.382   6.487  1.00  0.00     0.002 A 
ATOM     74  C   UNL     1      -5.611  12.959   5.984  1.00  0.00     0.091 A 
ATOM     75  F   UNL     1      -4.921  13.096   3.705  1.00  0.00    -0.205 F 
ATOM     76  C   UNL     1      -6.636  12.744   6.918  1.00  0.00     0.022 A 
BRANCH  74  77
ATOM     77  S   UNL     1      -3.970  13.295   6.633  1.00  0.00     0.127 S 
ATOM     78  O   UNL     1      -4.137  14.637   7.185  1.00  0.00    -0.237 OA
ATOM     79  O   UNL     1      -3.818  12.232   7.627  1.00  0.00    -0.237 OA
ATOM     80  O   UNL     1      -3.068  13.188   5.495  1.00  0.00    -0.744 OA
ENDBRANCH  74  77
ENDBRANCH  46  70
BRANCH  58  81
ATOM     81  C   UNL     1     -11.392  15.739  -0.300  1.00  0.00     0.023 A 
ATOM     82  C   UNL     1     -10.960  17.058  -0.064  1.00  0.00     0.012 A 
ATOM     83  C   UNL     1     -12.768  15.477  -0.450  1.00  0.00     0.148 A 
ATOM     84  C   UNL     1     -11.885  18.094   0.059  1.00  0.00     0.002 A 
ATOM     85  C   UNL     1     -13.680  16.522  -0.382  1.00  0.00     0.091 A 
ATOM     86  F   UNL     1     -13.159  14.211  -0.659  1.00  0.00    -0.205 F 
ATOM     87  C   UNL     1     -13.242  17.829  -0.112  1.00  0.00     0.022 A 
BRANCH  85  88
ATOM     88  S   UNL     1     -15.434  16.292  -0.691  1.00  0.00     0.127 S 
ATOM     89  O   UNL     1     -16.000  16.491   0.643  1.00  0.00    -0.237 OA
ATOM     90  O   UNL     1     -15.723  17.365  -1.643  1.00  0.00    -0.237 OA
ATOM     91  O   UNL     1     -15.576  14.947  -1.232  1.00  0.00    -0.744 OA
ENDBRANCH  85  88
ENDBRANCH  58  81
ENDBRANCH  32  33
ENDBRANCH  25  27
ENDBRANCH  24  25
ENDBRANCH  23  24
ENDBRANCH  22  23
ENDBRANCH  21  22
ENDBRANCH   1  21
TORSDOF 23
