REMARK SMILES Cn1ncc(C(=O)OCCOCCOC(=O)c2ccc(-c3c4nc(c(-c5cccc(S(=O)(=O)[O-])c5F)c5ccc([nH]5)c(-c5cccc(S(=O)(=O)[O-])c5F)c5nc(c(-c6cccc(S(=O)(=O)[O-])c6F)c6ccc3[nH]6)C=C5)C=C4)cc2)c1C(=O)Nc1ccccn1
REMARK SMILES IDX 12 1 11 2 10 3 9 4 8 5 6 6 7 7 5 8 1 9 2 10 3 11 80 12 4 13
REMARK SMILES IDX 81 14 82 15 83 16 84 18 85 19 89 20 86 21 88 22 87 23 13 24
REMARK SMILES IDX 14 25 15 26 16 27 17 28 18 29 79 30 19 31 78 32 20 33 21 34
REMARK SMILES IDX 22 35 72 36 23 37 77 38 71 39 73 40 24 41 76 42 70 43 69 44
REMARK SMILES IDX 25 46 57 47 37 48 56 49 38 50 41 51 55 52 74 53 39 54 40 55
REMARK SMILES IDX 54 57 75 58 42 59 26 60 27 61 35 62 28 63 30 64 36 65 29 66
REMARK SMILES IDX 31 67 32 68 33 69 34 70 58 71 59 72 67 73 60 74 62 75 68 76
REMARK SMILES IDX 61 77 63 78 64 79 65 80 66 81 43 82 44 83 52 84 45 85 47 86
REMARK SMILES IDX 53 87 46 88 48 89 49 90 50 91 51 92
REMARK H PARENT 83 17 73 45 41 56
REMARK Flexibility Score: inf
ROOT
ATOM      1  C   UNL     1       3.783  -1.336  -2.118  1.00  0.00     0.202 C 
ENDROOT
BRANCH   1   2
ATOM      2  O   UNL     1       4.911  -1.920  -1.459  1.00  0.00    -0.374 OA
BRANCH   2   3
ATOM      3  C   UNL     1       4.685  -3.171  -0.801  1.00  0.00     0.202 C 
BRANCH   3   4
ATOM      4  C   UNL     1       4.102  -3.050   0.606  1.00  0.00     0.261 C 
BRANCH   4   5
ATOM      5  O   UNL     1       2.784  -2.486   0.527  1.00  0.00    -0.460 OA
BRANCH   5   6
ATOM      6  C   UNL     1       2.612  -1.304   1.168  1.00  0.00     0.342 C 
ATOM      7  O   UNL     1       3.431  -0.795   1.926  1.00  0.00    -0.246 OA
BRANCH   6   8
ATOM      8  C   UNL     1       1.438  -0.565   0.741  1.00  0.00     0.111 A 
ATOM      9  C   UNL     1      -1.756   0.686   1.247  1.00  0.00     0.174 C 
ATOM     10  N   UNL     1      -0.542   0.283   0.570  1.00  0.00    -0.262 N 
ATOM     11  N   UNL     1       0.262   1.292   0.167  1.00  0.00    -0.180 NA
ATOM     12  C   UNL     1       0.095  -0.946   0.589  1.00  0.00     0.140 A 
ATOM     13  C   UNL     1       1.474   0.807   0.415  1.00  0.00     0.151 A 
BRANCH  12  14
ATOM     14  C   UNL     1      -0.455  -2.288   0.708  1.00  0.00     0.275 C 
ATOM     15  O   UNL     1       0.262  -3.229   1.054  1.00  0.00    -0.267 OA
ATOM     16  N   UNL     1      -1.779  -2.599   0.554  1.00  0.00    -0.305 N 
ATOM     17  H   UNL     1      -1.991  -3.506   0.872  1.00  0.00     0.171 HD
BRANCH  16  18
ATOM     18  C   UNL     1      -2.892  -1.943   0.057  1.00  0.00     0.132 A 
ATOM     19  C   UNL     1      -2.884  -1.137  -1.071  1.00  0.00     0.047 A 
ATOM     20  N   UNL     1      -3.996  -2.134   0.807  1.00  0.00    -0.239 NA
ATOM     21  C   UNL     1      -4.053  -0.439  -1.389  1.00  0.00     0.005 A 
ATOM     22  C   UNL     1      -5.103  -1.430   0.496  1.00  0.00     0.113 A 
ATOM     23  C   UNL     1      -5.176  -0.563  -0.576  1.00  0.00     0.020 A 
ENDBRANCH  16  18
ENDBRANCH  12  14
ENDBRANCH   6   8
ENDBRANCH   5   6
ENDBRANCH   4   5
ENDBRANCH   3   4
ENDBRANCH   2   3
ENDBRANCH   1   2
BRANCH   1  24
ATOM     24  C   UNL     1       3.487  -1.878  -3.519  1.00  0.00     0.261 C 
BRANCH  24  25
ATOM     25  O   UNL     1       2.956  -3.214  -3.457  1.00  0.00    -0.460 OA
BRANCH  25  26
ATOM     26  C   UNL     1       3.788  -4.183  -3.910  1.00  0.00     0.338 C 
ATOM     27  O   UNL     1       4.864  -4.025  -4.461  1.00  0.00    -0.246 OA
BRANCH  26  28
ATOM     28  C   UNL     1       3.298  -5.509  -3.480  1.00  0.00     0.060 A 
ATOM     29  C   UNL     1       4.236  -6.386  -2.919  1.00  0.00     0.016 A 
ATOM     30  C   UNL     1       1.972  -5.910  -3.657  1.00  0.00     0.016 A 
ATOM     31  C   UNL     1       3.864  -7.687  -2.585  1.00  0.00     0.010 A 
ATOM     32  C   UNL     1       1.603  -7.220  -3.329  1.00  0.00     0.010 A 
ATOM     33  C   UNL     1       2.556  -8.124  -2.827  1.00  0.00    -0.014 A 
BRANCH  33  34
ATOM     34  C   UNL     1       2.232  -9.563  -2.686  1.00  0.00     0.031 A 
ATOM     35  C   UNL     1       2.245 -10.436  -3.911  1.00  0.00     0.074 A 
ATOM     36  C   UNL     1       1.942 -10.090  -1.483  1.00  0.00     0.049 A 
ATOM     37  N   UNL     1       2.012 -11.718  -4.016  1.00  0.00    -0.248 NA
ATOM     38  C   UNL     1       2.562  -9.776  -5.189  1.00  0.00     0.031 C 
ATOM     39  C   UNL     1       1.891  -9.346  -0.226  1.00  0.00     0.029 A 
ATOM     40  N   UNL     1       1.616 -11.375  -1.129  1.00  0.00    -0.354 N 
ATOM     41  C   UNL     1       2.137 -12.017  -5.367  1.00  0.00     0.074 A 
ATOM     42  C   UNL     1       2.451 -10.780  -6.048  1.00  0.00     0.031 C 
ATOM     43  C   UNL     1       1.527 -10.184   0.760  1.00  0.00     0.029 A 
ATOM     44  C   UNL     1       1.309 -11.518   0.203  1.00  0.00     0.049 A 
ATOM     45  H   UNL     1       1.604 -12.124  -1.769  1.00  0.00     0.167 HD
ATOM     46  C   UNL     1       2.022 -13.216  -5.984  1.00  0.00     0.034 A 
ATOM     47  C   UNL     1       0.888 -12.599   0.889  1.00  0.00     0.034 A 
ATOM     48  C   UNL     1       1.734 -14.450  -5.306  1.00  0.00     0.049 A 
ATOM     49  C   UNL     1       0.751 -13.919   0.174  1.00  0.00     0.074 A 
ATOM     50  C   UNL     1       1.651 -15.725  -5.838  1.00  0.00     0.029 A 
ATOM     51  N   UNL     1       1.471 -14.564  -3.950  1.00  0.00    -0.354 N 
ATOM     52  N   UNL     1       1.012 -14.212  -1.077  1.00  0.00    -0.248 NA
ATOM     53  C   UNL     1       0.294 -15.066   0.975  1.00  0.00     0.031 C 
ATOM     54  C   UNL     1       1.322 -16.609  -4.804  1.00  0.00     0.029 A 
ATOM     55  C   UNL     1       1.212 -15.885  -3.627  1.00  0.00     0.049 A 
ATOM     56  H   UNL     1       1.468 -13.816  -3.311  1.00  0.00     0.167 HD
ATOM     57  C   UNL     1       0.779 -15.578  -1.207  1.00  0.00     0.074 A 
ATOM     58  C   UNL     1       0.379 -16.059   0.099  1.00  0.00     0.031 C 
ATOM     59  C   UNL     1       0.870 -16.359  -2.311  1.00  0.00     0.034 A 
BRANCH  46  60
ATOM     60  C   UNL     1       2.256 -13.260  -7.469  1.00  0.00     0.023 A 
ATOM     61  C   UNL     1       3.575 -13.184  -7.962  1.00  0.00     0.012 A 
ATOM     62  C   UNL     1       1.188 -13.432  -8.370  1.00  0.00     0.148 A 
ATOM     63  C   UNL     1       3.825 -13.257  -9.331  1.00  0.00     0.002 A 
ATOM     64  C   UNL     1       1.449 -13.537  -9.732  1.00  0.00     0.091 A 
ATOM     65  F   UNL     1      -0.060 -13.473  -7.883  1.00  0.00    -0.205 F 
ATOM     66  C   UNL     1       2.765 -13.443 -10.214  1.00  0.00     0.022 A 
BRANCH  64  67
ATOM     67  S   UNL     1       0.155 -13.841 -10.941  1.00  0.00     0.127 S 
ATOM     68  O   UNL     1       0.031 -12.530 -11.576  1.00  0.00    -0.237 OA
ATOM     69  O   UNL     1       0.757 -14.873 -11.786  1.00  0.00    -0.237 OA
ATOM     70  O   UNL     1      -1.005 -14.284 -10.180  1.00  0.00    -0.744 OA
ENDBRANCH  64  67
ENDBRANCH  46  60
BRANCH  47  71
ATOM     71  C   UNL     1       0.609 -12.491   2.348  1.00  0.00     0.023 A 
ATOM     72  C   UNL     1       1.472 -13.119   3.267  1.00  0.00     0.012 A 
ATOM     73  C   UNL     1      -0.494 -11.759   2.831  1.00  0.00     0.148 A 
ATOM     74  C   UNL     1       1.228 -13.040   4.639  1.00  0.00     0.002 A 
ATOM     75  C   UNL     1      -0.702 -11.643   4.200  1.00  0.00     0.091 A 
ATOM     76  F   UNL     1      -1.319 -11.190   1.940  1.00  0.00    -0.205 F 
ATOM     77  C   UNL     1       0.149 -12.295   5.106  1.00  0.00     0.022 A 
BRANCH  75  78
ATOM     78  S   UNL     1      -1.999 -10.604   4.885  1.00  0.00     0.127 S 
ATOM     79  O   UNL     1      -2.996 -11.593   5.284  1.00  0.00    -0.237 OA
ATOM     80  O   UNL     1      -1.309  -9.943   5.993  1.00  0.00    -0.237 OA
ATOM     81  O   UNL     1      -2.387  -9.708   3.804  1.00  0.00    -0.744 OA
ENDBRANCH  75  78
ENDBRANCH  47  71
BRANCH  59  82
ATOM     82  C   UNL     1       0.549 -17.823  -2.163  1.00  0.00     0.023 A 
ATOM     83  C   UNL     1      -0.795 -18.228  -2.034  1.00  0.00     0.012 A 
ATOM     84  C   UNL     1       1.561 -18.800  -2.239  1.00  0.00     0.148 A 
ATOM     85  C   UNL     1      -1.124 -19.580  -1.957  1.00  0.00     0.002 A 
ATOM     86  C   UNL     1       1.222 -20.148  -2.205  1.00  0.00     0.091 A 
ATOM     87  F   UNL     1       2.836 -18.396  -2.343  1.00  0.00    -0.205 F 
ATOM     88  C   UNL     1      -0.118 -20.540  -2.055  1.00  0.00     0.022 A 
BRANCH  86  89
ATOM     89  S   UNL     1       2.443 -21.449  -2.416  1.00  0.00     0.127 S 
ATOM     90  O   UNL     1       2.615 -21.923  -1.044  1.00  0.00    -0.237 OA
ATOM     91  O   UNL     1       1.753 -22.388  -3.302  1.00  0.00    -0.237 OA
ATOM     92  O   UNL     1       3.608 -20.808  -3.011  1.00  0.00    -0.744 OA
ENDBRANCH  86  89
ENDBRANCH  59  82
ENDBRANCH  33  34
ENDBRANCH  26  28
ENDBRANCH  25  26
ENDBRANCH  24  25
ENDBRANCH   1  24
TORSDOF 19
