REMARK SMILES Cc1c(C(=O)N[C@H]2C=C[C@@H](C(=O)OCCOCCOC(=O)c3ccc(-c4c5nc(c(-c6cccc(S(=O)(=O)[O-])c6F)c6ccc([nH]6)c(-c6cccc(S(=O)(=O)[O-])c6F)c6nc(c(-c7cccc(S(=O)(=O)[O-])c7F)c7ccc4[nH]7)C=C6)C=C5)cc3)C2)oc2ccccc12
REMARK SMILES IDX 17 1 16 2 15 3 14 4 13 5 11 6 12 7 10 8 7 9 8 10 85 11 9 12
REMARK SMILES IDX 6 13 4 14 5 15 3 17 1 18 2 19 92 20 86 21 87 22 91 23 88 24
REMARK SMILES IDX 90 25 89 26 18 27 19 28 20 29 21 30 22 31 23 32 84 33 24 34
REMARK SMILES IDX 83 35 25 36 26 37 27 38 77 39 28 40 82 41 76 42 78 43 29 44
REMARK SMILES IDX 81 45 75 46 74 47 30 49 62 50 42 51 61 52 43 53 46 54 60 55
REMARK SMILES IDX 79 56 44 57 45 58 59 60 80 61 47 62 31 63 32 64 40 65 33 66
REMARK SMILES IDX 35 67 41 68 34 69 36 70 37 71 38 72 39 73 63 74 64 75 72 76
REMARK SMILES IDX 65 77 67 78 73 79 66 80 68 81 69 82 70 83 71 84 48 85 49 86
REMARK SMILES IDX 57 87 50 88 52 89 58 90 51 91 53 92 54 93 55 94 56 95
REMARK H PARENT 6 16 78 48 46 59
REMARK Flexibility Score: inf
ROOT
ATOM      1  C   UNL     1       4.462  -3.922   4.138  1.00  0.00     0.202 C 
ENDROOT
BRANCH   1   2
ATOM      2  O   UNL     1       5.127  -5.161   4.392  1.00  0.00    -0.374 OA
BRANCH   2   3
ATOM      3  C   UNL     1       6.516  -5.241   4.081  1.00  0.00     0.202 C 
BRANCH   3   4
ATOM      4  C   UNL     1       6.887  -5.316   2.598  1.00  0.00     0.261 C 
BRANCH   4   5
ATOM      5  O   UNL     1       6.395  -4.191   1.850  1.00  0.00    -0.463 OA
BRANCH   5   6
ATOM      6  C   UNL     1       5.648  -4.516   0.766  1.00  0.00     0.312 C 
ATOM      7  O   UNL     1       5.439  -5.661   0.373  1.00  0.00    -0.252 OA
BRANCH   6   8
ATOM      8  C   UNL     1       5.018  -3.331   0.067  1.00  0.00     0.124 C 
ATOM      9  C   UNL     1       4.368  -1.134  -0.372  1.00  0.00     0.106 C 
ATOM     10  C   UNL     1       5.400  -1.530  -1.377  1.00  0.00    -0.006 C 
ATOM     11  C   UNL     1       4.812  -2.011   0.802  1.00  0.00     0.048 C 
ATOM     12  C   UNL     1       5.732  -2.818  -1.159  1.00  0.00    -0.014 C 
BRANCH   9  13
ATOM     13  N   UNL     1       4.263   0.247  -0.076  1.00  0.00    -0.343 N 
ATOM     14  C   UNL     1       3.119   0.991   0.151  1.00  0.00     0.287 C 
ATOM     15  O   UNL     1       3.336   2.191   0.362  1.00  0.00    -0.266 OA
ATOM     16  H   UNL     1       5.113   0.741  -0.025  1.00  0.00     0.164 HD
BRANCH  14  17
ATOM     17  C   UNL     1       1.740   0.460   0.116  1.00  0.00     0.195 A 
ATOM     18  C   UNL     1       1.470  -2.168   0.369  1.00  0.00     0.049 C 
ATOM     19  C   UNL     1       1.041  -0.760   0.170  1.00  0.00     0.008 A 
ATOM     20  C   UNL     1      -0.355  -0.452   0.038  1.00  0.00     0.024 A 
ATOM     21  O   UNL     1       0.786   1.468   0.036  1.00  0.00    -0.451 OA
ATOM     22  C   UNL     1      -0.450   0.922   0.002  1.00  0.00     0.135 A 
ATOM     23  C   UNL     1      -1.542  -1.211  -0.015  1.00  0.00     0.012 A 
ATOM     24  C   UNL     1      -1.655   1.619  -0.050  1.00  0.00     0.048 A 
ATOM     25  C   UNL     1      -2.771  -0.546  -0.074  1.00  0.00     0.001 A 
ATOM     26  C   UNL     1      -2.825   0.848  -0.081  1.00  0.00     0.004 A 
ENDBRANCH  14  17
ENDBRANCH   9  13
ENDBRANCH   6   8
ENDBRANCH   5   6
ENDBRANCH   4   5
ENDBRANCH   3   4
ENDBRANCH   2   3
ENDBRANCH   1   2
BRANCH   1  27
ATOM     27  C   UNL     1       4.880  -2.713   4.986  1.00  0.00     0.261 C 
BRANCH  27  28
ATOM     28  O   UNL     1       6.196  -2.232   4.650  1.00  0.00    -0.460 OA
BRANCH  28  29
ATOM     29  C   UNL     1       7.093  -2.263   5.665  1.00  0.00     0.338 C 
ATOM     30  O   UNL     1       6.885  -2.606   6.823  1.00  0.00    -0.246 OA
BRANCH  29  31
ATOM     31  C   UNL     1       8.451  -2.018   5.151  1.00  0.00     0.060 A 
ATOM     32  C   UNL     1       9.412  -3.021   5.334  1.00  0.00     0.016 A 
ATOM     33  C   UNL     1       8.803  -0.792   4.585  1.00  0.00     0.016 A 
ATOM     34  C   UNL     1      10.741  -2.787   4.988  1.00  0.00     0.010 A 
ATOM     35  C   UNL     1      10.140  -0.556   4.248  1.00  0.00     0.010 A 
ATOM     36  C   UNL     1      11.120  -1.539   4.479  1.00  0.00    -0.014 A 
BRANCH  36  37
ATOM     37  C   UNL     1      12.559  -1.220   4.317  1.00  0.00     0.031 A 
ATOM     38  C   UNL     1      13.249  -0.391   5.366  1.00  0.00     0.074 A 
ATOM     39  C   UNL     1      13.245  -1.667   3.250  1.00  0.00     0.049 A 
ATOM     40  N   UNL     1      14.491   0.013   5.416  1.00  0.00    -0.248 NA
ATOM     41  C   UNL     1      12.429   0.043   6.509  1.00  0.00     0.031 C 
ATOM     42  C   UNL     1      12.690  -2.484   2.172  1.00  0.00     0.029 A 
ATOM     43  N   UNL     1      14.555  -1.477   2.889  1.00  0.00    -0.354 N 
ATOM     44  C   UNL     1      14.596   0.774   6.574  1.00  0.00     0.074 A 
ATOM     45  C   UNL     1      13.289   0.782   7.195  1.00  0.00     0.031 C 
ATOM     46  C   UNL     1      13.648  -2.706   1.257  1.00  0.00     0.029 A 
ATOM     47  C   UNL     1      14.875  -2.029   1.672  1.00  0.00     0.049 A 
ATOM     48  H   UNL     1      15.204  -0.991   3.448  1.00  0.00     0.167 HD
ATOM     49  C   UNL     1      15.684   1.400   7.082  1.00  0.00     0.034 A 
ATOM     50  C   UNL     1      16.023  -1.978   0.965  1.00  0.00     0.034 A 
ATOM     51  C   UNL     1      16.989   1.369   6.478  1.00  0.00     0.049 A 
ATOM     52  C   UNL     1      17.212  -1.255   1.543  1.00  0.00     0.074 A 
ATOM     53  C   UNL     1      18.168   1.918   6.950  1.00  0.00     0.029 A 
ATOM     54  N   UNL     1      17.284   0.773   5.262  1.00  0.00    -0.354 N 
ATOM     55  N   UNL     1      17.331  -0.653   2.702  1.00  0.00    -0.248 NA
ATOM     56  C   UNL     1      18.437  -1.233   0.729  1.00  0.00     0.031 C 
ATOM     57  C   UNL     1      19.171   1.678   6.004  1.00  0.00     0.029 A 
ATOM     58  C   UNL     1      18.622   0.955   4.957  1.00  0.00     0.049 A 
ATOM     59  H   UNL     1      16.637   0.290   4.698  1.00  0.00     0.167 HD
ATOM     60  C   UNL     1      18.649  -0.215   2.773  1.00  0.00     0.074 A 
ATOM     61  C   UNL     1      19.294  -0.636   1.546  1.00  0.00     0.031 C 
ATOM     62  C   UNL     1      19.267   0.483   3.758  1.00  0.00     0.034 A 
BRANCH  49  63
ATOM     63  C   UNL     1      15.517   2.158   8.373  1.00  0.00     0.023 A 
ATOM     64  C   UNL     1      15.367   1.453   9.584  1.00  0.00     0.012 A 
ATOM     65  C   UNL     1      15.563   3.565   8.392  1.00  0.00     0.148 A 
ATOM     66  C   UNL     1      15.235   2.138  10.792  1.00  0.00     0.002 A 
ATOM     67  C   UNL     1      15.473   4.239   9.604  1.00  0.00     0.091 A 
ATOM     68  F   UNL     1      15.680   4.218   7.227  1.00  0.00    -0.205 F 
ATOM     69  C   UNL     1      15.298   3.528  10.803  1.00  0.00     0.022 A 
BRANCH  67  70
ATOM     70  S   UNL     1      15.621   6.025   9.729  1.00  0.00     0.127 S 
ATOM     71  O   UNL     1      14.243   6.416  10.019  1.00  0.00    -0.237 OA
ATOM     72  O   UNL     1      16.548   6.181  10.851  1.00  0.00    -0.237 OA
ATOM     73  O   UNL     1      16.144   6.474   8.446  1.00  0.00    -0.744 OA
ENDBRANCH  67  70
ENDBRANCH  49  63
BRANCH  50  74
ATOM     74  C   UNL     1      16.117  -2.668  -0.352  1.00  0.00     0.023 A 
ATOM     75  C   UNL     1      16.936  -3.807  -0.479  1.00  0.00     0.012 A 
ATOM     76  C   UNL     1      15.389  -2.216  -1.470  1.00  0.00     0.148 A 
ATOM     77  C   UNL     1      17.049  -4.467  -1.703  1.00  0.00     0.002 A 
ATOM     78  C   UNL     1      15.464  -2.911  -2.671  1.00  0.00     0.091 A 
ATOM     79  F   UNL     1      14.630  -1.120  -1.332  1.00  0.00    -0.205 F 
ATOM     80  C   UNL     1      16.306  -4.027  -2.795  1.00  0.00     0.022 A 
BRANCH  78  81
ATOM     81  S   UNL     1      14.445  -2.494  -4.091  1.00  0.00     0.127 S 
ATOM     82  O   UNL     1      15.435  -1.961  -5.023  1.00  0.00    -0.237 OA
ATOM     83  O   UNL     1      13.891  -3.797  -4.457  1.00  0.00    -0.237 OA
ATOM     84  O   UNL     1      13.460  -1.540  -3.600  1.00  0.00    -0.744 OA
ENDBRANCH  78  81
ENDBRANCH  50  74
BRANCH  62  85
ATOM     85  C   UNL     1      20.727   0.809   3.579  1.00  0.00     0.023 A 
ATOM     86  C   UNL     1      21.117   1.795   2.651  1.00  0.00     0.012 A 
ATOM     87  C   UNL     1      21.705   0.196   4.388  1.00  0.00     0.148 A 
ATOM     88  C   UNL     1      22.461   2.142   2.508  1.00  0.00     0.002 A 
ATOM     89  C   UNL     1      23.036   0.583   4.274  1.00  0.00     0.091 A 
ATOM     90  F   UNL     1      21.317  -0.752   5.253  1.00  0.00    -0.205 F 
ATOM     91  C   UNL     1      23.417   1.546   3.327  1.00  0.00     0.022 A 
BRANCH  89  92
ATOM     92  S   UNL     1      24.320  -0.060   5.355  1.00  0.00     0.127 S 
ATOM     93  O   UNL     1      25.046  -0.956   4.455  1.00  0.00    -0.237 OA
ATOM     94  O   UNL     1      25.049   1.152   5.728  1.00  0.00    -0.237 OA
ATOM     95  O   UNL     1      23.625  -0.710   6.459  1.00  0.00    -0.744 OA
ENDBRANCH  89  92
ENDBRANCH  62  85
ENDBRANCH  36  37
ENDBRANCH  29  31
ENDBRANCH  28  29
ENDBRANCH  27  28
ENDBRANCH   1  27
TORSDOF 19
