REMARK SMILES CCN(Cc1ccccn1)c1nc(C)cc(C)c1C(=O)OCCOCCOC(=O)c1ccc(-c2c3nc(c(-c4cccc(S(=O)(=O)[O-])c4F)c4ccc([nH]4)c(-c4cccc(S(=O)(=O)[O-])c4F)c4nc(c(-c5cccc(S(=O)(=O)[O-])c5F)c5ccc2[nH]5)C=C4)C=C3)cc1
REMARK SMILES IDX 24 1 23 2 22 3 21 4 19 5 20 6 18 7 11 8 12 9 13 10 16 11
REMARK SMILES IDX 14 12 15 13 17 14 3 15 2 16 1 17 4 18 5 19 6 20 10 21 7 22
REMARK SMILES IDX 9 23 8 24 25 25 26 26 27 27 28 28 29 29 30 30 31 31 92 32
REMARK SMILES IDX 32 33 91 34 33 35 34 36 35 37 85 38 36 39 90 40 84 41 86 42
REMARK SMILES IDX 37 43 89 44 83 45 82 46 38 48 70 49 50 50 69 51 51 52 54 53
REMARK SMILES IDX 68 54 87 55 52 56 53 57 67 59 88 60 55 61 39 62 40 63 48 64
REMARK SMILES IDX 41 65 43 66 49 67 42 68 44 69 45 70 46 71 47 72 71 73 72 74
REMARK SMILES IDX 80 75 73 76 75 77 81 78 74 79 76 80 77 81 78 82 79 83 56 84
REMARK SMILES IDX 57 85 65 86 58 87 60 88 66 89 59 90 61 91 62 92 63 93 64 94
REMARK H PARENT 86 47 54 58
REMARK Flexibility Score: inf
ROOT
ATOM      1  O   UNL     1       1.401   1.036   1.915  1.00  0.00    -0.374 OA
ENDROOT
BRANCH   1   2
ATOM      2  C   UNL     1       2.221   0.087   2.608  1.00  0.00     0.202 C 
BRANCH   2   3
ATOM      3  C   UNL     1       2.385  -1.296   1.976  1.00  0.00     0.261 C 
BRANCH   3   4
ATOM      4  O   UNL     1       3.099  -1.153   0.742  1.00  0.00    -0.460 OA
BRANCH   4   5
ATOM      5  C   UNL     1       2.687  -1.945  -0.273  1.00  0.00     0.342 C 
ATOM      6  O   UNL     1       1.930  -2.897  -0.186  1.00  0.00    -0.246 OA
BRANCH   5   7
ATOM      7  C   UNL     1       3.248  -1.424  -1.536  1.00  0.00     0.105 A 
ATOM      8  C   UNL     1       2.391  -1.214  -2.629  1.00  0.00     0.144 A 
ATOM      9  N   UNL     1       2.921  -1.007  -3.857  1.00  0.00    -0.235 NA
ATOM     10  C   UNL     1       4.260  -1.000  -4.037  1.00  0.00     0.040 A 
ATOM     11  C   UNL     1       4.649  -1.296  -1.695  1.00  0.00    -0.031 A 
ATOM     12  C   UNL     1       4.739  -0.954  -5.455  1.00  0.00     0.067 C 
ATOM     13  C   UNL     1       5.149  -1.081  -2.980  1.00  0.00     0.028 A 
ATOM     14  C   UNL     1       5.625  -1.387  -0.553  1.00  0.00     0.045 C 
BRANCH   8  15
ATOM     15  N   UNL     1       1.004  -1.182  -2.554  1.00  0.00    -0.350 N 
BRANCH  15  16
ATOM     16  C   UNL     1       0.310  -0.080  -1.901  1.00  0.00     0.115 C 
ATOM     17  C   UNL     1      -0.408  -0.519  -0.635  1.00  0.00     0.027 C 
ENDBRANCH  15  16
BRANCH  15  18
ATOM     18  C   UNL     1       0.260  -1.962  -3.553  1.00  0.00     0.174 C 
BRANCH  18  19
ATOM     19  C   UNL     1       0.316  -1.476  -4.997  1.00  0.00     0.060 A 
ATOM     20  C   UNL     1       0.258  -0.122  -5.337  1.00  0.00     0.026 A 
ATOM     21  N   UNL     1       0.394  -2.443  -5.950  1.00  0.00    -0.259 NA
ATOM     22  C   UNL     1       0.343   0.253  -6.675  1.00  0.00     0.004 A 
ATOM     23  C   UNL     1       0.498  -2.050  -7.236  1.00  0.00     0.111 A 
ATOM     24  C   UNL     1       0.478  -0.729  -7.645  1.00  0.00     0.020 A 
ENDBRANCH  18  19
ENDBRANCH  15  18
ENDBRANCH   8  15
ENDBRANCH   5   7
ENDBRANCH   4   5
ENDBRANCH   3   4
ENDBRANCH   2   3
ENDBRANCH   1   2
BRANCH   1  25
ATOM     25  C   UNL     1       1.873   1.548   0.672  1.00  0.00     0.202 C 
BRANCH  25  26
ATOM     26  C   UNL     1       2.902   2.679   0.653  1.00  0.00     0.261 C 
BRANCH  26  27
ATOM     27  O   UNL     1       3.981   2.471   1.552  1.00  0.00    -0.460 OA
BRANCH  27  28
ATOM     28  C   UNL     1       3.752   2.985   2.783  1.00  0.00     0.338 C 
ATOM     29  O   UNL     1       2.790   3.637   3.156  1.00  0.00    -0.246 OA
BRANCH  28  30
ATOM     30  C   UNL     1       4.789   2.470   3.679  1.00  0.00     0.060 A 
ATOM     31  C   UNL     1       4.378   1.847   4.863  1.00  0.00     0.016 A 
ATOM     32  C   UNL     1       6.139   2.597   3.349  1.00  0.00     0.016 A 
ATOM     33  C   UNL     1       5.331   1.391   5.760  1.00  0.00     0.010 A 
ATOM     34  C   UNL     1       7.094   2.149   4.252  1.00  0.00     0.010 A 
ATOM     35  C   UNL     1       6.687   1.589   5.474  1.00  0.00    -0.014 A 
BRANCH  35  36
ATOM     36  C   UNL     1       7.683   1.385   6.538  1.00  0.00     0.031 A 
ATOM     37  C   UNL     1       8.192   2.594   7.265  1.00  0.00     0.074 A 
ATOM     38  C   UNL     1       8.121   0.149   6.822  1.00  0.00     0.049 A 
ATOM     39  N   UNL     1       9.106   2.675   8.191  1.00  0.00    -0.248 NA
ATOM     40  C   UNL     1       7.598   3.890   6.887  1.00  0.00     0.031 C 
ATOM     41  C   UNL     1       7.673  -1.077   6.161  1.00  0.00     0.029 A 
ATOM     42  N   UNL     1       9.062  -0.272   7.720  1.00  0.00    -0.354 N 
ATOM     43  C   UNL     1       9.225   4.029   8.481  1.00  0.00     0.074 A 
ATOM     44  C   UNL     1       8.300   4.736   7.625  1.00  0.00     0.031 C 
ATOM     45  C   UNL     1       8.365  -2.115   6.660  1.00  0.00     0.029 A 
ATOM     46  C   UNL     1       9.320  -1.619   7.647  1.00  0.00     0.049 A 
ATOM     47  H   UNL     1       9.510   0.331   8.357  1.00  0.00     0.167 HD
ATOM     48  C   UNL     1      10.031   4.623   9.389  1.00  0.00     0.034 A 
ATOM     49  C   UNL     1      10.247  -2.353   8.290  1.00  0.00     0.034 A 
ATOM     50  C   UNL     1      10.934   3.895  10.236  1.00  0.00     0.049 A 
ATOM     51  C   UNL     1      11.142  -1.664   9.284  1.00  0.00     0.074 A 
ATOM     52  C   UNL     1      11.764   4.379  11.229  1.00  0.00     0.029 A 
ATOM     53  N   UNL     1      11.139   2.524  10.172  1.00  0.00    -0.354 N 
ATOM     54  N   UNL     1      11.171  -0.399   9.632  1.00  0.00    -0.248 NA
ATOM     55  C   UNL     1      12.110  -2.506   9.999  1.00  0.00     0.031 C 
ATOM     56  C   UNL     1      12.501   3.305  11.738  1.00  0.00     0.029 A 
ATOM     57  C   UNL     1      12.095   2.145  11.096  1.00  0.00     0.049 A 
ATOM     58  H   UNL     1      10.672   1.911   9.559  1.00  0.00     0.167 HD
ATOM     59  C   UNL     1      12.129  -0.299  10.633  1.00  0.00     0.074 A 
ATOM     60  C   UNL     1      12.645  -1.637  10.846  1.00  0.00     0.031 C 
ATOM     61  C   UNL     1      12.554   0.796  11.312  1.00  0.00     0.034 A 
BRANCH  48  62
ATOM     62  C   UNL     1       9.967   6.122   9.509  1.00  0.00     0.023 A 
ATOM     63  C   UNL     1       8.825   6.740  10.060  1.00  0.00     0.012 A 
ATOM     64  C   UNL     1      11.057   6.919   9.109  1.00  0.00     0.148 A 
ATOM     65  C   UNL     1       8.756   8.128  10.178  1.00  0.00     0.002 A 
ATOM     66  C   UNL     1      11.001   8.297   9.276  1.00  0.00     0.091 A 
ATOM     67  F   UNL     1      12.122   6.316   8.562  1.00  0.00    -0.205 F 
ATOM     68  C   UNL     1       9.847   8.905   9.797  1.00  0.00     0.022 A 
BRANCH  66  69
ATOM     69  S   UNL     1      12.383   9.377   8.889  1.00  0.00     0.127 S 
ATOM     70  O   UNL     1      11.862  10.125   7.745  1.00  0.00    -0.237 OA
ATOM     71  O   UNL     1      12.514  10.157  10.119  1.00  0.00    -0.237 OA
ATOM     72  O   UNL     1      13.510   8.502   8.599  1.00  0.00    -0.744 OA
ENDBRANCH  66  69
ENDBRANCH  48  62
BRANCH  49  73
ATOM     73  C   UNL     1      10.350  -3.815   8.032  1.00  0.00     0.023 A 
ATOM     74  C   UNL     1       9.988  -4.727   9.041  1.00  0.00     0.012 A 
ATOM     75  C   UNL     1      10.777  -4.306   6.783  1.00  0.00     0.148 A 
ATOM     76  C   UNL     1      10.081  -6.102   8.823  1.00  0.00     0.002 A 
ATOM     77  C   UNL     1      10.815  -5.676   6.553  1.00  0.00     0.091 A 
ATOM     78  F   UNL     1      11.125  -3.420   5.838  1.00  0.00    -0.205 F 
ATOM     79  C   UNL     1      10.485  -6.576   7.577  1.00  0.00     0.022 A 
BRANCH  77  80
ATOM     80  S   UNL     1      11.199  -6.372   4.943  1.00  0.00     0.127 S 
ATOM     81  O   UNL     1      12.493  -7.003   5.191  1.00  0.00    -0.237 OA
ATOM     82  O   UNL     1      10.086  -7.301   4.745  1.00  0.00    -0.237 OA
ATOM     83  O   UNL     1      11.213  -5.246   4.019  1.00  0.00    -0.744 OA
ENDBRANCH  77  80
ENDBRANCH  49  73
BRANCH  61  84
ATOM     84  C   UNL     1      13.592   0.588  12.383  1.00  0.00     0.023 A 
ATOM     85  C   UNL     1      14.920   0.278  12.030  1.00  0.00     0.012 A 
ATOM     86  C   UNL     1      13.259   0.774  13.739  1.00  0.00     0.148 A 
ATOM     87  C   UNL     1      15.893   0.119  13.015  1.00  0.00     0.002 A 
ATOM     88  C   UNL     1      14.246   0.671  14.709  1.00  0.00     0.091 A 
ATOM     89  F   UNL     1      11.985   1.054  14.052  1.00  0.00    -0.205 F 
ATOM     90  C   UNL     1      15.559   0.328  14.351  1.00  0.00     0.022 A 
BRANCH  88  91
ATOM     91  S   UNL     1      13.932   1.027  16.441  1.00  0.00     0.127 S 
ATOM     92  O   UNL     1      14.025  -0.304  17.039  1.00  0.00    -0.237 OA
ATOM     93  O   UNL     1      15.037   1.926  16.776  1.00  0.00    -0.237 OA
ATOM     94  O   UNL     1      12.613   1.644  16.494  1.00  0.00    -0.744 OA
ENDBRANCH  88  91
ENDBRANCH  61  84
ENDBRANCH  35  36
ENDBRANCH  28  30
ENDBRANCH  27  28
ENDBRANCH  26  27
ENDBRANCH  25  26
ENDBRANCH   1  25
TORSDOF 21
