REMARK SMILES N#C/C(=C/c1ccc(-c2cc(C(=O)OCCOCCOC(=O)c3ccc(-c4c5nc(c(-c6cccc(S(=O)(=O)[O-])c6F)c6ccc([nH]6)c(-c6cccc(S(=O)(=O)[O-])c6F)c6nc(c(-c7cccc(S(=O)(=O)[O-])c7F)c7ccc4[nH]7)C=C6)C=C5)cc3)ccc2Cl)o1)C(=O)NCCc1c[nH]c2ccccc12
REMARK SMILES IDX 15 1 14 2 12 3 13 4 11 5 9 6 10 7 88 8 87 9 89 10 86 11 8 12
REMARK SMILES IDX 5 13 6 14 90 15 7 16 4 17 3 18 2 19 1 20 91 21 92 22 93 23
REMARK SMILES IDX 94 25 95 26 96 27 97 28 104 29 98 30 99 31 103 32 100 34
REMARK SMILES IDX 102 35 101 36 16 37 17 38 18 39 19 40 20 41 21 42 22 43
REMARK SMILES IDX 23 44 24 45 85 46 25 47 84 48 26 49 27 50 28 51 78 52 29 53
REMARK SMILES IDX 83 54 77 55 79 56 30 57 82 58 76 59 75 60 31 62 63 63 43 64
REMARK SMILES IDX 62 65 44 66 47 67 61 68 80 69 45 70 46 71 60 73 81 74 48 75
REMARK SMILES IDX 32 76 33 77 41 78 34 79 36 80 42 81 35 82 37 83 38 84 39 85
REMARK SMILES IDX 40 86 64 87 65 88 73 89 66 90 68 91 74 92 67 93 69 94 70 95
REMARK SMILES IDX 71 96 72 97 49 98 50 99 58 100 51 101 53 102 59 103 52 104
REMARK SMILES IDX 54 105 55 106 56 107 57 108
REMARK H PARENT 93 24 98 33 79 61 47 72
REMARK Flexibility Score: inf
ROOT
ATOM      1  C   UNL     1      11.935  -6.725   1.720  1.00  0.00     0.261 C 
ENDROOT
BRANCH   1   2
ATOM      2  O   UNL     1      11.821  -5.338   2.119  1.00  0.00    -0.460 OA
BRANCH   2   3
ATOM      3  C   UNL     1      11.046  -4.530   1.338  1.00  0.00     0.338 C 
ATOM      4  O   UNL     1      10.522  -4.852   0.281  1.00  0.00    -0.246 OA
BRANCH   3   5
ATOM      5  C   UNL     1      10.692  -3.248   2.062  1.00  0.00     0.060 A 
ATOM      6  C   UNL     1       9.159  -1.286   2.379  1.00  0.00     0.037 A 
ATOM      7  C   UNL     1       9.431  -2.580   1.848  1.00  0.00     0.029 A 
ATOM      8  C   UNL     1      10.224  -0.705   3.117  1.00  0.00     0.052 A 
ATOM      9  C   UNL     1      11.409  -1.407   3.415  1.00  0.00     0.022 A 
ATOM     10  Cl  UNL     1      10.207   0.945   3.662  1.00  0.00    -0.084 Cl
ATOM     11  C   UNL     1      11.633  -2.686   2.921  1.00  0.00     0.017 A 
BRANCH   6  12
ATOM     12  C   UNL     1       7.962  -0.443   2.021  1.00  0.00     0.136 A 
ATOM     13  C   UNL     1       5.762   0.101   1.562  1.00  0.00     0.129 A 
ATOM     14  C   UNL     1       6.569   1.210   1.304  1.00  0.00     0.051 A 
ATOM     15  O   UNL     1       6.640  -0.878   2.146  1.00  0.00    -0.457 OA
ATOM     16  C   UNL     1       7.924   0.829   1.478  1.00  0.00     0.051 A 
BRANCH  13  17
ATOM     17  C   UNL     1       4.363  -0.110   1.171  1.00  0.00     0.072 C 
ATOM     18  C   UNL     1       3.781  -0.054  -0.084  1.00  0.00     0.120 C 
BRANCH  18  19
ATOM     19  C   UNL     1       2.261  -0.054  -0.084  1.00  0.00     0.105 C 
ATOM     20  N   UNL     1       1.000  -0.054  -0.084  1.00  0.00    -0.192 NA
ENDBRANCH  18  19
BRANCH  18  21
ATOM     21  C   UNL     1       4.400   0.179  -1.373  1.00  0.00     0.262 C 
ATOM     22  O   UNL     1       3.721   0.624  -2.295  1.00  0.00    -0.268 OA
ATOM     23  N   UNL     1       5.742   0.150  -1.482  1.00  0.00    -0.351 N 
ATOM     24  H   UNL     1       6.112   0.899  -2.004  1.00  0.00     0.163 HD
BRANCH  23  25
ATOM     25  C   UNL     1       6.787  -0.796  -0.967  1.00  0.00     0.121 C 
BRANCH  25  26
ATOM     26  C   UNL     1       7.273  -2.060  -1.774  1.00  0.00     0.059 C 
BRANCH  26  27
ATOM     27  C   UNL     1       7.625  -1.919  -3.348  1.00  0.00    -0.021 A 
ATOM     28  C   UNL     1       8.408  -0.787  -3.603  1.00  0.00     0.087 A 
ATOM     29  C   UNL     1       6.715  -1.744  -4.535  1.00  0.00     0.003 A 
ATOM     30  N   UNL     1       7.292   0.091  -3.545  1.00  0.00    -0.361 N 
ATOM     31  C   UNL     1       6.338  -0.418  -4.394  1.00  0.00     0.046 A 
ATOM     32  C   UNL     1       6.513  -2.120  -5.891  1.00  0.00     0.010 A 
ATOM     33  H   UNL     1       7.217   0.908  -3.001  1.00  0.00     0.166 HD
ATOM     34  C   UNL     1       5.201   0.177  -4.901  1.00  0.00     0.026 A 
ATOM     35  C   UNL     1       5.524  -1.404  -6.647  1.00  0.00     0.001 A 
ATOM     36  C   UNL     1       4.778  -0.362  -6.089  1.00  0.00     0.002 A 
ENDBRANCH  26  27
ENDBRANCH  25  26
ENDBRANCH  23  25
ENDBRANCH  18  21
ENDBRANCH  13  17
ENDBRANCH   6  12
ENDBRANCH   3   5
ENDBRANCH   2   3
ENDBRANCH   1   2
BRANCH   1  37
ATOM     37  C   UNL     1      10.849  -7.651   2.296  1.00  0.00     0.202 C 
BRANCH  37  38
ATOM     38  O   UNL     1       9.464  -7.339   2.256  1.00  0.00    -0.374 OA
BRANCH  38  39
ATOM     39  C   UNL     1       9.038  -6.194   2.981  1.00  0.00     0.202 C 
BRANCH  39  40
ATOM     40  C   UNL     1       9.167  -6.052   4.507  1.00  0.00     0.261 C 
BRANCH  40  41
ATOM     41  O   UNL     1      10.455  -6.380   5.056  1.00  0.00    -0.460 OA
BRANCH  41  42
ATOM     42  C   UNL     1      10.595  -7.702   5.383  1.00  0.00     0.338 C 
ATOM     43  O   UNL     1       9.763  -8.559   5.284  1.00  0.00    -0.246 OA
BRANCH  42  44
ATOM     44  C   UNL     1      12.023  -7.994   5.684  1.00  0.00     0.060 A 
ATOM     45  C   UNL     1      12.738  -8.933   4.918  1.00  0.00     0.016 A 
ATOM     46  C   UNL     1      12.569  -7.463   6.843  1.00  0.00     0.016 A 
ATOM     47  C   UNL     1      13.954  -9.423   5.382  1.00  0.00     0.010 A 
ATOM     48  C   UNL     1      13.793  -7.945   7.297  1.00  0.00     0.010 A 
ATOM     49  C   UNL     1      14.474  -8.954   6.595  1.00  0.00    -0.014 A 
BRANCH  49  50
ATOM     50  C   UNL     1      15.727  -9.520   7.141  1.00  0.00     0.031 A 
ATOM     51  C   UNL     1      15.726 -10.268   8.438  1.00  0.00     0.074 A 
ATOM     52  C   UNL     1      16.880  -9.340   6.471  1.00  0.00     0.049 A 
ATOM     53  N   UNL     1      16.739 -10.805   9.062  1.00  0.00    -0.248 NA
ATOM     54  C   UNL     1      14.435 -10.432   9.124  1.00  0.00     0.031 C 
ATOM     55  C   UNL     1      16.997  -8.628   5.201  1.00  0.00     0.029 A 
ATOM     56  N   UNL     1      18.163  -9.724   6.764  1.00  0.00    -0.354 N 
ATOM     57  C   UNL     1      16.221 -11.344  10.229  1.00  0.00     0.074 A 
ATOM     58  C   UNL     1      14.804 -11.046  10.238  1.00  0.00     0.031 C 
ATOM     59  C   UNL     1      18.277  -8.644   4.809  1.00  0.00     0.029 A 
ATOM     60  C   UNL     1      19.081  -9.303   5.832  1.00  0.00     0.049 A 
ATOM     61  H   UNL     1      18.403 -10.249   7.561  1.00  0.00     0.167 HD
ATOM     62  C   UNL     1      16.875 -12.026  11.197  1.00  0.00     0.034 A 
ATOM     63  C   UNL     1      20.424  -9.392   5.811  1.00  0.00     0.034 A 
ATOM     64  C   UNL     1      18.288 -12.279  11.192  1.00  0.00     0.049 A 
ATOM     65  C   UNL     1      21.132 -10.070   6.941  1.00  0.00     0.074 A 
ATOM     66  C   UNL     1      19.023 -12.987  12.125  1.00  0.00     0.029 A 
ATOM     67  N   UNL     1      19.187 -11.787  10.261  1.00  0.00    -0.354 N 
ATOM     68  N   UNL     1      20.615 -10.635   8.001  1.00  0.00    -0.248 NA
ATOM     69  C   UNL     1      22.598 -10.142   6.869  1.00  0.00     0.031 C 
ATOM     70  C   UNL     1      20.373 -12.835  11.819  1.00  0.00     0.029 A 
ATOM     71  C   UNL     1      20.473 -12.140  10.626  1.00  0.00     0.049 A 
ATOM     72  H   UNL     1      18.947 -11.266   9.461  1.00  0.00     0.167 HD
ATOM     73  C   UNL     1      21.684 -11.164   8.707  1.00  0.00     0.074 A 
ATOM     74  C   UNL     1      22.879 -10.863   7.945  1.00  0.00     0.031 C 
ATOM     75  C   UNL     1      21.664 -11.845   9.877  1.00  0.00     0.034 A 
BRANCH  62  76
ATOM     76  C   UNL     1      16.079 -12.475  12.389  1.00  0.00     0.023 A 
ATOM     77  C   UNL     1      15.026 -13.400  12.255  1.00  0.00     0.012 A 
ATOM     78  C   UNL     1      16.394 -11.963  13.663  1.00  0.00     0.148 A 
ATOM     79  C   UNL     1      14.236 -13.729  13.355  1.00  0.00     0.002 A 
ATOM     80  C   UNL     1      15.650 -12.346  14.764  1.00  0.00     0.091 A 
ATOM     81  F   UNL     1      17.415 -11.101  13.771  1.00  0.00    -0.205 F 
ATOM     82  C   UNL     1      14.553 -13.209  14.610  1.00  0.00     0.022 A 
BRANCH  80  83
ATOM     83  S   UNL     1      16.012 -11.740  16.412  1.00  0.00     0.127 S 
ATOM     84  O   UNL     1      14.796 -10.985  16.714  1.00  0.00    -0.237 OA
ATOM     85  O   UNL     1      16.165 -12.982  17.168  1.00  0.00    -0.237 OA
ATOM     86  O   UNL     1      17.221 -10.937  16.298  1.00  0.00    -0.744 OA
ENDBRANCH  80  83
ENDBRANCH  62  76
BRANCH  63  87
ATOM     87  C   UNL     1      21.183  -8.770   4.697  1.00  0.00     0.023 A 
ATOM     88  C   UNL     1      21.925  -9.559   3.800  1.00  0.00     0.012 A 
ATOM     89  C   UNL     1      21.155  -7.372   4.534  1.00  0.00     0.148 A 
ATOM     90  C   UNL     1      22.653  -8.957   2.774  1.00  0.00     0.002 A 
ATOM     91  C   UNL     1      21.831  -6.785   3.479  1.00  0.00     0.091 A 
ATOM     92  F   UNL     1      20.437  -6.649   5.405  1.00  0.00    -0.205 F 
ATOM     93  C   UNL     1      22.593  -7.573   2.603  1.00  0.00     0.022 A 
BRANCH  91  94
ATOM     94  S   UNL     1      21.760  -5.019   3.176  1.00  0.00     0.127 S 
ATOM     95  O   UNL     1      23.167  -4.643   3.296  1.00  0.00    -0.237 OA
ATOM     96  O   UNL     1      21.218  -4.971   1.819  1.00  0.00    -0.237 OA
ATOM     97  O   UNL     1      20.881  -4.471   4.200  1.00  0.00    -0.744 OA
ENDBRANCH  91  94
ENDBRANCH  63  87
BRANCH  75  98
ATOM     98  C   UNL     1      22.965 -12.396  10.390  1.00  0.00     0.023 A 
ATOM     99  C   UNL     1      24.010 -11.541  10.785  1.00  0.00     0.012 A 
ATOM    100  C   UNL     1      23.130 -13.791  10.505  1.00  0.00     0.148 A 
ATOM    101  C   UNL     1      25.230 -12.070  11.204  1.00  0.00     0.002 A 
ATOM    102  C   UNL     1      24.319 -14.310  10.988  1.00  0.00     0.091 A 
ATOM    103  F   UNL     1      22.112 -14.587  10.146  1.00  0.00    -0.205 F 
ATOM    104  C   UNL     1      25.380 -13.452  11.316  1.00  0.00     0.022 A 
BRANCH 102 105
ATOM    105  S   UNL     1      24.577 -16.074  11.190  1.00  0.00     0.127 S 
ATOM    106  O   UNL     1      25.667 -16.319  10.245  1.00  0.00    -0.237 OA
ATOM    107  O   UNL     1      24.954 -16.171  12.599  1.00  0.00    -0.237 OA
ATOM    108  O   UNL     1      23.315 -16.716  10.848  1.00  0.00    -0.744 OA
ENDBRANCH 102 105
ENDBRANCH  75  98
ENDBRANCH  49  50
ENDBRANCH  42  44
ENDBRANCH  41  42
ENDBRANCH  40  41
ENDBRANCH  39  40
ENDBRANCH  38  39
ENDBRANCH  37  38
ENDBRANCH   1  37
TORSDOF 24
