REMARK SMILES O=C(C[C@H](C(=O)Nc1ccc([N+](=O)[O-])cc1)[C@H]1CCCO1)OCCOCCOC(=O)c1ccc(-c2c3nc(c(-c4cccc(S(=O)(=O)[O-])c4F)c4ccc([nH]4)c(-c4cccc(S(=O)(=O)[O-])c4F)c4nc(c(-c5cccc(S(=O)(=O)[O-])c5F)c5ccc2[nH]5)C=C4)C=C3)cc1
REMARK SMILES IDX 24 1 23 2 22 3 2 4 1 5 3 6 4 7 5 8 6 9 7 10 8 12 9 13 16 14
REMARK SMILES IDX 10 15 15 16 11 17 12 18 13 19 14 20 17 21 18 22 21 23 19 24
REMARK SMILES IDX 20 25 25 26 26 27 27 28 28 29 29 30 30 31 31 32 32 33 93 34
REMARK SMILES IDX 33 35 92 36 34 37 35 38 36 39 86 40 37 41 91 42 85 43 87 44
REMARK SMILES IDX 38 45 90 46 84 47 83 48 39 50 71 51 51 52 70 53 52 54 55 55
REMARK SMILES IDX 69 56 88 57 53 58 54 59 68 61 89 62 56 63 40 64 41 65 49 66
REMARK SMILES IDX 42 67 44 68 50 69 43 70 45 71 46 72 47 73 48 74 72 75 73 76
REMARK SMILES IDX 81 77 74 78 76 79 82 80 75 81 77 82 78 83 79 84 80 85 57 86
REMARK SMILES IDX 58 87 66 88 59 89 61 90 67 91 60 92 62 93 63 94 64 95 65 96
REMARK H PARENT 7 11 87 49 55 60
REMARK Flexibility Score: inf
ROOT
ATOM      1  C   UNL     1       7.081  -2.744   1.290  1.00  0.00     0.202 C 
ENDROOT
BRANCH   1   2
ATOM      2  C   UNL     1       5.970  -3.440   0.512  1.00  0.00     0.261 C 
BRANCH   2   3
ATOM      3  O   UNL     1       6.403  -4.368  -0.477  1.00  0.00    -0.463 OA
BRANCH   3   4
ATOM      4  C   UNL     1       6.744  -4.027  -1.735  1.00  0.00     0.306 C 
ATOM      5  O   UNL     1       7.151  -4.909  -2.495  1.00  0.00    -0.252 OA
BRANCH   4   6
ATOM      6  C   UNL     1       6.790  -2.579  -2.183  1.00  0.00     0.139 C 
BRANCH   6   7
ATOM      7  C   UNL     1       5.514  -1.711  -2.266  1.00  0.00     0.119 C 
BRANCH   7   8
ATOM      8  C   UNL     1       5.501  -0.693  -1.091  1.00  0.00     0.230 C 
ATOM      9  O   UNL     1       6.561  -0.109  -0.813  1.00  0.00    -0.274 OA
ATOM     10  N   UNL     1       4.434  -0.256  -0.364  1.00  0.00    -0.326 N 
ATOM     11  H   UNL     1       4.661   0.308   0.410  1.00  0.00     0.169 HD
BRANCH  10  12
ATOM     12  C   UNL     1       3.075  -0.484  -0.546  1.00  0.00     0.041 A 
ATOM     13  C   UNL     1       2.305   0.580  -1.017  1.00  0.00     0.033 A 
ATOM     14  C   UNL     1       2.498  -1.734  -0.331  1.00  0.00     0.033 A 
ATOM     15  C   UNL     1       1.023   0.332  -1.504  1.00  0.00     0.088 A 
ATOM     16  C   UNL     1       1.219  -1.998  -0.822  1.00  0.00     0.088 A 
ATOM     17  C   UNL     1       0.518  -0.975  -1.468  1.00  0.00     0.269 A 
BRANCH  17  18
ATOM     18  N   UNL     1      -0.692  -1.294  -2.224  1.00  0.00     0.062 N 
ATOM     19  O   UNL     1      -1.462  -0.360  -2.494  1.00  0.00    -0.258 OA
ATOM     20  O   UNL     1      -0.838  -2.464  -2.603  1.00  0.00    -0.258 OA
ENDBRANCH  17  18
ENDBRANCH  10  12
ENDBRANCH   7   8
BRANCH   7  21
ATOM     21  C   UNL     1       4.268  -2.458  -2.755  1.00  0.00     0.131 C 
ATOM     22  C   UNL     1       4.329  -2.965  -4.198  1.00  0.00     0.035 C 
ATOM     23  O   UNL     1       3.999  -3.598  -1.935  1.00  0.00    -0.377 OA
ATOM     24  C   UNL     1       4.372  -4.467  -4.091  1.00  0.00     0.031 C 
ATOM     25  C   UNL     1       3.730  -4.740  -2.754  1.00  0.00     0.160 C 
ENDBRANCH   7  21
ENDBRANCH   6   7
ENDBRANCH   4   6
ENDBRANCH   3   4
ENDBRANCH   2   3
ENDBRANCH   1   2
BRANCH   1  26
ATOM     26  O   UNL     1       8.296  -2.422   0.631  1.00  0.00    -0.374 OA
BRANCH  26  27
ATOM     27  C   UNL     1       9.194  -3.482   0.300  1.00  0.00     0.202 C 
BRANCH  27  28
ATOM     28  C   UNL     1      10.008  -4.117   1.429  1.00  0.00     0.261 C 
BRANCH  28  29
ATOM     29  O   UNL     1       9.178  -4.789   2.383  1.00  0.00    -0.460 OA
BRANCH  29  30
ATOM     30  C   UNL     1       8.982  -4.107   3.534  1.00  0.00     0.338 C 
ATOM     31  O   UNL     1       9.482  -3.036   3.855  1.00  0.00    -0.246 OA
BRANCH  30  32
ATOM     32  C   UNL     1       7.874  -4.727   4.279  1.00  0.00     0.060 A 
ATOM     33  C   UNL     1       6.867  -3.883   4.773  1.00  0.00     0.016 A 
ATOM     34  C   UNL     1       7.856  -6.098   4.537  1.00  0.00     0.016 A 
ATOM     35  C   UNL     1       5.892  -4.392   5.618  1.00  0.00     0.010 A 
ATOM     36  C   UNL     1       6.887  -6.606   5.397  1.00  0.00     0.010 A 
ATOM     37  C   UNL     1       5.955  -5.738   5.993  1.00  0.00    -0.014 A 
BRANCH  37  38
ATOM     38  C   UNL     1       5.252  -6.165   7.218  1.00  0.00     0.031 A 
ATOM     39  C   UNL     1       6.047  -6.218   8.493  1.00  0.00     0.074 A 
ATOM     40  C   UNL     1       3.949  -6.484   7.193  1.00  0.00     0.049 A 
ATOM     41  N   UNL     1       5.680  -6.599   9.686  1.00  0.00    -0.248 NA
ATOM     42  C   UNL     1       7.456  -5.791   8.406  1.00  0.00     0.031 C 
ATOM     43  C   UNL     1       3.090  -6.440   6.012  1.00  0.00     0.029 A 
ATOM     44  N   UNL     1       3.131  -6.931   8.195  1.00  0.00    -0.354 N 
ATOM     45  C   UNL     1       6.819  -6.505  10.477  1.00  0.00     0.074 A 
ATOM     46  C   UNL     1       7.893  -6.042   9.630  1.00  0.00     0.031 C 
ATOM     47  C   UNL     1       1.864  -6.870   6.354  1.00  0.00     0.029 A 
ATOM     48  C   UNL     1       1.866  -7.244   7.766  1.00  0.00     0.049 A 
ATOM     49  H   UNL     1       3.422  -7.020   9.132  1.00  0.00     0.167 HD
ATOM     50  C   UNL     1       6.955  -6.774  11.796  1.00  0.00     0.034 A 
ATOM     51  C   UNL     1       0.838  -7.790   8.443  1.00  0.00     0.034 A 
ATOM     52  C   UNL     1       5.871  -7.220  12.626  1.00  0.00     0.049 A 
ATOM     53  C   UNL     1       1.016  -8.097   9.907  1.00  0.00     0.074 A 
ATOM     54  C   UNL     1       5.874  -7.477  13.984  1.00  0.00     0.029 A 
ATOM     55  N   UNL     1       4.590  -7.490  12.167  1.00  0.00    -0.354 N 
ATOM     56  N   UNL     1       2.068  -7.913  10.669  1.00  0.00    -0.248 NA
ATOM     57  C   UNL     1      -0.147  -8.652  10.612  1.00  0.00     0.031 C 
ATOM     58  C   UNL     1       4.604  -7.943  14.338  1.00  0.00     0.029 A 
ATOM     59  C   UNL     1       3.795  -7.926  13.211  1.00  0.00     0.049 A 
ATOM     60  H   UNL     1       4.291  -7.388  11.235  1.00  0.00     0.167 HD
ATOM     61  C   UNL     1       1.681  -8.282  11.952  1.00  0.00     0.074 A 
ATOM     62  C   UNL     1       0.294  -8.693  11.862  1.00  0.00     0.031 C 
ATOM     63  C   UNL     1       2.403  -8.283  13.101  1.00  0.00     0.034 A 
BRANCH  50  64
ATOM     64  C   UNL     1       8.323  -6.602  12.404  1.00  0.00     0.023 A 
ATOM     65  C   UNL     1       8.881  -5.314  12.547  1.00  0.00     0.012 A 
ATOM     66  C   UNL     1       9.056  -7.722  12.843  1.00  0.00     0.148 A 
ATOM     67  C   UNL     1      10.163  -5.148  13.070  1.00  0.00     0.002 A 
ATOM     68  C   UNL     1      10.311  -7.544  13.412  1.00  0.00     0.091 A 
ATOM     69  F   UNL     1       8.525  -8.941  12.673  1.00  0.00    -0.205 F 
ATOM     70  C   UNL     1      10.873  -6.261  13.511  1.00  0.00     0.022 A 
BRANCH  68  71
ATOM     71  S   UNL     1      11.266  -8.908  14.086  1.00  0.00     0.127 S 
ATOM     72  O   UNL     1      12.341  -9.031  13.103  1.00  0.00    -0.237 OA
ATOM     73  O   UNL     1      11.685  -8.377  15.384  1.00  0.00    -0.237 OA
ATOM     74  O   UNL     1      10.353 -10.039  14.161  1.00  0.00    -0.744 OA
ENDBRANCH  68  71
ENDBRANCH  50  64
BRANCH  51  75
ATOM     75  C   UNL     1      -0.460  -8.026   7.754  1.00  0.00     0.023 A 
ATOM     76  C   UNL     1      -1.574  -7.233   8.088  1.00  0.00     0.012 A 
ATOM     77  C   UNL     1      -0.585  -9.000   6.744  1.00  0.00     0.148 A 
ATOM     78  C   UNL     1      -2.799  -7.423   7.447  1.00  0.00     0.002 A 
ATOM     79  C   UNL     1      -1.793  -9.148   6.073  1.00  0.00     0.091 A 
ATOM     80  F   UNL     1       0.488  -9.747   6.447  1.00  0.00    -0.205 F 
ATOM     81  C   UNL     1      -2.905  -8.373   6.435  1.00  0.00     0.022 A 
BRANCH  79  82
ATOM     82  S   UNL     1      -1.993 -10.255   4.673  1.00  0.00     0.127 S 
ATOM     83  O   UNL     1      -2.953 -11.225   5.194  1.00  0.00    -0.237 OA
ATOM     84  O   UNL     1      -2.522  -9.349   3.653  1.00  0.00    -0.237 OA
ATOM     85  O   UNL     1      -0.664 -10.777   4.387  1.00  0.00    -0.744 OA
ENDBRANCH  79  82
ENDBRANCH  51  75
BRANCH  63  86
ATOM     86  C   UNL     1       1.692  -8.678  14.370  1.00  0.00     0.023 A 
ATOM     87  C   UNL     1       1.317 -10.017  14.590  1.00  0.00     0.012 A 
ATOM     88  C   UNL     1       1.458  -7.719  15.376  1.00  0.00     0.148 A 
ATOM     89  C   UNL     1       0.683 -10.388  15.775  1.00  0.00     0.002 A 
ATOM     90  C   UNL     1       0.878  -8.106  16.576  1.00  0.00     0.091 A 
ATOM     91  F   UNL     1       1.806  -6.445  15.140  1.00  0.00    -0.205 F 
ATOM     92  C   UNL     1       0.474  -9.437  16.771  1.00  0.00     0.022 A 
BRANCH  90  93
ATOM     93  S   UNL     1       0.672  -6.971  17.952  1.00  0.00     0.127 S 
ATOM     94  O   UNL     1      -0.772  -6.747  17.939  1.00  0.00    -0.237 OA
ATOM     95  O   UNL     1       1.157  -7.763  19.083  1.00  0.00    -0.237 OA
ATOM     96  O   UNL     1       1.489  -5.806  17.637  1.00  0.00    -0.744 OA
ENDBRANCH  90  93
ENDBRANCH  63  86
ENDBRANCH  37  38
ENDBRANCH  30  32
ENDBRANCH  29  30
ENDBRANCH  28  29
ENDBRANCH  27  28
ENDBRANCH  26  27
ENDBRANCH   1  26
TORSDOF 22
