REMARK SMILES O=C(OCCOCCOC(=O)[C@H]1C[NH2+]CCN1c1ncc(C(F)(F)F)cc1Cl)c1ccc(-c2c3nc(c(-c4cccc(S(=O)(=O)[O-])c4F)c4ccc([nH]4)c(-c4cccc(S(=O)(=O)[O-])c4F)c4nc(c(-c5cccc(S(=O)(=O)[O-])c5F)c5ccc2[nH]5)C=C4)C=C3)cc1
REMARK SMILES IDX 5 1 4 2 3 3 2 4 1 5 29 6 30 7 91 8 31 9 90 10 32 11 33 12
REMARK SMILES IDX 34 13 84 14 35 15 89 16 83 17 85 18 36 19 88 20 82 21 81 22
REMARK SMILES IDX 37 24 69 25 49 26 68 27 50 28 53 29 67 30 86 31 51 32 52 33
REMARK SMILES IDX 66 35 87 36 54 37 38 38 39 39 47 40 40 41 42 42 48 43 41 44
REMARK SMILES IDX 43 45 44 46 45 47 46 48 70 49 71 50 79 51 72 52 74 53 80 54
REMARK SMILES IDX 73 55 75 56 76 57 77 58 78 59 55 60 56 61 64 62 57 63 59 64
REMARK SMILES IDX 65 65 58 66 60 67 61 68 62 69 63 70 6 71 7 72 8 73 9 74
REMARK SMILES IDX 10 75 11 76 12 77 13 78 17 79 14 80 16 81 15 82 18 85 19 86
REMARK SMILES IDX 27 87 20 88 26 89 28 90 21 91 22 92 23 93 24 94 25 95
REMARK H PARENT 85 23 53 34 14 83 14 84
REMARK Flexibility Score: inf
ROOT
ATOM      1  C   UNL     1       6.769   4.316  -1.897  1.00  0.00     0.202 C 
ENDROOT
BRANCH   1   2
ATOM      2  C   UNL     1       7.067   5.795  -2.238  1.00  0.00     0.261 C 
BRANCH   2   3
ATOM      3  O   UNL     1       7.690   5.994  -3.519  1.00  0.00    -0.460 OA
BRANCH   3   4
ATOM      4  C   UNL     1       9.006   6.252  -3.756  1.00  0.00     0.338 C 
ATOM      5  O   UNL     1       9.349   6.648  -4.867  1.00  0.00    -0.246 OA
BRANCH   4   6
ATOM      6  C   UNL     1      10.058   6.009  -2.724  1.00  0.00     0.060 A 
ATOM      7  C   UNL     1       9.860   5.171  -1.636  1.00  0.00     0.016 A 
ATOM      8  C   UNL     1      11.331   6.573  -2.879  1.00  0.00     0.016 A 
ATOM      9  C   UNL     1      10.819   4.907  -0.701  1.00  0.00     0.010 A 
ATOM     10  C   UNL     1      12.344   6.293  -1.950  1.00  0.00     0.010 A 
ATOM     11  C   UNL     1      12.073   5.456  -0.862  1.00  0.00    -0.014 A 
BRANCH  11  12
ATOM     12  C   UNL     1      12.971   5.200   0.262  1.00  0.00     0.031 A 
ATOM     13  C   UNL     1      13.100   6.272   1.289  1.00  0.00     0.074 A 
ATOM     14  C   UNL     1      13.397   3.940   0.465  1.00  0.00     0.049 A 
ATOM     15  N   UNL     1      13.804   6.279   2.381  1.00  0.00    -0.248 NA
ATOM     16  C   UNL     1      12.298   7.493   1.074  1.00  0.00     0.031 C 
ATOM     17  C   UNL     1      13.095   2.795  -0.407  1.00  0.00     0.029 A 
ATOM     18  N   UNL     1      14.123   3.397   1.484  1.00  0.00    -0.354 N 
ATOM     19  C   UNL     1      13.596   7.529   2.944  1.00  0.00     0.074 A 
ATOM     20  C   UNL     1      12.662   8.240   2.104  1.00  0.00     0.031 C 
ATOM     21  C   UNL     1      13.642   1.688   0.116  1.00  0.00     0.029 A 
ATOM     22  C   UNL     1      14.398   2.062   1.302  1.00  0.00     0.049 A 
ATOM     23  H   UNL     1      14.421   3.909   2.270  1.00  0.00     0.167 HD
ATOM     24  C   UNL     1      14.171   8.032   4.056  1.00  0.00     0.034 A 
ATOM     25  C   UNL     1      15.228   1.263   1.995  1.00  0.00     0.034 A 
ATOM     26  C   UNL     1      15.092   7.274   4.853  1.00  0.00     0.049 A 
ATOM     27  C   UNL     1      15.937   1.880   3.168  1.00  0.00     0.074 A 
ATOM     28  C   UNL     1      15.818   7.675   5.955  1.00  0.00     0.029 A 
ATOM     29  N   UNL     1      15.417   5.943   4.612  1.00  0.00    -0.354 N 
ATOM     30  N   UNL     1      15.796   3.085   3.672  1.00  0.00    -0.248 NA
ATOM     31  C   UNL     1      16.912   1.041   3.870  1.00  0.00     0.031 C 
ATOM     32  C   UNL     1      16.610   6.594   6.359  1.00  0.00     0.029 A 
ATOM     33  C   UNL     1      16.342   5.506   5.537  1.00  0.00     0.049 A 
ATOM     34  H   UNL     1      15.041   5.393   3.887  1.00  0.00     0.167 HD
ATOM     35  C   UNL     1      16.646   3.144   4.765  1.00  0.00     0.074 A 
ATOM     36  C   UNL     1      17.278   1.841   4.862  1.00  0.00     0.031 C 
ATOM     37  C   UNL     1      16.901   4.178   5.606  1.00  0.00     0.034 A 
BRANCH  24  38
ATOM     38  C   UNL     1      13.883   9.468   4.383  1.00  0.00     0.023 A 
ATOM     39  C   UNL     1      12.623   9.854   4.882  1.00  0.00     0.012 A 
ATOM     40  C   UNL     1      14.862  10.451   4.140  1.00  0.00     0.148 A 
ATOM     41  C   UNL     1      12.330  11.202   5.098  1.00  0.00     0.002 A 
ATOM     42  C   UNL     1      14.579  11.785   4.399  1.00  0.00     0.091 A 
ATOM     43  F   UNL     1      16.039  10.065   3.627  1.00  0.00    -0.205 F 
ATOM     44  C   UNL     1      13.309  12.165   4.864  1.00  0.00     0.022 A 
BRANCH  42  45
ATOM     45  S   UNL     1      15.791  13.091   4.181  1.00  0.00     0.127 S 
ATOM     46  O   UNL     1      15.201  13.860   3.085  1.00  0.00    -0.237 OA
ATOM     47  O   UNL     1      15.755  13.758   5.482  1.00  0.00    -0.237 OA
ATOM     48  O   UNL     1      17.049  12.429   3.867  1.00  0.00    -0.744 OA
ENDBRANCH  42  45
ENDBRANCH  24  38
BRANCH  25  49
ATOM     49  C   UNL     1      15.467  -0.145   1.566  1.00  0.00     0.023 A 
ATOM     50  C   UNL     1      15.109  -1.210   2.411  1.00  0.00     0.012 A 
ATOM     51  C   UNL     1      16.044  -0.434   0.310  1.00  0.00     0.148 A 
ATOM     52  C   UNL     1      15.349  -2.533   2.030  1.00  0.00     0.002 A 
ATOM     53  C   UNL     1      16.228  -1.753  -0.087  1.00  0.00     0.091 A 
ATOM     54  F   UNL     1      16.400   0.590  -0.478  1.00  0.00    -0.205 F 
ATOM     55  C   UNL     1      15.899  -2.805   0.780  1.00  0.00     0.022 A 
BRANCH  53  56
ATOM     56  S   UNL     1      16.816  -2.192  -1.727  1.00  0.00     0.127 S 
ATOM     57  O   UNL     1      18.160  -2.686  -1.440  1.00  0.00    -0.237 OA
ATOM     58  O   UNL     1      15.855  -3.219  -2.130  1.00  0.00    -0.237 OA
ATOM     59  O   UNL     1      16.746  -0.967  -2.511  1.00  0.00    -0.744 OA
ENDBRANCH  53  56
ENDBRANCH  25  49
BRANCH  37  60
ATOM     60  C   UNL     1      17.866   3.916   6.725  1.00  0.00     0.023 A 
ATOM     61  C   UNL     1      19.244   3.819   6.457  1.00  0.00     0.012 A 
ATOM     62  C   UNL     1      17.403   3.863   8.052  1.00  0.00     0.148 A 
ATOM     63  C   UNL     1      20.150   3.643   7.500  1.00  0.00     0.002 A 
ATOM     64  C   UNL     1      18.315   3.749   9.089  1.00  0.00     0.091 A 
ATOM     65  F   UNL     1      16.082   3.938   8.273  1.00  0.00    -0.205 F 
ATOM     66  C   UNL     1      19.687   3.624   8.815  1.00  0.00     0.022 A 
BRANCH  64  67
ATOM     67  S   UNL     1      17.818   3.835  10.811  1.00  0.00     0.127 S 
ATOM     68  O   UNL     1      18.000   2.451  11.242  1.00  0.00    -0.237 OA
ATOM     69  O   UNL     1      18.788   4.781  11.364  1.00  0.00    -0.237 OA
ATOM     70  O   UNL     1      16.442   4.313  10.809  1.00  0.00    -0.744 OA
ENDBRANCH  64  67
ENDBRANCH  37  60
ENDBRANCH  11  12
ENDBRANCH   4   6
ENDBRANCH   3   4
ENDBRANCH   2   3
ENDBRANCH   1   2
BRANCH   1  71
ATOM     71  O   UNL     1       7.695   3.298  -2.276  1.00  0.00    -0.374 OA
BRANCH  71  72
ATOM     72  C   UNL     1       8.022   3.122  -3.654  1.00  0.00     0.202 C 
BRANCH  72  73
ATOM     73  C   UNL     1       7.727   1.684  -4.065  1.00  0.00     0.261 C 
BRANCH  73  74
ATOM     74  O   UNL     1       6.307   1.606  -4.259  1.00  0.00    -0.462 OA
BRANCH  74  75
ATOM     75  C   UNL     1       5.554   1.489  -3.128  1.00  0.00     0.334 C 
ATOM     76  O   UNL     1       5.947   1.017  -2.064  1.00  0.00    -0.250 OA
BRANCH  75  77
ATOM     77  C   UNL     1       4.133   2.048  -3.345  1.00  0.00     0.249 C 
ATOM     78  C   UNL     1       4.050   3.394  -4.117  1.00  0.00     0.298 C 
ATOM     79  N   UNL     1       3.288   1.097  -4.089  1.00  0.00    -0.331 N 
ATOM     80  N   UNL     1       4.504   3.338  -5.522  1.00  0.00    -0.343 N 
ATOM     81  C   UNL     1       3.685   0.880  -5.481  1.00  0.00     0.180 C 
ATOM     82  C   UNL     1       3.782   2.251  -6.220  1.00  0.00     0.282 C 
ATOM     83  H   UNL     1       5.507   3.155  -5.549  1.00  0.00     0.346 HD
ATOM     84  H   UNL     1       4.312   4.228  -5.981  1.00  0.00     0.346 HD
BRANCH  79  85
ATOM     85  C   UNL     1       2.740   0.079  -3.338  1.00  0.00     0.148 A 
ATOM     86  N   UNL     1       3.242  -1.166  -3.496  1.00  0.00    -0.237 NA
ATOM     87  C   UNL     1       1.695   0.331  -2.429  1.00  0.00     0.084 A 
ATOM     88  C   UNL     1       2.728  -2.163  -2.736  1.00  0.00     0.126 A 
ATOM     89  C   UNL     1       1.163  -0.716  -1.684  1.00  0.00     0.039 A 
ATOM     90  Cl  UNL     1       0.964   1.891  -2.248  1.00  0.00    -0.080 Cl
ATOM     91  C   UNL     1       1.678  -2.001  -1.844  1.00  0.00     0.075 A 
BRANCH  91  92
ATOM     92  C   UNL     1       1.114  -3.176  -1.114  1.00  0.00     0.417 C 
ATOM     93  F   UNL     1       0.814  -4.209  -1.950  1.00  0.00    -0.166 F 
ATOM     94  F   UNL     1       1.960  -3.680  -0.179  1.00  0.00    -0.166 F 
ATOM     95  F   UNL     1      -0.046  -2.890  -0.457  1.00  0.00    -0.166 F 
ENDBRANCH  91  92
ENDBRANCH  79  85
ENDBRANCH  75  77
ENDBRANCH  74  75
ENDBRANCH  73  74
ENDBRANCH  72  73
ENDBRANCH  71  72
ENDBRANCH   1  71
TORSDOF 19
