REMARK SMILES Cc1cc(Cl)cc2c1O[C@H](C(F)(F)F)C(C(=O)OCCOCCOC(=O)c1ccc(-c3c4nc(c(-c5cccc(S(=O)(=O)[O-])c5F)c5ccc([nH]5)c(-c5cccc(S(=O)(=O)[O-])c5F)c5nc(c(-c6cccc(S(=O)(=O)[O-])c6F)c6ccc3[nH]6)C=C5)C=C4)cc1)=C2
REMARK SMILES IDX 22 1 21 2 20 3 19 4 18 5 16 6 17 7 15 8 1 9 2 10 3 11 8 12
REMARK SMILES IDX 4 13 7 14 9 15 5 16 6 17 90 18 10 19 11 20 12 21 13 22 14 23
REMARK SMILES IDX 23 24 24 25 25 26 26 27 27 28 28 29 89 30 29 31 88 32 30 33
REMARK SMILES IDX 31 34 32 35 82 36 33 37 87 38 81 39 83 40 34 41 86 42 80 43
REMARK SMILES IDX 79 44 35 46 67 47 47 48 66 49 48 50 51 51 65 52 84 53 49 54
REMARK SMILES IDX 50 55 64 57 85 58 52 59 36 60 37 61 45 62 38 63 40 64 46 65
REMARK SMILES IDX 39 66 41 67 42 68 43 69 44 70 68 71 69 72 77 73 70 74 72 75
REMARK SMILES IDX 78 76 71 77 73 78 74 79 75 80 76 81 53 82 54 83 62 84 55 85
REMARK SMILES IDX 57 86 63 87 56 88 58 89 59 90 60 91 61 92
REMARK H PARENT 83 45 51 56
REMARK Flexibility Score: inf
ROOT
ATOM      1  C   UNL     1      -0.928  -7.207  -2.928  1.00  0.00     0.202 C 
ENDROOT
BRANCH   1   2
ATOM      2  O   UNL     1      -0.160  -8.277  -3.477  1.00  0.00    -0.374 OA
BRANCH   2   3
ATOM      3  C   UNL     1       0.882  -8.834  -2.677  1.00  0.00     0.202 C 
BRANCH   3   4
ATOM      4  C   UNL     1       2.183  -8.036  -2.552  1.00  0.00     0.261 C 
BRANCH   4   5
ATOM      5  O   UNL     1       1.955  -6.707  -2.060  1.00  0.00    -0.460 OA
BRANCH   5   6
ATOM      6  C   UNL     1       2.142  -5.730  -2.976  1.00  0.00     0.338 C 
ATOM      7  O   UNL     1       2.554  -5.864  -4.119  1.00  0.00    -0.246 OA
BRANCH   6   8
ATOM      8  C   UNL     1       1.632  -4.448  -2.454  1.00  0.00     0.087 C 
ATOM      9  C   UNL     1       0.980  -0.064   0.080  1.00  0.00     0.048 C 
ATOM     10  C   UNL     1       0.588  -0.586  -1.274  1.00  0.00    -0.007 A 
ATOM     11  C   UNL     1       0.026   0.282  -2.223  1.00  0.00     0.027 A 
ATOM     12  C   UNL     1       0.845  -1.919  -1.633  1.00  0.00     0.131 A 
ATOM     13  C   UNL     1      -0.291  -0.181  -3.499  1.00  0.00     0.042 A 
ATOM     14  C   UNL     1       0.564  -2.364  -2.928  1.00  0.00     0.019 A 
ATOM     15  O   UNL     1       1.365  -2.733  -0.666  1.00  0.00    -0.475 OA
ATOM     16  Cl  UNL     1      -0.981   0.891  -4.654  1.00  0.00    -0.084 Cl
ATOM     17  C   UNL     1      -0.026  -1.500  -3.856  1.00  0.00     0.032 A 
ATOM     18  C   UNL     1       0.963  -3.696  -3.337  1.00  0.00     0.027 C 
ATOM     19  C   UNL     1       1.898  -4.038  -1.032  1.00  0.00     0.316 C 
BRANCH  19  20
ATOM     20  C   UNL     1       3.392  -4.060  -0.676  1.00  0.00     0.430 C 
ATOM     21  F   UNL     1       3.597  -3.620   0.587  1.00  0.00    -0.167 F 
ATOM     22  F   UNL     1       3.906  -5.307  -0.754  1.00  0.00    -0.167 F 
ATOM     23  F   UNL     1       4.110  -3.269  -1.507  1.00  0.00    -0.167 F 
ENDBRANCH  19  20
ENDBRANCH   6   8
ENDBRANCH   5   6
ENDBRANCH   4   5
ENDBRANCH   3   4
ENDBRANCH   2   3
ENDBRANCH   1   2
BRANCH   1  24
ATOM     24  C   UNL     1      -1.901  -7.524  -1.784  1.00  0.00     0.261 C 
BRANCH  24  25
ATOM     25  O   UNL     1      -1.233  -7.931  -0.578  1.00  0.00    -0.460 OA
BRANCH  25  26
ATOM     26  C   UNL     1      -1.433  -9.223  -0.222  1.00  0.00     0.338 C 
ATOM     27  O   UNL     1      -2.137 -10.047  -0.793  1.00  0.00    -0.246 OA
BRANCH  26  28
ATOM     28  C   UNL     1      -0.516  -9.583   0.871  1.00  0.00     0.060 A 
ATOM     29  C   UNL     1       0.412 -10.606   0.641  1.00  0.00     0.016 A 
ATOM     30  C   UNL     1      -0.609  -8.973   2.123  1.00  0.00     0.016 A 
ATOM     31  C   UNL     1       1.238 -11.041   1.674  1.00  0.00     0.010 A 
ATOM     32  C   UNL     1       0.215  -9.418   3.161  1.00  0.00     0.010 A 
ATOM     33  C   UNL     1       1.123 -10.472   2.949  1.00  0.00    -0.014 A 
BRANCH  33  34
ATOM     34  C   UNL     1       1.878 -11.060   4.080  1.00  0.00     0.031 A 
ATOM     35  C   UNL     1       1.169 -11.969   5.045  1.00  0.00     0.074 A 
ATOM     36  C   UNL     1       3.192 -10.805   4.226  1.00  0.00     0.049 A 
ATOM     37  N   UNL     1       1.649 -12.609   6.079  1.00  0.00    -0.248 NA
ATOM     38  C   UNL     1      -0.269 -12.190   4.816  1.00  0.00     0.031 C 
ATOM     39  C   UNL     1       3.983  -9.944   3.349  1.00  0.00     0.029 A 
ATOM     40  N   UNL     1       4.088 -11.240   5.170  1.00  0.00    -0.354 N 
ATOM     41  C   UNL     1       0.575 -13.298   6.629  1.00  0.00     0.074 A 
ATOM     42  C   UNL     1      -0.589 -12.977   5.834  1.00  0.00     0.031 C 
ATOM     43  C   UNL     1       5.249  -9.911   3.797  1.00  0.00     0.029 A 
ATOM     44  C   UNL     1       5.354 -10.728   5.005  1.00  0.00     0.049 A 
ATOM     45  H   UNL     1       3.848 -11.860   5.896  1.00  0.00     0.167 HD
ATOM     46  C   UNL     1       0.567 -14.146   7.685  1.00  0.00     0.034 A 
ATOM     47  C   UNL     1       6.468 -10.897   5.746  1.00  0.00     0.034 A 
ATOM     48  C   UNL     1       1.732 -14.476   8.459  1.00  0.00     0.049 A 
ATOM     49  C   UNL     1       6.421 -11.811   6.944  1.00  0.00     0.074 A 
ATOM     50  C   UNL     1       1.831 -15.350   9.526  1.00  0.00     0.029 A 
ATOM     51  N   UNL     1       2.997 -13.945   8.256  1.00  0.00    -0.354 N 
ATOM     52  N   UNL     1       5.425 -12.541   7.385  1.00  0.00    -0.248 NA
ATOM     53  C   UNL     1       7.656 -11.949   7.732  1.00  0.00     0.031 C 
ATOM     54  C   UNL     1       3.148 -15.325   9.989  1.00  0.00     0.029 A 
ATOM     55  C   UNL     1       3.879 -14.462   9.188  1.00  0.00     0.049 A 
ATOM     56  H   UNL     1       3.232 -13.297   7.554  1.00  0.00     0.167 HD
ATOM     57  C   UNL     1       5.920 -13.251   8.474  1.00  0.00     0.074 A 
ATOM     58  C   UNL     1       7.311 -12.874   8.619  1.00  0.00     0.031 C 
ATOM     59  C   UNL     1       5.277 -14.125   9.286  1.00  0.00     0.034 A 
BRANCH  46  60
ATOM     60  C   UNL     1      -0.731 -14.822   8.041  1.00  0.00     0.023 A 
ATOM     61  C   UNL     1      -1.228 -15.844   7.208  1.00  0.00     0.012 A 
ATOM     62  C   UNL     1      -1.401 -14.521   9.243  1.00  0.00     0.148 A 
ATOM     63  C   UNL     1      -2.384 -16.543   7.554  1.00  0.00     0.002 A 
ATOM     64  C   UNL     1      -2.526 -15.254   9.604  1.00  0.00     0.091 A 
ATOM     65  F   UNL     1      -0.922 -13.534  10.013  1.00  0.00    -0.205 F 
ATOM     66  C   UNL     1      -3.024 -16.257   8.757  1.00  0.00     0.022 A 
BRANCH  64  67
ATOM     67  S   UNL     1      -3.375 -15.024  11.171  1.00  0.00     0.127 S 
ATOM     68  O   UNL     1      -4.660 -14.480  10.733  1.00  0.00    -0.237 OA
ATOM     69  O   UNL     1      -3.437 -16.391  11.689  1.00  0.00    -0.237 OA
ATOM     70  O   UNL     1      -2.548 -14.113  11.949  1.00  0.00    -0.744 OA
ENDBRANCH  64  67
ENDBRANCH  46  60
BRANCH  47  71
ATOM     71  C   UNL     1       7.739 -10.235   5.334  1.00  0.00     0.023 A 
ATOM     72  C   UNL     1       8.806 -11.023   4.859  1.00  0.00     0.012 A 
ATOM     73  C   UNL     1       7.884  -8.834   5.365  1.00  0.00     0.148 A 
ATOM     74  C   UNL     1       9.998 -10.431   4.442  1.00  0.00     0.002 A 
ATOM     75  C   UNL     1       9.053  -8.247   4.896  1.00  0.00     0.091 A 
ATOM     76  F   UNL     1       6.864  -8.102   5.835  1.00  0.00    -0.205 F 
ATOM     77  C   UNL     1      10.118  -9.044   4.448  1.00  0.00     0.022 A 
BRANCH  75  78
ATOM     78  S   UNL     1       9.248  -6.468   4.740  1.00  0.00     0.127 S 
ATOM     79  O   UNL     1      10.284  -6.192   5.732  1.00  0.00    -0.237 OA
ATOM     80  O   UNL     1       9.677  -6.335   3.347  1.00  0.00    -0.237 OA
ATOM     81  O   UNL     1       7.937  -5.901   5.024  1.00  0.00    -0.744 OA
ENDBRANCH  75  78
ENDBRANCH  47  71
BRANCH  59  82
ATOM     82  C   UNL     1       6.052 -14.775  10.403  1.00  0.00     0.023 A 
ATOM     83  C   UNL     1       6.382 -14.025  11.549  1.00  0.00     0.012 A 
ATOM     84  C   UNL     1       6.307 -16.162  10.385  1.00  0.00     0.148 A 
ATOM     85  C   UNL     1       6.960 -14.644  12.657  1.00  0.00     0.002 A 
ATOM     86  C   UNL     1       6.834 -16.780  11.512  1.00  0.00     0.091 A 
ATOM     87  F   UNL     1       5.994 -16.853   9.280  1.00  0.00    -0.205 F 
ATOM     88  C   UNL     1       7.170 -16.021  12.646  1.00  0.00     0.022 A 
BRANCH  86  89
ATOM     89  S   UNL     1       7.035 -18.562  11.638  1.00  0.00     0.127 S 
ATOM     90  O   UNL     1       8.489 -18.692  11.727  1.00  0.00    -0.237 OA
ATOM     91  O   UNL     1       6.318 -18.865  12.877  1.00  0.00    -0.237 OA
ATOM     92  O   UNL     1       6.437 -19.123  10.434  1.00  0.00    -0.744 OA
ENDBRANCH  86  89
ENDBRANCH  59  82
ENDBRANCH  33  34
ENDBRANCH  26  28
ENDBRANCH  25  26
ENDBRANCH  24  25
ENDBRANCH   1  24
TORSDOF 18
