REMARK SMILES C[C@@H]1CCC[C@H]1NC(=O)c1csc(/C=C/C(=O)OCCOCCOC(=O)c2ccc(-c3c4nc(c(-c5cccc(S(=O)(=O)[O-])c5F)c5ccc([nH]5)c(-c5cccc(S(=O)(=O)[O-])c5F)c5nc(c(-c6cccc(S(=O)(=O)[O-])c6F)c6ccc3[nH]6)C=C5)C=C4)cc2)c1
REMARK SMILES IDX 21 1 20 2 19 3 18 4 16 5 17 6 15 7 14 8 13 9 10 10 11 11
REMARK SMILES IDX 90 12 12 13 8 14 7 15 9 17 6 18 1 19 2 20 3 21 4 22 5 23
REMARK SMILES IDX 22 24 23 25 24 26 25 27 26 28 27 29 28 30 89 31 29 32 88 33
REMARK SMILES IDX 30 34 31 35 32 36 82 37 33 38 87 39 81 40 83 41 34 42 86 43
REMARK SMILES IDX 80 44 79 45 35 47 67 48 47 49 66 50 48 51 51 52 65 53 84 54
REMARK SMILES IDX 49 55 50 56 64 58 85 59 52 60 36 61 37 62 45 63 38 64 40 65
REMARK SMILES IDX 46 66 39 67 41 68 42 69 43 70 44 71 68 72 69 73 77 74 70 75
REMARK SMILES IDX 72 76 78 77 71 78 73 79 74 80 75 81 76 82 53 83 54 84 62 85
REMARK SMILES IDX 55 86 57 87 63 88 56 89 58 90 59 91 60 92 61 93
REMARK H PARENT 7 16 83 46 51 57
REMARK Flexibility Score: inf
ROOT
ATOM      1  O   UNL     1       6.238   9.841   1.509  1.00  0.00    -0.374 OA
ENDROOT
BRANCH   1   2
ATOM      2  C   UNL     1       6.059  10.017   2.917  1.00  0.00     0.202 C 
BRANCH   2   3
ATOM      3  C   UNL     1       4.629  10.362   3.336  1.00  0.00     0.261 C 
BRANCH   3   4
ATOM      4  O   UNL     1       3.744   9.258   3.076  1.00  0.00    -0.460 OA
BRANCH   4   5
ATOM      5  C   UNL     1       2.804   9.475   2.130  1.00  0.00     0.330 C 
ATOM      6  O   UNL     1       2.580  10.528   1.550  1.00  0.00    -0.247 OA
BRANCH   5   7
ATOM      7  C   UNL     1       2.071   8.245   1.770  1.00  0.00     0.095 C 
ATOM      8  C   UNL     1       2.188   7.041   2.353  1.00  0.00     0.026 C 
BRANCH   8   9
ATOM      9  C   UNL     1       1.424   5.907   1.925  1.00  0.00     0.028 A 
ATOM     10  C   UNL     1       0.275   3.823   1.954  1.00  0.00     0.051 A 
ATOM     11  C   UNL     1      -0.035   4.311   0.701  1.00  0.00     0.079 A 
ATOM     12  C   UNL     1       1.110   4.769   2.654  1.00  0.00     0.033 A 
ATOM     13  S   UNL     1       0.763   5.770   0.338  1.00  0.00    -0.144 S 
BRANCH  10  14
ATOM     14  C   UNL     1      -0.261   2.601   2.547  1.00  0.00     0.252 C 
ATOM     15  N   UNL     1      -0.461   1.475   1.789  1.00  0.00    -0.349 N 
ATOM     16  H   UNL     1      -1.002   0.779   2.228  1.00  0.00     0.164 HD
ATOM     17  O   UNL     1      -0.547   2.545   3.741  1.00  0.00    -0.269 OA
BRANCH  15  18
ATOM     18  C   UNL     1      -0.009   1.129   0.445  1.00  0.00     0.085 C 
ATOM     19  C   UNL     1       1.812  -0.174  -0.746  1.00  0.00     0.010 C 
ATOM     20  C   UNL     1       0.891  -0.116   0.474  1.00  0.00     0.008 C 
ATOM     21  C   UNL     1      -0.109  -1.273   0.484  1.00  0.00     0.005 C 
ATOM     22  C   UNL     1      -1.274  -0.806  -0.382  1.00  0.00     0.002 C 
ATOM     23  C   UNL     1      -1.199   0.722  -0.430  1.00  0.00     0.025 C 
ENDBRANCH  15  18
ENDBRANCH  10  14
ENDBRANCH   8   9
ENDBRANCH   5   7
ENDBRANCH   4   5
ENDBRANCH   3   4
ENDBRANCH   2   3
ENDBRANCH   1   2
BRANCH   1  24
ATOM     24  C   UNL     1       5.964   8.532   1.002  1.00  0.00     0.202 C 
BRANCH  24  25
ATOM     25  C   UNL     1       7.124   7.537   1.131  1.00  0.00     0.261 C 
BRANCH  25  26
ATOM     26  O   UNL     1       7.342   7.164   2.504  1.00  0.00    -0.460 OA
BRANCH  26  27
ATOM     27  C   UNL     1       8.481   7.645   3.055  1.00  0.00     0.338 C 
ATOM     28  O   UNL     1       9.374   8.256   2.481  1.00  0.00    -0.246 OA
BRANCH  27  29
ATOM     29  C   UNL     1       8.444   7.487   4.523  1.00  0.00     0.060 A 
ATOM     30  C   UNL     1       8.823   8.590   5.298  1.00  0.00     0.016 A 
ATOM     31  C   UNL     1       8.098   6.279   5.136  1.00  0.00     0.016 A 
ATOM     32  C   UNL     1       8.916   8.473   6.683  1.00  0.00     0.010 A 
ATOM     33  C   UNL     1       8.196   6.162   6.528  1.00  0.00     0.010 A 
ATOM     34  C   UNL     1       8.643   7.247   7.303  1.00  0.00    -0.014 A 
BRANCH  34  35
ATOM     35  C   UNL     1       8.960   7.074   8.742  1.00  0.00     0.031 A 
ATOM     36  C   UNL     1      10.251   6.406   9.133  1.00  0.00     0.074 A 
ATOM     37  C   UNL     1       8.122   7.528   9.692  1.00  0.00     0.049 A 
ATOM     38  N   UNL     1      10.743   6.191  10.325  1.00  0.00    -0.248 NA
ATOM     39  C   UNL     1      11.099   5.915   8.034  1.00  0.00     0.031 C 
ATOM     40  C   UNL     1       6.840   8.184   9.443  1.00  0.00     0.029 A 
ATOM     41  N   UNL     1       8.222   7.491  11.060  1.00  0.00    -0.354 N 
ATOM     42  C   UNL     1      11.948   5.528  10.124  1.00  0.00     0.074 A 
ATOM     43  C   UNL     1      12.103   5.357   8.696  1.00  0.00     0.031 C 
ATOM     44  C   UNL     1       6.261   8.470  10.622  1.00  0.00     0.029 A 
ATOM     45  C   UNL     1       7.126   8.010  11.707  1.00  0.00     0.049 A 
ATOM     46  H   UNL     1       9.005   7.127  11.534  1.00  0.00     0.167 HD
ATOM     47  C   UNL     1      12.855   5.120  11.042  1.00  0.00     0.034 A 
ATOM     48  C   UNL     1       6.851   8.099  13.024  1.00  0.00     0.034 A 
ATOM     49  C   UNL     1      12.715   5.309  12.460  1.00  0.00     0.049 A 
ATOM     50  C   UNL     1       7.873   7.625  14.025  1.00  0.00     0.074 A 
ATOM     51  C   UNL     1      13.604   4.972  13.466  1.00  0.00     0.029 A 
ATOM     52  N   UNL     1      11.611   5.879  13.075  1.00  0.00    -0.354 N 
ATOM     53  N   UNL     1       9.068   7.128  13.814  1.00  0.00    -0.248 NA
ATOM     54  C   UNL     1       7.524   7.761  15.448  1.00  0.00     0.031 C 
ATOM     55  C   UNL     1      13.030   5.326  14.692  1.00  0.00     0.029 A 
ATOM     56  C   UNL     1      11.791   5.896  14.448  1.00  0.00     0.049 A 
ATOM     57  H   UNL     1      10.817   6.221  12.606  1.00  0.00     0.167 HD
ATOM     58  C   UNL     1       9.626   6.925  15.072  1.00  0.00     0.074 A 
ATOM     59  C   UNL     1       8.646   7.372  16.040  1.00  0.00     0.031 C 
ATOM     60  C   UNL     1      10.833   6.399  15.398  1.00  0.00     0.034 A 
BRANCH  47  61
ATOM     61  C   UNL     1      14.112   4.465  10.534  1.00  0.00     0.023 A 
ATOM     62  C   UNL     1      15.113   5.260   9.940  1.00  0.00     0.012 A 
ATOM     63  C   UNL     1      14.328   3.083  10.691  1.00  0.00     0.148 A 
ATOM     64  C   UNL     1      16.299   4.687   9.486  1.00  0.00     0.002 A 
ATOM     65  C   UNL     1      15.529   2.523  10.269  1.00  0.00     0.091 A 
ATOM     66  F   UNL     1      13.353   2.339  11.234  1.00  0.00    -0.205 F 
ATOM     67  C   UNL     1      16.512   3.322   9.660  1.00  0.00     0.022 A 
BRANCH  65  68
ATOM     68  S   UNL     1      15.922   0.787  10.511  1.00  0.00     0.127 S 
ATOM     69  O   UNL     1      15.776   0.260   9.155  1.00  0.00    -0.237 OA
ATOM     70  O   UNL     1      17.302   0.845  10.996  1.00  0.00    -0.237 OA
ATOM     71  O   UNL     1      14.959   0.292  11.485  1.00  0.00    -0.744 OA
ENDBRANCH  65  68
ENDBRANCH  47  61
BRANCH  48  72
ATOM     72  C   UNL     1       5.571   8.713  13.476  1.00  0.00     0.023 A 
ATOM     73  C   UNL     1       5.591   9.966  14.117  1.00  0.00     0.012 A 
ATOM     74  C   UNL     1       4.336   8.071  13.261  1.00  0.00     0.148 A 
ATOM     75  C   UNL     1       4.407  10.559  14.559  1.00  0.00     0.002 A 
ATOM     76  C   UNL     1       3.156   8.691  13.656  1.00  0.00     0.091 A 
ATOM     77  F   UNL     1       4.339   6.867  12.671  1.00  0.00    -0.205 F 
ATOM     78  C   UNL     1       3.190   9.927  14.319  1.00  0.00     0.022 A 
BRANCH  76  79
ATOM     79  S   UNL     1       1.541   8.005  13.271  1.00  0.00     0.127 S 
ATOM     80  O   UNL     1       1.122   7.479  14.568  1.00  0.00    -0.237 OA
ATOM     81  O   UNL     1       0.807   9.188  12.819  1.00  0.00    -0.237 OA
ATOM     82  O   UNL     1       1.779   7.016  12.228  1.00  0.00    -0.744 OA
ENDBRANCH  76  79
ENDBRANCH  48  72
BRANCH  60  83
ATOM     83  C   UNL     1      11.183   6.300  16.860  1.00  0.00     0.023 A 
ATOM     84  C   UNL     1      10.568   5.315  17.657  1.00  0.00     0.012 A 
ATOM     85  C   UNL     1      12.174   7.127  17.424  1.00  0.00     0.148 A 
ATOM     86  C   UNL     1      10.914   5.173  19.001  1.00  0.00     0.002 A 
ATOM     87  C   UNL     1      12.545   6.950  18.753  1.00  0.00     0.091 A 
ATOM     88  F   UNL     1      12.734   8.073  16.656  1.00  0.00    -0.205 F 
ATOM     89  C   UNL     1      11.909   5.981  19.545  1.00  0.00     0.022 A 
BRANCH  87  90
ATOM     90  S   UNL     1      13.881   7.887  19.506  1.00  0.00     0.127 S 
ATOM     91  O   UNL     1      13.147   8.875  20.294  1.00  0.00    -0.237 OA
ATOM     92  O   UNL     1      14.573   6.869  20.297  1.00  0.00    -0.237 OA
ATOM     93  O   UNL     1      14.663   8.420  18.398  1.00  0.00    -0.744 OA
ENDBRANCH  87  90
ENDBRANCH  60  83
ENDBRANCH  34  35
ENDBRANCH  27  29
ENDBRANCH  26  27
ENDBRANCH  25  26
ENDBRANCH  24  25
ENDBRANCH   1  24
TORSDOF 20
