REMARK SMILES Cc1ccc(Oc2cc(C(=O)OCCOCCOC(=O)c3ccc(-c4c5nc(c(-c6cccc(S(=O)(=O)[O-])c6F)c6ccc([nH]6)c(-c6cccc(S(=O)(=O)[O-])c6F)c6nc(c(-c7cccc(S(=O)(=O)[O-])c7F)c7ccc4[nH]7)C=C6)C=C5)cc3)nc3ccccc23)cc1
REMARK SMILES IDX 16 1 15 2 14 3 13 4 12 5 10 6 11 7 9 8 7 9 8 10 90 11 85 12
REMARK SMILES IDX 89 13 84 14 86 15 88 16 87 17 6 18 5 19 1 20 2 21 3 22 92 23
REMARK SMILES IDX 4 24 91 25 17 26 18 27 19 28 20 29 21 30 22 31 83 32 23 33
REMARK SMILES IDX 82 34 24 35 25 36 26 37 76 38 27 39 81 40 75 41 77 42 28 43
REMARK SMILES IDX 80 44 74 45 73 46 29 48 61 49 41 50 60 51 42 52 45 53 59 54
REMARK SMILES IDX 78 55 43 56 44 57 58 59 79 60 46 61 30 62 31 63 39 64 32 65
REMARK SMILES IDX 34 66 40 67 33 68 35 69 36 70 37 71 38 72 62 73 63 74 71 75
REMARK SMILES IDX 64 76 66 77 72 78 65 79 67 80 68 81 69 82 70 83 47 84 48 85
REMARK SMILES IDX 56 86 49 87 51 88 57 89 50 90 52 91 53 92 54 93 55 94
REMARK H PARENT 77 47 45 58
REMARK Flexibility Score: inf
ROOT
ATOM      1  C   UNL     1      -8.765   1.216   0.907  1.00  0.00     0.202 C 
ENDROOT
BRANCH   1   2
ATOM      2  O   UNL     1      -8.352   2.468   1.393  1.00  0.00    -0.374 OA
BRANCH   2   3
ATOM      3  C   UNL     1      -8.740   3.616   0.666  1.00  0.00     0.202 C 
BRANCH   3   4
ATOM      4  C   UNL     1      -7.866   4.732   1.164  1.00  0.00     0.261 C 
BRANCH   4   5
ATOM      5  O   UNL     1      -6.476   4.461   0.883  1.00  0.00    -0.459 OA
BRANCH   5   6
ATOM      6  C   UNL     1      -5.819   3.388   1.422  1.00  0.00     0.357 C 
ATOM      7  O   UNL     1      -5.997   2.786   2.453  1.00  0.00    -0.244 OA
BRANCH   6   8
ATOM      8  C   UNL     1      -4.877   2.910   0.396  1.00  0.00     0.152 A 
ATOM      9  C   UNL     1      -3.546   1.226  -0.558  1.00  0.00     0.139 A 
ATOM     10  C   UNL     1      -4.315   1.655   0.512  1.00  0.00     0.084 A 
ATOM     11  C   UNL     1      -3.389   2.029  -1.718  1.00  0.00     0.043 A 
ATOM     12  C   UNL     1      -4.000   3.293  -1.688  1.00  0.00     0.075 A 
ATOM     13  C   UNL     1      -2.641   1.690  -2.867  1.00  0.00     0.014 A 
ATOM     14  N   UNL     1      -4.722   3.721  -0.674  1.00  0.00    -0.240 NA
ATOM     15  C   UNL     1      -3.862   4.178  -2.734  1.00  0.00     0.029 A 
ATOM     16  C   UNL     1      -2.492   2.603  -3.914  1.00  0.00     0.001 A 
ATOM     17  C   UNL     1      -3.102   3.851  -3.847  1.00  0.00     0.002 A 
BRANCH   9  18
ATOM     18  O   UNL     1      -2.925   0.004  -0.416  1.00  0.00    -0.457 OA
BRANCH  18  19
ATOM     19  C   UNL     1      -1.569   0.028  -0.152  1.00  0.00     0.127 A 
ATOM     20  C   UNL     1       2.716  -0.142   0.093  1.00  0.00     0.044 C 
ATOM     21  C   UNL     1       1.220  -0.091   0.072  1.00  0.00    -0.051 A 
ATOM     22  C   UNL     1       0.470  -1.266  -0.067  1.00  0.00     0.007 A 
ATOM     23  C   UNL     1       0.557   1.132   0.188  1.00  0.00     0.007 A 
ATOM     24  C   UNL     1      -0.921  -1.206  -0.182  1.00  0.00     0.047 A 
ATOM     25  C   UNL     1      -0.830   1.190   0.094  1.00  0.00     0.047 A 
ENDBRANCH  18  19
ENDBRANCH   9  18
ENDBRANCH   6   8
ENDBRANCH   5   6
ENDBRANCH   4   5
ENDBRANCH   3   4
ENDBRANCH   2   3
ENDBRANCH   1   2
BRANCH   1  26
ATOM     26  C   UNL     1     -10.286   1.092   0.920  1.00  0.00     0.261 C 
BRANCH  26  27
ATOM     27  O   UNL     1     -10.778   1.119   2.279  1.00  0.00    -0.460 OA
BRANCH  27  28
ATOM     28  C   UNL     1     -11.187   2.344   2.733  1.00  0.00     0.338 C 
ATOM     29  O   UNL     1     -12.102   2.978   2.233  1.00  0.00    -0.246 OA
BRANCH  28  30
ATOM     30  C   UNL     1     -10.234   2.860   3.765  1.00  0.00     0.060 A 
ATOM     31  C   UNL     1     -10.221   4.223   4.114  1.00  0.00     0.016 A 
ATOM     32  C   UNL     1      -9.159   2.055   4.121  1.00  0.00     0.016 A 
ATOM     33  C   UNL     1      -9.054   4.814   4.634  1.00  0.00     0.010 A 
ATOM     34  C   UNL     1      -7.984   2.667   4.505  1.00  0.00     0.010 A 
ATOM     35  C   UNL     1      -7.896   4.057   4.721  1.00  0.00    -0.014 A 
BRANCH  35  36
ATOM     36  C   UNL     1      -6.546   4.534   5.057  1.00  0.00     0.031 A 
ATOM     37  C   UNL     1      -5.957   3.982   6.304  1.00  0.00     0.074 A 
ATOM     38  C   UNL     1      -5.719   5.181   4.191  1.00  0.00     0.049 A 
ATOM     39  N   UNL     1      -4.832   4.362   6.801  1.00  0.00    -0.248 NA
ATOM     40  C   UNL     1      -6.626   2.984   7.139  1.00  0.00     0.031 C 
ATOM     41  C   UNL     1      -4.268   4.966   4.088  1.00  0.00     0.029 A 
ATOM     42  N   UNL     1      -5.963   6.080   3.152  1.00  0.00    -0.354 N 
ATOM     43  C   UNL     1      -4.478   3.444   7.762  1.00  0.00     0.074 A 
ATOM     44  C   UNL     1      -5.685   2.720   8.046  1.00  0.00     0.031 C 
ATOM     45  C   UNL     1      -3.736   5.810   3.190  1.00  0.00     0.029 A 
ATOM     46  C   UNL     1      -4.777   6.732   2.788  1.00  0.00     0.049 A 
ATOM     47  H   UNL     1      -6.841   6.233   2.734  1.00  0.00     0.167 HD
ATOM     48  C   UNL     1      -3.159   3.312   8.067  1.00  0.00     0.034 A 
ATOM     49  C   UNL     1      -4.691   8.088   2.699  1.00  0.00     0.034 A 
ATOM     50  C   UNL     1      -2.360   4.309   7.327  1.00  0.00     0.049 A 
ATOM     51  C   UNL     1      -3.739   8.605   3.742  1.00  0.00     0.074 A 
ATOM     52  C   UNL     1      -1.530   4.218   6.222  1.00  0.00     0.029 A 
ATOM     53  N   UNL     1      -2.586   5.668   7.537  1.00  0.00    -0.354 N 
ATOM     54  N   UNL     1      -3.232   7.821   4.649  1.00  0.00    -0.248 NA
ATOM     55  C   UNL     1      -3.244   9.970   3.874  1.00  0.00     0.031 C 
ATOM     56  C   UNL     1      -1.283   5.536   5.751  1.00  0.00     0.029 A 
ATOM     57  C   UNL     1      -1.931   6.434   6.586  1.00  0.00     0.049 A 
ATOM     58  H   UNL     1      -3.138   6.035   8.264  1.00  0.00     0.167 HD
ATOM     59  C   UNL     1      -2.469   8.516   5.524  1.00  0.00     0.074 A 
ATOM     60  C   UNL     1      -2.469   9.862   4.973  1.00  0.00     0.031 C 
ATOM     61  C   UNL     1      -1.970   7.897   6.635  1.00  0.00     0.034 A 
BRANCH  48  62
ATOM     62  C   UNL     1      -2.506   2.166   8.831  1.00  0.00     0.023 A 
ATOM     63  C   UNL     1      -1.092   2.176   8.881  1.00  0.00     0.012 A 
ATOM     64  C   UNL     1      -3.127   1.056   9.457  1.00  0.00     0.148 A 
ATOM     65  C   UNL     1      -0.343   1.145   9.457  1.00  0.00     0.002 A 
ATOM     66  C   UNL     1      -2.381   0.031  10.051  1.00  0.00     0.091 A 
ATOM     67  F   UNL     1      -4.451   0.952   9.495  1.00  0.00    -0.205 F 
ATOM     68  C   UNL     1      -0.987   0.068  10.040  1.00  0.00     0.022 A 
BRANCH  66  69
ATOM     69  S   UNL     1      -3.143  -1.400  10.847  1.00  0.00     0.127 S 
ATOM     70  O   UNL     1      -2.556  -2.515  10.102  1.00  0.00    -0.237 OA
ATOM     71  O   UNL     1      -2.672  -1.278  12.226  1.00  0.00    -0.237 OA
ATOM     72  O   UNL     1      -4.585  -1.257  10.677  1.00  0.00    -0.744 OA
ENDBRANCH  66  69
ENDBRANCH  48  62
BRANCH  49  73
ATOM     73  C   UNL     1      -5.955   8.704   2.193  1.00  0.00     0.023 A 
ATOM     74  C   UNL     1      -6.203   8.551   0.804  1.00  0.00     0.012 A 
ATOM     75  C   UNL     1      -7.050   8.892   3.058  1.00  0.00     0.148 A 
ATOM     76  C   UNL     1      -7.507   8.443   0.312  1.00  0.00     0.002 A 
ATOM     77  C   UNL     1      -8.345   8.726   2.568  1.00  0.00     0.091 A 
ATOM     78  F   UNL     1      -6.804   9.121   4.355  1.00  0.00    -0.205 F 
ATOM     79  C   UNL     1      -8.573   8.479   1.203  1.00  0.00     0.022 A 
BRANCH  77  80
ATOM     80  S   UNL     1      -9.771   8.592   3.656  1.00  0.00     0.127 S 
ATOM     81  O   UNL     1     -10.420   9.884   3.454  1.00  0.00    -0.237 OA
ATOM     82  O   UNL     1     -10.489   7.452   3.079  1.00  0.00    -0.237 OA
ATOM     83  O   UNL     1      -9.233   8.353   4.986  1.00  0.00    -0.744 OA
ENDBRANCH  77  80
ENDBRANCH  49  73
BRANCH  61  84
ATOM     84  C   UNL     1      -1.452   8.619   7.854  1.00  0.00     0.023 A 
ATOM     85  C   UNL     1      -1.736   9.977   8.090  1.00  0.00     0.012 A 
ATOM     86  C   UNL     1      -0.791   7.914   8.891  1.00  0.00     0.148 A 
ATOM     87  C   UNL     1      -1.319  10.626   9.254  1.00  0.00     0.002 A 
ATOM     88  C   UNL     1      -0.497   8.531  10.099  1.00  0.00     0.091 A 
ATOM     89  F   UNL     1      -0.420   6.639   8.711  1.00  0.00    -0.205 F 
ATOM     90  C   UNL     1      -0.721   9.898  10.270  1.00  0.00     0.022 A 
BRANCH  88  91
ATOM     91  S   UNL     1       0.029   7.577  11.527  1.00  0.00     0.127 S 
ATOM     92  O   UNL     1       1.474   7.790  11.511  1.00  0.00    -0.237 OA
ATOM     93  O   UNL     1      -0.676   8.248  12.621  1.00  0.00    -0.237 OA
ATOM     94  O   UNL     1      -0.423   6.216  11.273  1.00  0.00    -0.744 OA
ENDBRANCH  88  91
ENDBRANCH  61  84
ENDBRANCH  35  36
ENDBRANCH  28  30
ENDBRANCH  27  28
ENDBRANCH  26  27
ENDBRANCH   1  26
TORSDOF 19
