REMARK SMILES O=C(OCCOCCOC(=O)[C@H]1CC2(CC[NH+](C(=O)c3cccc(O)c3)CC2)CN1C(=O)C1CC1)c1ccc(-c2c3nc(c(-c4cccc(S(=O)(=O)[O-])c4F)c4ccc([nH]4)c(-c4cccc(S(=O)(=O)[O-])c4F)c4nc(c(-c5cccc(S(=O)(=O)[O-])c5F)c5ccc2[nH]5)C=C4)C=C3)cc1
REMARK SMILES IDX 6 1 5 2 4 3 3 4 2 5 1 6 36 7 37 8 98 9 38 10 97 11 39 12
REMARK SMILES IDX 40 13 41 14 91 15 42 16 96 17 90 18 92 19 43 20 95 21 89 22
REMARK SMILES IDX 88 23 44 25 76 26 56 27 75 28 57 29 60 30 74 31 93 32 58 33
REMARK SMILES IDX 59 34 73 36 94 37 61 38 45 39 46 40 54 41 47 42 49 43 55 44
REMARK SMILES IDX 48 45 50 46 51 47 52 48 53 49 77 50 78 51 86 52 79 53 81 54
REMARK SMILES IDX 87 55 80 56 82 57 83 58 84 59 85 60 62 61 63 62 71 63 64 64
REMARK SMILES IDX 66 65 72 66 65 67 67 68 68 69 69 70 70 71 7 72 8 73 9 74
REMARK SMILES IDX 10 75 11 76 12 77 13 78 30 79 14 80 29 81 15 82 28 83 16 84
REMARK SMILES IDX 27 85 17 86 31 88 32 89 33 90 34 91 35 92 18 93 19 94 20 95
REMARK SMILES IDX 21 96 26 97 22 98 24 99 23 100 25 101
REMARK H PARENT 92 24 60 35 17 87 25 102
REMARK Flexibility Score: inf
ROOT
ATOM      1  O   UNL     1       2.645   3.117  -4.956  1.00  0.00    -0.374 OA
ENDROOT
BRANCH   1   2
ATOM      2  C   UNL     1       3.943   2.682  -5.351  1.00  0.00     0.202 C 
BRANCH   2   3
ATOM      3  C   UNL     1       4.196   2.552  -6.856  1.00  0.00     0.261 C 
BRANCH   3   4
ATOM      4  O   UNL     1       4.065   3.815  -7.518  1.00  0.00    -0.460 OA
BRANCH   4   5
ATOM      5  C   UNL     1       2.985   4.319  -8.161  1.00  0.00     0.338 C 
ATOM      6  O   UNL     1       3.115   5.393  -8.746  1.00  0.00    -0.246 OA
BRANCH   5   7
ATOM      7  C   UNL     1       1.629   3.680  -8.152  1.00  0.00     0.060 A 
ATOM      8  C   UNL     1       1.238   2.649  -7.301  1.00  0.00     0.016 A 
ATOM      9  C   UNL     1       0.648   4.226  -8.999  1.00  0.00     0.016 A 
ATOM     10  C   UNL     1      -0.065   2.226  -7.201  1.00  0.00     0.010 A 
ATOM     11  C   UNL     1      -0.671   3.761  -8.961  1.00  0.00     0.010 A 
ATOM     12  C   UNL     1      -1.017   2.767  -8.045  1.00  0.00    -0.014 A 
BRANCH  12  13
ATOM     13  C   UNL     1      -2.289   2.048  -8.040  1.00  0.00     0.031 A 
ATOM     14  C   UNL     1      -2.420   0.916  -9.005  1.00  0.00     0.074 A 
ATOM     15  C   UNL     1      -3.135   2.238  -7.014  1.00  0.00     0.049 A 
ATOM     16  N   UNL     1      -3.405   0.085  -9.171  1.00  0.00    -0.248 NA
ATOM     17  C   UNL     1      -1.252   0.652  -9.872  1.00  0.00     0.031 C 
ATOM     18  C   UNL     1      -2.926   3.183  -5.911  1.00  0.00     0.029 A 
ATOM     19  N   UNL     1      -4.313   1.622  -6.708  1.00  0.00    -0.354 N 
ATOM     20  C   UNL     1      -3.001  -0.767 -10.188  1.00  0.00     0.074 A 
ATOM     21  C   UNL     1      -1.667  -0.384 -10.581  1.00  0.00     0.031 C 
ATOM     22  C   UNL     1      -3.965   3.103  -5.064  1.00  0.00     0.029 A 
ATOM     23  C   UNL     1      -4.930   2.153  -5.601  1.00  0.00     0.049 A 
ATOM     24  H   UNL     1      -4.684   0.873  -7.229  1.00  0.00     0.167 HD
ATOM     25  C   UNL     1      -3.707  -1.770 -10.751  1.00  0.00     0.034 A 
ATOM     26  C   UNL     1      -6.168   1.921  -5.130  1.00  0.00     0.034 A 
ATOM     27  C   UNL     1      -5.044  -2.085 -10.341  1.00  0.00     0.049 A 
ATOM     28  C   UNL     1      -6.992   0.900  -5.870  1.00  0.00     0.074 A 
ATOM     29  C   UNL     1      -5.935  -2.980 -10.895  1.00  0.00     0.029 A 
ATOM     30  N   UNL     1      -5.685  -1.481  -9.265  1.00  0.00    -0.354 N 
ATOM     31  N   UNL     1      -6.642   0.132  -6.877  1.00  0.00    -0.248 NA
ATOM     32  C   UNL     1      -8.372   0.704  -5.413  1.00  0.00     0.031 C 
ATOM     33  C   UNL     1      -7.130  -2.889 -10.173  1.00  0.00     0.029 A 
ATOM     34  C   UNL     1      -6.966  -1.975  -9.140  1.00  0.00     0.049 A 
ATOM     35  H   UNL     1      -5.283  -0.801  -8.678  1.00  0.00     0.167 HD
ATOM     36  C   UNL     1      -7.745  -0.661  -7.156  1.00  0.00     0.074 A 
ATOM     37  C   UNL     1      -8.767  -0.293  -6.192  1.00  0.00     0.031 C 
ATOM     38  C   UNL     1      -7.917  -1.597  -8.123  1.00  0.00     0.034 A 
BRANCH  25  39
ATOM     39  C   UNL     1      -3.066  -2.489 -11.903  1.00  0.00     0.023 A 
ATOM     40  C   UNL     1      -1.997  -3.382 -11.682  1.00  0.00     0.012 A 
ATOM     41  C   UNL     1      -3.481  -2.219 -13.220  1.00  0.00     0.148 A 
ATOM     42  C   UNL     1      -1.326  -3.963 -12.759  1.00  0.00     0.002 A 
ATOM     43  C   UNL     1      -2.836  -2.833 -14.286  1.00  0.00     0.091 A 
ATOM     44  F   UNL     1      -4.473  -1.337 -13.408  1.00  0.00    -0.205 F 
ATOM     45  C   UNL     1      -1.748  -3.693 -14.058  1.00  0.00     0.022 A 
BRANCH  43  46
ATOM     46  S   UNL     1      -3.332  -2.585 -15.993  1.00  0.00     0.127 S 
ATOM     47  O   UNL     1      -2.148  -1.934 -16.553  1.00  0.00    -0.237 OA
ATOM     48  O   UNL     1      -3.546  -3.959 -16.448  1.00  0.00    -0.237 OA
ATOM     49  O   UNL     1      -4.530  -1.759 -15.951  1.00  0.00    -0.744 OA
ENDBRANCH  43  46
ENDBRANCH  25  39
BRANCH  26  50
ATOM     50  C   UNL     1      -6.709   2.689  -3.972  1.00  0.00     0.023 A 
ATOM     51  C   UNL     1      -7.089   2.019  -2.794  1.00  0.00     0.012 A 
ATOM     52  C   UNL     1      -6.874   4.089  -4.042  1.00  0.00     0.148 A 
ATOM     53  C   UNL     1      -7.662   2.719  -1.729  1.00  0.00     0.002 A 
ATOM     54  C   UNL     1      -7.393   4.788  -2.957  1.00  0.00     0.091 A 
ATOM     55  F   UNL     1      -6.527   4.716  -5.175  1.00  0.00    -0.205 F 
ATOM     56  C   UNL     1      -7.808   4.102  -1.807  1.00  0.00     0.022 A 
BRANCH  54  57
ATOM     57  S   UNL     1      -7.508   6.581  -2.934  1.00  0.00     0.127 S 
ATOM     58  O   UNL     1      -8.948   6.789  -3.062  1.00  0.00    -0.237 OA
ATOM     59  O   UNL     1      -6.953   6.903  -1.619  1.00  0.00    -0.237 OA
ATOM     60  O   UNL     1      -6.698   7.041  -4.054  1.00  0.00    -0.744 OA
ENDBRANCH  54  57
ENDBRANCH  26  50
BRANCH  38  61
ATOM     61  C   UNL     1      -9.234  -2.317  -8.143  1.00  0.00     0.023 A 
ATOM     62  C   UNL     1     -10.392  -1.657  -8.595  1.00  0.00     0.012 A 
ATOM     63  C   UNL     1      -9.290  -3.680  -7.802  1.00  0.00     0.148 A 
ATOM     64  C   UNL     1     -11.601  -2.343  -8.679  1.00  0.00     0.002 A 
ATOM     65  C   UNL     1     -10.482  -4.371  -7.947  1.00  0.00     0.091 A 
ATOM     66  F   UNL     1      -8.174  -4.275  -7.355  1.00  0.00    -0.205 F 
ATOM     67  C   UNL     1     -11.642  -3.702  -8.371  1.00  0.00     0.022 A 
BRANCH  65  68
ATOM     68  S   UNL     1     -10.594  -6.144  -7.691  1.00  0.00     0.127 S 
ATOM     69  O   UNL     1     -11.350  -6.216  -6.443  1.00  0.00    -0.237 OA
ATOM     70  O   UNL     1     -11.329  -6.580  -8.879  1.00  0.00    -0.237 OA
ATOM     71  O   UNL     1      -9.222  -6.627  -7.620  1.00  0.00    -0.744 OA
ENDBRANCH  65  68
ENDBRANCH  38  61
ENDBRANCH  12  13
ENDBRANCH   5   7
ENDBRANCH   4   5
ENDBRANCH   3   4
ENDBRANCH   2   3
ENDBRANCH   1   2
BRANCH   1  72
ATOM     72  C   UNL     1       2.437   4.532  -4.903  1.00  0.00     0.202 C 
BRANCH  72  73
ATOM     73  C   UNL     1       2.285   4.930  -3.452  1.00  0.00     0.261 C 
BRANCH  73  74
ATOM     74  O   UNL     1       3.555   4.645  -2.854  1.00  0.00    -0.462 OA
BRANCH  74  75
ATOM     75  C   UNL     1       3.617   3.580  -2.028  1.00  0.00     0.328 C 
ATOM     76  O   UNL     1       2.673   2.890  -1.675  1.00  0.00    -0.250 OA
BRANCH  75  77
ATOM     77  C   UNL     1       5.052   3.289  -1.605  1.00  0.00     0.195 C 
ATOM     78  C   UNL     1       5.402   1.924  -2.245  1.00  0.00     0.046 C 
ATOM     79  N   UNL     1       6.222   4.095  -1.963  1.00  0.00    -0.328 N 
ATOM     80  C   UNL     1       6.934   1.788  -2.232  1.00  0.00     0.001 C 
ATOM     81  C   UNL     1       7.400   3.233  -1.980  1.00  0.00     0.128 C 
ATOM     82  C   UNL     1       7.548   1.297  -3.576  1.00  0.00     0.071 C 
ATOM     83  C   UNL     1       7.344   0.812  -1.110  1.00  0.00     0.071 C 
ATOM     84  C   UNL     1       7.320  -0.185  -3.876  1.00  0.00     0.271 C 
ATOM     85  C   UNL     1       7.037  -0.647  -1.479  1.00  0.00     0.271 C 
ATOM     86  N   UNL     1       7.695  -1.007  -2.729  1.00  0.00    -0.267 N 
ATOM     87  H   UNL     1       7.746  -0.026  -2.661  1.00  0.00     0.357 HD
BRANCH  79  88
ATOM     88  C   UNL     1       6.479   5.451  -1.771  1.00  0.00     0.226 C 
ATOM     89  O   UNL     1       7.639   5.837  -1.617  1.00  0.00    -0.275 OA
BRANCH  88  90
ATOM     90  C   UNL     1       5.468   6.537  -1.923  1.00  0.00     0.079 C 
ATOM     91  C   UNL     1       4.098   6.806  -1.362  1.00  0.00     0.014 C 
ATOM     92  C   UNL     1       5.270   7.379  -0.661  1.00  0.00     0.014 C 
ENDBRANCH  88  90
ENDBRANCH  79  88
BRANCH  86  93
ATOM     93  C   UNL     1       8.447  -2.182  -2.766  1.00  0.00     0.344 C 
ATOM     94  O   UNL     1       8.505  -2.972  -1.825  1.00  0.00    -0.226 OA
BRANCH  93  95
ATOM     95  C   UNL     1       9.265  -2.511  -3.956  1.00  0.00     0.083 A 
ATOM     96  C   UNL     1      10.241  -1.621  -4.422  1.00  0.00     0.018 A 
ATOM     97  C   UNL     1       9.159  -3.789  -4.513  1.00  0.00     0.064 A 
ATOM     98  C   UNL     1      11.078  -1.998  -5.476  1.00  0.00     0.005 A 
ATOM     99  C   UNL     1      10.001  -4.152  -5.559  1.00  0.00     0.116 A 
ATOM    100  C   UNL     1      10.957  -3.266  -6.049  1.00  0.00     0.046 A 
BRANCH  99 101
ATOM    101  O   UNL     1       9.871  -5.409  -6.073  1.00  0.00    -0.508 OA
ATOM    102  H   UNL     1      10.422  -5.686  -6.778  1.00  0.00     0.293 HD
ENDBRANCH  99 101
ENDBRANCH  93  95
ENDBRANCH  86  93
ENDBRANCH  75  77
ENDBRANCH  74  75
ENDBRANCH  73  74
ENDBRANCH  72  73
ENDBRANCH   1  72
TORSDOF 22
