REMARK SMILES CC(=O)c1ccccc1S(=O)(=O)N1CCC(C(=O)OCCOCCOC(=O)c2ccc(-c3c4nc(c(-c5cccc(S(=O)(=O)[O-])c5F)c5ccc([nH]5)c(-c5cccc(S(=O)(=O)[O-])c5F)c5nc(c(-c6cccc(S(=O)(=O)[O-])c6F)c6ccc3[nH]6)C=C5)C=C4)cc2)CC1
REMARK SMILES IDX 22 1 21 2 20 3 19 4 17 5 18 6 16 7 13 8 14 9 92 10 15 11
REMARK SMILES IDX 91 12 10 13 11 14 12 15 9 16 4 17 5 18 6 19 8 20 7 21 2 22
REMARK SMILES IDX 1 23 3 24 23 25 24 26 25 27 26 28 27 29 28 30 29 31 90 32
REMARK SMILES IDX 30 33 89 34 31 35 32 36 33 37 83 38 34 39 88 40 82 41 84 42
REMARK SMILES IDX 35 43 87 44 81 45 80 46 36 48 68 49 48 50 67 51 49 52 52 53
REMARK SMILES IDX 66 54 85 55 50 56 51 57 65 59 86 60 53 61 37 62 38 63 46 64
REMARK SMILES IDX 39 65 41 66 47 67 40 68 42 69 43 70 44 71 45 72 69 73 70 74
REMARK SMILES IDX 78 75 71 76 73 77 79 78 72 79 74 80 75 81 76 82 77 83 54 84
REMARK SMILES IDX 55 85 63 86 56 87 58 88 64 89 57 90 59 91 60 92 61 93 62 94
REMARK H PARENT 84 47 52 58
REMARK Flexibility Score: inf
ROOT
ATOM      1  O   UNL     1      -2.354  -4.284   3.032  1.00  0.00    -0.374 OA
ENDROOT
BRANCH   1   2
ATOM      2  C   UNL     1      -1.284  -5.184   3.320  1.00  0.00     0.202 C 
BRANCH   2   3
ATOM      3  C   UNL     1      -0.401  -5.579   2.135  1.00  0.00     0.261 C 
BRANCH   3   4
ATOM      4  O   UNL     1       0.362  -4.454   1.666  1.00  0.00    -0.463 OA
BRANCH   4   5
ATOM      5  C   UNL     1       0.109  -4.051   0.396  1.00  0.00     0.309 C 
ATOM      6  O   UNL     1      -0.629  -4.633  -0.391  1.00  0.00    -0.252 OA
BRANCH   5   7
ATOM      7  C   UNL     1       0.827  -2.768   0.030  1.00  0.00     0.102 C 
ATOM      8  N   UNL     1       2.283  -0.592  -0.688  1.00  0.00    -0.198 NA
ATOM      9  C   UNL     1       2.466  -0.944   0.746  1.00  0.00     0.103 C 
ATOM     10  C   UNL     1       2.472  -1.773  -1.593  1.00  0.00     0.103 C 
ATOM     11  C   UNL     1       1.370  -1.920   1.190  1.00  0.00     0.032 C 
ATOM     12  C   UNL     1       1.948  -3.063  -0.956  1.00  0.00     0.032 C 
BRANCH   8  13
ATOM     13  S   UNL     1       3.084   0.833  -1.174  1.00  0.00     0.243 S 
ATOM     14  O   UNL     1       4.366   0.454  -1.718  1.00  0.00    -0.207 OA
ATOM     15  O   UNL     1       2.982   1.804  -0.100  1.00  0.00    -0.207 OA
BRANCH  13  16
ATOM     16  C   UNL     1       2.143   1.543  -2.498  1.00  0.00     0.093 A 
ATOM     17  C   UNL     1       0.772   1.365  -2.673  1.00  0.00     0.037 A 
ATOM     18  C   UNL     1       0.112   2.013  -3.731  1.00  0.00     0.013 A 
ATOM     19  C   UNL     1       0.807   2.872  -4.580  1.00  0.00     0.001 A 
ATOM     20  C   UNL     1       2.841   2.401  -3.368  1.00  0.00     0.022 A 
ATOM     21  C   UNL     1       2.172   3.071  -4.394  1.00  0.00     0.001 A 
BRANCH  17  22
ATOM     22  C   UNL     1      -0.096   0.555  -1.804  1.00  0.00     0.161 C 
ATOM     23  C   UNL     1      -0.444   1.103  -0.448  1.00  0.00     0.093 C 
ATOM     24  O   UNL     1      -0.628  -0.445  -2.277  1.00  0.00    -0.294 OA
ENDBRANCH  17  22
ENDBRANCH  13  16
ENDBRANCH   8  13
ENDBRANCH   5   7
ENDBRANCH   4   5
ENDBRANCH   3   4
ENDBRANCH   2   3
ENDBRANCH   1   2
BRANCH   1  25
ATOM     25  C   UNL     1      -2.027  -2.903   2.873  1.00  0.00     0.202 C 
BRANCH  25  26
ATOM     26  C   UNL     1      -1.722  -2.127   4.161  1.00  0.00     0.261 C 
BRANCH  26  27
ATOM     27  O   UNL     1      -0.468  -2.525   4.746  1.00  0.00    -0.460 OA
BRANCH  27  28
ATOM     28  C   UNL     1      -0.570  -3.096   5.972  1.00  0.00     0.338 C 
ATOM     29  O   UNL     1      -1.581  -3.223   6.642  1.00  0.00    -0.246 OA
BRANCH  28  30
ATOM     30  C   UNL     1       0.705  -3.739   6.342  1.00  0.00     0.060 A 
ATOM     31  C   UNL     1       0.664  -5.100   6.673  1.00  0.00     0.016 A 
ATOM     32  C   UNL     1       1.894  -3.017   6.452  1.00  0.00     0.016 A 
ATOM     33  C   UNL     1       1.802  -5.731   7.169  1.00  0.00     0.010 A 
ATOM     34  C   UNL     1       3.035  -3.652   6.957  1.00  0.00     0.010 A 
ATOM     35  C   UNL     1       2.983  -5.000   7.356  1.00  0.00    -0.014 A 
BRANCH  35  36
ATOM     36  C   UNL     1       4.106  -5.623   8.097  1.00  0.00     0.031 A 
ATOM     37  C   UNL     1       4.298  -5.298   9.553  1.00  0.00     0.074 A 
ATOM     38  C   UNL     1       4.926  -6.501   7.491  1.00  0.00     0.049 A 
ATOM     39  N   UNL     1       5.173  -5.774  10.400  1.00  0.00    -0.248 NA
ATOM     40  C   UNL     1       3.381  -4.303  10.132  1.00  0.00     0.031 C 
ATOM     41  C   UNL     1       4.841  -6.903   6.089  1.00  0.00     0.029 A 
ATOM     42  N   UNL     1       5.995  -7.206   7.982  1.00  0.00    -0.354 N 
ATOM     43  C   UNL     1       4.928  -5.126  11.605  1.00  0.00     0.074 A 
ATOM     44  C   UNL     1       3.835  -4.205  11.373  1.00  0.00     0.031 C 
ATOM     45  C   UNL     1       5.824  -7.781   5.829  1.00  0.00     0.029 A 
ATOM     46  C   UNL     1       6.616  -7.989   7.040  1.00  0.00     0.049 A 
ATOM     47  H   UNL     1       6.289  -7.156   8.921  1.00  0.00     0.167 HD
ATOM     48  C   UNL     1       5.539  -5.294  12.802  1.00  0.00     0.034 A 
ATOM     49  C   UNL     1       7.702  -8.782   7.142  1.00  0.00     0.034 A 
ATOM     50  C   UNL     1       6.614  -6.220  13.038  1.00  0.00     0.049 A 
ATOM     51  C   UNL     1       8.386  -8.929   8.475  1.00  0.00     0.074 A 
ATOM     52  C   UNL     1       7.263  -6.503  14.227  1.00  0.00     0.029 A 
ATOM     53  N   UNL     1       7.213  -7.003  12.061  1.00  0.00    -0.354 N 
ATOM     54  N   UNL     1       8.059  -8.410   9.634  1.00  0.00    -0.248 NA
ATOM     55  C   UNL     1       9.570  -9.800   8.521  1.00  0.00     0.031 C 
ATOM     56  C   UNL     1       8.272  -7.438  13.963  1.00  0.00     0.029 A 
ATOM     57  C   UNL     1       8.236  -7.754  12.614  1.00  0.00     0.049 A 
ATOM     58  H   UNL     1       6.949  -7.021  11.113  1.00  0.00     0.167 HD
ATOM     59  C   UNL     1       8.975  -8.914  10.552  1.00  0.00     0.074 A 
ATOM     60  C   UNL     1       9.857  -9.797   9.816  1.00  0.00     0.031 C 
ATOM     61  C   UNL     1       9.084  -8.661  11.881  1.00  0.00     0.034 A 
BRANCH  48  62
ATOM     62  C   UNL     1       5.032  -4.469  13.956  1.00  0.00     0.023 A 
ATOM     63  C   UNL     1       3.778  -4.767  14.529  1.00  0.00     0.012 A 
ATOM     64  C   UNL     1       5.799  -3.414  14.486  1.00  0.00     0.148 A 
ATOM     65  C   UNL     1       3.278  -4.002  15.582  1.00  0.00     0.002 A 
ATOM     66  C   UNL     1       5.311  -2.682  15.564  1.00  0.00     0.091 A 
ATOM     67  F   UNL     1       6.976  -3.124  13.913  1.00  0.00    -0.205 F 
ATOM     68  C   UNL     1       4.047  -2.966  16.105  1.00  0.00     0.022 A 
BRANCH  66  69
ATOM     69  S   UNL     1       6.267  -1.378  16.346  1.00  0.00     0.127 S 
ATOM     70  O   UNL     1       5.646  -0.179  15.786  1.00  0.00    -0.237 OA
ATOM     71  O   UNL     1       5.993  -1.598  17.767  1.00  0.00    -0.237 OA
ATOM     72  O   UNL     1       7.651  -1.615  15.957  1.00  0.00    -0.744 OA
ENDBRANCH  66  69
ENDBRANCH  48  62
BRANCH  49  73
ATOM     73  C   UNL     1       8.169  -9.548   5.953  1.00  0.00     0.023 A 
ATOM     74  C   UNL     1       8.002 -10.945   5.923  1.00  0.00     0.012 A 
ATOM     75  C   UNL     1       8.733  -8.897   4.838  1.00  0.00     0.148 A 
ATOM     76  C   UNL     1       8.406 -11.685   4.810  1.00  0.00     0.002 A 
ATOM     77  C   UNL     1       9.084  -9.633   3.713  1.00  0.00     0.091 A 
ATOM     78  F   UNL     1       8.894  -7.567   4.896  1.00  0.00    -0.205 F 
ATOM     79  C   UNL     1       8.935 -11.028   3.702  1.00  0.00     0.022 A 
BRANCH  77  80
ATOM     80  S   UNL     1       9.653  -8.863   2.193  1.00  0.00     0.127 S 
ATOM     81  O   UNL     1      11.029  -9.348   2.109  1.00  0.00    -0.237 OA
ATOM     82  O   UNL     1       8.735  -9.435   1.208  1.00  0.00    -0.237 OA
ATOM     83  O   UNL     1       9.504  -7.429   2.395  1.00  0.00    -0.744 OA
ENDBRANCH  77  80
ENDBRANCH  49  73
BRANCH  61  84
ATOM     84  C   UNL     1      10.186  -9.359  12.637  1.00  0.00     0.023 A 
ATOM     85  C   UNL     1      11.524  -8.961  12.446  1.00  0.00     0.012 A 
ATOM     86  C   UNL     1       9.893 -10.365  13.579  1.00  0.00     0.148 A 
ATOM     87  C   UNL     1      12.556  -9.576  13.155  1.00  0.00     0.002 A 
ATOM     88  C   UNL     1      10.922 -10.940  14.317  1.00  0.00     0.091 A 
ATOM     89  F   UNL     1       8.617 -10.746  13.734  1.00  0.00    -0.205 F 
ATOM     90  C   UNL     1      12.255 -10.556  14.098  1.00  0.00     0.022 A 
BRANCH  88  91
ATOM     91  S   UNL     1      10.615 -12.143  15.617  1.00  0.00     0.127 S 
ATOM     92  O   UNL     1      11.013 -13.391  14.969  1.00  0.00    -0.237 OA
ATOM     93  O   UNL     1      11.516 -11.693  16.679  1.00  0.00    -0.237 OA
ATOM     94  O   UNL     1       9.200 -12.025  15.940  1.00  0.00    -0.744 OA
ENDBRANCH  88  91
ENDBRANCH  61  84
ENDBRANCH  35  36
ENDBRANCH  28  30
ENDBRANCH  27  28
ENDBRANCH  26  27
ENDBRANCH  25  26
ENDBRANCH   1  25
TORSDOF 20
