REMARK SMILES Cc1sc(NC(=O)[C@@H]2[C@@H](C(=O)OCCOCCOC(=O)c3ccc(-c4c5nc(c(-c6cccc(S(=O)(=O)[O-])c6F)c6ccc([nH]6)c(-c6cccc(S(=O)(=O)[O-])c6F)c6nc(c(-c7cccc(S(=O)(=O)[O-])c7F)c7ccc4[nH]7)C=C6)C=C5)cc3)[C@@H]3C=C[C@H]2C3)c(C#N)c1C
REMARK SMILES IDX 15 1 14 2 13 3 12 4 10 5 11 6 9 7 8 8 87 9 84 10 86 11 88 12
REMARK SMILES IDX 85 13 6 14 5 15 7 17 4 18 1 19 2 20 3 21 92 22 89 23 93 24
REMARK SMILES IDX 90 25 91 26 16 27 17 28 18 29 19 30 20 31 21 32 22 33 83 34
REMARK SMILES IDX 23 35 82 36 24 37 25 38 26 39 76 40 27 41 81 42 75 43 77 44
REMARK SMILES IDX 28 45 80 46 74 47 73 48 29 50 61 51 41 52 60 53 42 54 45 55
REMARK SMILES IDX 59 56 78 57 43 58 44 59 58 61 79 62 46 63 30 64 31 65 39 66
REMARK SMILES IDX 32 67 34 68 40 69 33 70 35 71 36 72 37 73 38 74 62 75 63 76
REMARK SMILES IDX 71 77 64 78 66 79 72 80 65 81 67 82 68 83 69 84 70 85 47 86
REMARK SMILES IDX 48 87 56 88 49 89 51 90 57 91 50 92 52 93 53 94 54 95 55 96
REMARK H PARENT 5 16 77 49 45 60
REMARK Flexibility Score: inf
ROOT
ATOM      1  O   UNL     1      -3.817  -4.796   7.758  1.00  0.00    -0.374 OA
ENDROOT
BRANCH   1   2
ATOM      2  C   UNL     1      -4.494  -4.392   6.569  1.00  0.00     0.202 C 
BRANCH   2   3
ATOM      3  C   UNL     1      -4.332  -2.958   6.075  1.00  0.00     0.261 C 
BRANCH   3   4
ATOM      4  O   UNL     1      -2.974  -2.601   5.797  1.00  0.00    -0.463 OA
BRANCH   4   5
ATOM      5  C   UNL     1      -2.373  -1.864   6.768  1.00  0.00     0.310 C 
ATOM      6  O   UNL     1      -2.873  -1.603   7.855  1.00  0.00    -0.252 OA
BRANCH   5   7
ATOM      7  C   UNL     1      -1.004  -1.389   6.362  1.00  0.00     0.119 C 
ATOM      8  C   UNL     1      -1.092  -0.561   5.026  1.00  0.00     0.100 C 
ATOM      9  C   UNL     1       0.074  -1.202   4.223  1.00  0.00     0.025 C 
ATOM     10  C   UNL     1       0.082  -2.450   6.068  1.00  0.00     0.027 C 
ATOM     11  C   UNL     1       1.385  -0.936   4.908  1.00  0.00    -0.027 C 
ATOM     12  C   UNL     1      -0.086  -2.691   4.576  1.00  0.00     0.017 C 
ATOM     13  C   UNL     1       1.405  -1.700   6.010  1.00  0.00    -0.027 C 
BRANCH   8  14
ATOM     14  C   UNL     1      -1.110   0.919   5.410  1.00  0.00     0.229 C 
ATOM     15  N   UNL     1      -0.839   1.960   4.590  1.00  0.00    -0.316 N 
ATOM     16  H   UNL     1      -0.875   2.840   5.032  1.00  0.00     0.170 HD
ATOM     17  O   UNL     1      -1.448   1.258   6.555  1.00  0.00    -0.274 OA
BRANCH  15  18
ATOM     18  C   UNL     1      -0.523   2.015   3.260  1.00  0.00     0.113 A 
ATOM     19  C   UNL     1       0.606   0.248   0.070  1.00  0.00     0.057 C 
ATOM     20  C   UNL     1       0.158   1.258   1.073  1.00  0.00     0.008 A 
ATOM     21  S   UNL     1      -1.119   0.884   2.150  1.00  0.00    -0.122 S 
ATOM     22  C   UNL     1       0.593   2.558   1.292  1.00  0.00    -0.017 A 
ATOM     23  C   UNL     1       0.155   3.012   2.588  1.00  0.00     0.090 A 
ATOM     24  C   UNL     1       1.477   3.340   0.380  1.00  0.00     0.047 C 
BRANCH  23  25
ATOM     25  C   UNL     1       0.504   4.257   3.193  1.00  0.00     0.103 C 
ATOM     26  N   UNL     1       0.763   5.272   3.712  1.00  0.00    -0.192 NA
ENDBRANCH  23  25
ENDBRANCH  15  18
ENDBRANCH   8  14
ENDBRANCH   5   7
ENDBRANCH   4   5
ENDBRANCH   3   4
ENDBRANCH   2   3
ENDBRANCH   1   2
BRANCH   1  27
ATOM     27  C   UNL     1      -2.398  -4.924   7.774  1.00  0.00     0.202 C 
BRANCH  27  28
ATOM     28  C   UNL     1      -1.754  -6.045   6.978  1.00  0.00     0.261 C 
BRANCH  28  29
ATOM     29  O   UNL     1      -2.058  -5.939   5.598  1.00  0.00    -0.460 OA
BRANCH  29  30
ATOM     30  C   UNL     1      -3.020  -6.798   5.193  1.00  0.00     0.338 C 
ATOM     31  O   UNL     1      -3.805  -7.415   5.894  1.00  0.00    -0.246 OA
BRANCH  30  32
ATOM     32  C   UNL     1      -2.875  -7.006   3.752  1.00  0.00     0.060 A 
ATOM     33  C   UNL     1      -3.740  -7.949   3.199  1.00  0.00     0.016 A 
ATOM     34  C   UNL     1      -1.657  -6.653   3.157  1.00  0.00     0.016 A 
ATOM     35  C   UNL     1      -3.224  -8.790   2.247  1.00  0.00     0.010 A 
ATOM     36  C   UNL     1      -1.144  -7.497   2.213  1.00  0.00     0.010 A 
ATOM     37  C   UNL     1      -1.885  -8.623   1.870  1.00  0.00    -0.014 A 
BRANCH  37  38
ATOM     38  C   UNL     1      -1.314  -9.535   0.909  1.00  0.00     0.031 A 
ATOM     39  C   UNL     1      -1.873  -9.229  -0.427  1.00  0.00     0.074 A 
ATOM     40  C   UNL     1      -0.345 -10.418   1.229  1.00  0.00     0.049 A 
ATOM     41  N   UNL     1      -2.794  -9.896  -1.039  1.00  0.00    -0.248 NA
ATOM     42  C   UNL     1      -1.646  -7.883  -0.992  1.00  0.00     0.031 C 
ATOM     43  C   UNL     1       0.374 -10.591   2.495  1.00  0.00     0.029 A 
ATOM     44  N   UNL     1       0.286 -11.316   0.430  1.00  0.00    -0.354 N 
ATOM     45  C   UNL     1      -2.994  -9.199  -2.223  1.00  0.00     0.074 A 
ATOM     46  C   UNL     1      -2.534  -7.861  -1.987  1.00  0.00     0.031 C 
ATOM     47  C   UNL     1       1.500 -11.317   2.279  1.00  0.00     0.029 A 
ATOM     48  C   UNL     1       1.522 -11.758   0.895  1.00  0.00     0.049 A 
ATOM     49  H   UNL     1      -0.103 -11.632  -0.417  1.00  0.00     0.167 HD
ATOM     50  C   UNL     1      -3.129  -9.879  -3.392  1.00  0.00     0.034 A 
ATOM     51  C   UNL     1       2.496 -12.369   0.160  1.00  0.00     0.034 A 
ATOM     52  C   UNL     1      -3.470 -11.259  -3.146  1.00  0.00     0.049 A 
ATOM     53  C   UNL     1       1.844 -12.880  -1.074  1.00  0.00     0.074 A 
ATOM     54  C   UNL     1      -4.487 -11.893  -2.457  1.00  0.00     0.029 A 
ATOM     55  N   UNL     1      -2.443 -12.168  -3.235  1.00  0.00    -0.354 N 
ATOM     56  N   UNL     1       0.962 -13.840  -1.052  1.00  0.00    -0.248 NA
ATOM     57  C   UNL     1       1.767 -11.973  -2.210  1.00  0.00     0.031 C 
ATOM     58  C   UNL     1      -3.848 -12.958  -1.758  1.00  0.00     0.029 A 
ATOM     59  C   UNL     1      -2.509 -13.001  -2.150  1.00  0.00     0.049 A 
ATOM     60  H   UNL     1      -1.774 -12.212  -3.956  1.00  0.00     0.167 HD
ATOM     61  C   UNL     1      -0.061 -13.372  -1.865  1.00  0.00     0.074 A 
ATOM     62  C   UNL     1       0.518 -12.246  -2.604  1.00  0.00     0.031 C 
ATOM     63  C   UNL     1      -1.362 -13.701  -1.615  1.00  0.00     0.034 A 
BRANCH  50  64
ATOM     64  C   UNL     1      -2.519  -9.421  -4.696  1.00  0.00     0.023 A 
ATOM     65  C   UNL     1      -2.891 -10.127  -5.857  1.00  0.00     0.012 A 
ATOM     66  C   UNL     1      -1.423  -8.530  -4.811  1.00  0.00     0.148 A 
ATOM     67  C   UNL     1      -2.189  -9.976  -7.058  1.00  0.00     0.002 A 
ATOM     68  C   UNL     1      -0.785  -8.317  -6.024  1.00  0.00     0.091 A 
ATOM     69  F   UNL     1      -0.885  -7.973  -3.725  1.00  0.00    -0.205 F 
ATOM     70  C   UNL     1      -1.144  -9.062  -7.146  1.00  0.00     0.022 A 
BRANCH  68  71
ATOM     71  S   UNL     1       0.543  -7.115  -6.195  1.00  0.00     0.127 S 
ATOM     72  O   UNL     1       1.693  -7.980  -6.439  1.00  0.00    -0.237 OA
ATOM     73  O   UNL     1       0.090  -6.340  -7.350  1.00  0.00    -0.237 OA
ATOM     74  O   UNL     1       0.565  -6.363  -4.946  1.00  0.00    -0.744 OA
ENDBRANCH  68  71
ENDBRANCH  50  64
BRANCH  51  75
ATOM     75  C   UNL     1       3.981 -12.246   0.239  1.00  0.00     0.023 A 
ATOM     76  C   UNL     1       4.814 -13.152  -0.460  1.00  0.00     0.012 A 
ATOM     77  C   UNL     1       4.576 -11.068   0.737  1.00  0.00     0.148 A 
ATOM     78  C   UNL     1       6.174 -12.876  -0.677  1.00  0.00     0.002 A 
ATOM     79  C   UNL     1       5.925 -10.795   0.516  1.00  0.00     0.091 A 
ATOM     80  F   UNL     1       3.799 -10.164   1.344  1.00  0.00    -0.205 F 
ATOM     81  C   UNL     1       6.728 -11.692  -0.199  1.00  0.00     0.022 A 
BRANCH  79  82
ATOM     82  S   UNL     1       6.685  -9.258   1.062  1.00  0.00     0.127 S 
ATOM     83  O   UNL     1       7.880  -9.741   1.755  1.00  0.00    -0.237 OA
ATOM     84  O   UNL     1       6.944  -8.581  -0.206  1.00  0.00    -0.237 OA
ATOM     85  O   UNL     1       5.707  -8.615   1.930  1.00  0.00    -0.744 OA
ENDBRANCH  79  82
ENDBRANCH  51  75
BRANCH  63  86
ATOM     86  C   UNL     1      -1.642 -14.755  -0.571  1.00  0.00     0.023 A 
ATOM     87  C   UNL     1      -1.336 -14.606   0.801  1.00  0.00     0.012 A 
ATOM     88  C   UNL     1      -2.385 -15.872  -0.978  1.00  0.00     0.148 A 
ATOM     89  C   UNL     1      -1.744 -15.567   1.734  1.00  0.00     0.002 A 
ATOM     90  C   UNL     1      -2.825 -16.800  -0.045  1.00  0.00     0.091 A 
ATOM     91  F   UNL     1      -2.675 -15.992  -2.282  1.00  0.00    -0.205 F 
ATOM     92  C   UNL     1      -2.498 -16.660   1.312  1.00  0.00     0.022 A 
BRANCH  90  93
ATOM     93  S   UNL     1      -3.891 -18.157  -0.525  1.00  0.00     0.127 S 
ATOM     94  O   UNL     1      -2.977 -19.296  -0.463  1.00  0.00    -0.237 OA
ATOM     95  O   UNL     1      -4.916 -18.135   0.520  1.00  0.00    -0.237 OA
ATOM     96  O   UNL     1      -4.391 -17.826  -1.854  1.00  0.00    -0.744 OA
ENDBRANCH  90  93
ENDBRANCH  63  86
ENDBRANCH  37  38
ENDBRANCH  30  32
ENDBRANCH  29  30
ENDBRANCH  28  29
ENDBRANCH  27  28
ENDBRANCH   1  27
TORSDOF 20
