REMARK SMILES CCC[C@H](Nc1cc(C)c(N)c(C(=O)OCCOCCOC(=O)c2ccc(-c3c4nc(c(-c5cccc(S(=O)(=O)[O-])c5F)c5ccc([nH]5)c(-c5cccc(S(=O)(=O)[O-])c5F)c5nc(c(-c6cccc(S(=O)(=O)[O-])c6F)c6ccc3[nH]6)C=C5)C=C4)cc2)c1)c1cccs1
REMARK SMILES IDX 17 1 16 2 15 3 13 4 14 5 12 6 6 7 7 8 87 9 8 10 9 11 10 12
REMARK SMILES IDX 5 13 4 15 3 16 2 17 1 18 88 19 89 20 92 21 90 22 91 23 11 24
REMARK SMILES IDX 18 27 19 28 20 29 21 30 22 31 23 32 24 33 25 34 86 35 26 36
REMARK SMILES IDX 85 37 27 38 28 39 29 40 79 41 30 42 84 43 78 44 80 45 31 46
REMARK SMILES IDX 83 47 77 48 76 49 32 51 64 52 44 53 63 54 45 55 48 56 62 57
REMARK SMILES IDX 81 58 46 59 47 60 61 62 82 63 49 64 33 65 34 66 42 67 35 68
REMARK SMILES IDX 37 69 43 70 36 71 38 72 39 73 40 74 41 75 65 76 66 77 74 78
REMARK SMILES IDX 67 79 69 80 75 81 68 82 70 83 71 84 72 85 73 86 50 87 51 88
REMARK SMILES IDX 59 89 52 90 54 91 60 92 53 93 55 94 56 95 57 96 58 97
REMARK H PARENT 5 14 11 25 11 26 80 50 48 61
REMARK Flexibility Score: inf
ROOT
ATOM      1  C   UNL     1       2.581   1.365  -5.536  1.00  0.00     0.202 C 
ENDROOT
BRANCH   1   2
ATOM      2  C   UNL     1       2.824  -0.146  -5.476  1.00  0.00     0.261 C 
BRANCH   2   3
ATOM      3  O   UNL     1       2.655  -0.658  -4.145  1.00  0.00    -0.460 OA
BRANCH   3   4
ATOM      4  C   UNL     1       3.808  -1.015  -3.526  1.00  0.00     0.340 C 
ATOM      5  O   UNL     1       4.918  -1.064  -4.041  1.00  0.00    -0.246 OA
BRANCH   4   6
ATOM      6  C   UNL     1       3.594  -1.172  -2.064  1.00  0.00     0.085 A 
ATOM      7  C   UNL     1       2.217  -1.940  -0.197  1.00  0.00     0.036 A 
ATOM      8  C   UNL     1       3.226  -1.489   0.663  1.00  0.00     0.031 A 
ATOM      9  C   UNL     1       2.419  -1.767  -1.572  1.00  0.00     0.043 A 
ATOM     10  C   UNL     1       4.412  -0.892   0.193  1.00  0.00    -0.025 A 
ATOM     11  C   UNL     1       5.449  -0.455   1.191  1.00  0.00     0.047 C 
ATOM     12  C   UNL     1       4.605  -0.719  -1.186  1.00  0.00     0.049 A 
BRANCH   7  13
ATOM     13  N   UNL     1       1.019  -2.471   0.249  1.00  0.00    -0.377 N 
ATOM     14  H   UNL     1       0.409  -2.841  -0.428  1.00  0.00     0.161 HD
BRANCH  13  15
ATOM     15  C   UNL     1       0.586  -2.526   1.644  1.00  0.00     0.119 C 
BRANCH  15  16
ATOM     16  C   UNL     1      -0.961  -2.483   1.736  1.00  0.00     0.030 C 
BRANCH  16  17
ATOM     17  C   UNL     1      -1.793  -3.559   1.024  1.00  0.00    -0.001 C 
ATOM     18  C   UNL     1      -1.756  -4.942   1.652  1.00  0.00     0.004 C 
ENDBRANCH  16  17
ENDBRANCH  15  16
BRANCH  15  19
ATOM     19  C   UNL     1       1.180  -3.604   2.531  1.00  0.00     0.027 A 
ATOM     20  C   UNL     1       1.328  -3.557   3.909  1.00  0.00     0.017 A 
ATOM     21  S   UNL     1       1.819  -5.067   1.902  1.00  0.00    -0.147 S 
ATOM     22  C   UNL     1       1.845  -4.769   4.448  1.00  0.00     0.012 A 
ATOM     23  C   UNL     1       2.110  -5.694   3.465  1.00  0.00     0.065 A 
ENDBRANCH  15  19
ENDBRANCH  13  15
ENDBRANCH   7  13
BRANCH  12  24
ATOM     24  N   UNL     1       5.677   0.054  -1.652  1.00  0.00    -0.398 N 
ATOM     25  H   UNL     1       6.371   0.360  -1.025  1.00  0.00     0.156 HD
ATOM     26  H   UNL     1       5.735   0.290  -2.606  1.00  0.00     0.156 HD
ENDBRANCH  12  24
ENDBRANCH   4   6
ENDBRANCH   3   4
ENDBRANCH   2   3
ENDBRANCH   1   2
BRANCH   1  27
ATOM     27  O   UNL     1       3.420   2.183  -4.721  1.00  0.00    -0.374 OA
BRANCH  27  28
ATOM     28  C   UNL     1       3.051   2.308  -3.344  1.00  0.00     0.202 C 
BRANCH  28  29
ATOM     29  C   UNL     1       1.898   3.269  -3.025  1.00  0.00     0.261 C 
BRANCH  29  30
ATOM     30  O   UNL     1       0.636   2.789  -3.523  1.00  0.00    -0.460 OA
BRANCH  30  31
ATOM     31  C   UNL     1       0.128   3.475  -4.573  1.00  0.00     0.338 C 
ATOM     32  O   UNL     1       0.581   4.494  -5.081  1.00  0.00    -0.246 OA
BRANCH  31  33
ATOM     33  C   UNL     1      -0.979   2.708  -5.175  1.00  0.00     0.060 A 
ATOM     34  C   UNL     1      -0.904   2.416  -6.544  1.00  0.00     0.016 A 
ATOM     35  C   UNL     1      -2.086   2.309  -4.425  1.00  0.00     0.016 A 
ATOM     36  C   UNL     1      -1.953   1.748  -7.176  1.00  0.00     0.010 A 
ATOM     37  C   UNL     1      -3.141   1.651  -5.062  1.00  0.00     0.010 A 
ATOM     38  C   UNL     1      -3.092   1.388  -6.444  1.00  0.00    -0.014 A 
BRANCH  38  39
ATOM     39  C   UNL     1      -4.282   0.834  -7.133  1.00  0.00     0.031 A 
ATOM     40  C   UNL     1      -5.456   1.734  -7.401  1.00  0.00     0.074 A 
ATOM     41  C   UNL     1      -4.326  -0.464  -7.487  1.00  0.00     0.049 A 
ATOM     42  N   UNL     1      -6.634   1.437  -7.883  1.00  0.00    -0.248 NA
ATOM     43  C   UNL     1      -5.279   3.160  -7.078  1.00  0.00     0.031 C 
ATOM     44  C   UNL     1      -3.245  -1.430  -7.293  1.00  0.00     0.029 A 
ATOM     45  N   UNL     1      -5.339  -1.200  -8.050  1.00  0.00    -0.354 N 
ATOM     46  C   UNL     1      -7.346   2.631  -7.905  1.00  0.00     0.074 A 
ATOM     47  C   UNL     1      -6.473   3.655  -7.373  1.00  0.00     0.031 C 
ATOM     48  C   UNL     1      -3.669  -2.642  -7.690  1.00  0.00     0.029 A 
ATOM     49  C   UNL     1      -5.057  -2.544  -8.134  1.00  0.00     0.049 A 
ATOM     50  H   UNL     1      -6.184  -0.804  -8.364  1.00  0.00     0.167 HD
ATOM     51  C   UNL     1      -8.606   2.857  -8.346  1.00  0.00     0.034 A 
ATOM     52  C   UNL     1      -5.845  -3.578  -8.490  1.00  0.00     0.034 A 
ATOM     53  C   UNL     1      -9.467   1.838  -8.882  1.00  0.00     0.049 A 
ATOM     54  C   UNL     1      -7.266  -3.307  -8.917  1.00  0.00     0.074 A 
ATOM     55  C   UNL     1     -10.755   1.970  -9.371  1.00  0.00     0.029 A 
ATOM     56  N   UNL     1      -9.134   0.497  -8.992  1.00  0.00    -0.354 N 
ATOM     57  N   UNL     1      -7.892  -2.160  -9.028  1.00  0.00    -0.248 NA
ATOM     58  C   UNL     1      -8.081  -4.472  -9.294  1.00  0.00     0.031 C 
ATOM     59  C   UNL     1     -11.208   0.705  -9.758  1.00  0.00     0.029 A 
ATOM     60  C   UNL     1     -10.192  -0.211  -9.533  1.00  0.00     0.049 A 
ATOM     61  H   UNL     1      -8.271   0.106  -8.724  1.00  0.00     0.167 HD
ATOM     62  C   UNL     1      -9.158  -2.462  -9.519  1.00  0.00     0.074 A 
ATOM     63  C   UNL     1      -9.202  -3.897  -9.709  1.00  0.00     0.031 C 
ATOM     64  C   UNL     1     -10.198  -1.631  -9.774  1.00  0.00     0.034 A 
BRANCH  51  65
ATOM     65  C   UNL     1      -9.120   4.271  -8.305  1.00  0.00     0.023 A 
ATOM     66  C   UNL     1      -8.633   5.210  -9.237  1.00  0.00     0.012 A 
ATOM     67  C   UNL     1     -10.129   4.654  -7.401  1.00  0.00     0.148 A 
ATOM     68  C   UNL     1      -9.124   6.514  -9.255  1.00  0.00     0.002 A 
ATOM     69  C   UNL     1     -10.644   5.945  -7.451  1.00  0.00     0.091 A 
ATOM     70  F   UNL     1     -10.565   3.752  -6.510  1.00  0.00    -0.205 F 
ATOM     71  C   UNL     1     -10.136   6.878  -8.370  1.00  0.00     0.022 A 
BRANCH  69  72
ATOM     72  S   UNL     1     -11.997   6.494  -6.405  1.00  0.00     0.127 S 
ATOM     73  O   UNL     1     -11.328   7.469  -5.545  1.00  0.00    -0.237 OA
ATOM     74  O   UNL     1     -12.921   7.074  -7.380  1.00  0.00    -0.237 OA
ATOM     75  O   UNL     1     -12.492   5.304  -5.727  1.00  0.00    -0.744 OA
ENDBRANCH  69  72
ENDBRANCH  51  65
BRANCH  52  76
ATOM     76  C   UNL     1      -5.317  -4.973  -8.463  1.00  0.00     0.023 A 
ATOM     77  C   UNL     1      -5.163  -5.682  -9.670  1.00  0.00     0.012 A 
ATOM     78  C   UNL     1      -4.984  -5.605  -7.249  1.00  0.00     0.148 A 
ATOM     79  C   UNL     1      -4.728  -7.009  -9.665  1.00  0.00     0.002 A 
ATOM     80  C   UNL     1      -4.496  -6.907  -7.256  1.00  0.00     0.091 A 
ATOM     81  F   UNL     1      -5.158  -4.924  -6.108  1.00  0.00    -0.205 F 
ATOM     82  C   UNL     1      -4.386  -7.618  -8.461  1.00  0.00     0.022 A 
BRANCH  80  83
ATOM     83  S   UNL     1      -3.914  -7.717  -5.762  1.00  0.00     0.127 S 
ATOM     84  O   UNL     1      -5.002  -8.650  -5.483  1.00  0.00    -0.237 OA
ATOM     85  O   UNL     1      -2.670  -8.339  -6.218  1.00  0.00    -0.237 OA
ATOM     86  O   UNL     1      -3.724  -6.649  -4.790  1.00  0.00    -0.744 OA
ENDBRANCH  80  83
ENDBRANCH  52  76
BRANCH  64  87
ATOM     87  C   UNL     1     -11.464  -2.237 -10.323  1.00  0.00     0.023 A 
ATOM     88  C   UNL     1     -12.297  -3.000  -9.481  1.00  0.00     0.012 A 
ATOM     89  C   UNL     1     -11.867  -1.982 -11.649  1.00  0.00     0.148 A 
ATOM     90  C   UNL     1     -13.497  -3.525  -9.959  1.00  0.00     0.002 A 
ATOM     91  C   UNL     1     -13.088  -2.467 -12.103  1.00  0.00     0.091 A 
ATOM     92  F   UNL     1     -11.053  -1.266 -12.438  1.00  0.00    -0.205 F 
ATOM     93  C   UNL     1     -13.898  -3.249 -11.264  1.00  0.00     0.022 A 
BRANCH  91  94
ATOM     94  S   UNL     1     -13.733  -2.087 -13.736  1.00  0.00     0.127 S 
ATOM     95  O   UNL     1     -13.657  -3.389 -14.397  1.00  0.00    -0.237 OA
ATOM     96  O   UNL     1     -15.091  -1.634 -13.433  1.00  0.00    -0.237 OA
ATOM     97  O   UNL     1     -12.860  -1.058 -14.286  1.00  0.00    -0.744 OA
ENDBRANCH  91  94
ENDBRANCH  64  87
ENDBRANCH  38  39
ENDBRANCH  31  33
ENDBRANCH  30  31
ENDBRANCH  29  30
ENDBRANCH  28  29
ENDBRANCH  27  28
ENDBRANCH   1  27
TORSDOF 23
