REMARK SMILES O=C(CCCC(=O)OCCOCCOC(=O)c1ccc(-c2c3nc(c(-c4cccc(S(=O)(=O)[O-])c4F)c4ccc([nH]4)c(-c4cccc(S(=O)(=O)[O-])c4F)c4nc(c(-c5cccc(S(=O)(=O)[O-])c5F)c5ccc2[nH]5)C=C4)C=C3)cc1)Nc1nc2n(n1)[C@@H](c1ccc(Cl)cc1)C[C@@H](c1ccc(Cl)cc1)N2
REMARK SMILES IDX 10 1 9 2 8 3 6 4 7 5 5 6 4 7 3 8 2 9 1 10 80 11 81 13 82 14
REMARK SMILES IDX 85 15 83 16 84 17 103 18 86 19 95 20 94 22 87 23 88 24 93 25
REMARK SMILES IDX 89 26 92 27 90 28 91 29 96 30 97 31 102 32 98 33 101 34
REMARK SMILES IDX 99 35 100 36 11 37 12 38 13 39 14 40 15 41 16 42 17 43 18 44
REMARK SMILES IDX 79 45 19 46 78 47 20 48 21 49 22 50 72 51 23 52 77 53 71 54
REMARK SMILES IDX 73 55 24 56 76 57 70 58 69 59 25 61 57 62 37 63 56 64 38 65
REMARK SMILES IDX 41 66 55 67 74 68 39 69 40 70 54 72 75 73 42 74 26 75 27 76
REMARK SMILES IDX 35 77 28 78 30 79 36 80 29 81 31 82 32 83 33 84 34 85 58 86
REMARK SMILES IDX 59 87 67 88 60 89 62 90 68 91 61 92 63 93 64 94 65 95 66 96
REMARK SMILES IDX 43 97 44 98 52 99 45 100 47 101 53 102 46 103 48 104 49 105
REMARK SMILES IDX 50 106 51 107
REMARK H PARENT 80 12 103 21 73 60 41 71
REMARK Flexibility Score: inf
ROOT
ATOM      1  C   UNL     1       7.247  -1.411  -1.896  1.00  0.00     0.202 C 
ENDROOT
BRANCH   1   2
ATOM      2  C   UNL     1       6.693  -1.674  -0.492  1.00  0.00     0.261 C 
BRANCH   2   3
ATOM      3  O   UNL     1       5.671  -0.720  -0.151  1.00  0.00    -0.463 OA
BRANCH   3   4
ATOM      4  C   UNL     1       5.899   0.041   0.948  1.00  0.00     0.305 C 
ATOM      5  O   UNL     1       6.831  -0.114   1.728  1.00  0.00    -0.252 OA
BRANCH   4   6
ATOM      6  C   UNL     1       4.875   1.143   1.127  1.00  0.00     0.123 C 
BRANCH   6   7
ATOM      7  C   UNL     1       4.019   1.552  -0.082  1.00  0.00     0.022 C 
BRANCH   7   8
ATOM      8  C   UNL     1       2.997   0.520  -0.556  1.00  0.00     0.101 C 
BRANCH   8   9
ATOM      9  C   UNL     1       2.129   0.125   0.608  1.00  0.00     0.226 C 
ATOM     10  O   UNL     1       1.287   0.911   1.035  1.00  0.00    -0.275 OA
ATOM     11  N   UNL     1       2.443  -1.116   1.108  1.00  0.00    -0.293 N 
ATOM     12  H   UNL     1       3.094  -1.678   0.628  1.00  0.00     0.173 HD
BRANCH  11  13
ATOM     13  C   UNL     1       1.874  -1.587   2.252  1.00  0.00     0.250 A 
ATOM     14  N   UNL     1       1.410  -0.769   3.236  1.00  0.00    -0.176 NA
ATOM     15  N   UNL     1       1.609  -2.885   2.409  1.00  0.00    -0.130 NA
ATOM     16  C   UNL     1       0.555  -1.538   3.847  1.00  0.00     0.224 A 
ATOM     17  N   UNL     1       0.657  -2.821   3.370  1.00  0.00    -0.222 N 
ATOM     18  N   UNL     1      -0.531  -1.152   4.537  1.00  0.00    -0.347 N 
ATOM     19  C   UNL     1      -0.436  -3.788   3.464  1.00  0.00     0.144 C 
ATOM     20  C   UNL     1      -1.780  -1.637   3.942  1.00  0.00     0.115 C 
ATOM     21  H   UNL     1      -0.493  -0.603   5.353  1.00  0.00     0.164 HD
ATOM     22  C   UNL     1      -1.755  -3.173   4.024  1.00  0.00     0.062 C 
BRANCH  19  23
ATOM     23  C   UNL     1      -0.048  -4.994   4.306  1.00  0.00    -0.023 A 
ATOM     24  C   UNL     1      -0.346  -6.278   3.829  1.00  0.00     0.007 A 
ATOM     25  C   UNL     1       0.476  -4.862   5.604  1.00  0.00     0.007 A 
ATOM     26  C   UNL     1      -0.153  -7.404   4.630  1.00  0.00     0.021 A 
ATOM     27  C   UNL     1       0.672  -5.990   6.405  1.00  0.00     0.021 A 
ATOM     28  C   UNL     1       0.347  -7.255   5.918  1.00  0.00     0.041 A 
ATOM     29  Cl  UNL     1       0.545  -8.633   6.933  1.00  0.00    -0.084 Cl
ENDBRANCH  19  23
BRANCH  20  30
ATOM     30  C   UNL     1      -2.958  -0.911   4.572  1.00  0.00    -0.025 A 
ATOM     31  C   UNL     1      -3.002   0.498   4.504  1.00  0.00     0.007 A 
ATOM     32  C   UNL     1      -4.037  -1.576   5.168  1.00  0.00     0.007 A 
ATOM     33  C   UNL     1      -4.069   1.217   5.044  1.00  0.00     0.021 A 
ATOM     34  C   UNL     1      -5.114  -0.858   5.698  1.00  0.00     0.021 A 
ATOM     35  C   UNL     1      -5.123   0.534   5.639  1.00  0.00     0.041 A 
ATOM     36  Cl  UNL     1      -6.448   1.412   6.296  1.00  0.00    -0.084 Cl
ENDBRANCH  20  30
ENDBRANCH  11  13
ENDBRANCH   8   9
ENDBRANCH   7   8
ENDBRANCH   6   7
ENDBRANCH   4   6
ENDBRANCH   3   4
ENDBRANCH   2   3
ENDBRANCH   1   2
BRANCH   1  37
ATOM     37  O   UNL     1       7.981  -0.198  -2.070  1.00  0.00    -0.374 OA
BRANCH  37  38
ATOM     38  C   UNL     1       7.239   1.019  -2.124  1.00  0.00     0.202 C 
BRANCH  38  39
ATOM     39  C   UNL     1       6.483   1.315  -3.426  1.00  0.00     0.261 C 
BRANCH  39  40
ATOM     40  O   UNL     1       5.443   0.361  -3.708  1.00  0.00    -0.460 OA
BRANCH  40  41
ATOM     41  C   UNL     1       5.682  -0.424  -4.787  1.00  0.00     0.338 C 
ATOM     42  O   UNL     1       6.652  -0.373  -5.533  1.00  0.00    -0.246 OA
BRANCH  41  43
ATOM     43  C   UNL     1       4.678  -1.499  -4.890  1.00  0.00     0.060 A 
ATOM     44  C   UNL     1       5.149  -2.815  -4.992  1.00  0.00     0.016 A 
ATOM     45  C   UNL     1       3.314  -1.223  -5.010  1.00  0.00     0.016 A 
ATOM     46  C   UNL     1       4.265  -3.855  -5.274  1.00  0.00     0.010 A 
ATOM     47  C   UNL     1       2.430  -2.269  -5.300  1.00  0.00     0.010 A 
ATOM     48  C   UNL     1       2.906  -3.582  -5.475  1.00  0.00    -0.014 A 
BRANCH  48  49
ATOM     49  C   UNL     1       2.013  -4.635  -6.019  1.00  0.00     0.031 A 
ATOM     50  C   UNL     1       1.687  -4.627  -7.490  1.00  0.00     0.074 A 
ATOM     51  C   UNL     1       1.490  -5.580  -5.216  1.00  0.00     0.049 A 
ATOM     52  N   UNL     1       0.893  -5.415  -8.166  1.00  0.00    -0.248 NA
ATOM     53  C   UNL     1       2.342  -3.591  -8.308  1.00  0.00     0.031 C 
ATOM     54  C   UNL     1       1.739  -5.704  -3.781  1.00  0.00     0.029 A 
ATOM     55  N   UNL     1       0.617  -6.602  -5.496  1.00  0.00    -0.354 N 
ATOM     56  C   UNL     1       0.920  -4.950  -9.476  1.00  0.00     0.074 A 
ATOM     57  C   UNL     1       1.811  -3.811  -9.503  1.00  0.00     0.031 C 
ATOM     58  C   UNL     1       1.010  -6.726  -3.298  1.00  0.00     0.029 A 
ATOM     59  C   UNL     1       0.229  -7.314  -4.384  1.00  0.00     0.049 A 
ATOM     60  H   UNL     1       0.300  -6.807  -6.405  1.00  0.00     0.167 HD
ATOM     61  C   UNL     1       0.271  -5.433 -10.561  1.00  0.00     0.034 A 
ATOM     62  C   UNL     1      -0.669  -8.312  -4.258  1.00  0.00     0.034 A 
ATOM     63  C   UNL     1      -0.583  -6.589 -10.543  1.00  0.00     0.049 A 
ATOM     64  C   UNL     1      -1.383  -8.823  -5.484  1.00  0.00     0.074 A 
ATOM     65  C   UNL     1      -1.238  -7.189 -11.605  1.00  0.00     0.029 A 
ATOM     66  N   UNL     1      -0.905  -7.317  -9.410  1.00  0.00    -0.354 N 
ATOM     67  N   UNL     1      -1.249  -8.450  -6.734  1.00  0.00    -0.248 NA
ATOM     68  C   UNL     1      -2.349  -9.915  -5.287  1.00  0.00     0.031 C 
ATOM     69  C   UNL     1      -1.973  -8.270 -11.109  1.00  0.00     0.029 A 
ATOM     70  C   UNL     1      -1.758  -8.354  -9.743  1.00  0.00     0.049 A 
ATOM     71  H   UNL     1      -0.576  -7.125  -8.502  1.00  0.00     0.167 HD
ATOM     72  C   UNL     1      -2.075  -9.291  -7.474  1.00  0.00     0.074 A 
ATOM     73  C   UNL     1      -2.698 -10.199  -6.535  1.00  0.00     0.031 C 
ATOM     74  C   UNL     1      -2.309  -9.300  -8.809  1.00  0.00     0.034 A 
BRANCH  61  75
ATOM     75  C   UNL     1       0.476  -4.736 -11.878  1.00  0.00     0.023 A 
ATOM     76  C   UNL     1       1.675  -4.932 -12.591  1.00  0.00     0.012 A 
ATOM     77  C   UNL     1      -0.553  -3.962 -12.450  1.00  0.00     0.148 A 
ATOM     78  C   UNL     1       1.854  -4.355 -13.848  1.00  0.00     0.002 A 
ATOM     79  C   UNL     1      -0.383  -3.423 -13.719  1.00  0.00     0.091 A 
ATOM     80  F   UNL     1      -1.677  -3.772 -11.744  1.00  0.00    -0.205 F 
ATOM     81  C   UNL     1       0.822  -3.612 -14.416  1.00  0.00     0.022 A 
BRANCH  79  82
ATOM     82  S   UNL     1      -1.679  -2.513 -14.567  1.00  0.00     0.127 S 
ATOM     83  O   UNL     1      -1.141  -1.154 -14.556  1.00  0.00    -0.237 OA
ATOM     84  O   UNL     1      -1.694  -3.153 -15.883  1.00  0.00    -0.237 OA
ATOM     85  O   UNL     1      -2.889  -2.711 -13.781  1.00  0.00    -0.744 OA
ENDBRANCH  79  82
ENDBRANCH  61  75
BRANCH  62  86
ATOM     86  C   UNL     1      -0.919  -8.934  -2.928  1.00  0.00     0.023 A 
ATOM     87  C   UNL     1      -0.503 -10.260  -2.697  1.00  0.00     0.012 A 
ATOM     88  C   UNL     1      -1.575  -8.235  -1.897  1.00  0.00     0.148 A 
ATOM     89  C   UNL     1      -0.769 -10.888  -1.480  1.00  0.00     0.002 A 
ATOM     90  C   UNL     1      -1.794  -8.851  -0.669  1.00  0.00     0.091 A 
ATOM     91  F   UNL     1      -1.986  -6.979  -2.128  1.00  0.00    -0.205 F 
ATOM     92  C   UNL     1      -1.407 -10.183  -0.462  1.00  0.00     0.022 A 
BRANCH  90  93
ATOM     93  S   UNL     1      -2.504  -7.934   0.701  1.00  0.00     0.127 S 
ATOM     94  O   UNL     1      -3.936  -8.075   0.466  1.00  0.00    -0.237 OA
ATOM     95  O   UNL     1      -2.000  -8.654   1.871  1.00  0.00    -0.237 OA
ATOM     96  O   UNL     1      -1.955  -6.588   0.569  1.00  0.00    -0.744 OA
ENDBRANCH  90  93
ENDBRANCH  62  86
BRANCH  74  97
ATOM     97  C   UNL     1      -3.234 -10.353  -9.359  1.00  0.00     0.023 A 
ATOM     98  C   UNL     1      -4.624 -10.235  -9.168  1.00  0.00     0.012 A 
ATOM     99  C   UNL     1      -2.730 -11.404 -10.152  1.00  0.00     0.148 A 
ATOM    100  C   UNL     1      -5.498 -11.159  -9.739  1.00  0.00     0.002 A 
ATOM    101  C   UNL     1      -3.610 -12.295 -10.755  1.00  0.00     0.091 A 
ATOM    102  F   UNL     1      -1.402 -11.509 -10.306  1.00  0.00    -0.205 F 
ATOM    103  C   UNL     1      -4.993 -12.180 -10.542  1.00  0.00     0.022 A 
BRANCH 101 104
ATOM    104  S   UNL     1      -3.054 -13.579 -11.883  1.00  0.00     0.127 S 
ATOM    105  O   UNL     1      -3.207 -14.780 -11.064  1.00  0.00    -0.237 OA
ATOM    106  O   UNL     1      -4.013 -13.465 -12.982  1.00  0.00    -0.237 OA
ATOM    107  O   UNL     1      -1.685 -13.233 -12.239  1.00  0.00    -0.744 OA
ENDBRANCH 101 104
ENDBRANCH  74  97
ENDBRANCH  48  49
ENDBRANCH  41  43
ENDBRANCH  40  41
ENDBRANCH  39  40
ENDBRANCH  38  39
ENDBRANCH  37  38
ENDBRANCH   1  37
TORSDOF 23
