REMARK SMILES COc1cc([C@H]2c3c(-c4ccccc4)n[nH]c3C(=O)N2c2ccc(C(=O)OCCOCCOC(=O)c3ccc(-c4c5nc(c(-c6cccc(S(=O)(=O)[O-])c6F)c6ccc([nH]6)c(-c6cccc(S(=O)(=O)[O-])c6F)c6nc(c(-c7cccc(S(=O)(=O)[O-])c7F)c7ccc4[nH]7)C=C6)C=C5)cc3)cc2)ccc1O
REMARK SMILES IDX 30 1 29 2 28 3 27 4 25 5 26 6 24 7 21 8 22 9 100 10 23 11
REMARK SMILES IDX 99 12 20 13 6 14 7 15 8 16 17 17 18 18 15 19 16 20 19 21
REMARK SMILES IDX 5 23 3 24 4 25 103 26 102 27 101 28 2 29 1 30 104 31 9 33
REMARK SMILES IDX 10 34 14 35 11 36 13 37 12 38 31 39 32 40 33 41 34 42 35 43
REMARK SMILES IDX 36 44 37 45 98 46 38 47 97 48 39 49 40 50 41 51 91 52 42 53
REMARK SMILES IDX 96 54 90 55 92 56 43 57 95 58 89 59 88 60 44 62 76 63 56 64
REMARK SMILES IDX 75 65 57 66 60 67 74 68 93 69 58 70 59 71 73 73 94 74 61 75
REMARK SMILES IDX 45 76 46 77 54 78 47 79 49 80 55 81 48 82 50 83 51 84 52 85
REMARK SMILES IDX 53 86 77 87 78 88 86 89 79 90 81 91 87 92 80 93 82 94 83 95
REMARK SMILES IDX 84 96 85 97 62 98 63 99 71 100 64 101 66 102 72 103 65 104
REMARK SMILES IDX 67 105 68 106 69 107 70 108
REMARK H PARENT 16 22 104 32 92 61 60 72
REMARK Flexibility Score: inf
ROOT
ATOM      1  O   UNL     1       8.683  -4.815   7.219  1.00  0.00    -0.374 OA
ENDROOT
BRANCH   1   2
ATOM      2  C   UNL     1       8.042  -3.830   8.029  1.00  0.00     0.202 C 
BRANCH   2   3
ATOM      3  C   UNL     1       7.049  -2.864   7.380  1.00  0.00     0.261 C 
BRANCH   3   4
ATOM      4  O   UNL     1       5.921  -3.520   6.783  1.00  0.00    -0.460 OA
BRANCH   4   5
ATOM      5  C   UNL     1       5.938  -3.530   5.428  1.00  0.00     0.338 C 
ATOM      6  O   UNL     1       6.776  -3.022   4.700  1.00  0.00    -0.246 OA
BRANCH   5   7
ATOM      7  C   UNL     1       4.864  -4.394   4.901  1.00  0.00     0.060 A 
ATOM      8  C   UNL     1       2.861  -5.840   3.605  1.00  0.00     0.045 A 
ATOM      9  C   UNL     1       4.193  -6.018   3.231  1.00  0.00     0.027 A 
ATOM     10  C   UNL     1       2.547  -5.005   4.688  1.00  0.00     0.027 A 
ATOM     11  C   UNL     1       5.189  -5.266   3.853  1.00  0.00     0.018 A 
ATOM     12  C   UNL     1       3.552  -4.305   5.362  1.00  0.00     0.018 A 
BRANCH   8  13
ATOM     13  N   UNL     1       1.833  -6.421   2.840  1.00  0.00    -0.295 N 
ATOM     14  C   UNL     1       0.697  -5.594   2.334  1.00  0.00     0.156 C 
ATOM     15  C   UNL     1      -0.064  -6.629   1.600  1.00  0.00     0.038 A 
ATOM     16  C   UNL     1      -1.223  -6.870   0.846  1.00  0.00     0.099 A 
ATOM     17  C   UNL     1       0.592  -7.825   1.660  1.00  0.00     0.129 A 
ATOM     18  C   UNL     1       1.820  -7.740   2.357  1.00  0.00     0.277 C 
ATOM     19  N   UNL     1      -1.287  -8.179   0.506  1.00  0.00    -0.174 NA
ATOM     20  N   UNL     1      -0.169  -8.739   1.038  1.00  0.00    -0.272 N 
ATOM     21  O   UNL     1       2.658  -8.628   2.480  1.00  0.00    -0.267 OA
ATOM     22  H   UNL     1       0.056  -9.695   0.974  1.00  0.00     0.190 HD
BRANCH  14  23
ATOM     23  C   UNL     1       1.131  -4.555   1.309  1.00  0.00    -0.016 A 
ATOM     24  C   UNL     1       1.077  -2.209   0.550  1.00  0.00     0.160 A 
ATOM     25  C   UNL     1       0.764  -3.209   1.490  1.00  0.00     0.056 A 
ATOM     26  C   UNL     1       1.769  -2.579  -0.606  1.00  0.00     0.157 A 
ATOM     27  C   UNL     1       2.171  -3.903  -0.792  1.00  0.00     0.050 A 
ATOM     28  C   UNL     1       1.875  -4.878   0.163  1.00  0.00     0.010 A 
BRANCH  24  29
ATOM     29  O   UNL     1       0.584  -0.992   0.924  1.00  0.00    -0.493 OA
ATOM     30  C   UNL     1       0.919   0.178   0.205  1.00  0.00     0.278 C 
ENDBRANCH  24  29
BRANCH  26  31
ATOM     31  O   UNL     1       2.080  -1.750  -1.645  1.00  0.00    -0.504 OA
ATOM     32  H   UNL     1       1.848  -0.843  -1.606  1.00  0.00     0.293 HD
ENDBRANCH  26  31
ENDBRANCH  14  23
BRANCH  16  33
ATOM     33  C   UNL     1      -2.249  -5.927   0.423  1.00  0.00     0.002 A 
ATOM     34  C   UNL     1      -3.582  -6.117   0.802  1.00  0.00     0.010 A 
ATOM     35  C   UNL     1      -1.920  -4.834  -0.388  1.00  0.00     0.010 A 
ATOM     36  C   UNL     1      -4.566  -5.213   0.392  1.00  0.00     0.001 A 
ATOM     37  C   UNL     1      -2.902  -3.928  -0.793  1.00  0.00     0.001 A 
ATOM     38  C   UNL     1      -4.225  -4.117  -0.401  1.00  0.00     0.000 A 
ENDBRANCH  16  33
ENDBRANCH   8  13
ENDBRANCH   5   7
ENDBRANCH   4   5
ENDBRANCH   3   4
ENDBRANCH   2   3
ENDBRANCH   1   2
BRANCH   1  39
ATOM     39  C   UNL     1       7.929  -5.880   6.648  1.00  0.00     0.202 C 
BRANCH  39  40
ATOM     40  C   UNL     1       7.336  -6.944   7.559  1.00  0.00     0.261 C 
BRANCH  40  41
ATOM     41  O   UNL     1       6.513  -6.379   8.560  1.00  0.00    -0.460 OA
BRANCH  41  42
ATOM     42  C   UNL     1       7.120  -6.275   9.763  1.00  0.00     0.338 C 
ATOM     43  O   UNL     1       8.314  -6.350   9.998  1.00  0.00    -0.246 OA
BRANCH  42  44
ATOM     44  C   UNL     1       6.082  -6.218  10.792  1.00  0.00     0.060 A 
ATOM     45  C   UNL     1       6.547  -6.315  12.104  1.00  0.00     0.016 A 
ATOM     46  C   UNL     1       4.759  -6.510  10.430  1.00  0.00     0.016 A 
ATOM     47  C   UNL     1       5.772  -7.008  12.996  1.00  0.00     0.010 A 
ATOM     48  C   UNL     1       3.999  -7.226  11.313  1.00  0.00     0.010 A 
ATOM     49  C   UNL     1       4.564  -7.548  12.544  1.00  0.00    -0.014 A 
BRANCH  49  50
ATOM     50  C   UNL     1       3.796  -8.342  13.469  1.00  0.00     0.031 A 
ATOM     51  C   UNL     1       3.170  -7.473  14.488  1.00  0.00     0.074 A 
ATOM     52  C   UNL     1       3.639  -9.669  13.309  1.00  0.00     0.049 A 
ATOM     53  N   UNL     1       3.494  -7.381  15.734  1.00  0.00    -0.248 NA
ATOM     54  C   UNL     1       2.283  -6.391  14.019  1.00  0.00     0.031 C 
ATOM     55  C   UNL     1       4.044 -10.500  12.171  1.00  0.00     0.029 A 
ATOM     56  N   UNL     1       2.946 -10.543  14.083  1.00  0.00    -0.354 N 
ATOM     57  C   UNL     1       2.628  -6.424  16.251  1.00  0.00     0.074 A 
ATOM     58  C   UNL     1       2.140  -5.671  15.131  1.00  0.00     0.031 C 
ATOM     59  C   UNL     1       3.351 -11.663  12.205  1.00  0.00     0.029 A 
ATOM     60  C   UNL     1       2.550 -11.699  13.416  1.00  0.00     0.049 A 
ATOM     61  H   UNL     1       2.740 -10.373  15.031  1.00  0.00     0.167 HD
ATOM     62  C   UNL     1       2.113  -6.573  17.499  1.00  0.00     0.034 A 
ATOM     63  C   UNL     1       1.558 -12.548  13.797  1.00  0.00     0.034 A 
ATOM     64  C   UNL     1       2.898  -7.509  18.269  1.00  0.00     0.049 A 
ATOM     65  C   UNL     1       1.288 -12.290  15.233  1.00  0.00     0.074 A 
ATOM     66  C   UNL     1       4.224  -7.582  18.647  1.00  0.00     0.029 A 
ATOM     67  N   UNL     1       2.391  -8.780  18.391  1.00  0.00    -0.354 N 
ATOM     68  N   UNL     1       2.149 -12.551  16.177  1.00  0.00    -0.248 NA
ATOM     69  C   UNL     1       0.280 -11.292  15.562  1.00  0.00     0.031 C 
ATOM     70  C   UNL     1       4.561  -8.963  18.538  1.00  0.00     0.029 A 
ATOM     71  C   UNL     1       3.410  -9.670  18.186  1.00  0.00     0.049 A 
ATOM     72  H   UNL     1       1.455  -9.011  18.592  1.00  0.00     0.167 HD
ATOM     73  C   UNL     1       2.100 -11.432  16.998  1.00  0.00     0.074 A 
ATOM     74  C   UNL     1       0.864 -10.740  16.630  1.00  0.00     0.031 C 
ATOM     75  C   UNL     1       3.214 -11.004  17.663  1.00  0.00     0.034 A 
BRANCH  62  76
ATOM     76  C   UNL     1       0.682  -6.246  17.867  1.00  0.00     0.023 A 
ATOM     77  C   UNL     1       0.335  -6.386  19.228  1.00  0.00     0.012 A 
ATOM     78  C   UNL     1      -0.386  -6.100  16.948  1.00  0.00     0.148 A 
ATOM     79  C   UNL     1      -0.999  -6.455  19.640  1.00  0.00     0.002 A 
ATOM     80  C   UNL     1      -1.708  -6.093  17.370  1.00  0.00     0.091 A 
ATOM     81  F   UNL     1      -0.158  -6.094  15.635  1.00  0.00    -0.205 F 
ATOM     82  C   UNL     1      -2.022  -6.307  18.711  1.00  0.00     0.022 A 
BRANCH  80  83
ATOM     83  S   UNL     1      -3.067  -5.871  16.211  1.00  0.00     0.127 S 
ATOM     84  O   UNL     1      -3.667  -7.202  16.207  1.00  0.00    -0.237 OA
ATOM     85  O   UNL     1      -3.855  -4.835  16.878  1.00  0.00    -0.237 OA
ATOM     86  O   UNL     1      -2.458  -5.443  14.958  1.00  0.00    -0.744 OA
ENDBRANCH  80  83
ENDBRANCH  62  76
BRANCH  63  87
ATOM     87  C   UNL     1       0.610 -13.332  12.962  1.00  0.00     0.023 A 
ATOM     88  C   UNL     1      -0.120 -14.396  13.534  1.00  0.00     0.012 A 
ATOM     89  C   UNL     1       0.208 -12.866  11.691  1.00  0.00     0.148 A 
ATOM     90  C   UNL     1      -1.225 -14.955  12.875  1.00  0.00     0.002 A 
ATOM     91  C   UNL     1      -0.885 -13.428  11.036  1.00  0.00     0.091 A 
ATOM     92  F   UNL     1       0.835 -11.807  11.165  1.00  0.00    -0.205 F 
ATOM     93  C   UNL     1      -1.611 -14.467  11.630  1.00  0.00     0.022 A 
BRANCH  91  94
ATOM     94  S   UNL     1      -1.459 -12.821   9.443  1.00  0.00     0.127 S 
ATOM     95  O   UNL     1      -1.571 -14.059   8.671  1.00  0.00    -0.237 OA
ATOM     96  O   UNL     1      -2.734 -12.202   9.797  1.00  0.00    -0.237 OA
ATOM     97  O   UNL     1      -0.427 -11.909   8.967  1.00  0.00    -0.744 OA
ENDBRANCH  91  94
ENDBRANCH  63  87
BRANCH  75  98
ATOM     98  C   UNL     1       4.421 -11.908  17.675  1.00  0.00     0.023 A 
ATOM     99  C   UNL     1       5.142 -12.245  16.509  1.00  0.00     0.012 A 
ATOM    100  C   UNL     1       4.939 -12.284  18.923  1.00  0.00     0.148 A 
ATOM    101  C   UNL     1       6.341 -12.961  16.590  1.00  0.00     0.002 A 
ATOM    102  C   UNL     1       6.152 -12.953  19.004  1.00  0.00     0.091 A 
ATOM    103  F   UNL     1       4.243 -11.950  20.021  1.00  0.00    -0.205 F 
ATOM    104  C   UNL     1       6.853 -13.303  17.839  1.00  0.00     0.022 A 
BRANCH 102 105
ATOM    105  S   UNL     1       6.916 -13.304  20.587  1.00  0.00     0.127 S 
ATOM    106  O   UNL     1       6.694 -14.742  20.719  1.00  0.00    -0.237 OA
ATOM    107  O   UNL     1       8.309 -12.916  20.356  1.00  0.00    -0.237 OA
ATOM    108  O   UNL     1       6.222 -12.470  21.561  1.00  0.00    -0.744 OA
ENDBRANCH 102 105
ENDBRANCH  75  98
ENDBRANCH  49  50
ENDBRANCH  42  44
ENDBRANCH  41  42
ENDBRANCH  40  41
ENDBRANCH  39  40
ENDBRANCH   1  39
TORSDOF 22
