REMARK SMILES CCCN(C(=O)Cc1c(C(=O)OCCOCCOC(=O)c2ccc(-c3c4nc(c(-c5cccc(S(=O)(=O)[O-])c5F)c5ccc([nH]5)c(-c5cccc(S(=O)(=O)[O-])c5F)c5nc(c(-c6cccc(S(=O)(=O)[O-])c6F)c6ccc3[nH]6)C=C5)C=C4)cc2)c(C)cn1CC)c1cccc(Cl)c1
REMARK SMILES IDX 14 1 13 2 12 3 10 4 11 5 9 6 8 7 87 8 84 9 86 10 85 11 7 12
REMARK SMILES IDX 5 13 6 14 4 15 3 16 2 17 1 18 90 19 91 20 96 21 92 22 94 23
REMARK SMILES IDX 93 24 95 25 88 26 89 27 15 28 16 29 17 30 18 31 19 32 20 33
REMARK SMILES IDX 21 34 22 35 83 36 23 37 82 38 24 39 25 40 26 41 76 42 27 43
REMARK SMILES IDX 81 44 75 45 77 46 28 47 80 48 74 49 73 50 29 52 61 53 41 54
REMARK SMILES IDX 60 55 42 56 45 57 59 58 78 59 43 60 44 61 58 63 79 64 46 65
REMARK SMILES IDX 30 66 31 67 39 68 32 69 34 70 40 71 33 72 35 73 36 74 37 75
REMARK SMILES IDX 38 76 62 77 63 78 71 79 64 80 66 81 72 82 65 83 67 84 68 85
REMARK SMILES IDX 69 86 70 87 47 88 48 89 56 90 49 91 51 92 57 93 50 94 52 95
REMARK SMILES IDX 53 96 54 97 55 98
REMARK H PARENT 77 51 45 62
REMARK Flexibility Score: inf
ROOT
ATOM      1  C   UNL     1      -4.179  -6.949  -5.416  1.00  0.00     0.202 C 
ENDROOT
BRANCH   1   2
ATOM      2  C   UNL     1      -5.032  -6.139  -4.439  1.00  0.00     0.261 C 
BRANCH   2   3
ATOM      3  O   UNL     1      -4.505  -4.816  -4.266  1.00  0.00    -0.460 OA
BRANCH   3   4
ATOM      4  C   UNL     1      -3.777  -4.585  -3.131  1.00  0.00     0.340 C 
ATOM      5  O   UNL     1      -3.659  -5.375  -2.214  1.00  0.00    -0.246 OA
BRANCH   4   6
ATOM      6  C   UNL     1      -3.075  -3.294  -3.193  1.00  0.00     0.084 A 
ATOM      7  C   UNL     1      -1.880  -2.944  -2.530  1.00  0.00     0.042 A 
ATOM      8  N   UNL     1      -1.900  -1.569  -2.546  1.00  0.00    -0.350 N 
ATOM      9  C   UNL     1      -3.403  -2.161  -4.032  1.00  0.00    -0.019 A 
ATOM     10  C   UNL     1      -2.564  -1.138  -3.652  1.00  0.00     0.090 A 
ATOM     11  C   UNL     1      -4.447  -2.047  -5.088  1.00  0.00     0.047 C 
BRANCH   7  12
ATOM     12  C   UNL     1      -0.711  -3.760  -1.984  1.00  0.00     0.155 C 
BRANCH  12  13
ATOM     13  C   UNL     1      -0.337  -3.528  -0.514  1.00  0.00     0.232 C 
ATOM     14  O   UNL     1      -1.022  -4.113   0.339  1.00  0.00    -0.274 OA
BRANCH  13  15
ATOM     15  N   UNL     1       0.721  -2.655  -0.133  1.00  0.00    -0.312 N 
BRANCH  15  16
ATOM     16  C   UNL     1       1.842  -2.163  -0.999  1.00  0.00     0.125 C 
BRANCH  16  17
ATOM     17  C   UNL     1       1.960  -0.696  -1.517  1.00  0.00     0.019 C 
ATOM     18  C   UNL     1       1.896   0.482  -0.553  1.00  0.00     0.006 C 
ENDBRANCH  16  17
ENDBRANCH  15  16
BRANCH  15  19
ATOM     19  C   UNL     1       0.958  -2.537   1.289  1.00  0.00     0.045 A 
ATOM     20  C   UNL     1       1.186  -3.667   2.088  1.00  0.00     0.026 A 
ATOM     21  C   UNL     1       0.870  -1.298   1.920  1.00  0.00     0.046 A 
ATOM     22  C   UNL     1       1.334  -3.548   3.477  1.00  0.00     0.004 A 
ATOM     23  C   UNL     1       1.034  -1.175   3.300  1.00  0.00     0.043 A 
ATOM     24  C   UNL     1       1.264  -2.296   4.085  1.00  0.00     0.020 A 
ATOM     25  Cl  UNL     1       0.910   0.379   4.032  1.00  0.00    -0.084 Cl
ENDBRANCH  15  19
ENDBRANCH  13  15
ENDBRANCH  12  13
ENDBRANCH   7  12
BRANCH   8  26
ATOM     26  C   UNL     1      -1.453  -0.690  -1.494  1.00  0.00     0.118 C 
ATOM     27  C   UNL     1      -2.227  -0.862  -0.200  1.00  0.00     0.027 C 
ENDBRANCH   8  26
ENDBRANCH   4   6
ENDBRANCH   3   4
ENDBRANCH   2   3
ENDBRANCH   1   2
BRANCH   1  28
ATOM     28  O   UNL     1      -2.893  -7.376  -4.964  1.00  0.00    -0.374 OA
BRANCH  28  29
ATOM     29  C   UNL     1      -1.834  -6.432  -4.860  1.00  0.00     0.202 C 
BRANCH  29  30
ATOM     30  C   UNL     1      -1.202  -5.897  -6.133  1.00  0.00     0.261 C 
BRANCH  30  31
ATOM     31  O   UNL     1      -2.132  -5.194  -6.940  1.00  0.00    -0.460 OA
BRANCH  31  32
ATOM     32  C   UNL     1      -2.578  -5.912  -7.995  1.00  0.00     0.338 C 
ATOM     33  O   UNL     1      -2.547  -7.123  -8.125  1.00  0.00    -0.246 OA
BRANCH  32  34
ATOM     34  C   UNL     1      -2.948  -4.983  -9.065  1.00  0.00     0.060 A 
ATOM     35  C   UNL     1      -3.314  -5.569 -10.276  1.00  0.00     0.016 A 
ATOM     36  C   UNL     1      -2.626  -3.620  -8.958  1.00  0.00     0.016 A 
ATOM     37  C   UNL     1      -3.120  -4.842 -11.425  1.00  0.00     0.010 A 
ATOM     38  C   UNL     1      -2.433  -2.896 -10.108  1.00  0.00     0.010 A 
ATOM     39  C   UNL     1      -2.589  -3.548 -11.325  1.00  0.00    -0.014 A 
BRANCH  39  40
ATOM     40  C   UNL     1      -2.329  -2.838 -12.554  1.00  0.00     0.031 A 
ATOM     41  C   UNL     1      -3.585  -2.476 -13.238  1.00  0.00     0.074 A 
ATOM     42  C   UNL     1      -1.093  -2.531 -12.989  1.00  0.00     0.049 A 
ATOM     43  N   UNL     1      -4.104  -3.084 -14.250  1.00  0.00    -0.248 NA
ATOM     44  C   UNL     1      -4.484  -1.514 -12.583  1.00  0.00     0.031 C 
ATOM     45  C   UNL     1       0.181  -2.631 -12.273  1.00  0.00     0.029 A 
ATOM     46  N   UNL     1      -0.736  -1.949 -14.163  1.00  0.00    -0.354 N 
ATOM     47  C   UNL     1      -5.275  -2.393 -14.523  1.00  0.00     0.074 A 
ATOM     48  C   UNL     1      -5.572  -1.618 -13.348  1.00  0.00     0.031 C 
ATOM     49  C   UNL     1       1.114  -1.896 -12.926  1.00  0.00     0.029 A 
ATOM     50  C   UNL     1       0.542  -1.402 -14.167  1.00  0.00     0.049 A 
ATOM     51  H   UNL     1      -1.333  -1.917 -14.945  1.00  0.00     0.167 HD
ATOM     52  C   UNL     1      -5.729  -2.291 -15.800  1.00  0.00     0.034 A 
ATOM     53  C   UNL     1       1.044  -0.550 -15.098  1.00  0.00     0.034 A 
ATOM     54  C   UNL     1      -5.066  -3.236 -16.665  1.00  0.00     0.049 A 
ATOM     55  C   UNL     1       0.234  -0.724 -16.327  1.00  0.00     0.074 A 
ATOM     56  C   UNL     1      -4.972  -4.611 -16.730  1.00  0.00     0.029 A 
ATOM     57  N   UNL     1      -4.021  -2.741 -17.408  1.00  0.00    -0.354 N 
ATOM     58  N   UNL     1       0.237  -1.821 -17.030  1.00  0.00    -0.248 NA
ATOM     59  C   UNL     1      -0.923   0.136 -16.512  1.00  0.00     0.031 C 
ATOM     60  C   UNL     1      -3.632  -4.871 -17.141  1.00  0.00     0.029 A 
ATOM     61  C   UNL     1      -2.997  -3.649 -17.373  1.00  0.00     0.049 A 
ATOM     62  H   UNL     1      -4.010  -1.879 -17.884  1.00  0.00     0.167 HD
ATOM     63  C   UNL     1      -1.100  -2.023 -17.348  1.00  0.00     0.074 A 
ATOM     64  C   UNL     1      -1.746  -0.734 -17.105  1.00  0.00     0.031 C 
ATOM     65  C   UNL     1      -1.601  -3.286 -17.485  1.00  0.00     0.034 A 
BRANCH  52  66
ATOM     66  C   UNL     1      -6.430  -1.078 -16.360  1.00  0.00     0.023 A 
ATOM     67  C   UNL     1      -6.966  -1.197 -17.660  1.00  0.00     0.012 A 
ATOM     68  C   UNL     1      -6.335   0.225 -15.818  1.00  0.00     0.148 A 
ATOM     69  C   UNL     1      -7.332  -0.072 -18.405  1.00  0.00     0.002 A 
ATOM     70  C   UNL     1      -6.770   1.333 -16.532  1.00  0.00     0.091 A 
ATOM     71  F   UNL     1      -5.699   0.428 -14.662  1.00  0.00    -0.205 F 
ATOM     72  C   UNL     1      -7.239   1.194 -17.839  1.00  0.00     0.022 A 
BRANCH  70  73
ATOM     73  S   UNL     1      -6.703   2.991 -15.840  1.00  0.00     0.127 S 
ATOM     74  O   UNL     1      -5.670   3.610 -16.664  1.00  0.00    -0.237 OA
ATOM     75  O   UNL     1      -8.064   3.467 -16.087  1.00  0.00    -0.237 OA
ATOM     76  O   UNL     1      -6.376   2.820 -14.430  1.00  0.00    -0.744 OA
ENDBRANCH  70  73
ENDBRANCH  52  66
BRANCH  53  77
ATOM     77  C   UNL     1       1.957   0.607 -14.933  1.00  0.00     0.023 A 
ATOM     78  C   UNL     1       2.625   1.143 -16.055  1.00  0.00     0.012 A 
ATOM     79  C   UNL     1       1.936   1.371 -13.746  1.00  0.00     0.148 A 
ATOM     80  C   UNL     1       3.222   2.410 -16.004  1.00  0.00     0.002 A 
ATOM     81  C   UNL     1       2.531   2.629 -13.700  1.00  0.00     0.091 A 
ATOM     82  F   UNL     1       1.251   0.905 -12.694  1.00  0.00    -0.205 F 
ATOM     83  C   UNL     1       3.165   3.157 -14.831  1.00  0.00     0.022 A 
BRANCH  81  84
ATOM     84  S   UNL     1       2.463   3.670 -12.235  1.00  0.00     0.127 S 
ATOM     85  O   UNL     1       3.875   3.997 -12.033  1.00  0.00    -0.237 OA
ATOM     86  O   UNL     1       1.635   4.783 -12.692  1.00  0.00    -0.237 OA
ATOM     87  O   UNL     1       1.881   2.845 -11.183  1.00  0.00    -0.744 OA
ENDBRANCH  81  84
ENDBRANCH  53  77
BRANCH  65  88
ATOM     88  C   UNL     1      -0.615  -4.427 -17.547  1.00  0.00     0.023 A 
ATOM     89  C   UNL     1       0.217  -4.782 -16.463  1.00  0.00     0.012 A 
ATOM     90  C   UNL     1      -0.644  -5.256 -18.680  1.00  0.00     0.148 A 
ATOM     91  C   UNL     1       1.020  -5.926 -16.523  1.00  0.00     0.002 A 
ATOM     92  C   UNL     1       0.119  -6.415 -18.717  1.00  0.00     0.091 A 
ATOM     93  F   UNL     1      -1.447  -4.906 -19.696  1.00  0.00    -0.205 F 
ATOM     94  C   UNL     1       0.962  -6.749 -17.645  1.00  0.00     0.022 A 
BRANCH  92  95
ATOM     95  S   UNL     1      -0.005  -7.572 -20.081  1.00  0.00     0.127 S 
ATOM     96  O   UNL     1       1.265  -7.364 -20.773  1.00  0.00    -0.237 OA
ATOM     97  O   UNL     1      -0.123  -8.857 -19.390  1.00  0.00    -0.237 OA
ATOM     98  O   UNL     1      -1.195  -7.187 -20.829  1.00  0.00    -0.744 OA
ENDBRANCH  92  95
ENDBRANCH  65  88
ENDBRANCH  39  40
ENDBRANCH  32  34
ENDBRANCH  31  32
ENDBRANCH  30  31
ENDBRANCH  29  30
ENDBRANCH  28  29
ENDBRANCH   1  28
TORSDOF 24
