REMARK SMILES CC(C)(C)OC(=O)N1CC[N@H+](Cc2ccc(Cl)nc2)[C@H](C(=O)OCCOCCOC(=O)c2ccc(-c3c4nc(c(-c5cccc(S(=O)(=O)[O-])c5F)c5ccc([nH]5)c(-c5cccc(S(=O)(=O)[O-])c5F)c5nc(c(-c6cccc(S(=O)(=O)[O-])c6F)c6ccc3[nH]6)C=C5)C=C4)cc2)C1
REMARK SMILES IDX 26 1 25 2 24 3 23 4 21 5 22 6 20 7 8 8 9 9 95 10 10 11 11 12
REMARK SMILES IDX 6 14 7 15 5 16 2 17 1 18 3 19 4 20 12 21 13 22 14 23 19 24
REMARK SMILES IDX 15 25 18 26 16 27 17 28 27 29 28 30 29 31 30 32 31 33 32 34
REMARK SMILES IDX 33 35 94 36 34 37 93 38 35 39 36 40 37 41 87 42 38 43 92 44
REMARK SMILES IDX 86 45 88 46 39 47 91 48 85 49 84 50 40 52 72 53 52 54 71 55
REMARK SMILES IDX 53 56 56 57 70 58 89 59 54 60 55 61 69 63 90 64 57 65 41 66
REMARK SMILES IDX 42 67 50 68 43 69 45 70 51 71 44 72 46 73 47 74 48 75 49 76
REMARK SMILES IDX 73 77 74 78 82 79 75 80 77 81 83 82 76 83 78 84 79 85 80 86
REMARK SMILES IDX 81 87 58 88 59 89 67 90 60 91 62 92 68 93 61 94 63 95 64 96
REMARK SMILES IDX 65 97 66 98
REMARK H PARENT 11 13 88 51 56 62
REMARK Flexibility Score: inf
ROOT
ATOM      1  O   UNL     1       6.821   5.747   3.903  1.00  0.00    -0.374 OA
ENDROOT
BRANCH   1   2
ATOM      2  C   UNL     1       6.755   4.325   4.029  1.00  0.00     0.202 C 
BRANCH   2   3
ATOM      3  C   UNL     1       5.584   3.777   4.851  1.00  0.00     0.261 C 
BRANCH   3   4
ATOM      4  O   UNL     1       4.335   3.858   4.128  1.00  0.00    -0.459 OA
BRANCH   4   5
ATOM      5  C   UNL     1       3.398   4.704   4.640  1.00  0.00     0.366 C 
ATOM      6  O   UNL     1       3.572   5.389   5.644  1.00  0.00    -0.245 OA
BRANCH   5   7
ATOM      7  C   UNL     1       2.072   4.648   3.863  1.00  0.00     0.315 C 
ATOM      8  N   UNL     1       0.782   4.110   1.783  1.00  0.00    -0.296 N 
ATOM      9  C   UNL     1      -0.256   5.039   2.203  1.00  0.00     0.184 C 
ATOM     10  C   UNL     1       2.128   4.199   2.389  1.00  0.00     0.200 C 
ATOM     11  C   UNL     1      -0.123   5.611   3.622  1.00  0.00     0.285 C 
ATOM     12  N   UNL     1       1.240   5.874   4.069  1.00  0.00    -0.316 N 
ATOM     13  H   UNL     1       1.249   6.020   5.079  1.00  0.00     0.349 HD
BRANCH   8  14
ATOM     14  C   UNL     1       0.526   3.454   0.591  1.00  0.00     0.410 C 
ATOM     15  O   UNL     1      -0.323   3.856  -0.202  1.00  0.00    -0.224 OA
BRANCH  14  16
ATOM     16  O   UNL     1       1.187   2.278   0.481  1.00  0.00    -0.444 OA
BRANCH  16  17
ATOM     17  C   UNL     1       0.719   1.304  -0.497  1.00  0.00     0.106 C 
ATOM     18  C   UNL     1       1.375  -0.023  -0.091  1.00  0.00     0.056 C 
ATOM     19  C   UNL     1       1.186   1.693  -1.902  1.00  0.00     0.056 C 
ATOM     20  C   UNL     1      -0.808   1.094  -0.451  1.00  0.00     0.056 C 
ENDBRANCH  16  17
ENDBRANCH  14  16
ENDBRANCH   8  14
BRANCH  12  21
ATOM     21  C   UNL     1       1.790   7.212   3.798  1.00  0.00     0.301 C 
BRANCH  21  22
ATOM     22  C   UNL     1       1.864   7.736   2.381  1.00  0.00     0.025 A 
ATOM     23  C   UNL     1       0.747   8.012   1.591  1.00  0.00     0.014 A 
ATOM     24  C   UNL     1       3.085   8.076   1.814  1.00  0.00     0.122 A 
ATOM     25  C   UNL     1       0.896   8.370   0.250  1.00  0.00     0.041 A 
ATOM     26  N   UNL     1       3.278   8.455   0.529  1.00  0.00    -0.244 NA
ATOM     27  C   UNL     1       2.176   8.544  -0.233  1.00  0.00     0.129 A 
ATOM     28  Cl  UNL     1       2.460   8.924  -1.879  1.00  0.00    -0.062 Cl
ENDBRANCH  21  22
ENDBRANCH  12  21
ENDBRANCH   5   7
ENDBRANCH   4   5
ENDBRANCH   3   4
ENDBRANCH   2   3
ENDBRANCH   1   2
BRANCH   1  29
ATOM     29  C   UNL     1       5.882   6.360   3.030  1.00  0.00     0.202 C 
BRANCH  29  30
ATOM     30  C   UNL     1       6.206   6.383   1.531  1.00  0.00     0.261 C 
BRANCH  30  31
ATOM     31  O   UNL     1       6.666   5.124   1.051  1.00  0.00    -0.460 OA
BRANCH  31  32
ATOM     32  C   UNL     1       8.012   5.044   0.973  1.00  0.00     0.338 C 
ATOM     33  O   UNL     1       8.825   5.941   1.161  1.00  0.00    -0.246 OA
BRANCH  32  34
ATOM     34  C   UNL     1       8.391   3.639   0.792  1.00  0.00     0.060 A 
ATOM     35  C   UNL     1       9.416   3.149   1.608  1.00  0.00     0.016 A 
ATOM     36  C   UNL     1       7.774   2.827  -0.164  1.00  0.00     0.016 A 
ATOM     37  C   UNL     1       9.878   1.854   1.424  1.00  0.00     0.010 A 
ATOM     38  C   UNL     1       8.241   1.527  -0.348  1.00  0.00     0.010 A 
ATOM     39  C   UNL     1       9.322   1.057   0.415  1.00  0.00    -0.014 A 
BRANCH  39  40
ATOM     40  C   UNL     1       9.995  -0.207   0.054  1.00  0.00     0.031 A 
ATOM     41  C   UNL     1      10.934  -0.207  -1.118  1.00  0.00     0.074 A 
ATOM     42  C   UNL     1       9.789  -1.315   0.785  1.00  0.00     0.049 A 
ATOM     43  N   UNL     1      11.645  -1.188  -1.605  1.00  0.00    -0.248 NA
ATOM     44  C   UNL     1      11.096   1.069  -1.839  1.00  0.00     0.031 C 
ATOM     45  C   UNL     1       8.896  -1.413   1.940  1.00  0.00     0.029 A 
ATOM     46  N   UNL     1      10.308  -2.576   0.652  1.00  0.00    -0.354 N 
ATOM     47  C   UNL     1      12.329  -0.654  -2.690  1.00  0.00     0.074 A 
ATOM     48  C   UNL     1      11.932   0.731  -2.809  1.00  0.00     0.031 C 
ATOM     49  C   UNL     1       8.909  -2.678   2.394  1.00  0.00     0.029 A 
ATOM     50  C   UNL     1       9.799  -3.477   1.556  1.00  0.00     0.049 A 
ATOM     51  H   UNL     1      10.981  -2.814  -0.027  1.00  0.00     0.167 HD
ATOM     52  C   UNL     1      13.230  -1.259  -3.497  1.00  0.00     0.034 A 
ATOM     53  C   UNL     1      10.023  -4.800   1.677  1.00  0.00     0.034 A 
ATOM     54  C   UNL     1      13.627  -2.632  -3.359  1.00  0.00     0.049 A 
ATOM     55  C   UNL     1      11.017  -5.451   0.750  1.00  0.00     0.074 A 
ATOM     56  C   UNL     1      14.540  -3.345  -4.115  1.00  0.00     0.029 A 
ATOM     57  N   UNL     1      13.133  -3.501  -2.399  1.00  0.00    -0.354 N 
ATOM     58  N   UNL     1      11.739  -4.907  -0.201  1.00  0.00    -0.248 NA
ATOM     59  C   UNL     1      11.258  -6.888   0.937  1.00  0.00     0.031 C 
ATOM     60  C   UNL     1      14.589  -4.651  -3.617  1.00  0.00     0.029 A 
ATOM     61  C   UNL     1      13.721  -4.744  -2.540  1.00  0.00     0.049 A 
ATOM     62  H   UNL     1      12.462  -3.268  -1.718  1.00  0.00     0.167 HD
ATOM     63  C   UNL     1      12.545  -5.924  -0.699  1.00  0.00     0.074 A 
ATOM     64  C   UNL     1      12.238  -7.112   0.072  1.00  0.00     0.031 C 
ATOM     65  C   UNL     1      13.443  -5.890  -1.714  1.00  0.00     0.034 A 
BRANCH  52  66
ATOM     66  C   UNL     1      13.883  -0.427  -4.567  1.00  0.00     0.023 A 
ATOM     67  C   UNL     1      14.873   0.508  -4.204  1.00  0.00     0.012 A 
ATOM     68  C   UNL     1      13.571  -0.613  -5.927  1.00  0.00     0.148 A 
ATOM     69  C   UNL     1      15.530   1.261  -5.176  1.00  0.00     0.002 A 
ATOM     70  C   UNL     1      14.257   0.114  -6.894  1.00  0.00     0.091 A 
ATOM     71  F   UNL     1      12.611  -1.491  -6.248  1.00  0.00    -0.205 F 
ATOM     72  C   UNL     1      15.230   1.056  -6.520  1.00  0.00     0.022 A 
BRANCH  70  73
ATOM     73  S   UNL     1      13.995  -0.120  -8.655  1.00  0.00     0.127 S 
ATOM     74  O   UNL     1      13.411   1.164  -9.041  1.00  0.00    -0.237 OA
ATOM     75  O   UNL     1      15.357  -0.341  -9.140  1.00  0.00    -0.237 OA
ATOM     76  O   UNL     1      13.108  -1.268  -8.783  1.00  0.00    -0.744 OA
ENDBRANCH  70  73
ENDBRANCH  52  66
BRANCH  53  77
ATOM     77  C   UNL     1       9.328  -5.587   2.733  1.00  0.00     0.023 A 
ATOM     78  C   UNL     1      10.068  -6.127   3.803  1.00  0.00     0.012 A 
ATOM     79  C   UNL     1       7.937  -5.803   2.686  1.00  0.00     0.148 A 
ATOM     80  C   UNL     1       9.443  -6.900   4.782  1.00  0.00     0.002 A 
ATOM     81  C   UNL     1       7.312  -6.527   3.696  1.00  0.00     0.091 A 
ATOM     82  F   UNL     1       7.248  -5.301   1.651  1.00  0.00    -0.205 F 
ATOM     83  C   UNL     1       8.065  -7.092   4.735  1.00  0.00     0.022 A 
BRANCH  81  84
ATOM     84  S   UNL     1       5.525  -6.697   3.768  1.00  0.00     0.127 S 
ATOM     85  O   UNL     1       5.326  -8.029   3.204  1.00  0.00    -0.237 OA
ATOM     86  O   UNL     1       5.260  -6.589   5.203  1.00  0.00    -0.237 OA
ATOM     87  O   UNL     1       5.005  -5.583   2.985  1.00  0.00    -0.744 OA
ENDBRANCH  81  84
ENDBRANCH  53  77
BRANCH  65  88
ATOM     88  C   UNL     1      14.189  -7.159  -2.026  1.00  0.00     0.023 A 
ATOM     89  C   UNL     1      13.525  -8.213  -2.684  1.00  0.00     0.012 A 
ATOM     90  C   UNL     1      15.563  -7.273  -1.740  1.00  0.00     0.148 A 
ATOM     91  C   UNL     1      14.213  -9.376  -3.027  1.00  0.00     0.002 A 
ATOM     92  C   UNL     1      16.252  -8.416  -2.127  1.00  0.00     0.091 A 
ATOM     93  F   UNL     1      16.170  -6.265  -1.097  1.00  0.00    -0.205 F 
ATOM     94  C   UNL     1      15.577  -9.472  -2.760  1.00  0.00     0.022 A 
BRANCH  92  95
ATOM     95  S   UNL     1      18.027  -8.585  -1.909  1.00  0.00     0.127 S 
ATOM     96  O   UNL     1      18.101  -9.519  -0.786  1.00  0.00    -0.237 OA
ATOM     97  O   UNL     1      18.448  -9.142  -3.195  1.00  0.00    -0.237 OA
ATOM     98  O   UNL     1      18.526  -7.243  -1.642  1.00  0.00    -0.744 OA
ENDBRANCH  92  95
ENDBRANCH  65  88
ENDBRANCH  39  40
ENDBRANCH  32  34
ENDBRANCH  31  32
ENDBRANCH  30  31
ENDBRANCH  29  30
ENDBRANCH   1  29
TORSDOF 22
