REMARK SMILES Cc1ccc(C(=O)OCCOCCOC(=O)c2ccc(-c3c4nc(c(-c5cccc(S(=O)(=O)[O-])c5F)c5ccc([nH]5)c(-c5cccc(S(=O)(=O)[O-])c5F)c5nc(c(-c6cccc(S(=O)(=O)[O-])c6F)c6ccc3[nH]6)C=C5)C=C4)cc2)cc1NC(=O)c1ccc(-c2cccc([N+](=O)[O-])c2)o1
REMARK SMILES IDX 10 1 9 2 8 3 6 4 7 5 5 6 1 7 2 8 3 9 81 10 4 11 80 12 82 13
REMARK SMILES IDX 83 14 84 16 85 17 86 18 98 19 87 20 88 21 89 22 90 23 97 24
REMARK SMILES IDX 91 25 93 26 92 27 94 28 95 29 96 30 11 31 12 32 13 33 14 34
REMARK SMILES IDX 15 35 16 36 17 37 18 38 79 39 19 40 78 41 20 42 21 43 22 44
REMARK SMILES IDX 72 45 23 46 77 47 71 48 73 49 24 50 76 51 70 52 69 53 25 55
REMARK SMILES IDX 57 56 37 57 56 58 38 59 41 60 55 61 74 62 39 63 40 64 54 66
REMARK SMILES IDX 75 67 42 68 26 69 27 70 35 71 28 72 30 73 36 74 29 75 31 76
REMARK SMILES IDX 32 77 33 78 34 79 58 80 59 81 67 82 60 83 62 84 68 85 61 86
REMARK SMILES IDX 63 87 64 88 65 89 66 90 43 91 44 92 52 93 45 94 47 95 53 96
REMARK SMILES IDX 46 97 48 98 49 99 50 100 51 101
REMARK H PARENT 82 15 73 54 41 65
REMARK Flexibility Score: inf
ROOT
ATOM      1  C   UNL     1      -4.233  -1.450  -1.951  1.00  0.00     0.202 C 
ENDROOT
BRANCH   1   2
ATOM      2  C   UNL     1      -4.200  -0.223  -1.005  1.00  0.00     0.261 C 
BRANCH   2   3
ATOM      3  O   UNL     1      -2.922   0.227  -0.679  1.00  0.00    -0.460 OA
BRANCH   3   4
ATOM      4  C   UNL     1      -2.393  -0.584   0.252  1.00  0.00     0.338 C 
ATOM      5  O   UNL     1      -2.926  -1.485   0.871  1.00  0.00    -0.246 OA
BRANCH   4   6
ATOM      6  C   UNL     1      -0.970  -0.325   0.208  1.00  0.00     0.062 A 
ATOM      7  C   UNL     1       3.223   0.046  -0.008  1.00  0.00     0.046 C 
ATOM      8  C   UNL     1       1.728   0.058   0.089  1.00  0.00    -0.027 A 
ATOM      9  C   UNL     1       1.180  -1.222   0.380  1.00  0.00     0.006 A 
ATOM     10  C   UNL     1       0.901   1.180  -0.167  1.00  0.00     0.045 A 
ATOM     11  C   UNL     1      -0.172  -1.402   0.505  1.00  0.00     0.016 A 
ATOM     12  C   UNL     1      -0.447   0.907  -0.222  1.00  0.00     0.042 A 
BRANCH  10  13
ATOM     13  N   UNL     1       1.440   2.486  -0.358  1.00  0.00    -0.319 N 
ATOM     14  C   UNL     1       0.959   3.792  -0.565  1.00  0.00     0.291 C 
ATOM     15  H   UNL     1       2.424   2.470  -0.340  1.00  0.00     0.170 HD
ATOM     16  O   UNL     1       1.838   4.646  -0.732  1.00  0.00    -0.265 OA
BRANCH  14  17
ATOM     17  C   UNL     1      -0.453   4.141  -0.592  1.00  0.00     0.192 A 
ATOM     18  C   UNL     1      -1.514   3.682   0.156  1.00  0.00     0.057 A 
ATOM     19  O   UNL     1      -0.949   5.124  -1.469  1.00  0.00    -0.451 OA
ATOM     20  C   UNL     1      -2.632   3.909  -0.658  1.00  0.00     0.052 A 
ATOM     21  C   UNL     1      -2.319   4.989  -1.455  1.00  0.00     0.135 A 
BRANCH  21  22
ATOM     22  C   UNL     1      -3.229   5.869  -2.219  1.00  0.00     0.024 A 
ATOM     23  C   UNL     1      -3.882   6.937  -1.554  1.00  0.00     0.012 A 
ATOM     24  C   UNL     1      -3.848   5.350  -3.369  1.00  0.00     0.097 A 
ATOM     25  C   UNL     1      -5.184   7.346  -1.925  1.00  0.00     0.008 A 
ATOM     26  C   UNL     1      -5.140   5.781  -3.751  1.00  0.00     0.270 A 
ATOM     27  C   UNL     1      -5.834   6.737  -3.001  1.00  0.00     0.085 A 
BRANCH  26  28
ATOM     28  N   UNL     1      -5.790   5.173  -4.923  1.00  0.00     0.062 N 
ATOM     29  O   UNL     1      -6.965   5.486  -5.165  1.00  0.00    -0.258 OA
ATOM     30  O   UNL     1      -5.086   4.458  -5.653  1.00  0.00    -0.258 OA
ENDBRANCH  26  28
ENDBRANCH  21  22
ENDBRANCH  14  17
ENDBRANCH  10  13
ENDBRANCH   4   6
ENDBRANCH   3   4
ENDBRANCH   2   3
ENDBRANCH   1   2
BRANCH   1  31
ATOM     31  O   UNL     1      -3.055  -1.773  -2.630  1.00  0.00    -0.374 OA
BRANCH  31  32
ATOM     32  C   UNL     1      -2.559  -0.666  -3.333  1.00  0.00     0.202 C 
BRANCH  32  33
ATOM     33  C   UNL     1      -3.497   0.484  -3.850  1.00  0.00     0.261 C 
BRANCH  33  34
ATOM     34  O   UNL     1      -5.009   0.759  -3.567  1.00  0.00    -0.460 OA
BRANCH  34  35
ATOM     35  C   UNL     1      -6.324   0.957  -3.291  1.00  0.00     0.338 C 
ATOM     36  O   UNL     1      -6.845   1.953  -3.785  1.00  0.00    -0.246 OA
BRANCH  35  37
ATOM     37  C   UNL     1      -7.162   0.227  -2.227  1.00  0.00     0.060 A 
ATOM     38  C   UNL     1      -7.997   0.977  -1.398  1.00  0.00     0.016 A 
ATOM     39  C   UNL     1      -6.999  -1.061  -1.782  1.00  0.00     0.016 A 
ATOM     40  C   UNL     1      -8.004   0.751  -0.013  1.00  0.00     0.010 A 
ATOM     41  C   UNL     1      -6.841  -1.213  -0.404  1.00  0.00     0.010 A 
ATOM     42  C   UNL     1      -7.114  -0.155   0.468  1.00  0.00    -0.014 A 
BRANCH  42  43
ATOM     43  C   UNL     1      -6.450  -0.104   1.782  1.00  0.00     0.031 A 
ATOM     44  C   UNL     1      -6.780  -1.223   2.688  1.00  0.00     0.074 A 
ATOM     45  C   UNL     1      -5.415   0.754   2.045  1.00  0.00     0.049 A 
ATOM     46  N   UNL     1      -6.508  -1.268   3.942  1.00  0.00    -0.248 NA
ATOM     47  C   UNL     1      -7.564  -2.384   2.247  1.00  0.00     0.031 C 
ATOM     48  C   UNL     1      -4.249   0.522   2.920  1.00  0.00     0.029 A 
ATOM     49  N   UNL     1      -5.149   2.044   1.540  1.00  0.00    -0.354 N 
ATOM     50  C   UNL     1      -6.677  -2.589   4.308  1.00  0.00     0.074 A 
ATOM     51  C   UNL     1      -7.552  -3.154   3.330  1.00  0.00     0.031 C 
ATOM     52  C   UNL     1      -3.536   1.656   3.063  1.00  0.00     0.029 A 
ATOM     53  C   UNL     1      -4.328   2.720   2.479  1.00  0.00     0.049 A 
ATOM     54  H   UNL     1      -5.475   2.410   0.686  1.00  0.00     0.167 HD
ATOM     55  C   UNL     1      -5.841  -3.114   5.239  1.00  0.00     0.034 A 
ATOM     56  C   UNL     1      -4.722   3.859   3.140  1.00  0.00     0.034 A 
ATOM     57  C   UNL     1      -5.017  -2.041   5.821  1.00  0.00     0.049 A 
ATOM     58  C   UNL     1      -4.800   3.656   4.616  1.00  0.00     0.074 A 
ATOM     59  C   UNL     1      -3.687  -1.689   5.680  1.00  0.00     0.029 A 
ATOM     60  N   UNL     1      -5.653  -0.946   6.402  1.00  0.00    -0.354 N 
ATOM     61  N   UNL     1      -4.789   2.458   5.117  1.00  0.00    -0.248 NA
ATOM     62  C   UNL     1      -4.898   4.692   5.639  1.00  0.00     0.031 C 
ATOM     63  C   UNL     1      -3.548  -0.340   6.120  1.00  0.00     0.029 A 
ATOM     64  C   UNL     1      -4.782   0.117   6.558  1.00  0.00     0.049 A 
ATOM     65  H   UNL     1      -6.601  -0.931   6.668  1.00  0.00     0.167 HD
ATOM     66  C   UNL     1      -5.007   2.513   6.446  1.00  0.00     0.074 A 
ATOM     67  C   UNL     1      -5.021   3.935   6.745  1.00  0.00     0.031 C 
ATOM     68  C   UNL     1      -5.256   1.372   7.140  1.00  0.00     0.034 A 
BRANCH  55  69
ATOM     69  C   UNL     1      -5.569  -4.595   5.481  1.00  0.00     0.023 A 
ATOM     70  C   UNL     1      -4.630  -4.882   6.496  1.00  0.00     0.012 A 
ATOM     71  C   UNL     1      -6.089  -5.726   4.792  1.00  0.00     0.148 A 
ATOM     72  C   UNL     1      -4.226  -6.183   6.811  1.00  0.00     0.002 A 
ATOM     73  C   UNL     1      -5.725  -7.033   5.141  1.00  0.00     0.091 A 
ATOM     74  F   UNL     1      -6.903  -5.576   3.748  1.00  0.00    -0.205 F 
ATOM     75  C   UNL     1      -4.784  -7.261   6.145  1.00  0.00     0.022 A 
BRANCH  73  76
ATOM     76  S   UNL     1      -6.425  -8.501   4.352  1.00  0.00     0.127 S 
ATOM     77  O   UNL     1      -5.233  -9.163   3.820  1.00  0.00    -0.237 OA
ATOM     78  O   UNL     1      -7.049  -9.191   5.481  1.00  0.00    -0.237 OA
ATOM     79  O   UNL     1      -7.358  -8.026   3.337  1.00  0.00    -0.744 OA
ENDBRANCH  73  76
ENDBRANCH  55  69
BRANCH  56  80
ATOM     80  C   UNL     1      -5.604   4.746   2.335  1.00  0.00     0.023 A 
ATOM     81  C   UNL     1      -4.973   5.157   1.162  1.00  0.00     0.012 A 
ATOM     82  C   UNL     1      -7.007   4.627   2.356  1.00  0.00     0.148 A 
ATOM     83  C   UNL     1      -5.679   5.020  -0.021  1.00  0.00     0.002 A 
ATOM     84  C   UNL     1      -7.716   4.707   1.155  1.00  0.00     0.091 A 
ATOM     85  F   UNL     1      -7.598   4.319   3.516  1.00  0.00    -0.205 F 
ATOM     86  C   UNL     1      -7.039   4.867  -0.046  1.00  0.00     0.022 A 
BRANCH  84  87
ATOM     87  S   UNL     1      -9.428   4.239   0.949  1.00  0.00     0.127 S 
ATOM     88  O   UNL     1     -10.045   5.488   0.515  1.00  0.00    -0.237 OA
ATOM     89  O   UNL     1      -9.342   3.249  -0.118  1.00  0.00    -0.237 OA
ATOM     90  O   UNL     1      -9.843   3.723   2.241  1.00  0.00    -0.744 OA
ENDBRANCH  84  87
ENDBRANCH  56  80
BRANCH  68  91
ATOM     91  C   UNL     1      -6.009   1.393   8.432  1.00  0.00     0.023 A 
ATOM     92  C   UNL     1      -6.863   2.464   8.769  1.00  0.00     0.012 A 
ATOM     93  C   UNL     1      -6.012   0.266   9.275  1.00  0.00     0.148 A 
ATOM     94  C   UNL     1      -7.576   2.480   9.964  1.00  0.00     0.002 A 
ATOM     95  C   UNL     1      -6.838   0.225  10.384  1.00  0.00     0.091 A 
ATOM     96  F   UNL     1      -5.203  -0.770   9.013  1.00  0.00    -0.205 F 
ATOM     97  C   UNL     1      -7.574   1.350  10.767  1.00  0.00     0.022 A 
BRANCH  95  98
ATOM     98  S   UNL     1      -7.100  -1.303  11.281  1.00  0.00     0.127 S 
ATOM     99  O   UNL     1      -6.255  -1.100  12.456  1.00  0.00    -0.237 OA
ATOM    100  O   UNL     1      -8.539  -1.259  11.543  1.00  0.00    -0.237 OA
ATOM    101  O   UNL     1      -6.689  -2.367  10.375  1.00  0.00    -0.744 OA
ENDBRANCH  95  98
ENDBRANCH  68  91
ENDBRANCH  42  43
ENDBRANCH  35  37
ENDBRANCH  34  35
ENDBRANCH  33  34
ENDBRANCH  32  33
ENDBRANCH  31  32
ENDBRANCH   1  31
TORSDOF 21
