REMARK SMILES Nc1nc(N2CCCCC2)nc2c1[C@H](C(=O)OCCOCCOC(=O)c1ccc(-c3c4nc(c(-c5cccc(S(=O)(=O)[O-])c5F)c5ccc([nH]5)c(-c5cccc(S(=O)(=O)[O-])c5F)c5nc(c(-c6cccc(S(=O)(=O)[O-])c6F)c6ccc3[nH]6)C=C5)C=C4)cc1)CC(=O)N2
REMARK SMILES IDX 21 1 20 2 19 3 18 4 17 5 15 6 16 7 14 8 2 9 3 10 13 11 4 12
REMARK SMILES IDX 12 13 11 14 92 15 89 16 90 17 91 19 1 20 5 23 6 24 10 25
REMARK SMILES IDX 7 26 9 27 8 28 22 29 23 30 24 31 25 32 26 33 27 34 88 35
REMARK SMILES IDX 28 36 87 37 29 38 30 39 31 40 81 41 32 42 86 43 80 44 82 45
REMARK SMILES IDX 33 46 85 47 79 48 78 49 34 51 66 52 46 53 65 54 47 55 50 56
REMARK SMILES IDX 64 57 83 58 48 59 49 60 63 62 84 63 51 64 35 65 36 66 44 67
REMARK SMILES IDX 37 68 39 69 45 70 38 71 40 72 41 73 42 74 43 75 67 76 68 77
REMARK SMILES IDX 76 78 69 79 71 80 77 81 70 82 72 83 73 84 74 85 75 86 52 87
REMARK SMILES IDX 53 88 61 89 54 90 56 91 62 92 55 93 57 94 58 95 59 96 60 97
REMARK H PARENT 92 18 1 21 1 22 82 50 50 61
REMARK Flexibility Score: inf
ROOT
ATOM      1  C   UNL     1      -2.090   0.913  -1.581  1.00  0.00     0.202 C 
ENDROOT
BRANCH   1   2
ATOM      2  O   UNL     1      -2.222  -0.006  -2.663  1.00  0.00    -0.374 OA
BRANCH   2   3
ATOM      3  C   UNL     1      -3.044  -1.155  -2.449  1.00  0.00     0.202 C 
BRANCH   3   4
ATOM      4  C   UNL     1      -2.458  -2.269  -1.578  1.00  0.00     0.261 C 
BRANCH   4   5
ATOM      5  O   UNL     1      -2.296  -1.845  -0.210  1.00  0.00    -0.463 OA
BRANCH   5   6
ATOM      6  C   UNL     1      -1.019  -1.789   0.246  1.00  0.00     0.314 C 
ATOM      7  O   UNL     1      -0.029  -2.076  -0.421  1.00  0.00    -0.252 OA
BRANCH   6   8
ATOM      8  C   UNL     1      -0.908  -1.197   1.645  1.00  0.00     0.146 C 
ATOM      9  C   UNL     1       0.542   0.818   1.046  1.00  0.00     0.135 A 
ATOM     10  N   UNL     1       0.814   2.127   1.087  1.00  0.00    -0.196 NA
ATOM     11  C   UNL     1      -0.578   0.272   1.638  1.00  0.00     0.052 A 
ATOM     12  C   UNL     1      -0.033   2.937   1.730  1.00  0.00     0.229 A 
ATOM     13  C   UNL     1      -1.433   1.202   2.187  1.00  0.00     0.144 A 
ATOM     14  N   UNL     1      -1.185   2.518   2.258  1.00  0.00    -0.195 NA
ATOM     15  N   UNL     1      -2.684   0.800   2.630  1.00  0.00    -0.310 N 
ATOM     16  C   UNL     1      -2.086  -1.568   2.546  1.00  0.00     0.120 C 
ATOM     17  C   UNL     1      -3.125  -0.484   2.684  1.00  0.00     0.226 C 
ATOM     18  H   UNL     1      -3.303   1.504   2.931  1.00  0.00     0.171 HD
ATOM     19  O   UNL     1      -4.296  -0.732   2.959  1.00  0.00    -0.275 OA
BRANCH   9  20
ATOM     20  N   UNL     1       1.495   0.055   0.404  1.00  0.00    -0.383 N 
ATOM     21  H   UNL     1       2.279   0.489  -0.005  1.00  0.00     0.158 HD
ATOM     22  H   UNL     1       1.392  -0.922   0.354  1.00  0.00     0.158 HD
ENDBRANCH   9  20
BRANCH  12  23
ATOM     23  N   UNL     1       0.354   4.252   1.862  1.00  0.00    -0.341 N 
ATOM     24  C   UNL     1      -0.124   5.158   0.834  1.00  0.00     0.119 C 
ATOM     25  C   UNL     1       0.418   4.776   3.215  1.00  0.00     0.119 C 
ATOM     26  C   UNL     1       0.798   6.379   0.789  1.00  0.00     0.022 C 
ATOM     27  C   UNL     1       1.383   5.964   3.217  1.00  0.00     0.022 C 
ATOM     28  C   UNL     1       0.985   7.009   2.172  1.00  0.00     0.004 C 
ENDBRANCH  12  23
ENDBRANCH   6   8
ENDBRANCH   5   6
ENDBRANCH   4   5
ENDBRANCH   3   4
ENDBRANCH   2   3
ENDBRANCH   1   2
BRANCH   1  29
ATOM     29  C   UNL     1      -3.256   1.873  -1.321  1.00  0.00     0.261 C 
BRANCH  29  30
ATOM     30  O   UNL     1      -4.455   1.179  -0.939  1.00  0.00    -0.460 OA
BRANCH  30  31
ATOM     31  C   UNL     1      -5.432   1.190  -1.875  1.00  0.00     0.338 C 
ATOM     32  O   UNL     1      -5.420   1.796  -2.942  1.00  0.00    -0.246 OA
BRANCH  31  33
ATOM     33  C   UNL     1      -6.474   0.202  -1.546  1.00  0.00     0.060 A 
ATOM     34  C   UNL     1      -6.796  -0.739  -2.533  1.00  0.00     0.016 A 
ATOM     35  C   UNL     1      -7.178   0.236  -0.341  1.00  0.00     0.016 A 
ATOM     36  C   UNL     1      -7.864  -1.610  -2.345  1.00  0.00     0.010 A 
ATOM     37  C   UNL     1      -8.260  -0.633  -0.159  1.00  0.00     0.010 A 
ATOM     38  C   UNL     1      -8.634  -1.529  -1.177  1.00  0.00    -0.014 A 
BRANCH  38  39
ATOM     39  C   UNL     1      -9.918  -2.268  -1.112  1.00  0.00     0.031 A 
ATOM     40  C   UNL     1     -11.193  -1.534  -1.433  1.00  0.00     0.074 A 
ATOM     41  C   UNL     1      -9.941  -3.585  -0.839  1.00  0.00     0.049 A 
ATOM     42  N   UNL     1     -12.418  -1.988  -1.482  1.00  0.00    -0.248 NA
ATOM     43  C   UNL     1     -11.072  -0.100  -1.751  1.00  0.00     0.031 C 
ATOM     44  C   UNL     1      -8.768  -4.406  -0.547  1.00  0.00     0.029 A 
ATOM     45  N   UNL     1     -10.993  -4.463  -0.765  1.00  0.00    -0.354 N 
ATOM     46  C   UNL     1     -13.211  -0.901  -1.833  1.00  0.00     0.074 A 
ATOM     47  C   UNL     1     -12.336   0.243  -1.956  1.00  0.00     0.031 C 
ATOM     48  C   UNL     1      -9.165  -5.671  -0.325  1.00  0.00     0.029 A 
ATOM     49  C   UNL     1     -10.620  -5.746  -0.435  1.00  0.00     0.049 A 
ATOM     50  H   UNL     1     -11.927  -4.200  -0.933  1.00  0.00     0.167 HD
ATOM     51  C   UNL     1     -14.544  -0.866  -2.063  1.00  0.00     0.034 A 
ATOM     52  C   UNL     1     -11.371  -6.849  -0.242  1.00  0.00     0.034 A 
ATOM     53  C   UNL     1     -15.409  -2.009  -1.956  1.00  0.00     0.049 A 
ATOM     54  C   UNL     1     -12.866  -6.761  -0.432  1.00  0.00     0.074 A 
ATOM     55  C   UNL     1     -16.774  -2.074  -2.171  1.00  0.00     0.029 A 
ATOM     56  N   UNL     1     -14.997  -3.284  -1.604  1.00  0.00    -0.354 N 
ATOM     57  N   UNL     1     -13.588  -5.748  -0.848  1.00  0.00    -0.248 NA
ATOM     58  C   UNL     1     -13.647  -7.976  -0.153  1.00  0.00     0.031 C 
ATOM     59  C   UNL     1     -17.191  -3.385  -1.931  1.00  0.00     0.029 A 
ATOM     60  C   UNL     1     -16.082  -4.143  -1.590  1.00  0.00     0.049 A 
ATOM     61  H   UNL     1     -14.070  -3.542  -1.396  1.00  0.00     0.167 HD
ATOM     62  C   UNL     1     -14.898  -6.212  -0.914  1.00  0.00     0.074 A 
ATOM     63  C   UNL     1     -14.867  -7.604  -0.517  1.00  0.00     0.031 C 
ATOM     64  C   UNL     1     -16.027  -5.542  -1.254  1.00  0.00     0.034 A 
BRANCH  51  65
ATOM     65  C   UNL     1     -15.152   0.436  -2.513  1.00  0.00     0.023 A 
ATOM     66  C   UNL     1     -14.931   0.876  -3.834  1.00  0.00     0.012 A 
ATOM     67  C   UNL     1     -16.021   1.165  -1.677  1.00  0.00     0.148 A 
ATOM     68  C   UNL     1     -15.553   2.028  -4.312  1.00  0.00     0.002 A 
ATOM     69  C   UNL     1     -16.670   2.289  -2.174  1.00  0.00     0.091 A 
ATOM     70  F   UNL     1     -16.204   0.738  -0.419  1.00  0.00    -0.205 F 
ATOM     71  C   UNL     1     -16.431   2.726  -3.488  1.00  0.00     0.022 A 
BRANCH  69  72
ATOM     72  S   UNL     1     -17.882   3.215  -1.225  1.00  0.00     0.127 S 
ATOM     73  O   UNL     1     -17.217   4.510  -1.079  1.00  0.00    -0.237 OA
ATOM     74  O   UNL     1     -19.035   3.221  -2.124  1.00  0.00    -0.237 OA
ATOM     75  O   UNL     1     -18.075   2.477   0.015  1.00  0.00    -0.744 OA
ENDBRANCH  69  72
ENDBRANCH  51  65
BRANCH  52  76
ATOM     76  C   UNL     1     -10.724  -8.152   0.093  1.00  0.00     0.023 A 
ATOM     77  C   UNL     1     -10.778  -9.207  -0.839  1.00  0.00     0.012 A 
ATOM     78  C   UNL     1     -10.053  -8.352   1.315  1.00  0.00     0.148 A 
ATOM     79  C   UNL     1     -10.202 -10.444  -0.550  1.00  0.00     0.002 A 
ATOM     80  C   UNL     1      -9.431  -9.569   1.573  1.00  0.00     0.091 A 
ATOM     81  F   UNL     1     -10.030  -7.346   2.201  1.00  0.00    -0.205 F 
ATOM     82  C   UNL     1      -9.520 -10.623   0.650  1.00  0.00     0.022 A 
BRANCH  80  83
ATOM     83  S   UNL     1      -8.421  -9.848   3.033  1.00  0.00     0.127 S 
ATOM     84  O   UNL     1      -9.245 -10.784   3.793  1.00  0.00    -0.237 OA
ATOM     85  O   UNL     1      -7.207 -10.425   2.454  1.00  0.00    -0.237 OA
ATOM     86  O   UNL     1      -8.233  -8.536   3.637  1.00  0.00    -0.744 OA
ENDBRANCH  80  83
ENDBRANCH  52  76
BRANCH  64  87
ATOM     87  C   UNL     1     -17.334  -6.294  -1.239  1.00  0.00     0.023 A 
ATOM     88  C   UNL     1     -17.926  -6.633  -0.007  1.00  0.00     0.012 A 
ATOM     89  C   UNL     1     -18.034  -6.548  -2.437  1.00  0.00     0.148 A 
ATOM     90  C   UNL     1     -19.185  -7.231   0.034  1.00  0.00     0.002 A 
ATOM     91  C   UNL     1     -19.310  -7.096  -2.385  1.00  0.00     0.091 A 
ATOM     92  F   UNL     1     -17.448  -6.228  -3.600  1.00  0.00    -0.205 F 
ATOM     93  C   UNL     1     -19.882  -7.448  -1.152  1.00  0.00     0.022 A 
BRANCH  91  94
ATOM     94  S   UNL     1     -20.332  -7.314  -3.848  1.00  0.00     0.127 S 
ATOM     95  O   UNL     1     -20.388  -8.772  -3.957  1.00  0.00    -0.237 OA
ATOM     96  O   UNL     1     -21.589  -6.685  -3.443  1.00  0.00    -0.237 OA
ATOM     97  O   UNL     1     -19.635  -6.637  -4.932  1.00  0.00    -0.744 OA
ENDBRANCH  91  94
ENDBRANCH  64  87
ENDBRANCH  38  39
ENDBRANCH  31  33
ENDBRANCH  30  31
ENDBRANCH  29  30
ENDBRANCH   1  29
TORSDOF 19
