REMARK SMILES CCCC[C@@H](Sc1nc(OCCC2CCCCC2)cc(OCCC2CCCCC2)n1)C(=O)OCCOCCOC(=O)c1ccc(-c2c3nc(c(-c4cccc(S(=O)(=O)[O-])c4F)c4ccc([nH]4)c(-c4cccc(S(=O)(=O)[O-])c4F)c4nc(c(-c5cccc(S(=O)(=O)[O-])c5F)c5ccc2[nH]5)C=C4)C=C3)cc1
REMARK SMILES IDX 34 1 33 2 31 3 32 4 5 5 4 6 3 7 2 8 1 9 6 10 7 11 8 12 30 13
REMARK SMILES IDX 9 14 20 15 19 16 10 17 11 18 12 19 13 20 14 21 18 22 15 23
REMARK SMILES IDX 17 24 16 25 21 26 22 27 23 28 24 29 25 30 29 31 26 32 28 33
REMARK SMILES IDX 27 34 35 35 36 36 37 37 38 38 39 39 40 40 41 41 42 42 43 43
REMARK SMILES IDX 104 44 44 45 103 46 45 47 46 48 47 49 97 50 48 51 102 52
REMARK SMILES IDX 96 53 98 54 49 55 101 56 95 57 94 58 50 60 82 61 62 62 81 63
REMARK SMILES IDX 63 64 66 65 80 66 99 67 64 68 65 69 79 71 100 72 67 73 51 74
REMARK SMILES IDX 52 75 60 76 53 77 55 78 61 79 54 80 56 81 57 82 58 83 59 84
REMARK SMILES IDX 83 85 84 86 92 87 85 88 87 89 93 90 86 91 88 92 89 93 90 94
REMARK SMILES IDX 91 95 68 96 69 97 77 98 70 99 72 100 78 101 71 102 73 103
REMARK SMILES IDX 74 104 75 105 76 106
REMARK H PARENT 98 59 66 70
REMARK Flexibility Score: inf
ROOT
ATOM      1  C   UNL     1      -2.505   5.456  -1.974  1.00  0.00     0.261 C 
ENDROOT
BRANCH   1   2
ATOM      2  O   UNL     1      -1.718   4.859  -0.935  1.00  0.00    -0.462 OA
BRANCH   2   3
ATOM      3  C   UNL     1      -2.299   3.810  -0.291  1.00  0.00     0.319 C 
ATOM      4  O   UNL     1      -3.406   3.350  -0.557  1.00  0.00    -0.251 OA
BRANCH   3   5
ATOM      5  C   UNL     1      -1.425   3.252   0.820  1.00  0.00     0.164 C 
BRANCH   5   6
ATOM      6  C   UNL     1       0.083   3.244   0.471  1.00  0.00     0.027 C 
BRANCH   6   7
ATOM      7  C   UNL     1       0.931   2.151   1.137  1.00  0.00     0.001 C 
BRANCH   7   8
ATOM      8  C   UNL     1       0.580   0.703   0.760  1.00  0.00    -0.003 C 
ATOM      9  C   UNL     1       1.139   0.261  -0.583  1.00  0.00     0.004 C 
ENDBRANCH   7   8
ENDBRANCH   6   7
ENDBRANCH   5   6
BRANCH   5  10
ATOM     10  S   UNL     1      -1.859   4.232   2.325  1.00  0.00    -0.071 SA
BRANCH  10  11
ATOM     11  C   UNL     1      -1.844   2.965   3.558  1.00  0.00     0.195 A 
ATOM     12  N   UNL     1      -2.132   3.309   4.820  1.00  0.00    -0.187 NA
ATOM     13  N   UNL     1      -1.413   1.759   3.181  1.00  0.00    -0.187 NA
ATOM     14  C   UNL     1      -1.788   2.430   5.767  1.00  0.00     0.221 A 
ATOM     15  C   UNL     1      -1.054   0.914   4.139  1.00  0.00     0.221 A 
ATOM     16  C   UNL     1      -1.127   1.268   5.456  1.00  0.00     0.136 A 
BRANCH  14  17
ATOM     17  O   UNL     1      -2.266   2.730   7.019  1.00  0.00    -0.477 OA
BRANCH  17  18
ATOM     18  C   UNL     1      -1.524   2.337   8.174  1.00  0.00     0.231 C 
BRANCH  18  19
ATOM     19  C   UNL     1      -2.148   1.187   9.009  1.00  0.00     0.045 C 
BRANCH  19  20
ATOM     20  C   UNL     1      -2.478  -0.066   8.191  1.00  0.00    -0.008 C 
ATOM     21  C   UNL     1      -2.305  -1.415   8.894  1.00  0.00     0.004 C 
ATOM     22  C   UNL     1      -3.864  -0.000   7.548  1.00  0.00     0.004 C 
ATOM     23  C   UNL     1      -2.383  -2.530   7.837  1.00  0.00     0.000 C 
ATOM     24  C   UNL     1      -3.980  -1.060   6.459  1.00  0.00     0.000 C 
ATOM     25  C   UNL     1      -3.648  -2.459   6.976  1.00  0.00     0.000 C 
ENDBRANCH  19  20
ENDBRANCH  18  19
ENDBRANCH  17  18
ENDBRANCH  14  17
BRANCH  15  26
ATOM     26  O   UNL     1      -0.539  -0.244   3.639  1.00  0.00    -0.477 OA
BRANCH  26  27
ATOM     27  C   UNL     1      -0.302  -1.352   4.492  1.00  0.00     0.231 C 
BRANCH  27  28
ATOM     28  C   UNL     1       1.186  -1.724   4.612  1.00  0.00     0.045 C 
BRANCH  28  29
ATOM     29  C   UNL     1       2.217  -0.649   5.051  1.00  0.00    -0.008 C 
ATOM     30  C   UNL     1       2.455   0.408   3.973  1.00  0.00     0.004 C 
ATOM     31  C   UNL     1       1.974  -0.120   6.474  1.00  0.00     0.004 C 
ATOM     32  C   UNL     1       3.231   1.611   4.468  1.00  0.00     0.000 C 
ATOM     33  C   UNL     1       2.232   1.365   6.760  1.00  0.00     0.000 C 
ATOM     34  C   UNL     1       2.439   2.288   5.569  1.00  0.00     0.000 C 
ENDBRANCH  28  29
ENDBRANCH  27  28
ENDBRANCH  26  27
ENDBRANCH  15  26
ENDBRANCH  10  11
ENDBRANCH   5  10
ENDBRANCH   3   5
ENDBRANCH   2   3
ENDBRANCH   1   2
BRANCH   1  35
ATOM     35  C   UNL     1      -1.905   5.229  -3.364  1.00  0.00     0.202 C 
BRANCH  35  36
ATOM     36  O   UNL     1      -1.835   3.888  -3.845  1.00  0.00    -0.374 OA
BRANCH  36  37
ATOM     37  C   UNL     1      -0.854   3.024  -3.277  1.00  0.00     0.202 C 
BRANCH  37  38
ATOM     38  C   UNL     1       0.620   3.306  -3.605  1.00  0.00     0.261 C 
BRANCH  38  39
ATOM     39  O   UNL     1       1.087   4.570  -3.099  1.00  0.00    -0.460 OA
BRANCH  39  40
ATOM     40  C   UNL     1       1.452   5.459  -4.053  1.00  0.00     0.338 C 
ATOM     41  O   UNL     1       1.474   5.271  -5.266  1.00  0.00    -0.246 OA
BRANCH  40  42
ATOM     42  C   UNL     1       1.664   6.795  -3.473  1.00  0.00     0.060 A 
ATOM     43  C   UNL     1       0.852   7.838  -3.937  1.00  0.00     0.016 A 
ATOM     44  C   UNL     1       2.717   7.053  -2.593  1.00  0.00     0.016 A 
ATOM     45  C   UNL     1       1.121   9.153  -3.564  1.00  0.00     0.010 A 
ATOM     46  C   UNL     1       2.991   8.376  -2.227  1.00  0.00     0.010 A 
ATOM     47  C   UNL     1       2.221   9.435  -2.744  1.00  0.00    -0.014 A 
BRANCH  47  48
ATOM     48  C   UNL     1       2.647  10.845  -2.561  1.00  0.00     0.031 A 
ATOM     49  C   UNL     1       3.804  11.371  -3.369  1.00  0.00     0.074 A 
ATOM     50  C   UNL     1       1.999  11.654  -1.704  1.00  0.00     0.049 A 
ATOM     51  N   UNL     1       4.344  12.562  -3.363  1.00  0.00    -0.248 NA
ATOM     52  C   UNL     1       4.436  10.429  -4.308  1.00  0.00     0.031 C 
ATOM     53  C   UNL     1       0.860  11.267  -0.874  1.00  0.00     0.029 A 
ATOM     54  N   UNL     1       2.222  12.969  -1.379  1.00  0.00    -0.354 N 
ATOM     55  C   UNL     1       5.394  12.507  -4.272  1.00  0.00     0.074 A 
ATOM     56  C   UNL     1       5.424  11.161  -4.803  1.00  0.00     0.031 C 
ATOM     57  C   UNL     1       0.500  12.314  -0.113  1.00  0.00     0.029 A 
ATOM     58  C   UNL     1       1.395  13.437  -0.386  1.00  0.00     0.049 A 
ATOM     59  H   UNL     1       2.909  13.524  -1.815  1.00  0.00     0.167 HD
ATOM     60  C   UNL     1       6.247  13.490  -4.645  1.00  0.00     0.034 A 
ATOM     61  C   UNL     1       1.377  14.628   0.245  1.00  0.00     0.034 A 
ATOM     62  C   UNL     1       6.201  14.835  -4.136  1.00  0.00     0.049 A 
ATOM     63  C   UNL     1       2.351  15.699  -0.173  1.00  0.00     0.074 A 
ATOM     64  C   UNL     1       6.992  15.915  -4.488  1.00  0.00     0.029 A 
ATOM     65  N   UNL     1       5.325  15.282  -3.160  1.00  0.00    -0.354 N 
ATOM     66  N   UNL     1       3.260  15.667  -1.118  1.00  0.00    -0.248 NA
ATOM     67  C   UNL     1       2.276  16.983   0.541  1.00  0.00     0.031 C 
ATOM     68  C   UNL     1       6.610  17.009  -3.705  1.00  0.00     0.029 A 
ATOM     69  C   UNL     1       5.563  16.618  -2.886  1.00  0.00     0.049 A 
ATOM     70  H   UNL     1       4.635  14.731  -2.725  1.00  0.00     0.167 HD
ATOM     71  C   UNL     1       3.837  16.933  -1.137  1.00  0.00     0.074 A 
ATOM     72  C   UNL     1       3.162  17.715  -0.122  1.00  0.00     0.031 C 
ATOM     73  C   UNL     1       4.845  17.402  -1.913  1.00  0.00     0.034 A 
BRANCH  60  74
ATOM     74  C   UNL     1       7.292  13.157  -5.677  1.00  0.00     0.023 A 
ATOM     75  C   UNL     1       6.912  12.989  -7.024  1.00  0.00     0.012 A 
ATOM     76  C   UNL     1       8.653  13.071  -5.326  1.00  0.00     0.148 A 
ATOM     77  C   UNL     1       7.867  12.710  -8.001  1.00  0.00     0.002 A 
ATOM     78  C   UNL     1       9.604  12.836  -6.312  1.00  0.00     0.091 A 
ATOM     79  F   UNL     1       8.992  13.213  -4.037  1.00  0.00    -0.205 F 
ATOM     80  C   UNL     1       9.213  12.645  -7.648  1.00  0.00     0.022 A 
BRANCH  78  81
ATOM     81  S   UNL     1      11.368  12.808  -5.970  1.00  0.00     0.127 S 
ATOM     82  O   UNL     1      11.676  11.387  -6.126  1.00  0.00    -0.237 OA
ATOM     83  O   UNL     1      11.901  13.666  -7.028  1.00  0.00    -0.237 OA
ATOM     84  O   UNL     1      11.524  13.337  -4.623  1.00  0.00    -0.744 OA
ENDBRANCH  78  81
ENDBRANCH  60  74
BRANCH  61  85
ATOM     85  C   UNL     1       0.378  14.886   1.321  1.00  0.00     0.023 A 
ATOM     86  C   UNL     1      -0.660  15.811   1.100  1.00  0.00     0.012 A 
ATOM     87  C   UNL     1       0.449  14.215   2.557  1.00  0.00     0.148 A 
ATOM     88  C   UNL     1      -1.594  16.085   2.100  1.00  0.00     0.002 A 
ATOM     89  C   UNL     1      -0.515  14.452   3.530  1.00  0.00     0.091 A 
ATOM     90  F   UNL     1       1.457  13.354   2.755  1.00  0.00    -0.205 F 
ATOM     91  C   UNL     1      -1.527  15.399   3.310  1.00  0.00     0.022 A 
BRANCH  89  92
ATOM     92  S   UNL     1      -0.576  13.528   5.069  1.00  0.00     0.127 S 
ATOM     93  O   UNL     1      -0.160  14.537   6.040  1.00  0.00    -0.237 OA
ATOM     94  O   UNL     1      -1.988  13.151   5.138  1.00  0.00    -0.237 OA
ATOM     95  O   UNL     1       0.338  12.408   4.890  1.00  0.00    -0.744 OA
ENDBRANCH  89  92
ENDBRANCH  61  85
BRANCH  73  96
ATOM     96  C   UNL     1       5.263  18.838  -1.732  1.00  0.00     0.023 A 
ATOM     97  C   UNL     1       5.984  19.219  -0.583  1.00  0.00     0.012 A 
ATOM     98  C   UNL     1       5.011  19.794  -2.737  1.00  0.00     0.148 A 
ATOM     99  C   UNL     1       6.418  20.534  -0.422  1.00  0.00     0.002 A 
ATOM    100  C   UNL     1       5.489  21.090  -2.592  1.00  0.00     0.091 A 
ATOM    101  F   UNL     1       4.308  19.417  -3.816  1.00  0.00    -0.205 F 
ATOM    102  C   UNL     1       6.183  21.466  -1.430  1.00  0.00     0.022 A 
BRANCH 100 103
ATOM    103  S   UNL     1       5.317  22.330  -3.881  1.00  0.00     0.127 S 
ATOM    104  O   UNL     1       4.297  23.210  -3.314  1.00  0.00    -0.237 OA
ATOM    105  O   UNL     1       6.660  22.910  -3.937  1.00  0.00    -0.237 OA
ATOM    106  O   UNL     1       4.922  21.607  -5.083  1.00  0.00    -0.744 OA
ENDBRANCH 100 103
ENDBRANCH  73  96
ENDBRANCH  47  48
ENDBRANCH  40  42
ENDBRANCH  39  40
ENDBRANCH  38  39
ENDBRANCH  37  38
ENDBRANCH  36  37
ENDBRANCH  35  36
ENDBRANCH   1  35
TORSDOF 30
