REMARK SMILES CC(C)(C)N(CC(=O)OCCOCCOC(=O)c1ccc(-c2c3nc(c(-c4cccc(S(=O)(=O)[O-])c4F)c4ccc([nH]4)c(-c4cccc(S(=O)(=O)[O-])c4F)c4nc(c(-c5cccc(S(=O)(=O)[O-])c5F)c5ccc2[nH]5)C=C4)C=C3)cc1)C(=O)C1C[NH2+]C1
REMARK SMILES IDX 12 1 11 2 10 3 9 4 7 5 8 6 6 7 5 8 2 9 1 10 3 11 4 12 81 13
REMARK SMILES IDX 82 14 83 15 84 16 86 17 85 18 13 21 14 22 15 23 16 24 17 25
REMARK SMILES IDX 18 26 19 27 80 28 20 29 79 30 21 31 22 32 23 33 73 34 24 35
REMARK SMILES IDX 78 36 72 37 74 38 25 39 77 40 71 41 70 42 26 44 58 45 38 46
REMARK SMILES IDX 57 47 39 48 42 49 56 50 75 51 40 52 41 53 55 55 76 56 43 57
REMARK SMILES IDX 27 58 28 59 36 60 29 61 31 62 37 63 30 64 32 65 33 66 34 67
REMARK SMILES IDX 35 68 59 69 60 70 68 71 61 72 63 73 69 74 62 75 64 76 65 77
REMARK SMILES IDX 66 78 67 79 44 80 45 81 53 82 46 83 48 84 54 85 47 86 49 87
REMARK SMILES IDX 50 88 51 89 52 90
REMARK H PARENT 85 19 85 20 74 43 42 54
REMARK Flexibility Score: inf
ROOT
ATOM      1  O   UNL     1       5.233  -3.813   3.712  1.00  0.00    -0.374 OA
ENDROOT
BRANCH   1   2
ATOM      2  C   UNL     1       5.572  -2.559   3.110  1.00  0.00     0.202 C 
BRANCH   2   3
ATOM      3  C   UNL     1       5.041  -2.277   1.698  1.00  0.00     0.261 C 
BRANCH   3   4
ATOM      4  O   UNL     1       3.599  -2.133   1.645  1.00  0.00    -0.462 OA
BRANCH   4   5
ATOM      5  C   UNL     1       3.028  -2.646   0.522  1.00  0.00     0.325 C 
ATOM      6  O   UNL     1       3.659  -3.170  -0.394  1.00  0.00    -0.250 OA
BRANCH   5   7
ATOM      7  C   UNL     1       1.494  -2.641   0.498  1.00  0.00     0.242 C 
BRANCH   7   8
ATOM      8  N   UNL     1       0.651  -1.948   1.492  1.00  0.00    -0.326 N 
BRANCH   8   9
ATOM      9  C   UNL     1       0.388  -0.464   1.336  1.00  0.00     0.035 C 
ATOM     10  C   UNL     1       1.026   0.146   0.062  1.00  0.00     0.034 C 
ATOM     11  C   UNL     1       0.966   0.313   2.536  1.00  0.00     0.034 C 
ATOM     12  C   UNL     1      -1.132  -0.183   1.216  1.00  0.00     0.034 C 
ENDBRANCH   8   9
BRANCH   8  13
ATOM     13  C   UNL     1       0.018  -2.659   2.542  1.00  0.00     0.238 C 
ATOM     14  O   UNL     1      -0.776  -2.098   3.310  1.00  0.00    -0.274 OA
BRANCH  13  15
ATOM     15  C   UNL     1       0.369  -4.139   2.772  1.00  0.00     0.188 C 
ATOM     16  C   UNL     1      -0.238  -4.827   4.027  1.00  0.00     0.280 C 
ATOM     17  C   UNL     1      -0.337  -5.285   2.027  1.00  0.00     0.280 C 
ATOM     18  N   UNL     1      -0.220  -6.104   3.267  1.00  0.00    -0.345 N 
ATOM     19  H   UNL     1      -1.014  -6.719   3.448  1.00  0.00     0.346 HD
ATOM     20  H   UNL     1       0.522  -6.793   3.389  1.00  0.00     0.346 HD
ENDBRANCH  13  15
ENDBRANCH   8  13
ENDBRANCH   7   8
ENDBRANCH   5   7
ENDBRANCH   4   5
ENDBRANCH   3   4
ENDBRANCH   2   3
ENDBRANCH   1   2
BRANCH   1  21
ATOM     21  C   UNL     1       3.852  -4.096   3.874  1.00  0.00     0.202 C 
BRANCH  21  22
ATOM     22  C   UNL     1       3.087  -3.372   4.992  1.00  0.00     0.261 C 
BRANCH  22  23
ATOM     23  O   UNL     1       3.473  -2.017   5.182  1.00  0.00    -0.460 OA
BRANCH  23  24
ATOM     24  C   UNL     1       4.353  -1.855   6.198  1.00  0.00     0.338 C 
ATOM     25  O   UNL     1       4.757  -2.699   6.976  1.00  0.00    -0.246 OA
BRANCH  24  26
ATOM     26  C   UNL     1       4.908  -0.501   6.111  1.00  0.00     0.060 A 
ATOM     27  C   UNL     1       6.302  -0.392   6.096  1.00  0.00     0.016 A 
ATOM     28  C   UNL     1       4.085   0.628   6.071  1.00  0.00     0.016 A 
ATOM     29  C   UNL     1       6.886   0.863   6.127  1.00  0.00     0.010 A 
ATOM     30  C   UNL     1       4.674   1.889   6.104  1.00  0.00     0.010 A 
ATOM     31  C   UNL     1       6.072   2.001   6.190  1.00  0.00    -0.014 A 
BRANCH  31  32
ATOM     32  C   UNL     1       6.697   3.283   6.563  1.00  0.00     0.031 A 
ATOM     33  C   UNL     1       6.621   3.716   7.999  1.00  0.00     0.074 A 
ATOM     34  C   UNL     1       7.362   4.001   5.644  1.00  0.00     0.049 A 
ATOM     35  N   UNL     1       7.145   4.763   8.574  1.00  0.00    -0.248 NA
ATOM     36  C   UNL     1       5.849   2.852   8.910  1.00  0.00     0.031 C 
ATOM     37  C   UNL     1       7.486   3.650   4.229  1.00  0.00     0.029 A 
ATOM     38  N   UNL     1       8.051   5.176   5.766  1.00  0.00    -0.354 N 
ATOM     39  C   UNL     1       6.746   4.700   9.904  1.00  0.00     0.074 A 
ATOM     40  C   UNL     1       5.920   3.523  10.049  1.00  0.00     0.031 C 
ATOM     41  C   UNL     1       8.198   4.604   3.607  1.00  0.00     0.029 A 
ATOM     42  C   UNL     1       8.563   5.635   4.577  1.00  0.00     0.049 A 
ATOM     43  H   UNL     1       8.169   5.647   6.622  1.00  0.00     0.167 HD
ATOM     44  C   UNL     1       7.059   5.540  10.917  1.00  0.00     0.034 A 
ATOM     45  C   UNL     1       9.241   6.767   4.310  1.00  0.00     0.034 A 
ATOM     46  C   UNL     1       7.896   6.696  10.752  1.00  0.00     0.049 A 
ATOM     47  C   UNL     1       9.580   7.684   5.454  1.00  0.00     0.074 A 
ATOM     48  C   UNL     1       8.313   7.602  11.708  1.00  0.00     0.029 A 
ATOM     49  N   UNL     1       8.434   7.109   9.541  1.00  0.00    -0.354 N 
ATOM     50  N   UNL     1       9.290   7.557   6.728  1.00  0.00    -0.248 NA
ATOM     51  C   UNL     1      10.376   8.876   5.135  1.00  0.00     0.031 C 
ATOM     52  C   UNL     1       9.082   8.581  11.068  1.00  0.00     0.029 A 
ATOM     53  C   UNL     1       9.175   8.262   9.721  1.00  0.00     0.049 A 
ATOM     54  H   UNL     1       8.307   6.648   8.681  1.00  0.00     0.167 HD
ATOM     55  C   UNL     1       9.899   8.628   7.369  1.00  0.00     0.074 A 
ATOM     56  C   UNL     1      10.587   9.386   6.341  1.00  0.00     0.031 C 
ATOM     57  C   UNL     1       9.887   8.964   8.683  1.00  0.00     0.034 A 
BRANCH  44  58
ATOM     58  C   UNL     1       6.500   5.228  12.280  1.00  0.00     0.023 A 
ATOM     59  C   UNL     1       6.984   4.117  13.003  1.00  0.00     0.012 A 
ATOM     60  C   UNL     1       5.507   6.044  12.855  1.00  0.00     0.148 A 
ATOM     61  C   UNL     1       6.463   3.803  14.258  1.00  0.00     0.002 A 
ATOM     62  C   UNL     1       5.026   5.751  14.126  1.00  0.00     0.091 A 
ATOM     63  F   UNL     1       5.037   7.077  12.142  1.00  0.00    -0.205 F 
ATOM     64  C   UNL     1       5.492   4.624  14.823  1.00  0.00     0.022 A 
BRANCH  62  65
ATOM     65  S   UNL     1       3.830   6.793  14.970  1.00  0.00     0.127 S 
ATOM     66  O   UNL     1       2.633   5.953  14.940  1.00  0.00    -0.237 OA
ATOM     67  O   UNL     1       4.435   6.944  16.294  1.00  0.00    -0.237 OA
ATOM     68  O   UNL     1       3.751   8.023  14.195  1.00  0.00    -0.744 OA
ENDBRANCH  62  65
ENDBRANCH  44  58
BRANCH  45  69
ATOM     69  C   UNL     1       9.681   7.054   2.917  1.00  0.00     0.023 A 
ATOM     70  C   UNL     1      11.048   6.998   2.588  1.00  0.00     0.012 A 
ATOM     71  C   UNL     1       8.741   7.333   1.905  1.00  0.00     0.148 A 
ATOM     72  C   UNL     1      11.475   7.240   1.281  1.00  0.00     0.002 A 
ATOM     73  C   UNL     1       9.167   7.517   0.595  1.00  0.00     0.091 A 
ATOM     74  F   UNL     1       7.445   7.392   2.241  1.00  0.00    -0.205 F 
ATOM     75  C   UNL     1      10.535   7.488   0.283  1.00  0.00     0.022 A 
BRANCH  73  76
ATOM     76  S   UNL     1       8.019   7.705  -0.774  1.00  0.00     0.127 S 
ATOM     77  O   UNL     1       8.223   9.102  -1.147  1.00  0.00    -0.237 OA
ATOM     78  O   UNL     1       8.533   6.728  -1.734  1.00  0.00    -0.237 OA
ATOM     79  O   UNL     1       6.705   7.380  -0.233  1.00  0.00    -0.744 OA
ENDBRANCH  73  76
ENDBRANCH  45  69
BRANCH  57  80
ATOM     80  C   UNL     1      10.678  10.176   9.095  1.00  0.00     0.023 A 
ATOM     81  C   UNL     1      10.216  11.465   8.766  1.00  0.00     0.012 A 
ATOM     82  C   UNL     1      11.842  10.034   9.876  1.00  0.00     0.148 A 
ATOM     83  C   UNL     1      10.922  12.595   9.178  1.00  0.00     0.002 A 
ATOM     84  C   UNL     1      12.509  11.164  10.328  1.00  0.00     0.091 A 
ATOM     85  F   UNL     1      12.274   8.796  10.162  1.00  0.00    -0.205 F 
ATOM     86  C   UNL     1      12.060  12.444   9.968  1.00  0.00     0.022 A 
BRANCH  84  87
ATOM     87  S   UNL     1      13.920  11.063  11.435  1.00  0.00     0.127 S 
ATOM     88  O   UNL     1      15.027  11.385  10.536  1.00  0.00    -0.237 OA
ATOM     89  O   UNL     1      13.614  12.100  12.422  1.00  0.00    -0.237 OA
ATOM     90  O   UNL     1      13.916   9.707  11.965  1.00  0.00    -0.744 OA
ENDBRANCH  84  87
ENDBRANCH  57  80
ENDBRANCH  31  32
ENDBRANCH  24  26
ENDBRANCH  23  24
ENDBRANCH  22  23
ENDBRANCH  21  22
ENDBRANCH   1  21
TORSDOF 21
