REMARK SMILES Cc1cccc(C(=O)[C@H](C)[C@@H](C)C(=O)OCCOCCOC(=O)c2ccc(-c3c4nc(c(-c5cccc(S(=O)(=O)[O-])c5F)c5ccc([nH]5)c(-c5cccc(S(=O)(=O)[O-])c5F)c5nc(c(-c6cccc(S(=O)(=O)[O-])c6F)c6ccc3[nH]6)C=C5)C=C4)cc2)c1C
REMARK SMILES IDX 18 1 17 2 16 3 15 4 13 5 14 6 11 7 12 8 9 9 10 10 7 11 8 12
REMARK SMILES IDX 6 13 1 14 2 15 3 16 87 17 4 18 88 19 5 20 19 21 20 22 21 23
REMARK SMILES IDX 22 24 23 25 24 26 25 27 86 28 26 29 85 30 27 31 28 32 29 33
REMARK SMILES IDX 79 34 30 35 84 36 78 37 80 38 31 39 83 40 77 41 76 42 32 44
REMARK SMILES IDX 64 45 44 46 63 47 45 48 48 49 62 50 81 51 46 52 47 53 61 55
REMARK SMILES IDX 82 56 49 57 33 58 34 59 42 60 35 61 37 62 43 63 36 64 38 65
REMARK SMILES IDX 39 66 40 67 41 68 65 69 66 70 74 71 67 72 69 73 75 74 68 75
REMARK SMILES IDX 70 76 71 77 72 78 73 79 50 80 51 81 59 82 52 83 54 84 60 85
REMARK SMILES IDX 53 86 55 87 56 88 57 89 58 90
REMARK H PARENT 80 43 48 54
REMARK Flexibility Score: inf
ROOT
ATOM      1  O   UNL     1      -6.879  -4.381  -1.005  1.00  0.00    -0.374 OA
ENDROOT
BRANCH   1   2
ATOM      2  C   UNL     1      -6.372  -5.623  -1.483  1.00  0.00     0.202 C 
BRANCH   2   3
ATOM      3  C   UNL     1      -5.032  -5.590  -2.225  1.00  0.00     0.261 C 
BRANCH   3   4
ATOM      4  O   UNL     1      -3.950  -4.934  -1.541  1.00  0.00    -0.463 OA
BRANCH   4   5
ATOM      5  C   UNL     1      -3.689  -3.667  -1.971  1.00  0.00     0.309 C 
ATOM      6  O   UNL     1      -4.406  -3.035  -2.742  1.00  0.00    -0.252 OA
BRANCH   5   7
ATOM      7  C   UNL     1      -2.323  -3.151  -1.539  1.00  0.00     0.106 C 
ATOM      8  C   UNL     1      -1.384  -3.409  -2.724  1.00  0.00     0.021 C 
BRANCH   7   9
ATOM      9  C   UNL     1      -1.776  -3.719  -0.199  1.00  0.00     0.072 C 
ATOM     10  C   UNL     1      -0.308  -3.323   0.018  1.00  0.00     0.017 C 
BRANCH   9  11
ATOM     11  C   UNL     1      -2.569  -3.175   1.000  1.00  0.00     0.166 C 
ATOM     12  O   UNL     1      -3.138  -2.088   0.910  1.00  0.00    -0.294 OA
BRANCH  11  13
ATOM     13  C   UNL     1      -2.655  -3.979   2.287  1.00  0.00     0.021 A 
ATOM     14  C   UNL     1      -4.841  -4.268   5.436  1.00  0.00     0.044 C 
ATOM     15  C   UNL     1      -3.770  -4.503   4.402  1.00  0.00    -0.047 A 
ATOM     16  C   UNL     1      -3.027  -5.686   4.490  1.00  0.00     0.004 A 
ATOM     17  C   UNL     1      -3.495  -3.579   3.362  1.00  0.00    -0.037 A 
ATOM     18  C   UNL     1      -2.081  -5.997   3.523  1.00  0.00     0.001 A 
ATOM     19  C   UNL     1      -4.088  -2.192   3.429  1.00  0.00     0.045 C 
ATOM     20  C   UNL     1      -1.934  -5.178   2.407  1.00  0.00     0.012 A 
ENDBRANCH  11  13
ENDBRANCH   9  11
ENDBRANCH   7   9
ENDBRANCH   5   7
ENDBRANCH   4   5
ENDBRANCH   3   4
ENDBRANCH   2   3
ENDBRANCH   1   2
BRANCH   1  21
ATOM     21  C   UNL     1      -6.287  -3.853   0.186  1.00  0.00     0.202 C 
BRANCH  21  22
ATOM     22  C   UNL     1      -6.487  -4.706   1.439  1.00  0.00     0.261 C 
BRANCH  22  23
ATOM     23  O   UNL     1      -5.678  -5.895   1.383  1.00  0.00    -0.460 OA
BRANCH  23  24
ATOM     24  C   UNL     1      -6.155  -6.907   2.138  1.00  0.00     0.338 C 
ATOM     25  O   UNL     1      -7.055  -6.844   2.970  1.00  0.00    -0.246 OA
BRANCH  24  26
ATOM     26  C   UNL     1      -5.540  -8.177   1.729  1.00  0.00     0.060 A 
ATOM     27  C   UNL     1      -6.268  -9.057   0.923  1.00  0.00     0.016 A 
ATOM     28  C   UNL     1      -4.314  -8.565   2.264  1.00  0.00     0.016 A 
ATOM     29  C   UNL     1      -5.794 -10.355   0.712  1.00  0.00     0.010 A 
ATOM     30  C   UNL     1      -3.824  -9.850   2.026  1.00  0.00     0.010 A 
ATOM     31  C   UNL     1      -4.588 -10.775   1.297  1.00  0.00    -0.014 A 
BRANCH  31  32
ATOM     32  C   UNL     1      -4.182 -12.204   1.261  1.00  0.00     0.031 A 
ATOM     33  C   UNL     1      -4.247 -13.031   2.522  1.00  0.00     0.074 A 
ATOM     34  C   UNL     1      -3.720 -12.754   0.123  1.00  0.00     0.049 A 
ATOM     35  N   UNL     1      -3.926 -14.286   2.706  1.00  0.00    -0.248 NA
ATOM     36  C   UNL     1      -4.714 -12.350   3.741  1.00  0.00     0.031 C 
ATOM     37  C   UNL     1      -3.545 -12.048  -1.145  1.00  0.00     0.029 A 
ATOM     38  N   UNL     1      -3.289 -14.030  -0.141  1.00  0.00    -0.354 N 
ATOM     39  C   UNL     1      -4.113 -14.533   4.062  1.00  0.00     0.074 A 
ATOM     40  C   UNL     1      -4.552 -13.291   4.660  1.00  0.00     0.031 C 
ATOM     41  C   UNL     1      -3.033 -12.897  -2.051  1.00  0.00     0.029 A 
ATOM     42  C   UNL     1      -2.837 -14.205  -1.427  1.00  0.00     0.049 A 
ATOM     43  H   UNL     1      -3.302 -14.753   0.528  1.00  0.00     0.167 HD
ATOM     44  C   UNL     1      -3.966 -15.694   4.745  1.00  0.00     0.034 A 
ATOM     45  C   UNL     1      -2.328 -15.295  -2.036  1.00  0.00     0.034 A 
ATOM     46  C   UNL     1      -3.597 -16.944   4.138  1.00  0.00     0.049 A 
ATOM     47  C   UNL     1      -2.251 -16.594  -1.278  1.00  0.00     0.074 A 
ATOM     48  C   UNL     1      -3.513 -18.195   4.725  1.00  0.00     0.029 A 
ATOM     49  N   UNL     1      -3.257 -17.104   2.805  1.00  0.00    -0.354 N 
ATOM     50  N   UNL     1      -2.586 -16.844  -0.035  1.00  0.00    -0.248 NA
ATOM     51  C   UNL     1      -1.771 -17.771  -2.017  1.00  0.00     0.031 C 
ATOM     52  C   UNL     1      -3.119 -19.112   3.744  1.00  0.00     0.029 A 
ATOM     53  C   UNL     1      -2.966 -18.432   2.546  1.00  0.00     0.049 A 
ATOM     54  H   UNL     1      -3.226 -16.380   2.139  1.00  0.00     0.167 HD
ATOM     55  C   UNL     1      -2.393 -18.209   0.146  1.00  0.00     0.074 A 
ATOM     56  C   UNL     1      -1.927 -18.737  -1.120  1.00  0.00     0.031 C 
ATOM     57  C   UNL     1      -2.569 -18.955   1.265  1.00  0.00     0.034 A 
BRANCH  44  58
ATOM     58  C   UNL     1      -4.275 -15.685   6.220  1.00  0.00     0.023 A 
ATOM     59  C   UNL     1      -5.617 -15.604   6.644  1.00  0.00     0.012 A 
ATOM     60  C   UNL     1      -3.255 -15.820   7.183  1.00  0.00     0.148 A 
ATOM     61  C   UNL     1      -5.938 -15.622   8.001  1.00  0.00     0.002 A 
ATOM     62  C   UNL     1      -3.586 -15.878   8.533  1.00  0.00     0.091 A 
ATOM     63  F   UNL     1      -1.982 -15.874   6.765  1.00  0.00    -0.205 F 
ATOM     64  C   UNL     1      -4.924 -15.769   8.944  1.00  0.00     0.022 A 
BRANCH  62  65
ATOM     65  S   UNL     1      -2.356 -16.142   9.816  1.00  0.00     0.127 S 
ATOM     66  O   UNL     1      -2.223 -14.799  10.379  1.00  0.00    -0.237 OA
ATOM     67  O   UNL     1      -3.021 -17.106  10.693  1.00  0.00    -0.237 OA
ATOM     68  O   UNL     1      -1.177 -16.659   9.135  1.00  0.00    -0.744 OA
ENDBRANCH  62  65
ENDBRANCH  44  58
BRANCH  45  69
ATOM     69  C   UNL     1      -1.941 -15.219  -3.472  1.00  0.00     0.023 A 
ATOM     70  C   UNL     1      -2.749 -15.849  -4.438  1.00  0.00     0.012 A 
ATOM     71  C   UNL     1      -0.816 -14.483  -3.892  1.00  0.00     0.148 A 
ATOM     72  C   UNL     1      -2.433 -15.766  -5.794  1.00  0.00     0.002 A 
ATOM     73  C   UNL     1      -0.537 -14.360  -5.248  1.00  0.00     0.091 A 
ATOM     74  F   UNL     1      -0.048 -13.905  -2.957  1.00  0.00    -0.205 F 
ATOM     75  C   UNL     1      -1.336 -15.011  -6.200  1.00  0.00     0.022 A 
BRANCH  73  76
ATOM     76  S   UNL     1       0.772 -13.292  -5.859  1.00  0.00     0.127 S 
ATOM     77  O   UNL     1       1.810 -14.258  -6.208  1.00  0.00    -0.237 OA
ATOM     78  O   UNL     1       0.129 -12.638  -7.000  1.00  0.00    -0.237 OA
ATOM     79  O   UNL     1       1.082 -12.391  -4.756  1.00  0.00    -0.744 OA
ENDBRANCH  73  76
ENDBRANCH  45  69
BRANCH  57  80
ATOM     80  C   UNL     1      -2.289 -20.432   1.176  1.00  0.00     0.023 A 
ATOM     81  C   UNL     1      -0.957 -20.886   1.153  1.00  0.00     0.012 A 
ATOM     82  C   UNL     1      -3.341 -21.369   1.208  1.00  0.00     0.148 A 
ATOM     83  C   UNL     1      -0.675 -22.252   1.141  1.00  0.00     0.002 A 
ATOM     84  C   UNL     1      -3.051 -22.728   1.236  1.00  0.00     0.091 A 
ATOM     85  F   UNL     1      -4.603 -20.916   1.209  1.00  0.00    -0.205 F 
ATOM     86  C   UNL     1      -1.720 -23.172   1.195  1.00  0.00     0.022 A 
BRANCH  84  87
ATOM     87  S   UNL     1      -4.335 -23.976   1.393  1.00  0.00     0.127 S 
ATOM     88  O   UNL     1      -4.438 -24.472   0.022  1.00  0.00    -0.237 OA
ATOM     89  O   UNL     1      -3.741 -24.921   2.340  1.00  0.00    -0.237 OA
ATOM     90  O   UNL     1      -5.508 -23.276   1.900  1.00  0.00    -0.744 OA
ENDBRANCH  84  87
ENDBRANCH  57  80
ENDBRANCH  31  32
ENDBRANCH  24  26
ENDBRANCH  23  24
ENDBRANCH  22  23
ENDBRANCH  21  22
ENDBRANCH   1  21
TORSDOF 20
