REMARK SMILES O=C1C[N@@H+](Cc2ccc(C(=O)OCCOCCOC(=O)c3ccc(-c4c5nc(c(-c6cccc(S(=O)(=O)[O-])c6F)c6ccc([nH]6)c(-c6cccc(S(=O)(=O)[O-])c6F)c6nc(c(-c7cccc(S(=O)(=O)[O-])c7F)c7ccc4[nH]7)C=C6)C=C5)cc3)cc2)CCN1
REMARK SMILES IDX 16 1 15 2 14 3 13 4 12 5 10 6 11 7 9 8 6 9 7 10 85 11 8 12
REMARK SMILES IDX 84 13 5 14 4 15 1 16 2 17 3 18 88 19 87 20 86 22 17 24 18 25
REMARK SMILES IDX 19 26 20 27 21 28 22 29 83 30 23 31 82 32 24 33 25 34 26 35
REMARK SMILES IDX 76 36 27 37 81 38 75 39 77 40 28 41 80 42 74 43 73 44 29 46
REMARK SMILES IDX 61 47 41 48 60 49 42 50 45 51 59 52 78 53 43 54 44 55 58 57
REMARK SMILES IDX 79 58 46 59 30 60 31 61 39 62 32 63 34 64 40 65 33 66 35 67
REMARK SMILES IDX 36 68 37 69 38 70 62 71 63 72 71 73 64 74 66 75 72 76 65 77
REMARK SMILES IDX 67 78 68 79 69 80 70 81 47 82 48 83 56 84 49 85 51 86 57 87
REMARK SMILES IDX 50 88 52 89 53 90 54 91 55 92
REMARK H PARENT 88 21 4 23 77 45 45 56
REMARK Flexibility Score: inf
ROOT
ATOM      1  C   UNL     1      -0.115   4.078   6.470  1.00  0.00     0.202 C 
ENDROOT
BRANCH   1   2
ATOM      2  O   UNL     1       0.966   5.000   6.609  1.00  0.00    -0.374 OA
BRANCH   2   3
ATOM      3  C   UNL     1       1.143   5.976   5.581  1.00  0.00     0.202 C 
BRANCH   3   4
ATOM      4  C   UNL     1       1.795   5.509   4.277  1.00  0.00     0.261 C 
BRANCH   4   5
ATOM      5  O   UNL     1       1.022   4.477   3.655  1.00  0.00    -0.460 OA
BRANCH   5   6
ATOM      6  C   UNL     1       1.593   3.249   3.669  1.00  0.00     0.338 C 
ATOM      7  O   UNL     1       2.731   2.982   4.021  1.00  0.00    -0.246 OA
BRANCH   6   8
ATOM      8  C   UNL     1       0.599   2.211   3.293  1.00  0.00     0.060 A 
ATOM      9  C   UNL     1      -1.066   0.159   2.382  1.00  0.00     0.006 A 
ATOM     10  C   UNL     1       0.152  -0.146   3.004  1.00  0.00     0.010 A 
ATOM     11  C   UNL     1      -1.518   1.485   2.376  1.00  0.00     0.010 A 
ATOM     12  C   UNL     1       0.984   0.876   3.447  1.00  0.00     0.016 A 
ATOM     13  C   UNL     1      -0.680   2.513   2.811  1.00  0.00     0.016 A 
BRANCH   9  14
ATOM     14  C   UNL     1      -1.798  -0.906   1.604  1.00  0.00     0.299 C 
BRANCH  14  15
ATOM     15  N   UNL     1      -1.396  -1.071   0.201  1.00  0.00    -0.322 N 
ATOM     16  O   UNL     1       2.192  -0.429   0.195  1.00  0.00    -0.269 OA
ATOM     17  C   UNL     1       1.003  -0.289  -0.093  1.00  0.00     0.275 C 
ATOM     18  C   UNL     1       0.013  -1.455  -0.014  1.00  0.00     0.363 C 
ATOM     19  N   UNL     1       0.553   0.898  -0.599  1.00  0.00    -0.346 N 
ATOM     20  C   UNL     1      -0.839   1.203  -0.842  1.00  0.00     0.177 C 
ATOM     21  H   UNL     1       1.220   1.590  -0.811  1.00  0.00     0.163 HD
ATOM     22  C   UNL     1      -1.792   0.001  -0.722  1.00  0.00     0.284 C 
ATOM     23  H   UNL     1      -1.966  -1.878  -0.052  1.00  0.00     0.348 HD
ENDBRANCH  14  15
ENDBRANCH   9  14
ENDBRANCH   6   8
ENDBRANCH   5   6
ENDBRANCH   4   5
ENDBRANCH   3   4
ENDBRANCH   2   3
ENDBRANCH   1   2
BRANCH   1  24
ATOM     24  C   UNL     1      -1.532   4.599   6.746  1.00  0.00     0.261 C 
BRANCH  24  25
ATOM     25  O   UNL     1      -1.942   5.617   5.818  1.00  0.00    -0.460 OA
BRANCH  25  26
ATOM     26  C   UNL     1      -2.067   6.857   6.354  1.00  0.00     0.338 C 
ATOM     27  O   UNL     1      -1.936   7.175   7.523  1.00  0.00    -0.246 OA
BRANCH  26  28
ATOM     28  C   UNL     1      -2.211   7.848   5.271  1.00  0.00     0.060 A 
ATOM     29  C   UNL     1      -1.254   8.868   5.187  1.00  0.00     0.016 A 
ATOM     30  C   UNL     1      -3.290   7.808   4.386  1.00  0.00     0.016 A 
ATOM     31  C   UNL     1      -1.383   9.867   4.224  1.00  0.00     0.010 A 
ATOM     32  C   UNL     1      -3.425   8.820   3.432  1.00  0.00     0.010 A 
ATOM     33  C   UNL     1      -2.484   9.864   3.360  1.00  0.00    -0.014 A 
BRANCH  33  34
ATOM     34  C   UNL     1      -2.707  10.995   2.430  1.00  0.00     0.031 A 
ATOM     35  C   UNL     1      -3.693  12.066   2.795  1.00  0.00     0.074 A 
ATOM     36  C   UNL     1      -2.056  11.042   1.254  1.00  0.00     0.049 A 
ATOM     37  N   UNL     1      -4.091  13.095   2.095  1.00  0.00    -0.248 NA
ATOM     38  C   UNL     1      -4.316  11.961   4.124  1.00  0.00     0.031 C 
ATOM     39  C   UNL     1      -1.068  10.066   0.798  1.00  0.00     0.029 A 
ATOM     40  N   UNL     1      -2.156  11.933   0.215  1.00  0.00    -0.354 N 
ATOM     41  C   UNL     1      -5.027  13.750   2.885  1.00  0.00     0.074 A 
ATOM     42  C   UNL     1      -5.146  12.995   4.114  1.00  0.00     0.031 C 
ATOM     43  C   UNL     1      -0.677  10.392  -0.445  1.00  0.00     0.029 A 
ATOM     44  C   UNL     1      -1.410  11.579  -0.883  1.00  0.00     0.049 A 
ATOM     45  H   UNL     1      -2.709  12.747   0.253  1.00  0.00     0.167 HD
ATOM     46  C   UNL     1      -5.715  14.885   2.617  1.00  0.00     0.034 A 
ATOM     47  C   UNL     1      -1.350  12.130  -2.111  1.00  0.00     0.034 A 
ATOM     48  C   UNL     1      -5.587  15.637   1.398  1.00  0.00     0.049 A 
ATOM     49  C   UNL     1      -2.176  13.354  -2.410  1.00  0.00     0.074 A 
ATOM     50  C   UNL     1      -6.194  16.832   1.056  1.00  0.00     0.029 A 
ATOM     51  N   UNL     1      -4.814  15.257   0.312  1.00  0.00    -0.354 N 
ATOM     52  N   UNL     1      -2.960  14.035  -1.610  1.00  0.00    -0.248 NA
ATOM     53  C   UNL     1      -2.096  13.894  -3.775  1.00  0.00     0.031 C 
ATOM     54  C   UNL     1      -5.813  17.157  -0.251  1.00  0.00     0.029 A 
ATOM     55  C   UNL     1      -4.951  16.176  -0.715  1.00  0.00     0.049 A 
ATOM     56  H   UNL     1      -4.249  14.451   0.276  1.00  0.00     0.167 HD
ATOM     57  C   UNL     1      -3.449  15.096  -2.366  1.00  0.00     0.074 A 
ATOM     58  C   UNL     1      -2.854  14.979  -3.681  1.00  0.00     0.031 C 
ATOM     59  C   UNL     1      -4.325  16.068  -2.008  1.00  0.00     0.034 A 
BRANCH  46  60
ATOM     60  C   UNL     1      -6.654  15.394   3.677  1.00  0.00     0.023 A 
ATOM     61  C   UNL     1      -6.130  15.992   4.841  1.00  0.00     0.012 A 
ATOM     62  C   UNL     1      -8.050  15.317   3.508  1.00  0.00     0.148 A 
ATOM     63  C   UNL     1      -6.980  16.476   5.835  1.00  0.00     0.002 A 
ATOM     64  C   UNL     1      -8.891  15.836   4.486  1.00  0.00     0.091 A 
ATOM     65  F   UNL     1      -8.530  14.721   2.407  1.00  0.00    -0.205 F 
ATOM     66  C   UNL     1      -8.359  16.406   5.654  1.00  0.00     0.022 A 
BRANCH  64  67
ATOM     67  S   UNL     1     -10.679  15.853   4.308  1.00  0.00     0.127 S 
ATOM     68  O   UNL     1     -11.075  14.782   5.221  1.00  0.00    -0.237 OA
ATOM     69  O   UNL     1     -11.024  17.200   4.764  1.00  0.00    -0.237 OA
ATOM     70  O   UNL     1     -10.941  15.607   2.897  1.00  0.00    -0.744 OA
ENDBRANCH  64  67
ENDBRANCH  46  60
BRANCH  47  71
ATOM     71  C   UNL     1      -0.458  11.535  -3.145  1.00  0.00     0.023 A 
ATOM     72  C   UNL     1       0.692  12.236  -3.553  1.00  0.00     0.012 A 
ATOM     73  C   UNL     1      -0.721  10.265  -3.696  1.00  0.00     0.148 A 
ATOM     74  C   UNL     1       1.556  11.691  -4.504  1.00  0.00     0.002 A 
ATOM     75  C   UNL     1       0.171   9.704  -4.602  1.00  0.00     0.091 A 
ATOM     76  F   UNL     1      -1.833   9.623  -3.309  1.00  0.00    -0.205 F 
ATOM     77  C   UNL     1       1.303  10.422  -5.019  1.00  0.00     0.022 A 
BRANCH  75  78
ATOM     78  S   UNL     1      -0.006   8.025  -5.215  1.00  0.00     0.127 S 
ATOM     79  O   UNL     1      -0.340   8.252  -6.619  1.00  0.00    -0.237 OA
ATOM     80  O   UNL     1       1.329   7.476  -4.979  1.00  0.00    -0.237 OA
ATOM     81  O   UNL     1      -1.054   7.417  -4.406  1.00  0.00    -0.744 OA
ENDBRANCH  75  78
ENDBRANCH  47  71
BRANCH  59  82
ATOM     82  C   UNL     1      -4.701  17.090  -3.050  1.00  0.00     0.023 A 
ATOM     83  C   UNL     1      -5.571  16.725  -4.096  1.00  0.00     0.012 A 
ATOM     84  C   UNL     1      -4.267  18.427  -2.946  1.00  0.00     0.148 A 
ATOM     85  C   UNL     1      -5.987  17.668  -5.035  1.00  0.00     0.002 A 
ATOM     86  C   UNL     1      -4.721  19.371  -3.859  1.00  0.00     0.091 A 
ATOM     87  F   UNL     1      -3.427  18.750  -1.951  1.00  0.00    -0.205 F 
ATOM     88  C   UNL     1      -5.572  18.992  -4.910  1.00  0.00     0.022 A 
BRANCH  86  89
ATOM     89  S   UNL     1      -4.314  21.117  -3.731  1.00  0.00     0.127 S 
ATOM     90  O   UNL     1      -3.449  21.308  -4.894  1.00  0.00    -0.237 OA
ATOM     91  O   UNL     1      -5.630  21.749  -3.839  1.00  0.00    -0.237 OA
ATOM     92  O   UNL     1      -3.665  21.286  -2.438  1.00  0.00    -0.744 OA
ENDBRANCH  86  89
ENDBRANCH  59  82
ENDBRANCH  33  34
ENDBRANCH  26  28
ENDBRANCH  25  26
ENDBRANCH  24  25
ENDBRANCH   1  24
TORSDOF 19
