REMARK SMILES O=C(CS(=O)(=O)N1CCC1)OCCOCCOC(=O)c1ccc(-c2c3nc(c(-c4cccc(S(=O)(=O)[O-])c4F)c4ccc([nH]4)c(-c4cccc(S(=O)(=O)[O-])c4F)c4nc(c(-c5cccc(S(=O)(=O)[O-])c5F)c5ccc2[nH]5)C=C4)C=C3)cc1
REMARK SMILES IDX 15 1 14 2 13 3 12 4 11 5 2 6 1 7 3 8 4 9 5 10 6 11 7 12 8 13
REMARK SMILES IDX 10 14 9 15 16 16 17 17 18 18 19 19 20 20 21 21 82 22 22 23
REMARK SMILES IDX 81 24 23 25 24 26 25 27 75 28 26 29 80 30 74 31 76 32 27 33
REMARK SMILES IDX 79 34 73 35 72 36 28 38 60 39 40 40 59 41 41 42 44 43 58 44
REMARK SMILES IDX 77 45 42 46 43 47 57 49 78 50 45 51 29 52 30 53 38 54 31 55
REMARK SMILES IDX 33 56 39 57 32 58 34 59 35 60 36 61 37 62 61 63 62 64 70 65
REMARK SMILES IDX 63 66 65 67 71 68 64 69 66 70 67 71 68 72 69 73 46 74 47 75
REMARK SMILES IDX 55 76 48 77 50 78 56 79 49 80 51 81 52 82 53 83 54 84
REMARK H PARENT 76 37 44 48
REMARK Flexibility Score: inf
ROOT
ATOM      1  C   UNL     1       2.729  -0.057  -2.180  1.00  0.00     0.202 C 
ENDROOT
BRANCH   1   2
ATOM      2  O   UNL     1       3.972   0.381  -1.626  1.00  0.00    -0.374 OA
BRANCH   2   3
ATOM      3  C   UNL     1       4.640  -0.489  -0.722  1.00  0.00     0.202 C 
BRANCH   3   4
ATOM      4  C   UNL     1       4.009  -0.756   0.647  1.00  0.00     0.261 C 
BRANCH   4   5
ATOM      5  O   UNL     1       2.634  -0.389   0.833  1.00  0.00    -0.462 OA
BRANCH   5   6
ATOM      6  C   UNL     1       2.112   0.838   1.015  1.00  0.00     0.322 C 
ATOM      7  O   UNL     1       0.953   0.917   1.431  1.00  0.00    -0.251 OA
BRANCH   6   8
ATOM      8  C   UNL     1       2.812   2.070   0.578  1.00  0.00     0.276 C 
BRANCH   8   9
ATOM      9  S   UNL     1       4.033   2.660   1.685  1.00  0.00     0.224 S 
ATOM     10  O   UNL     1       5.194   1.798   1.661  1.00  0.00    -0.212 OA
ATOM     11  O   UNL     1       4.188   4.080   1.434  1.00  0.00    -0.212 OA
BRANCH   9  12
ATOM     12  N   UNL     1       3.278   2.496   3.165  1.00  0.00    -0.201 NA
ATOM     13  C   UNL     1       3.470   1.394   4.155  1.00  0.00     0.103 C 
ATOM     14  C   UNL     1       3.358   3.477   4.279  1.00  0.00     0.103 C 
ATOM     15  C   UNL     1       3.003   2.352   5.265  1.00  0.00     0.033 C 
ENDBRANCH   9  12
ENDBRANCH   8   9
ENDBRANCH   6   8
ENDBRANCH   5   6
ENDBRANCH   4   5
ENDBRANCH   3   4
ENDBRANCH   2   3
ENDBRANCH   1   2
BRANCH   1  16
ATOM     16  C   UNL     1       2.836  -0.932  -3.426  1.00  0.00     0.261 C 
BRANCH  16  17
ATOM     17  O   UNL     1       3.280  -2.248  -3.075  1.00  0.00    -0.460 OA
BRANCH  17  18
ATOM     18  C   UNL     1       4.572  -2.518  -3.384  1.00  0.00     0.338 C 
ATOM     19  O   UNL     1       5.351  -1.809  -3.986  1.00  0.00    -0.246 OA
BRANCH  18  20
ATOM     20  C   UNL     1       4.968  -3.748  -2.671  1.00  0.00     0.060 A 
ATOM     21  C   UNL     1       6.192  -3.736  -1.990  1.00  0.00     0.016 A 
ATOM     22  C   UNL     1       4.161  -4.887  -2.675  1.00  0.00     0.016 A 
ATOM     23  C   UNL     1       6.640  -4.888  -1.353  1.00  0.00     0.010 A 
ATOM     24  C   UNL     1       4.614  -6.043  -2.043  1.00  0.00     0.010 A 
ATOM     25  C   UNL     1       5.873  -6.057  -1.417  1.00  0.00    -0.014 A 
BRANCH  25  26
ATOM     26  C   UNL     1       6.461  -7.335  -0.968  1.00  0.00     0.031 A 
ATOM     27  C   UNL     1       6.997  -8.280  -2.007  1.00  0.00     0.074 A 
ATOM     28  C   UNL     1       6.519  -7.637   0.340  1.00  0.00     0.049 A 
ATOM     29  N   UNL     1       7.530  -9.462  -1.852  1.00  0.00    -0.248 NA
ATOM     30  C   UNL     1       6.918  -7.835  -3.410  1.00  0.00     0.031 C 
ATOM     31  C   UNL     1       6.028  -6.789   1.425  1.00  0.00     0.029 A 
ATOM     32  N   UNL     1       6.995  -8.755   0.973  1.00  0.00    -0.354 N 
ATOM     33  C   UNL     1       7.824  -9.914  -3.132  1.00  0.00     0.074 A 
ATOM     34  C   UNL     1       7.397  -8.887  -4.056  1.00  0.00     0.031 C 
ATOM     35  C   UNL     1       6.202  -7.432   2.592  1.00  0.00     0.029 A 
ATOM     36  C   UNL     1       6.792  -8.743   2.332  1.00  0.00     0.049 A 
ATOM     37  H   UNL     1       7.440  -9.495   0.500  1.00  0.00     0.167 HD
ATOM     38  C   UNL     1       8.414 -11.074  -3.502  1.00  0.00     0.034 A 
ATOM     39  C   UNL     1       7.033  -9.696   3.252  1.00  0.00     0.034 A 
ATOM     40  C   UNL     1       8.846 -12.081  -2.573  1.00  0.00     0.049 A 
ATOM     41  C   UNL     1       7.667 -10.989   2.808  1.00  0.00     0.074 A 
ATOM     42  C   UNL     1       9.492 -13.276  -2.837  1.00  0.00     0.029 A 
ATOM     43  N   UNL     1       8.665 -12.018  -1.200  1.00  0.00    -0.354 N 
ATOM     44  N   UNL     1       8.046 -11.355   1.607  1.00  0.00    -0.248 NA
ATOM     45  C   UNL     1       7.941 -11.986   3.852  1.00  0.00     0.031 C 
ATOM     46  C   UNL     1       9.670 -13.950  -1.625  1.00  0.00     0.029 A 
ATOM     47  C   UNL     1       9.173 -13.158  -0.602  1.00  0.00     0.049 A 
ATOM     48  H   UNL     1       8.237 -11.273  -0.720  1.00  0.00     0.167 HD
ATOM     49  C   UNL     1       8.634 -12.606   1.756  1.00  0.00     0.074 A 
ATOM     50  C   UNL     1       8.585 -12.921   3.169  1.00  0.00     0.031 C 
ATOM     51  C   UNL     1       9.156 -13.429   0.812  1.00  0.00     0.034 A 
BRANCH  38  52
ATOM     52  C   UNL     1       8.643 -11.309  -4.971  1.00  0.00     0.023 A 
ATOM     53  C   UNL     1       9.637 -10.575  -5.651  1.00  0.00     0.012 A 
ATOM     54  C   UNL     1       7.922 -12.301  -5.664  1.00  0.00     0.148 A 
ATOM     55  C   UNL     1       9.890 -10.806  -7.003  1.00  0.00     0.002 A 
ATOM     56  C   UNL     1       8.212 -12.557  -6.998  1.00  0.00     0.091 A 
ATOM     57  F   UNL     1       6.965 -12.970  -5.005  1.00  0.00    -0.205 F 
ATOM     58  C   UNL     1       9.188 -11.804  -7.672  1.00  0.00     0.022 A 
BRANCH  56  59
ATOM     59  S   UNL     1       7.419 -13.873  -7.928  1.00  0.00     0.127 S 
ATOM     60  O   UNL     1       6.654 -13.115  -8.918  1.00  0.00    -0.237 OA
ATOM     61  O   UNL     1       8.568 -14.598  -8.471  1.00  0.00    -0.237 OA
ATOM     62  O   UNL     1       6.622 -14.623  -6.969  1.00  0.00    -0.744 OA
ENDBRANCH  56  59
ENDBRANCH  38  52
BRANCH  39  63
ATOM     63  C   UNL     1       6.694  -9.462   4.684  1.00  0.00     0.023 A 
ATOM     64  C   UNL     1       7.725  -9.358   5.638  1.00  0.00     0.012 A 
ATOM     65  C   UNL     1       5.356  -9.342   5.105  1.00  0.00     0.148 A 
ATOM     66  C   UNL     1       7.428  -9.183   6.990  1.00  0.00     0.002 A 
ATOM     67  C   UNL     1       5.069  -9.108   6.444  1.00  0.00     0.091 A 
ATOM     68  F   UNL     1       4.387  -9.458   4.185  1.00  0.00    -0.205 F 
ATOM     69  C   UNL     1       6.102  -9.049   7.392  1.00  0.00     0.022 A 
BRANCH  67  70
ATOM     70  S   UNL     1       3.400  -8.791   7.028  1.00  0.00     0.127 S 
ATOM     71  O   UNL     1       3.106 -10.013   7.772  1.00  0.00    -0.237 OA
ATOM     72  O   UNL     1       3.592  -7.597   7.853  1.00  0.00    -0.237 OA
ATOM     73  O   UNL     1       2.601  -8.568   5.831  1.00  0.00    -0.744 OA
ENDBRANCH  67  70
ENDBRANCH  39  63
BRANCH  51  74
ATOM     74  C   UNL     1       9.753 -14.731   1.280  1.00  0.00     0.023 A 
ATOM     75  C   UNL     1       8.916 -15.760   1.755  1.00  0.00     0.012 A 
ATOM     76  C   UNL     1      11.142 -14.953   1.194  1.00  0.00     0.148 A 
ATOM     77  C   UNL     1       9.457 -16.973   2.180  1.00  0.00     0.002 A 
ATOM     78  C   UNL     1      11.667 -16.183   1.567  1.00  0.00     0.091 A 
ATOM     79  F   UNL     1      11.923 -13.956   0.753  1.00  0.00    -0.205 F 
ATOM     80  C   UNL     1      10.829 -17.188   2.075  1.00  0.00     0.022 A 
BRANCH  78  81
ATOM     81  S   UNL     1      13.407 -16.586   1.373  1.00  0.00     0.127 S 
ATOM     82  O   UNL     1      13.868 -16.588   2.760  1.00  0.00    -0.237 OA
ATOM     83  O   UNL     1      13.351 -17.907   0.746  1.00  0.00    -0.237 OA
ATOM     84  O   UNL     1      13.970 -15.540   0.529  1.00  0.00    -0.744 OA
ENDBRANCH  78  81
ENDBRANCH  51  74
ENDBRANCH  25  26
ENDBRANCH  18  20
ENDBRANCH  17  18
ENDBRANCH  16  17
ENDBRANCH   1  16
TORSDOF 19
