REMARK SMILES CC1(C)C[C@](CC(=O)OCCOCCOC(=O)c2ccc(-c3c4nc(c(-c5cccc(S(=O)(=O)[O-])c5F)c5ccc([nH]5)c(-c5cccc(S(=O)(=O)[O-])c5F)c5nc(c(-c6cccc(S(=O)(=O)[O-])c6F)c6ccc3[nH]6)C=C5)C=C4)cc2)([NH+]2CCCC2)C(C)(C)O1
REMARK SMILES IDX 13 1 12 2 11 3 10 4 9 5 7 6 8 7 6 8 5 9 1 10 2 11 3 12 4 13
REMARK SMILES IDX 89 14 86 15 87 16 88 17 81 18 82 19 85 20 83 22 84 23 14 24
REMARK SMILES IDX 15 25 16 26 17 27 18 28 19 29 80 30 20 31 79 32 21 33 22 34
REMARK SMILES IDX 23 35 73 36 24 37 78 38 72 39 74 40 25 41 77 42 71 43 70 44
REMARK SMILES IDX 26 46 58 47 38 48 57 49 39 50 42 51 56 52 75 53 40 54 41 55
REMARK SMILES IDX 55 57 76 58 43 59 27 60 28 61 36 62 29 63 31 64 37 65 30 66
REMARK SMILES IDX 32 67 33 68 34 69 35 70 59 71 60 72 68 73 61 74 63 75 69 76
REMARK SMILES IDX 62 77 64 78 65 79 66 80 67 81 44 82 45 83 53 84 46 85 48 86
REMARK SMILES IDX 54 87 47 88 49 89 50 90 51 91 52 92
REMARK H PARENT 81 21 74 45 42 56
REMARK Flexibility Score: inf
ROOT
ATOM      1  C   UNL     1      -0.240   7.606   4.067  1.00  0.00     0.202 C 
ENDROOT
BRANCH   1   2
ATOM      2  O   UNL     1       0.612   8.605   3.509  1.00  0.00    -0.374 OA
BRANCH   2   3
ATOM      3  C   UNL     1       0.909   8.481   2.117  1.00  0.00     0.202 C 
BRANCH   3   4
ATOM      4  C   UNL     1       1.950   7.421   1.738  1.00  0.00     0.261 C 
BRANCH   4   5
ATOM      5  O   UNL     1       1.465   6.054   1.747  1.00  0.00    -0.463 OA
BRANCH   5   6
ATOM      6  C   UNL     1       2.041   5.236   2.658  1.00  0.00     0.312 C 
ATOM      7  O   UNL     1       2.736   5.637   3.590  1.00  0.00    -0.252 OA
BRANCH   6   8
ATOM      8  C   UNL     1       1.907   3.748   2.394  1.00  0.00     0.194 C 
BRANCH   8   9
ATOM      9  C   UNL     1       0.741   3.025   1.637  1.00  0.00     0.140 C 
ATOM     10  C   UNL     1       1.885   0.262  -0.509  1.00  0.00     0.042 C 
ATOM     11  C   UNL     1       0.725   0.940   0.237  1.00  0.00     0.070 C 
ATOM     12  C   UNL     1      -0.387  -0.115   0.360  1.00  0.00     0.042 C 
ATOM     13  C   UNL     1       1.190   1.520   1.578  1.00  0.00     0.107 C 
ATOM     14  O   UNL     1       0.247   2.052  -0.535  1.00  0.00    -0.363 OA
ATOM     15  C   UNL     1       0.647   3.313   0.083  1.00  0.00     0.118 C 
ATOM     16  C   UNL     1       1.988   3.704  -0.574  1.00  0.00     0.049 C 
ATOM     17  C   UNL     1      -0.376   4.366  -0.360  1.00  0.00     0.049 C 
BRANCH   9  18
ATOM     18  N   UNL     1      -0.509   3.031   2.463  1.00  0.00    -0.327 N 
ATOM     19  C   UNL     1      -0.975   4.309   2.968  1.00  0.00     0.263 C 
ATOM     20  C   UNL     1      -1.683   2.297   1.992  1.00  0.00     0.263 C 
ATOM     21  H   UNL     1      -0.092   2.490   3.222  1.00  0.00     0.348 HD
ATOM     22  C   UNL     1      -2.375   4.043   3.486  1.00  0.00     0.067 C 
ATOM     23  C   UNL     1      -2.916   2.997   2.545  1.00  0.00     0.067 C 
ENDBRANCH   9  18
ENDBRANCH   8   9
ENDBRANCH   6   8
ENDBRANCH   5   6
ENDBRANCH   4   5
ENDBRANCH   3   4
ENDBRANCH   2   3
ENDBRANCH   1   2
BRANCH   1  24
ATOM     24  C   UNL     1      -1.712   7.732   3.659  1.00  0.00     0.261 C 
BRANCH  24  25
ATOM     25  O   UNL     1      -1.871   7.397   2.268  1.00  0.00    -0.460 OA
BRANCH  25  26
ATOM     26  C   UNL     1      -2.870   8.053   1.640  1.00  0.00     0.338 C 
ATOM     27  O   UNL     1      -3.789   8.666   2.168  1.00  0.00    -0.246 OA
BRANCH  26  28
ATOM     28  C   UNL     1      -2.569   8.122   0.200  1.00  0.00     0.060 A 
ATOM     29  C   UNL     1      -2.085   9.337  -0.298  1.00  0.00     0.016 A 
ATOM     30  C   UNL     1      -2.820   7.054  -0.663  1.00  0.00     0.016 A 
ATOM     31  C   UNL     1      -1.911   9.508  -1.672  1.00  0.00     0.010 A 
ATOM     32  C   UNL     1      -2.632   7.227  -2.044  1.00  0.00     0.010 A 
ATOM     33  C   UNL     1      -2.223   8.470  -2.563  1.00  0.00    -0.014 A 
BRANCH  33  34
ATOM     34  C   UNL     1      -2.249   8.758  -4.025  1.00  0.00     0.031 A 
ATOM     35  C   UNL     1      -3.572   8.946  -4.724  1.00  0.00     0.074 A 
ATOM     36  C   UNL     1      -1.110   8.923  -4.725  1.00  0.00     0.049 A 
ATOM     37  N   UNL     1      -3.811   9.308  -5.959  1.00  0.00    -0.248 NA
ATOM     38  C   UNL     1      -4.785   8.699  -3.928  1.00  0.00     0.031 C 
ATOM     39  C   UNL     1       0.241   8.766  -4.191  1.00  0.00     0.029 A 
ATOM     40  N   UNL     1      -0.912   9.258  -6.044  1.00  0.00    -0.354 N 
ATOM     41  C   UNL     1      -5.194   9.319  -6.094  1.00  0.00     0.074 A 
ATOM     42  C   UNL     1      -5.743   8.902  -4.821  1.00  0.00     0.031 C 
ATOM     43  C   UNL     1       1.129   8.998  -5.174  1.00  0.00     0.029 A 
ATOM     44  C   UNL     1       0.412   9.307  -6.412  1.00  0.00     0.049 A 
ATOM     45  H   UNL     1      -1.651   9.445  -6.668  1.00  0.00     0.167 HD
ATOM     46  C   UNL     1      -5.947   9.670  -7.164  1.00  0.00     0.034 A 
ATOM     47  C   UNL     1       0.985   9.566  -7.606  1.00  0.00     0.034 A 
ATOM     48  C   UNL     1      -5.419  10.114  -8.426  1.00  0.00     0.049 A 
ATOM     49  C   UNL     1       0.124   9.925  -8.791  1.00  0.00     0.074 A 
ATOM     50  C   UNL     1      -6.115  10.553  -9.540  1.00  0.00     0.029 A 
ATOM     51  N   UNL     1      -4.074  10.162  -8.752  1.00  0.00    -0.354 N 
ATOM     52  N   UNL     1      -1.176  10.083  -8.851  1.00  0.00    -0.248 NA
ATOM     53  C   UNL     1       0.815  10.176 -10.067  1.00  0.00     0.031 C 
ATOM     54  C   UNL     1      -5.191  10.838 -10.550  1.00  0.00     0.029 A 
ATOM     55  C   UNL     1      -3.919  10.600 -10.057  1.00  0.00     0.049 A 
ATOM     56  H   UNL     1      -3.337   9.919  -8.146  1.00  0.00     0.167 HD
ATOM     57  C   UNL     1      -1.453  10.480 -10.157  1.00  0.00     0.074 A 
ATOM     58  C   UNL     1      -0.185  10.562 -10.849  1.00  0.00     0.031 C 
ATOM     59  C   UNL     1      -2.654  10.736 -10.732  1.00  0.00     0.034 A 
BRANCH  46  60
ATOM     60  C   UNL     1      -7.444   9.629  -7.007  1.00  0.00     0.023 A 
ATOM     61  C   UNL     1      -8.089  10.631  -6.254  1.00  0.00     0.012 A 
ATOM     62  C   UNL     1      -8.214   8.649  -7.662  1.00  0.00     0.148 A 
ATOM     63  C   UNL     1      -9.477  10.642  -6.132  1.00  0.00     0.002 A 
ATOM     64  C   UNL     1      -9.600   8.691  -7.569  1.00  0.00     0.091 A 
ATOM     65  F   UNL     1      -7.579   7.693  -8.355  1.00  0.00    -0.205 F 
ATOM     66  C   UNL     1     -10.232   9.680  -6.797  1.00  0.00     0.022 A 
BRANCH  64  67
ATOM     67  S   UNL     1     -10.662   7.542  -8.451  1.00  0.00     0.127 S 
ATOM     68  O   UNL     1     -11.141   6.689  -7.364  1.00  0.00    -0.237 OA
ATOM     69  O   UNL     1     -11.675   8.431  -9.020  1.00  0.00    -0.237 OA
ATOM     70  O   UNL     1      -9.812   6.886  -9.434  1.00  0.00    -0.744 OA
ENDBRANCH  64  67
ENDBRANCH  46  60
BRANCH  47  71
ATOM     71  C   UNL     1       2.470   9.534  -7.740  1.00  0.00     0.023 A 
ATOM     72  C   UNL     1       3.176  10.729  -7.975  1.00  0.00     0.012 A 
ATOM     73  C   UNL     1       3.182   8.324  -7.635  1.00  0.00     0.148 A 
ATOM     74  C   UNL     1       4.563  10.716  -8.132  1.00  0.00     0.002 A 
ATOM     75  C   UNL     1       4.568   8.326  -7.736  1.00  0.00     0.091 A 
ATOM     76  F   UNL     1       2.489   7.194  -7.436  1.00  0.00    -0.205 F 
ATOM     77  C   UNL     1       5.259   9.517  -8.002  1.00  0.00     0.022 A 
BRANCH  75  78
ATOM     78  S   UNL     1       5.553   6.851  -7.452  1.00  0.00     0.127 S 
ATOM     79  O   UNL     1       6.028   6.544  -8.799  1.00  0.00    -0.237 OA
ATOM     80  O   UNL     1       6.579   7.346  -6.534  1.00  0.00    -0.237 OA
ATOM     81  O   UNL     1       4.642   5.878  -6.863  1.00  0.00    -0.744 OA
ENDBRANCH  75  78
ENDBRANCH  47  71
BRANCH  59  82
ATOM     82  C   UNL     1      -2.675  11.152 -12.182  1.00  0.00     0.023 A 
ATOM     83  C   UNL     1      -2.410  10.199 -13.185  1.00  0.00     0.012 A 
ATOM     84  C   UNL     1      -3.042  12.461 -12.556  1.00  0.00     0.148 A 
ATOM     85  C   UNL     1      -2.484  10.546 -14.534  1.00  0.00     0.002 A 
ATOM     86  C   UNL     1      -3.158  12.789 -13.903  1.00  0.00     0.091 A 
ATOM     87  F   UNL     1      -3.276  13.360 -11.589  1.00  0.00    -0.205 F 
ATOM     88  C   UNL     1      -2.869  11.836 -14.893  1.00  0.00     0.022 A 
BRANCH  86  89
ATOM     89  S   UNL     1      -3.736  14.396 -14.462  1.00  0.00     0.127 S 
ATOM     90  O   UNL     1      -2.511  14.980 -15.006  1.00  0.00    -0.237 OA
ATOM     91  O   UNL     1      -4.738  14.035 -15.466  1.00  0.00    -0.237 OA
ATOM     92  O   UNL     1      -4.274  15.062 -13.283  1.00  0.00    -0.744 OA
ENDBRANCH  86  89
ENDBRANCH  59  82
ENDBRANCH  33  34
ENDBRANCH  26  28
ENDBRANCH  25  26
ENDBRANCH  24  25
ENDBRANCH   1  24
TORSDOF 19
