REMARK SMILES [NH3+][C@H](C(=O)OCCOCCOC(=O)c1ccc(-c2c3nc(c(-c4cccc(S(=O)(=O)[O-])c4F)c4ccc([nH]4)c(-c4cccc(S(=O)(=O)[O-])c4F)c4nc(c(-c5cccc(S(=O)(=O)[O-])c5F)c5ccc2[nH]5)C=C4)C=C3)cc1)c1cccc(OCc2ccc(F)cc2)c1
REMARK SMILES IDX 7 1 6 2 5 3 3 4 4 5 2 6 1 7 77 11 78 12 91 13 79 14 81 15
REMARK SMILES IDX 80 16 82 17 83 18 84 19 85 20 90 21 86 22 89 23 87 24 88 25
REMARK SMILES IDX 8 26 9 27 10 28 11 29 12 30 13 31 14 32 15 33 76 34 16 35
REMARK SMILES IDX 75 36 17 37 18 38 19 39 69 40 20 41 74 42 68 43 70 44 21 45
REMARK SMILES IDX 73 46 67 47 66 48 22 50 54 51 34 52 53 53 35 54 38 55 52 56
REMARK SMILES IDX 71 57 36 58 37 59 51 61 72 62 39 63 23 64 24 65 32 66 25 67
REMARK SMILES IDX 27 68 33 69 26 70 28 71 29 72 30 73 31 74 55 75 56 76 64 77
REMARK SMILES IDX 57 78 59 79 65 80 58 81 60 82 61 83 62 84 63 85 40 86 41 87
REMARK SMILES IDX 49 88 42 89 44 90 50 91 43 92 45 93 46 94 47 95 48 96
REMARK H PARENT 1 8 1 9 1 10 70 49 38 60
REMARK Flexibility Score: inf
ROOT
ATOM      1  C   UNL     1       1.244  -0.489  -2.485  1.00  0.00     0.202 C 
ENDROOT
BRANCH   1   2
ATOM      2  C   UNL     1       2.121  -0.733  -1.249  1.00  0.00     0.261 C 
BRANCH   2   3
ATOM      3  O   UNL     1       1.383  -0.723  -0.010  1.00  0.00    -0.459 OA
BRANCH   3   4
ATOM      4  C   UNL     1       1.477   0.418   0.730  1.00  0.00     0.369 C 
ATOM      5  O   UNL     1       2.075   1.434   0.383  1.00  0.00    -0.245 OA
BRANCH   4   6
ATOM      6  C   UNL     1       0.789   0.277   2.114  1.00  0.00     0.323 C 
BRANCH   6   7
ATOM      7  N   UNL     1       1.285   1.365   3.005  1.00  0.00    -0.342 N 
ATOM      8  H   UNL     1       0.840   1.284   3.920  1.00  0.00     0.345 HD
ATOM      9  H   UNL     1       1.058   2.270   2.595  1.00  0.00     0.345 HD
ATOM     10  H   UNL     1       2.296   1.283   3.111  1.00  0.00     0.345 HD
ENDBRANCH   6   7
BRANCH   6  11
ATOM     11  C   UNL     1      -0.733   0.294   2.045  1.00  0.00     0.024 A 
ATOM     12  C   UNL     1      -1.438   1.468   1.729  1.00  0.00     0.011 A 
ATOM     13  C   UNL     1      -1.468  -0.892   2.263  1.00  0.00     0.057 A 
ATOM     14  C   UNL     1      -2.829   1.459   1.629  1.00  0.00     0.004 A 
ATOM     15  C   UNL     1      -2.856  -0.922   2.073  1.00  0.00     0.120 A 
ATOM     16  C   UNL     1      -3.530   0.267   1.790  1.00  0.00     0.046 A 
BRANCH  15  17
ATOM     17  O   UNL     1      -3.656  -2.032   2.008  1.00  0.00    -0.489 OA
BRANCH  17  18
ATOM     18  C   UNL     1      -3.117  -3.352   2.168  1.00  0.00     0.265 C 
BRANCH  18  19
ATOM     19  C   UNL     1      -2.175  -3.867   1.095  1.00  0.00    -0.011 A 
ATOM     20  C   UNL     1      -1.657  -5.172   1.208  1.00  0.00     0.010 A 
ATOM     21  C   UNL     1      -1.687  -3.048   0.074  1.00  0.00     0.010 A 
ATOM     22  C   UNL     1      -0.573  -5.579   0.427  1.00  0.00     0.039 A 
ATOM     23  C   UNL     1      -0.560  -3.426  -0.639  1.00  0.00     0.039 A 
ATOM     24  C   UNL     1       0.007  -4.670  -0.440  1.00  0.00     0.123 A 
ATOM     25  F   UNL     1       1.137  -4.965  -1.087  1.00  0.00    -0.207 F 
ENDBRANCH  18  19
ENDBRANCH  17  18
ENDBRANCH  15  17
ENDBRANCH   6  11
ENDBRANCH   4   6
ENDBRANCH   3   4
ENDBRANCH   2   3
ENDBRANCH   1   2
BRANCH   1  26
ATOM     26  O   UNL     1       0.534   0.747  -2.468  1.00  0.00    -0.374 OA
BRANCH  26  27
ATOM     27  C   UNL     1      -0.724   0.715  -1.788  1.00  0.00     0.202 C 
BRANCH  27  28
ATOM     28  C   UNL     1      -1.907   0.351  -2.690  1.00  0.00     0.261 C 
BRANCH  28  29
ATOM     29  O   UNL     1      -1.980  -1.076  -2.872  1.00  0.00    -0.460 OA
BRANCH  29  30
ATOM     30  C   UNL     1      -1.648  -1.548  -4.098  1.00  0.00     0.338 C 
ATOM     31  O   UNL     1      -1.365  -0.886  -5.083  1.00  0.00    -0.246 OA
BRANCH  30  32
ATOM     32  C   UNL     1      -1.504  -3.022  -4.033  1.00  0.00     0.060 A 
ATOM     33  C   UNL     1      -0.442  -3.611  -4.731  1.00  0.00     0.016 A 
ATOM     34  C   UNL     1      -2.365  -3.820  -3.275  1.00  0.00     0.016 A 
ATOM     35  C   UNL     1      -0.255  -4.997  -4.693  1.00  0.00     0.010 A 
ATOM     36  C   UNL     1      -2.149  -5.202  -3.207  1.00  0.00     0.010 A 
ATOM     37  C   UNL     1      -1.117  -5.811  -3.946  1.00  0.00    -0.014 A 
BRANCH  37  38
ATOM     38  C   UNL     1      -1.041  -7.297  -4.048  1.00  0.00     0.031 A 
ATOM     39  C   UNL     1      -2.159  -8.032  -4.744  1.00  0.00     0.074 A 
ATOM     40  C   UNL     1      -0.017  -8.005  -3.529  1.00  0.00     0.049 A 
ATOM     41  N   UNL     1      -2.293  -9.315  -4.964  1.00  0.00    -0.248 NA
ATOM     42  C   UNL     1      -3.274  -7.218  -5.256  1.00  0.00     0.031 C 
ATOM     43  C   UNL     1       1.133  -7.444  -2.829  1.00  0.00     0.029 A 
ATOM     44  N   UNL     1       0.207  -9.361  -3.489  1.00  0.00    -0.354 N 
ATOM     45  C   UNL     1      -3.509  -9.460  -5.618  1.00  0.00     0.074 A 
ATOM     46  C   UNL     1      -4.101  -8.145  -5.713  1.00  0.00     0.031 C 
ATOM     47  C   UNL     1       1.912  -8.442  -2.377  1.00  0.00     0.029 A 
ATOM     48  C   UNL     1       1.335  -9.719  -2.786  1.00  0.00     0.049 A 
ATOM     49  H   UNL     1      -0.386 -10.017  -3.923  1.00  0.00     0.167 HD
ATOM     50  C   UNL     1      -4.068 -10.575  -6.143  1.00  0.00     0.034 A 
ATOM     51  C   UNL     1       1.859 -10.933  -2.518  1.00  0.00     0.034 A 
ATOM     52  C   UNL     1      -3.464 -11.877  -6.110  1.00  0.00     0.049 A 
ATOM     53  C   UNL     1       1.217 -12.161  -3.109  1.00  0.00     0.074 A 
ATOM     54  C   UNL     1      -3.911 -13.046  -6.700  1.00  0.00     0.029 A 
ATOM     55  N   UNL     1      -2.287 -12.185  -5.449  1.00  0.00    -0.354 N 
ATOM     56  N   UNL     1       0.166 -12.250  -3.887  1.00  0.00    -0.248 NA
ATOM     57  C   UNL     1       1.870 -13.452  -2.838  1.00  0.00     0.031 C 
ATOM     58  C   UNL     1      -3.012 -14.068  -6.379  1.00  0.00     0.029 A 
ATOM     59  C   UNL     1      -1.998 -13.530  -5.603  1.00  0.00     0.049 A 
ATOM     60  H   UNL     1      -1.738 -11.543  -4.943  1.00  0.00     0.167 HD
ATOM     61  C   UNL     1       0.066 -13.591  -4.242  1.00  0.00     0.074 A 
ATOM     62  C   UNL     1       1.167 -14.278  -3.601  1.00  0.00     0.031 C 
ATOM     63  C   UNL     1      -0.861 -14.197  -5.024  1.00  0.00     0.034 A 
BRANCH  50  64
ATOM     64  C   UNL     1      -5.379 -10.415  -6.860  1.00  0.00     0.023 A 
ATOM     65  C   UNL     1      -5.404  -9.790  -8.124  1.00  0.00     0.012 A 
ATOM     66  C   UNL     1      -6.574 -10.908  -6.305  1.00  0.00     0.148 A 
ATOM     67  C   UNL     1      -6.605  -9.623  -8.809  1.00  0.00     0.002 A 
ATOM     68  C   UNL     1      -7.762 -10.777  -7.014  1.00  0.00     0.091 A 
ATOM     69  F   UNL     1      -6.531 -11.475  -5.091  1.00  0.00    -0.205 F 
ATOM     70  C   UNL     1      -7.782 -10.125  -8.259  1.00  0.00     0.022 A 
BRANCH  68  71
ATOM     71  S   UNL     1      -9.317 -11.454  -6.423  1.00  0.00     0.127 S 
ATOM     72  O   UNL     1     -10.034 -10.242  -6.027  1.00  0.00    -0.237 OA
ATOM     73  O   UNL     1      -9.842 -12.110  -7.621  1.00  0.00    -0.237 OA
ATOM     74  O   UNL     1      -8.971 -12.361  -5.338  1.00  0.00    -0.744 OA
ENDBRANCH  68  71
ENDBRANCH  50  64
BRANCH  51  75
ATOM     75  C   UNL     1       3.119 -11.053  -1.729  1.00  0.00     0.023 A 
ATOM     76  C   UNL     1       4.308 -11.431  -2.384  1.00  0.00     0.012 A 
ATOM     77  C   UNL     1       3.144 -10.819  -0.341  1.00  0.00     0.148 A 
ATOM     78  C   UNL     1       5.490 -11.614  -1.666  1.00  0.00     0.002 A 
ATOM     79  C   UNL     1       4.336 -10.961   0.363  1.00  0.00     0.091 A 
ATOM     80  F   UNL     1       2.000 -10.472   0.266  1.00  0.00    -0.205 F 
ATOM     81  C   UNL     1       5.505 -11.375  -0.295  1.00  0.00     0.022 A 
BRANCH  79  82
ATOM     82  S   UNL     1       4.476 -10.584   2.114  1.00  0.00     0.127 S 
ATOM     83  O   UNL     1       4.630 -11.915   2.696  1.00  0.00    -0.237 OA
ATOM     84  O   UNL     1       5.680  -9.753   2.149  1.00  0.00    -0.237 OA
ATOM     85  O   UNL     1       3.249  -9.879   2.463  1.00  0.00    -0.744 OA
ENDBRANCH  79  82
ENDBRANCH  51  75
BRANCH  63  86
ATOM     86  C   UNL     1      -0.717 -15.674  -5.282  1.00  0.00     0.023 A 
ATOM     87  C   UNL     1      -1.011 -16.595  -4.258  1.00  0.00     0.012 A 
ATOM     88  C   UNL     1      -0.389 -16.150  -6.568  1.00  0.00     0.148 A 
ATOM     89  C   UNL     1      -0.957 -17.967  -4.502  1.00  0.00     0.002 A 
ATOM     90  C   UNL     1      -0.384 -17.518  -6.816  1.00  0.00     0.091 A 
ATOM     91  F   UNL     1      -0.092 -15.259  -7.525  1.00  0.00    -0.205 F 
ATOM     92  C   UNL     1      -0.657 -18.427  -5.782  1.00  0.00     0.022 A 
BRANCH  90  93
ATOM     93  S   UNL     1      -0.110 -18.195  -8.458  1.00  0.00     0.127 S 
ATOM     94  O   UNL     1       1.250 -18.718  -8.342  1.00  0.00    -0.237 OA
ATOM     95  O   UNL     1      -1.151 -19.219  -8.551  1.00  0.00    -0.237 OA
ATOM     96  O   UNL     1      -0.277 -17.082  -9.382  1.00  0.00    -0.744 OA
ENDBRANCH  90  93
ENDBRANCH  63  86
ENDBRANCH  37  38
ENDBRANCH  30  32
ENDBRANCH  29  30
ENDBRANCH  28  29
ENDBRANCH  27  28
ENDBRANCH  26  27
ENDBRANCH   1  26
TORSDOF 22
