REMARK SMILES O=C(OCCOCCOC(=O)c1ccc(S(=O)(=O)N[C@@H]2CC[N@@H+]3CCC[C@H]23)cc1)c1ccc(-c2c3nc(c(-c4cccc(S(=O)(=O)[O-])c4F)c4ccc([nH]4)c(-c4cccc(S(=O)(=O)[O-])c4F)c4nc(c(-c5cccc(S(=O)(=O)[O-])c5F)c5ccc2[nH]5)C=C4)C=C3)cc1
REMARK SMILES IDX 6 1 5 2 4 3 3 4 2 5 1 6 30 7 31 8 92 9 32 10 91 11 33 12
REMARK SMILES IDX 34 13 35 14 85 15 36 16 90 17 84 18 86 19 37 20 89 21 83 22
REMARK SMILES IDX 82 23 38 25 70 26 50 27 69 28 51 29 54 30 68 31 87 32 52 33
REMARK SMILES IDX 53 34 67 36 88 37 55 38 39 39 40 40 48 41 41 42 43 43 49 44
REMARK SMILES IDX 42 45 44 46 45 47 46 48 47 49 71 50 72 51 80 52 73 53 75 54
REMARK SMILES IDX 81 55 74 56 76 57 77 58 78 59 79 60 56 61 57 62 65 63 58 64
REMARK SMILES IDX 60 65 66 66 59 67 61 68 62 69 63 70 64 71 7 72 8 73 9 74
REMARK SMILES IDX 10 75 11 76 12 77 13 78 29 79 14 80 28 81 15 82 16 83 17 84
REMARK SMILES IDX 18 85 19 86 20 88 21 89 27 90 22 91 23 92 26 93 24 94 25 96
REMARK H PARENT 86 24 54 35 19 87 23 95
REMARK Flexibility Score: inf
ROOT
ATOM      1  O   UNL     1       4.021  -1.188   1.262  1.00  0.00    -0.374 OA
ENDROOT
BRANCH   1   2
ATOM      2  C   UNL     1       4.276   0.161   1.653  1.00  0.00     0.202 C 
BRANCH   2   3
ATOM      3  C   UNL     1       4.002   1.210   0.573  1.00  0.00     0.261 C 
BRANCH   3   4
ATOM      4  O   UNL     1       2.617   1.175   0.189  1.00  0.00    -0.460 OA
BRANCH   4   5
ATOM      5  C   UNL     1       2.087   0.741  -0.978  1.00  0.00     0.338 C 
ATOM      6  O   UNL     1       0.885   0.908  -1.173  1.00  0.00    -0.246 OA
BRANCH   5   7
ATOM      7  C   UNL     1       2.889   0.054  -2.036  1.00  0.00     0.060 A 
ATOM      8  C   UNL     1       4.030  -0.712  -1.790  1.00  0.00     0.016 A 
ATOM      9  C   UNL     1       2.392   0.095  -3.348  1.00  0.00     0.016 A 
ATOM     10  C   UNL     1       4.699  -1.374  -2.806  1.00  0.00     0.010 A 
ATOM     11  C   UNL     1       3.031  -0.609  -4.373  1.00  0.00     0.010 A 
ATOM     12  C   UNL     1       4.191  -1.342  -4.098  1.00  0.00    -0.014 A 
BRANCH  12  13
ATOM     13  C   UNL     1       4.924  -2.069  -5.144  1.00  0.00     0.031 A 
ATOM     14  C   UNL     1       5.738  -1.288  -6.122  1.00  0.00     0.074 A 
ATOM     15  C   UNL     1       4.898  -3.414  -5.144  1.00  0.00     0.049 A 
ATOM     16  N   UNL     1       6.406  -1.712  -7.157  1.00  0.00    -0.248 NA
ATOM     17  C   UNL     1       5.821   0.167  -5.900  1.00  0.00     0.031 C 
ATOM     18  C   UNL     1       4.193  -4.243  -4.161  1.00  0.00     0.029 A 
ATOM     19  N   UNL     1       5.472  -4.321  -5.993  1.00  0.00    -0.354 N 
ATOM     20  C   UNL     1       6.933  -0.574  -7.750  1.00  0.00     0.074 A 
ATOM     21  C   UNL     1       6.542   0.558  -6.940  1.00  0.00     0.031 C 
ATOM     22  C   UNL     1       4.362  -5.537  -4.475  1.00  0.00     0.029 A 
ATOM     23  C   UNL     1       5.125  -5.623  -5.713  1.00  0.00     0.049 A 
ATOM     24  H   UNL     1       6.073  -4.068  -6.731  1.00  0.00     0.167 HD
ATOM     25  C   UNL     1       7.662  -0.494  -8.885  1.00  0.00     0.034 A 
ATOM     26  C   UNL     1       5.356  -6.746  -6.418  1.00  0.00     0.034 A 
ATOM     27  C   UNL     1       8.043  -1.644  -9.654  1.00  0.00     0.049 A 
ATOM     28  C   UNL     1       6.134  -6.617  -7.699  1.00  0.00     0.074 A 
ATOM     29  C   UNL     1       8.788  -1.695 -10.816  1.00  0.00     0.029 A 
ATOM     30  N   UNL     1       7.686  -2.949  -9.342  1.00  0.00    -0.354 N 
ATOM     31  N   UNL     1       6.684  -5.546  -8.224  1.00  0.00    -0.248 NA
ATOM     32  C   UNL     1       6.330  -7.841  -8.485  1.00  0.00     0.031 C 
ATOM     33  C   UNL     1       8.848  -3.030 -11.227  1.00  0.00     0.029 A 
ATOM     34  C   UNL     1       8.170  -3.814 -10.304  1.00  0.00     0.049 A 
ATOM     35  H   UNL     1       7.165  -3.218  -8.551  1.00  0.00     0.167 HD
ATOM     36  C   UNL     1       7.303  -5.967  -9.392  1.00  0.00     0.074 A 
ATOM     37  C   UNL     1       7.087  -7.399  -9.481  1.00  0.00     0.031 C 
ATOM     38  C   UNL     1       7.969  -5.241 -10.323  1.00  0.00     0.034 A 
BRANCH  25  39
ATOM     39  C   UNL     1       8.037   0.876  -9.375  1.00  0.00     0.023 A 
ATOM     40  C   UNL     1       9.052   1.611  -8.733  1.00  0.00     0.012 A 
ATOM     41  C   UNL     1       7.378   1.429 -10.490  1.00  0.00     0.148 A 
ATOM     42  C   UNL     1       9.387   2.891  -9.178  1.00  0.00     0.002 A 
ATOM     43  C   UNL     1       7.743   2.686 -10.952  1.00  0.00     0.091 A 
ATOM     44  F   UNL     1       6.396   0.721 -11.066  1.00  0.00    -0.205 F 
ATOM     45  C   UNL     1       8.739   3.424 -10.291  1.00  0.00     0.022 A 
BRANCH  43  46
ATOM     46  S   UNL     1       7.008   3.436 -12.408  1.00  0.00     0.127 S 
ATOM     47  O   UNL     1       6.305   4.580 -11.828  1.00  0.00    -0.237 OA
ATOM     48  O   UNL     1       8.188   3.782 -13.200  1.00  0.00    -0.237 OA
ATOM     49  O   UNL     1       6.151   2.417 -12.999  1.00  0.00    -0.744 OA
ENDBRANCH  43  46
ENDBRANCH  25  39
BRANCH  26  50
ATOM     50  C   UNL     1       4.818  -8.058  -5.954  1.00  0.00     0.023 A 
ATOM     51  C   UNL     1       5.702  -9.088  -5.579  1.00  0.00     0.012 A 
ATOM     52  C   UNL     1       3.429  -8.289  -5.870  1.00  0.00     0.148 A 
ATOM     53  C   UNL     1       5.215 -10.329  -5.162  1.00  0.00     0.002 A 
ATOM     54  C   UNL     1       2.950  -9.505  -5.398  1.00  0.00     0.091 A 
ATOM     55  F   UNL     1       2.596  -7.310  -6.253  1.00  0.00    -0.205 F 
ATOM     56  C   UNL     1       3.841 -10.534  -5.061  1.00  0.00     0.022 A 
BRANCH  54  57
ATOM     57  S   UNL     1       1.200  -9.798  -5.114  1.00  0.00     0.127 S 
ATOM     58  O   UNL     1       0.848 -10.642  -6.252  1.00  0.00    -0.237 OA
ATOM     59  O   UNL     1       1.209 -10.481  -3.819  1.00  0.00    -0.237 OA
ATOM     60  O   UNL     1       0.586  -8.477  -5.084  1.00  0.00    -0.744 OA
ENDBRANCH  54  57
ENDBRANCH  26  50
BRANCH  38  61
ATOM     61  C   UNL     1       8.526  -5.983 -11.505  1.00  0.00     0.023 A 
ATOM     62  C   UNL     1       7.659  -6.420 -12.524  1.00  0.00     0.012 A 
ATOM     63  C   UNL     1       9.917  -6.142 -11.653  1.00  0.00     0.148 A 
ATOM     64  C   UNL     1       8.169  -7.024 -13.670  1.00  0.00     0.002 A 
ATOM     65  C   UNL     1      10.421  -6.695 -12.821  1.00  0.00     0.091 A 
ATOM     66  F   UNL     1      10.716  -5.732 -10.658  1.00  0.00    -0.205 F 
ATOM     67  C   UNL     1       9.549  -7.147 -13.826  1.00  0.00     0.022 A 
BRANCH  65  68
ATOM     68  S   UNL     1      12.181  -6.790 -13.156  1.00  0.00     0.127 S 
ATOM     69  O   UNL     1      12.419  -8.231 -13.090  1.00  0.00    -0.237 OA
ATOM     70  O   UNL     1      12.271  -6.217 -14.499  1.00  0.00    -0.237 OA
ATOM     71  O   UNL     1      12.834  -6.005 -12.117  1.00  0.00    -0.744 OA
ENDBRANCH  65  68
ENDBRANCH  38  61
ENDBRANCH  12  13
ENDBRANCH   5   7
ENDBRANCH   4   5
ENDBRANCH   3   4
ENDBRANCH   2   3
ENDBRANCH   1   2
BRANCH   1  72
ATOM     72  C   UNL     1       2.657  -1.628   1.341  1.00  0.00     0.202 C 
BRANCH  72  73
ATOM     73  C   UNL     1       2.623  -3.058   1.892  1.00  0.00     0.261 C 
BRANCH  73  74
ATOM     74  O   UNL     1       3.111  -3.010   3.241  1.00  0.00    -0.460 OA
BRANCH  74  75
ATOM     75  C   UNL     1       4.466  -3.027   3.327  1.00  0.00     0.338 C 
ATOM     76  O   UNL     1       5.245  -3.606   2.599  1.00  0.00    -0.246 OA
BRANCH  75  77
ATOM     77  C   UNL     1       4.875  -2.049   4.364  1.00  0.00     0.060 A 
ATOM     78  C   UNL     1       6.166  -1.507   4.282  1.00  0.00     0.017 A 
ATOM     79  C   UNL     1       3.996  -1.627   5.371  1.00  0.00     0.017 A 
ATOM     80  C   UNL     1       6.611  -0.622   5.260  1.00  0.00     0.022 A 
ATOM     81  C   UNL     1       4.429  -0.723   6.336  1.00  0.00     0.022 A 
ATOM     82  C   UNL     1       5.757  -0.290   6.316  1.00  0.00     0.082 A 
BRANCH  82  83
ATOM     83  S   UNL     1       6.423   0.515   7.743  1.00  0.00     0.241 S 
ATOM     84  O   UNL     1       7.862   0.559   7.622  1.00  0.00    -0.207 OA
ATOM     85  O   UNL     1       5.651   1.718   7.963  1.00  0.00    -0.207 OA
BRANCH  83  86
ATOM     86  N   UNL     1       6.053  -0.501   9.037  1.00  0.00    -0.202 NA
ATOM     87  H   UNL     1       5.203  -0.117   9.451  1.00  0.00     0.141 HD
BRANCH  86  88
ATOM     88  C   UNL     1       5.817  -1.959   8.925  1.00  0.00     0.133 C 
ATOM     89  C   UNL     1       5.726  -2.560  10.333  1.00  0.00     0.087 C 
ATOM     90  C   UNL     1       6.811  -2.850   8.172  1.00  0.00     0.202 C 
ATOM     91  C   UNL     1       6.688  -3.734  10.343  1.00  0.00     0.264 C 
ATOM     92  N   UNL     1       6.809  -4.121   8.935  1.00  0.00    -0.331 N 
ATOM     93  C   UNL     1       8.274  -2.453   8.101  1.00  0.00     0.072 C 
ATOM     94  C   UNL     1       8.083  -4.799   8.662  1.00  0.00     0.262 C 
ATOM     95  H   UNL     1       6.051  -4.756   8.685  1.00  0.00     0.348 HD
ATOM     96  C   UNL     1       8.999  -3.783   7.996  1.00  0.00     0.068 C 
ENDBRANCH  86  88
ENDBRANCH  83  86
ENDBRANCH  82  83
ENDBRANCH  75  77
ENDBRANCH  74  75
ENDBRANCH  73  74
ENDBRANCH  72  73
ENDBRANCH   1  72
TORSDOF 20
