REMARK SMILES CC1=C(CC(=O)OCCOCCOC(=O)c2ccc(-c3c4nc(c(-c5cccc(S(=O)(=O)[O-])c5F)c5ccc([nH]5)c(-c5cccc(S(=O)(=O)[O-])c5F)c5nc(c(-c6cccc(S(=O)(=O)[O-])c6F)c6ccc3[nH]6)C=C5)C=C4)cc2)c2cc(F)ccc2/C1=C\c1cccc(OCc2ccccc2)c1
REMARK SMILES IDX 9 1 8 2 7 3 5 4 6 5 4 6 3 7 1 8 2 9 86 10 79 11 85 12 87 13
REMARK SMILES IDX 80 14 84 15 81 16 83 17 82 18 88 19 89 20 101 21 90 22 92 23
REMARK SMILES IDX 91 24 93 25 94 26 95 27 96 28 100 29 97 30 99 31 98 32 10 33
REMARK SMILES IDX 11 34 12 35 13 36 14 37 15 38 16 39 17 40 78 41 18 42 77 43
REMARK SMILES IDX 19 44 20 45 21 46 71 47 22 48 76 49 70 50 72 51 23 52 75 53
REMARK SMILES IDX 69 54 68 55 24 57 56 58 36 59 55 60 37 61 40 62 54 63 73 64
REMARK SMILES IDX 38 65 39 66 53 68 74 69 41 70 25 71 26 72 34 73 27 74 29 75
REMARK SMILES IDX 35 76 28 77 30 78 31 79 32 80 33 81 57 82 58 83 66 84 59 85
REMARK SMILES IDX 61 86 67 87 60 88 62 89 63 90 64 91 65 92 42 93 43 94 51 95
REMARK SMILES IDX 44 96 46 97 52 98 45 99 47 100 48 101 49 102 50 103
REMARK H PARENT 72 56 40 67
REMARK Flexibility Score: inf
ROOT
ATOM      1  C   UNL     1      -2.178  -5.731  -0.259  1.00  0.00     0.202 C 
ENDROOT
BRANCH   1   2
ATOM      2  C   UNL     1      -1.345  -4.833   0.669  1.00  0.00     0.261 C 
BRANCH   2   3
ATOM      3  O   UNL     1      -0.537  -3.850  -0.009  1.00  0.00    -0.463 OA
BRANCH   3   4
ATOM      4  C   UNL     1       0.809  -3.995   0.137  1.00  0.00     0.310 C 
ATOM      5  O   UNL     1       1.344  -4.874   0.810  1.00  0.00    -0.252 OA
BRANCH   4   6
ATOM      6  C   UNL     1       1.657  -2.967  -0.608  1.00  0.00     0.159 C 
BRANCH   6   7
ATOM      7  C   UNL     1       0.990  -2.014  -1.545  1.00  0.00    -0.025 C 
ATOM      8  C   UNL     1       0.718  -0.050   0.024  1.00  0.00     0.045 C 
ATOM      9  C   UNL     1       0.564  -0.755  -1.283  1.00  0.00    -0.039 C 
ATOM     10  C   UNL     1       0.004  -0.164  -2.506  1.00  0.00    -0.014 C 
ATOM     11  C   UNL     1       0.819  -2.253  -2.991  1.00  0.00    -0.011 A 
ATOM     12  C   UNL     1       0.147  -1.166  -3.576  1.00  0.00    -0.010 A 
ATOM     13  C   UNL     1      -0.480   1.084  -2.620  1.00  0.00     0.017 C 
ATOM     14  C   UNL     1       1.221  -3.324  -3.777  1.00  0.00     0.048 A 
ATOM     15  C   UNL     1      -0.234  -1.196  -4.914  1.00  0.00     0.012 A 
ATOM     16  C   UNL     1       0.861  -3.331  -5.126  1.00  0.00     0.123 A 
ATOM     17  C   UNL     1       0.119  -2.295  -5.692  1.00  0.00     0.040 A 
ATOM     18  F   UNL     1       1.182  -4.388  -5.883  1.00  0.00    -0.207 F 
BRANCH  13  19
ATOM     19  C   UNL     1      -0.881   1.712  -3.878  1.00  0.00    -0.021 A 
ATOM     20  C   UNL     1      -2.214   1.738  -4.288  1.00  0.00     0.008 A 
ATOM     21  C   UNL     1       0.111   2.283  -4.686  1.00  0.00     0.054 A 
ATOM     22  C   UNL     1      -2.546   2.317  -5.512  1.00  0.00     0.004 A 
ATOM     23  C   UNL     1      -0.235   2.975  -5.844  1.00  0.00     0.120 A 
ATOM     24  C   UNL     1      -1.559   2.938  -6.284  1.00  0.00     0.046 A 
BRANCH  23  25
ATOM     25  O   UNL     1       0.613   3.749  -6.585  1.00  0.00    -0.489 OA
BRANCH  25  26
ATOM     26  C   UNL     1       1.818   4.224  -5.968  1.00  0.00     0.265 C 
BRANCH  26  27
ATOM     27  C   UNL     1       1.649   5.405  -5.024  1.00  0.00    -0.011 A 
ATOM     28  C   UNL     1       0.940   5.307  -3.816  1.00  0.00     0.007 A 
ATOM     29  C   UNL     1       2.266   6.631  -5.315  1.00  0.00     0.007 A 
ATOM     30  C   UNL     1       0.834   6.386  -2.937  1.00  0.00     0.000 A 
ATOM     31  C   UNL     1       2.169   7.712  -4.431  1.00  0.00     0.000 A 
ATOM     32  C   UNL     1       1.451   7.590  -3.244  1.00  0.00     0.000 A 
ENDBRANCH  26  27
ENDBRANCH  25  26
ENDBRANCH  23  25
ENDBRANCH  13  19
ENDBRANCH   6   7
ENDBRANCH   4   6
ENDBRANCH   3   4
ENDBRANCH   2   3
ENDBRANCH   1   2
BRANCH   1  33
ATOM     33  O   UNL     1      -1.517  -6.401  -1.329  1.00  0.00    -0.374 OA
BRANCH  33  34
ATOM     34  C   UNL     1      -0.975  -5.605  -2.377  1.00  0.00     0.202 C 
BRANCH  34  35
ATOM     35  C   UNL     1      -1.941  -4.826  -3.278  1.00  0.00     0.261 C 
BRANCH  35  36
ATOM     36  O   UNL     1      -2.824  -3.957  -2.569  1.00  0.00    -0.460 OA
BRANCH  36  37
ATOM     37  C   UNL     1      -4.134  -4.264  -2.714  1.00  0.00     0.338 C 
ATOM     38  O   UNL     1      -4.622  -5.156  -3.393  1.00  0.00    -0.246 OA
BRANCH  37  39
ATOM     39  C   UNL     1      -4.910  -3.450  -1.774  1.00  0.00     0.060 A 
ATOM     40  C   UNL     1      -4.864  -2.056  -1.829  1.00  0.00     0.016 A 
ATOM     41  C   UNL     1      -5.725  -4.115  -0.851  1.00  0.00     0.016 A 
ATOM     42  C   UNL     1      -5.675  -1.321  -0.967  1.00  0.00     0.010 A 
ATOM     43  C   UNL     1      -6.537  -3.378   0.003  1.00  0.00     0.010 A 
ATOM     44  C   UNL     1      -6.535  -1.979  -0.068  1.00  0.00    -0.014 A 
BRANCH  44  45
ATOM     45  C   UNL     1      -7.551  -1.208   0.682  1.00  0.00     0.031 A 
ATOM     46  C   UNL     1      -7.451  -1.019   2.163  1.00  0.00     0.074 A 
ATOM     47  C   UNL     1      -8.604  -0.726  -0.006  1.00  0.00     0.049 A 
ATOM     48  N   UNL     1      -8.242  -0.339   2.949  1.00  0.00    -0.248 NA
ATOM     49  C   UNL     1      -6.332  -1.677   2.856  1.00  0.00     0.031 C 
ATOM     50  C   UNL     1      -8.829  -0.926  -1.441  1.00  0.00     0.029 A 
ATOM     51  N   UNL     1      -9.680   0.017   0.399  1.00  0.00    -0.354 N 
ATOM     52  C   UNL     1      -7.729  -0.492   4.229  1.00  0.00     0.074 A 
ATOM     53  C   UNL     1      -6.565  -1.345   4.121  1.00  0.00     0.031 C 
ATOM     54  C   UNL     1      -9.960  -0.300  -1.800  1.00  0.00     0.029 A 
ATOM     55  C   UNL     1     -10.552   0.319  -0.620  1.00  0.00     0.049 A 
ATOM     56  H   UNL     1      -9.816   0.308   1.330  1.00  0.00     0.167 HD
ATOM     57  C   UNL     1      -8.183   0.051   5.382  1.00  0.00     0.034 A 
ATOM     58  C   UNL     1     -11.703   1.018  -0.607  1.00  0.00     0.034 A 
ATOM     59  C   UNL     1      -9.333   0.908   5.469  1.00  0.00     0.049 A 
ATOM     60  C   UNL     1     -12.171   1.623   0.683  1.00  0.00     0.074 A 
ATOM     61  C   UNL     1      -9.830   1.560   6.584  1.00  0.00     0.029 A 
ATOM     62  N   UNL     1     -10.171   1.223   4.412  1.00  0.00    -0.354 N 
ATOM     63  N   UNL     1     -11.599   1.576   1.861  1.00  0.00    -0.248 NA
ATOM     64  C   UNL     1     -13.420   2.395   0.648  1.00  0.00     0.031 C 
ATOM     65  C   UNL     1     -10.982   2.252   6.205  1.00  0.00     0.029 A 
ATOM     66  C   UNL     1     -11.187   2.053   4.848  1.00  0.00     0.049 A 
ATOM     67  H   UNL     1     -10.060   0.903   3.487  1.00  0.00     0.167 HD
ATOM     68  C   UNL     1     -12.402   2.331   2.703  1.00  0.00     0.074 A 
ATOM     69  C   UNL     1     -13.499   2.832   1.899  1.00  0.00     0.031 C 
ATOM     70  C   UNL     1     -12.245   2.579   4.025  1.00  0.00     0.034 A 
BRANCH  57  71
ATOM     71  C   UNL     1      -7.412  -0.204   6.646  1.00  0.00     0.023 A 
ATOM     72  C   UNL     1      -6.226   0.519   6.882  1.00  0.00     0.012 A 
ATOM     73  C   UNL     1      -7.927  -1.044   7.652  1.00  0.00     0.148 A 
ATOM     74  C   UNL     1      -5.561   0.410   8.102  1.00  0.00     0.002 A 
ATOM     75  C   UNL     1      -7.274  -1.127   8.876  1.00  0.00     0.091 A 
ATOM     76  F   UNL     1      -9.053  -1.726   7.399  1.00  0.00    -0.205 F 
ATOM     77  C   UNL     1      -6.091  -0.402   9.102  1.00  0.00     0.022 A 
BRANCH  75  78
ATOM     78  S   UNL     1      -7.895  -2.104  10.249  1.00  0.00     0.127 S 
ATOM     79  O   UNL     1      -6.826  -3.088  10.417  1.00  0.00    -0.237 OA
ATOM     80  O   UNL     1      -7.982  -1.109  11.318  1.00  0.00    -0.237 OA
ATOM     81  O   UNL     1      -9.172  -2.651   9.812  1.00  0.00    -0.744 OA
ENDBRANCH  75  78
ENDBRANCH  57  71
BRANCH  58  82
ATOM     82  C   UNL     1     -12.434   1.231  -1.883  1.00  0.00     0.023 A 
ATOM     83  C   UNL     1     -12.357   2.484  -2.519  1.00  0.00     0.012 A 
ATOM     84  C   UNL     1     -13.124   0.176  -2.511  1.00  0.00     0.148 A 
ATOM     85  C   UNL     1     -12.962   2.686  -3.760  1.00  0.00     0.002 A 
ATOM     86  C   UNL     1     -13.693   0.373  -3.763  1.00  0.00     0.091 A 
ATOM     87  F   UNL     1     -13.174  -1.008  -1.884  1.00  0.00    -0.205 F 
ATOM     88  C   UNL     1     -13.620   1.629  -4.386  1.00  0.00     0.022 A 
BRANCH  86  89
ATOM     89  S   UNL     1     -14.478  -0.949  -4.690  1.00  0.00     0.127 S 
ATOM     90  O   UNL     1     -15.857  -0.474  -4.773  1.00  0.00    -0.237 OA
ATOM     91  O   UNL     1     -13.736  -0.911  -5.950  1.00  0.00    -0.237 OA
ATOM     92  O   UNL     1     -14.280  -2.159  -3.904  1.00  0.00    -0.744 OA
ENDBRANCH  86  89
ENDBRANCH  58  82
BRANCH  70  93
ATOM     93  C   UNL     1     -13.258   3.450   4.711  1.00  0.00     0.023 A 
ATOM     94  C   UNL     1     -14.491   2.898   5.108  1.00  0.00     0.012 A 
ATOM     95  C   UNL     1     -12.916   4.758   5.105  1.00  0.00     0.148 A 
ATOM     96  C   UNL     1     -15.370   3.639   5.895  1.00  0.00     0.002 A 
ATOM     97  C   UNL     1     -13.782   5.477   5.918  1.00  0.00     0.091 A 
ATOM     98  F   UNL     1     -11.736   5.255   4.708  1.00  0.00    -0.205 F 
ATOM     99  C   UNL     1     -15.010   4.920   6.312  1.00  0.00     0.022 A 
BRANCH  97 100
ATOM    100  S   UNL     1     -13.376   7.100   6.569  1.00  0.00     0.127 S 
ATOM    101  O   UNL     1     -14.413   7.932   5.960  1.00  0.00    -0.237 OA
ATOM    102  O   UNL     1     -13.522   6.899   8.010  1.00  0.00    -0.237 OA
ATOM    103  O   UNL     1     -12.018   7.388   6.126  1.00  0.00    -0.744 OA
ENDBRANCH  97 100
ENDBRANCH  70  93
ENDBRANCH  44  45
ENDBRANCH  37  39
ENDBRANCH  36  37
ENDBRANCH  35  36
ENDBRANCH  34  35
ENDBRANCH  33  34
ENDBRANCH   1  33
TORSDOF 22
