REMARK SMILES O=C(C[C@@H]([NH2+][C@@H]1CC[NH2+]C1)c1cccs1)OCCOCCOC(=O)c1ccc(-c2c3nc(c(-c4cccc(S(=O)(=O)[O-])c4F)c4ccc([nH]4)c(-c4cccc(S(=O)(=O)[O-])c4F)c4nc(c(-c5cccc(S(=O)(=O)[O-])c5F)c5ccc2[nH]5)C=C4)C=C3)cc1
REMARK SMILES IDX 19 1 18 2 17 3 16 4 2 5 1 6 3 7 4 8 5 9 6 12 7 13 10 14 8 15
REMARK SMILES IDX 9 16 11 19 12 20 15 21 13 22 14 23 20 24 21 25 22 26 23 27
REMARK SMILES IDX 24 28 25 29 26 30 87 31 27 32 86 33 28 34 29 35 30 36 80 37
REMARK SMILES IDX 31 38 85 39 79 40 81 41 32 42 84 43 78 44 77 45 33 47 65 48
REMARK SMILES IDX 45 49 64 50 46 51 49 52 63 53 82 54 47 55 48 56 62 58 83 59
REMARK SMILES IDX 50 60 34 61 35 62 43 63 36 64 38 65 44 66 37 67 39 68 40 69
REMARK SMILES IDX 41 70 42 71 66 72 67 73 75 74 68 75 70 76 76 77 69 78 71 79
REMARK SMILES IDX 72 80 73 81 74 82 51 83 52 84 60 85 53 86 55 87 61 88 54 89
REMARK SMILES IDX 56 90 57 91 58 92 59 93
REMARK H PARENT 5 10 5 11 9 17 9 18 81 46 49 57
REMARK Flexibility Score: inf
ROOT
ATOM      1  O   UNL     1       4.082  -1.556   1.379  1.00  0.00    -0.374 OA
ENDROOT
BRANCH   1   2
ATOM      2  C   UNL     1       4.725  -0.373   0.914  1.00  0.00     0.202 C 
BRANCH   2   3
ATOM      3  C   UNL     1       3.924   0.900   0.621  1.00  0.00     0.261 C 
BRANCH   3   4
ATOM      4  O   UNL     1       2.705   0.891  -0.177  1.00  0.00    -0.463 OA
BRANCH   4   5
ATOM      5  C   UNL     1       2.168   0.065  -1.090  1.00  0.00     0.312 C 
ATOM      6  O   UNL     1       1.044   0.302  -1.531  1.00  0.00    -0.252 OA
BRANCH   5   7
ATOM      7  C   UNL     1       2.917  -1.138  -1.563  1.00  0.00     0.193 C 
BRANCH   7   8
ATOM      8  C   UNL     1       3.986  -0.909  -2.656  1.00  0.00     0.235 C 
BRANCH   8   9
ATOM      9  N   UNL     1       4.795   0.262  -2.260  1.00  0.00    -0.332 N 
ATOM     10  H   UNL     1       5.262   0.012  -1.389  1.00  0.00     0.347 HD
ATOM     11  H   UNL     1       4.107   1.015  -2.235  1.00  0.00     0.347 HD
BRANCH   9  12
ATOM     12  C   UNL     1       5.829   0.794  -3.152  1.00  0.00     0.244 C 
ATOM     13  C   UNL     1       6.203   2.207  -2.693  1.00  0.00     0.132 C 
ATOM     14  C   UNL     1       5.405   1.065  -4.602  1.00  0.00     0.326 C 
ATOM     15  C   UNL     1       5.174   3.087  -3.375  1.00  0.00     0.267 C 
ATOM     16  N   UNL     1       4.903   2.447  -4.668  1.00  0.00    -0.341 N 
ATOM     17  H   UNL     1       5.382   2.954  -5.413  1.00  0.00     0.346 HD
ATOM     18  H   UNL     1       3.903   2.453  -4.866  1.00  0.00     0.346 HD
ENDBRANCH   9  12
ENDBRANCH   8   9
BRANCH   8  19
ATOM     19  C   UNL     1       4.786  -2.208  -2.906  1.00  0.00     0.062 A 
ATOM     20  C   UNL     1       5.992  -2.414  -3.560  1.00  0.00     0.021 A 
ATOM     21  S   UNL     1       4.134  -3.757  -2.451  1.00  0.00    -0.143 S 
ATOM     22  C   UNL     1       6.416  -3.776  -3.582  1.00  0.00     0.012 A 
ATOM     23  C   UNL     1       5.497  -4.609  -2.998  1.00  0.00     0.065 A 
ENDBRANCH   8  19
ENDBRANCH   7   8
ENDBRANCH   5   7
ENDBRANCH   4   5
ENDBRANCH   3   4
ENDBRANCH   2   3
ENDBRANCH   1   2
BRANCH   1  24
ATOM     24  C   UNL     1       2.796  -1.489   1.975  1.00  0.00     0.202 C 
BRANCH  24  25
ATOM     25  C   UNL     1       2.818  -1.329   3.488  1.00  0.00     0.261 C 
BRANCH  25  26
ATOM     26  O   UNL     1       3.277  -0.022   3.845  1.00  0.00    -0.460 OA
BRANCH  26  27
ATOM     27  C   UNL     1       4.588   0.051   4.159  1.00  0.00     0.338 C 
ATOM     28  O   UNL     1       5.390  -0.870   4.226  1.00  0.00    -0.246 OA
BRANCH  27  29
ATOM     29  C   UNL     1       4.973   1.464   4.291  1.00  0.00     0.060 A 
ATOM     30  C   UNL     1       6.224   1.850   3.796  1.00  0.00     0.016 A 
ATOM     31  C   UNL     1       4.152   2.376   4.962  1.00  0.00     0.016 A 
ATOM     32  C   UNL     1       6.702   3.127   4.057  1.00  0.00     0.010 A 
ATOM     33  C   UNL     1       4.631   3.656   5.221  1.00  0.00     0.010 A 
ATOM     34  C   UNL     1       5.934   4.006   4.829  1.00  0.00    -0.014 A 
BRANCH  34  35
ATOM     35  C   UNL     1       6.587   5.185   5.433  1.00  0.00     0.031 A 
ATOM     36  C   UNL     1       7.027   5.093   6.868  1.00  0.00     0.074 A 
ATOM     37  C   UNL     1       6.800   6.296   4.710  1.00  0.00     0.049 A 
ATOM     38  N   UNL     1       7.620   5.987   7.612  1.00  0.00    -0.248 NA
ATOM     39  C   UNL     1       6.753   3.822   7.562  1.00  0.00     0.031 C 
ATOM     40  C   UNL     1       6.421   6.478   3.310  1.00  0.00     0.029 A 
ATOM     41  N   UNL     1       7.375   7.486   5.066  1.00  0.00    -0.354 N 
ATOM     42  C   UNL     1       7.752   5.406   8.867  1.00  0.00     0.074 A 
ATOM     43  C   UNL     1       7.166   4.087   8.791  1.00  0.00     0.031 C 
ATOM     44  C   UNL     1       6.764   7.719   2.926  1.00  0.00     0.029 A 
ATOM     45  C   UNL     1       7.360   8.421   4.061  1.00  0.00     0.049 A 
ATOM     46  H   UNL     1       7.762   7.654   5.955  1.00  0.00     0.167 HD
ATOM     47  C   UNL     1       8.320   5.922   9.982  1.00  0.00     0.034 A 
ATOM     48  C   UNL     1       7.772   9.703   4.070  1.00  0.00     0.034 A 
ATOM     49  C   UNL     1       8.915   7.228  10.036  1.00  0.00     0.049 A 
ATOM     50  C   UNL     1       8.393  10.257   5.325  1.00  0.00     0.074 A 
ATOM     51  C   UNL     1       9.568   7.835  11.093  1.00  0.00     0.029 A 
ATOM     52  N   UNL     1       8.914   8.138   8.989  1.00  0.00    -0.354 N 
ATOM     53  N   UNL     1       8.610   9.661   6.474  1.00  0.00    -0.248 NA
ATOM     54  C   UNL     1       8.863  11.647   5.272  1.00  0.00     0.031 C 
ATOM     55  C   UNL     1       9.923   9.129  10.698  1.00  0.00     0.029 A 
ATOM     56  C   UNL     1       9.541   9.308   9.377  1.00  0.00     0.049 A 
ATOM     57  H   UNL     1       8.523   7.975   8.100  1.00  0.00     0.167 HD
ATOM     58  C   UNL     1       9.289  10.585   7.261  1.00  0.00     0.074 A 
ATOM     59  C   UNL     1       9.453  11.776   6.453  1.00  0.00     0.031 C 
ATOM     60  C   UNL     1       9.737  10.462   8.536  1.00  0.00     0.034 A 
BRANCH  47  61
ATOM     61  C   UNL     1       8.313   5.074  11.227  1.00  0.00     0.023 A 
ATOM     62  C   UNL     1       9.108   3.911  11.301  1.00  0.00     0.012 A 
ATOM     63  C   UNL     1       7.531   5.445  12.338  1.00  0.00     0.148 A 
ATOM     64  C   UNL     1       9.091   3.109  12.442  1.00  0.00     0.002 A 
ATOM     65  C   UNL     1       7.560   4.670  13.491  1.00  0.00     0.091 A 
ATOM     66  F   UNL     1       6.760   6.537  12.242  1.00  0.00    -0.205 F 
ATOM     67  C   UNL     1       8.326   3.494  13.540  1.00  0.00     0.022 A 
BRANCH  65  68
ATOM     68  S   UNL     1       6.675   5.128  14.985  1.00  0.00     0.127 S 
ATOM     69  O   UNL     1       5.617   4.119  15.023  1.00  0.00    -0.237 OA
ATOM     70  O   UNL     1       7.705   4.971  16.012  1.00  0.00    -0.237 OA
ATOM     71  O   UNL     1       6.225   6.498  14.781  1.00  0.00    -0.744 OA
ENDBRANCH  65  68
ENDBRANCH  47  61
BRANCH  48  72
ATOM     72  C   UNL     1       7.664  10.528   2.836  1.00  0.00     0.023 A 
ATOM     73  C   UNL     1       8.835  10.908   2.151  1.00  0.00     0.012 A 
ATOM     74  C   UNL     1       6.412  10.917   2.324  1.00  0.00     0.148 A 
ATOM     75  C   UNL     1       8.763  11.690   0.998  1.00  0.00     0.002 A 
ATOM     76  C   UNL     1       6.344  11.649   1.145  1.00  0.00     0.091 A 
ATOM     77  F   UNL     1       5.311  10.550   2.995  1.00  0.00    -0.205 F 
ATOM     78  C   UNL     1       7.518  12.053   0.491  1.00  0.00     0.022 A 
BRANCH  76  79
ATOM     79  S   UNL     1       4.787  12.057   0.348  1.00  0.00     0.127 S 
ATOM     80  O   UNL     1       4.761  13.512   0.470  1.00  0.00    -0.237 OA
ATOM     81  O   UNL     1       5.007  11.554  -1.008  1.00  0.00    -0.237 OA
ATOM     82  O   UNL     1       3.761  11.345   1.097  1.00  0.00    -0.744 OA
ENDBRANCH  76  79
ENDBRANCH  48  72
BRANCH  60  83
ATOM     83  C   UNL     1      10.514  11.616   9.115  1.00  0.00     0.023 A 
ATOM     84  C   UNL     1       9.866  12.824   9.437  1.00  0.00     0.012 A 
ATOM     85  C   UNL     1      11.887  11.470   9.397  1.00  0.00     0.148 A 
ATOM     86  C   UNL     1      10.584  13.886   9.986  1.00  0.00     0.002 A 
ATOM     87  C   UNL     1      12.582  12.511   9.998  1.00  0.00     0.091 A 
ATOM     88  F   UNL     1      12.491  10.319   9.067  1.00  0.00    -0.205 F 
ATOM     89  C   UNL     1      11.937  13.726  10.278  1.00  0.00     0.022 A 
BRANCH  87  90
ATOM     90  S   UNL     1      14.297  12.350  10.506  1.00  0.00     0.127 S 
ATOM     91  O   UNL     1      14.982  13.160   9.500  1.00  0.00    -0.237 OA
ATOM     92  O   UNL     1      14.279  12.932  11.849  1.00  0.00    -0.237 OA
ATOM     93  O   UNL     1      14.593  10.925  10.471  1.00  0.00    -0.744 OA
ENDBRANCH  87  90
ENDBRANCH  60  83
ENDBRANCH  34  35
ENDBRANCH  27  29
ENDBRANCH  26  27
ENDBRANCH  25  26
ENDBRANCH  24  25
ENDBRANCH   1  24
TORSDOF 21
