REMARK SMILES C[C@@]([NH2+]Cc1ccccc1Br)(C(=O)OCCOCCOC(=O)c1ccc(-c2c3nc(c(-c4cccc(S(=O)(=O)[O-])c4F)c4ccc([nH]4)c(-c4cccc(S(=O)(=O)[O-])c4F)c4nc(c(-c5cccc(S(=O)(=O)[O-])c5F)c5ccc2[nH]5)C=C4)C=C3)cc1)C(F)(F)F
REMARK SMILES IDX 17 1 16 2 15 3 14 4 12 5 13 6 2 7 1 8 3 9 4 12 5 13 6 14
REMARK SMILES IDX 10 15 7 16 9 17 11 18 8 19 86 20 87 21 88 22 89 23 18 24
REMARK SMILES IDX 19 25 20 26 21 27 22 28 23 29 24 30 85 31 25 32 84 33 26 34
REMARK SMILES IDX 27 35 28 36 78 37 29 38 83 39 77 40 79 41 30 42 82 43 76 44
REMARK SMILES IDX 75 45 31 47 63 48 43 49 62 50 44 51 47 52 61 53 80 54 45 55
REMARK SMILES IDX 46 56 60 58 81 59 48 60 32 61 33 62 41 63 34 64 36 65 42 66
REMARK SMILES IDX 35 67 37 68 38 69 39 70 40 71 64 72 65 73 73 74 66 75 68 76
REMARK SMILES IDX 74 77 67 78 69 79 70 80 71 81 72 82 49 83 50 84 58 85 51 86
REMARK SMILES IDX 53 87 59 88 52 89 54 90 55 91 56 92 57 93
REMARK H PARENT 3 10 3 11 79 46 47 57
REMARK Flexibility Score: inf
ROOT
ATOM      1  O   UNL     1      -3.397   1.655  -0.053  1.00  0.00    -0.374 OA
ENDROOT
BRANCH   1   2
ATOM      2  C   UNL     1      -3.801   0.357  -0.480  1.00  0.00     0.202 C 
BRANCH   2   3
ATOM      3  C   UNL     1      -3.031  -0.309  -1.625  1.00  0.00     0.261 C 
BRANCH   3   4
ATOM      4  O   UNL     1      -1.626  -0.464  -1.369  1.00  0.00    -0.458 OA
BRANCH   4   5
ATOM      5  C   UNL     1      -0.842   0.512  -1.908  1.00  0.00     0.377 C 
ATOM      6  O   UNL     1      -1.305   1.477  -2.506  1.00  0.00    -0.244 OA
BRANCH   5   7
ATOM      7  C   UNL     1       0.656   0.262  -1.720  1.00  0.00     0.287 C 
ATOM      8  C   UNL     1       0.931  -0.774  -0.602  1.00  0.00     0.103 C 
BRANCH   7   9
ATOM      9  N   UNL     1       1.265  -0.368  -2.948  1.00  0.00    -0.321 N 
ATOM     10  H   UNL     1       1.025  -1.359  -2.930  1.00  0.00     0.347 HD
ATOM     11  H   UNL     1       2.259  -0.148  -2.877  1.00  0.00     0.347 HD
BRANCH   9  12
ATOM     12  C   UNL     1       0.873   0.150  -4.261  1.00  0.00     0.299 C 
BRANCH  12  13
ATOM     13  C   UNL     1       1.358   1.546  -4.569  1.00  0.00     0.020 A 
ATOM     14  C   UNL     1       0.407   2.575  -4.705  1.00  0.00     0.011 A 
ATOM     15  C   UNL     1       2.714   1.884  -4.695  1.00  0.00     0.026 A 
ATOM     16  C   UNL     1       0.795   3.906  -4.856  1.00  0.00     0.001 A 
ATOM     17  C   UNL     1       3.102   3.218  -4.869  1.00  0.00     0.016 A 
ATOM     18  Br  UNL     1       4.096   0.582  -4.634  1.00  0.00    -0.050 Br
ATOM     19  C   UNL     1       2.144   4.229  -4.925  1.00  0.00     0.001 A 
ENDBRANCH  12  13
ENDBRANCH   9  12
ENDBRANCH   7   9
BRANCH   7  20
ATOM     20  C   UNL     1       1.253   1.600  -1.204  1.00  0.00     0.455 C 
ATOM     21  F   UNL     1       0.866   1.863   0.071  1.00  0.00    -0.164 F 
ATOM     22  F   UNL     1       2.612   1.522  -1.176  1.00  0.00    -0.164 F 
ATOM     23  F   UNL     1       0.947   2.691  -1.927  1.00  0.00    -0.164 F 
ENDBRANCH   7  20
ENDBRANCH   5   7
ENDBRANCH   4   5
ENDBRANCH   3   4
ENDBRANCH   2   3
ENDBRANCH   1   2
BRANCH   1  24
ATOM     24  C   UNL     1      -2.217   1.770   0.740  1.00  0.00     0.202 C 
BRANCH  24  25
ATOM     25  C   UNL     1      -2.260   1.264   2.185  1.00  0.00     0.261 C 
BRANCH  25  26
ATOM     26  O   UNL     1      -2.429  -0.162   2.250  1.00  0.00    -0.460 OA
BRANCH  26  27
ATOM     27  C   UNL     1      -3.610  -0.561   2.778  1.00  0.00     0.338 C 
ATOM     28  O   UNL     1      -4.478   0.155   3.264  1.00  0.00    -0.246 OA
BRANCH  27  29
ATOM     29  C   UNL     1      -3.834  -1.991   2.511  1.00  0.00     0.060 A 
ATOM     30  C   UNL     1      -5.044  -2.345   1.898  1.00  0.00     0.016 A 
ATOM     31  C   UNL     1      -2.933  -2.971   2.930  1.00  0.00     0.016 A 
ATOM     32  C   UNL     1      -5.396  -3.684   1.774  1.00  0.00     0.010 A 
ATOM     33  C   UNL     1      -3.293  -4.317   2.813  1.00  0.00     0.010 A 
ATOM     34  C   UNL     1      -4.548  -4.673   2.284  1.00  0.00    -0.014 A 
BRANCH  34  35
ATOM     35  C   UNL     1      -5.068  -6.051   2.441  1.00  0.00     0.031 A 
ATOM     36  C   UNL     1      -5.579  -6.479   3.790  1.00  0.00     0.074 A 
ATOM     37  C   UNL     1      -5.117  -6.893   1.395  1.00  0.00     0.049 A 
ATOM     38  N   UNL     1      -6.087  -7.625   4.158  1.00  0.00    -0.248 NA
ATOM     39  C   UNL     1      -5.505  -5.479   4.869  1.00  0.00     0.031 C 
ATOM     40  C   UNL     1      -4.667  -6.583   0.040  1.00  0.00     0.029 A 
ATOM     41  N   UNL     1      -5.557  -8.190   1.319  1.00  0.00    -0.354 N 
ATOM     42  C   UNL     1      -6.365  -7.497   5.513  1.00  0.00     0.074 A 
ATOM     43  C   UNL     1      -5.957  -6.166   5.907  1.00  0.00     0.031 C 
ATOM     44  C   UNL     1      -4.834  -7.671  -0.732  1.00  0.00     0.029 A 
ATOM     45  C   UNL     1      -5.382  -8.757   0.081  1.00  0.00     0.049 A 
ATOM     46  H   UNL     1      -5.960  -8.668   2.080  1.00  0.00     0.167 HD
ATOM     47  C   UNL     1      -6.927  -8.398   6.353  1.00  0.00     0.034 A 
ATOM     48  C   UNL     1      -5.623 -10.013  -0.342  1.00  0.00     0.034 A 
ATOM     49  C   UNL     1      -7.351  -9.712   5.952  1.00  0.00     0.049 A 
ATOM     50  C   UNL     1      -6.225 -11.007   0.616  1.00  0.00     0.074 A 
ATOM     51  C   UNL     1      -7.974 -10.685   6.713  1.00  0.00     0.029 A 
ATOM     52  N   UNL     1      -7.186 -10.241   4.681  1.00  0.00    -0.354 N 
ATOM     53  N   UNL     1      -6.590 -10.836   1.864  1.00  0.00    -0.248 NA
ATOM     54  C   UNL     1      -6.482 -12.359   0.097  1.00  0.00     0.031 C 
ATOM     55  C   UNL     1      -8.161 -11.814   5.907  1.00  0.00     0.029 A 
ATOM     56  C   UNL     1      -7.681 -11.533   4.638  1.00  0.00     0.049 A 
ATOM     57  H   UNL     1      -6.776  -9.768   3.921  1.00  0.00     0.167 HD
ATOM     58  C   UNL     1      -7.152 -12.042   2.268  1.00  0.00     0.074 A 
ATOM     59  C   UNL     1      -7.094 -12.931   1.125  1.00  0.00     0.031 C 
ATOM     60  C   UNL     1      -7.662 -12.387   3.477  1.00  0.00     0.034 A 
BRANCH  47  61
ATOM     61  C   UNL     1      -7.128  -7.981   7.785  1.00  0.00     0.023 A 
ATOM     62  C   UNL     1      -8.128  -7.040   8.107  1.00  0.00     0.012 A 
ATOM     63  C   UNL     1      -6.349  -8.540   8.817  1.00  0.00     0.148 A 
ATOM     64  C   UNL     1      -8.324  -6.634   9.426  1.00  0.00     0.002 A 
ATOM     65  C   UNL     1      -6.579  -8.162  10.135  1.00  0.00     0.091 A 
ATOM     66  F   UNL     1      -5.384  -9.411   8.490  1.00  0.00    -0.205 F 
ATOM     67  C   UNL     1      -7.557  -7.202  10.440  1.00  0.00     0.022 A 
BRANCH  65  68
ATOM     68  S   UNL     1      -5.691  -8.895  11.514  1.00  0.00     0.127 S 
ATOM     69  O   UNL     1      -4.773  -7.818  11.880  1.00  0.00    -0.237 OA
ATOM     70  O   UNL     1      -6.764  -9.135  12.480  1.00  0.00    -0.237 OA
ATOM     71  O   UNL     1      -5.069 -10.102  10.991  1.00  0.00    -0.744 OA
ENDBRANCH  65  68
ENDBRANCH  47  61
BRANCH  48  72
ATOM     72  C   UNL     1      -5.335 -10.385  -1.756  1.00  0.00     0.023 A 
ATOM     73  C   UNL     1      -6.403 -10.635  -2.639  1.00  0.00     0.012 A 
ATOM     74  C   UNL     1      -4.013 -10.455  -2.237  1.00  0.00     0.148 A 
ATOM     75  C   UNL     1      -6.159 -10.972  -3.971  1.00  0.00     0.002 A 
ATOM     76  C   UNL     1      -3.779 -10.737  -3.578  1.00  0.00     0.091 A 
ATOM     77  F   UNL     1      -3.012 -10.227  -1.376  1.00  0.00    -0.205 F 
ATOM     78  C   UNL     1      -4.850 -11.011  -4.443  1.00  0.00     0.022 A 
BRANCH  76  79
ATOM     79  S   UNL     1      -2.137 -10.685  -4.303  1.00  0.00     0.127 S 
ATOM     80  O   UNL     1      -1.907 -12.091  -4.624  1.00  0.00    -0.237 OA
ATOM     81  O   UNL     1      -2.349  -9.815  -5.460  1.00  0.00    -0.237 OA
ATOM     82  O   UNL     1      -1.270 -10.122  -3.277  1.00  0.00    -0.744 OA
ENDBRANCH  76  79
ENDBRANCH  48  72
BRANCH  60  83
ATOM     83  C   UNL     1      -8.233 -13.773   3.627  1.00  0.00     0.023 A 
ATOM     84  C   UNL     1      -7.371 -14.886   3.688  1.00  0.00     0.012 A 
ATOM     85  C   UNL     1      -9.620 -13.964   3.789  1.00  0.00     0.148 A 
ATOM     86  C   UNL     1      -7.882 -16.169   3.877  1.00  0.00     0.002 A 
ATOM     87  C   UNL     1     -10.118 -15.240   4.026  1.00  0.00     0.091 A 
ATOM     88  F   UNL     1     -10.427 -12.896   3.710  1.00  0.00    -0.205 F 
ATOM     89  C   UNL     1      -9.252 -16.345   4.058  1.00  0.00     0.022 A 
BRANCH  87  90
ATOM     90  S   UNL     1     -11.855 -15.545   4.367  1.00  0.00     0.127 S 
ATOM     91  O   UNL     1     -12.302 -16.155   3.116  1.00  0.00    -0.237 OA
ATOM     92  O   UNL     1     -11.793 -16.463   5.505  1.00  0.00    -0.237 OA
ATOM     93  O   UNL     1     -12.437 -14.245   4.674  1.00  0.00    -0.744 OA
ENDBRANCH  87  90
ENDBRANCH  60  83
ENDBRANCH  34  35
ENDBRANCH  27  29
ENDBRANCH  26  27
ENDBRANCH  25  26
ENDBRANCH  24  25
ENDBRANCH   1  24
TORSDOF 21
