REMARK SMILES O=C(OCCOCCOC(=O)[C@H]1[C@@H]2CC[C@@H](C2)[C@@H]1C(=O)Nc1ccc([N+](=O)[O-])cc1)c1ccc(-c2c3nc(c(-c4cccc(S(=O)(=O)[O-])c4F)c4ccc([nH]4)c(-c4cccc(S(=O)(=O)[O-])c4F)c4nc(c(-c5cccc(S(=O)(=O)[O-])c5F)c5ccc2[nH]5)C=C4)C=C3)cc1
REMARK SMILES IDX 6 1 5 2 4 3 3 4 2 5 1 6 31 7 32 8 93 9 33 10 92 11 34 12
REMARK SMILES IDX 35 13 36 14 86 15 37 16 91 17 85 18 87 19 38 20 90 21 84 22
REMARK SMILES IDX 83 23 39 25 71 26 51 27 70 28 52 29 55 30 69 31 88 32 53 33
REMARK SMILES IDX 54 34 68 36 89 37 56 38 40 39 41 40 49 41 42 42 44 43 50 44
REMARK SMILES IDX 43 45 45 46 46 47 47 48 48 49 72 50 73 51 81 52 74 53 76 54
REMARK SMILES IDX 82 55 75 56 77 57 78 58 79 59 80 60 57 61 58 62 66 63 59 64
REMARK SMILES IDX 61 65 67 66 60 67 62 68 63 69 64 70 65 71 7 72 8 73 9 74
REMARK SMILES IDX 10 75 11 76 12 77 13 78 18 79 14 80 17 81 16 82 15 83 19 84
REMARK SMILES IDX 20 85 21 86 22 88 23 89 30 90 24 91 29 92 25 93 26 94 27 95
REMARK SMILES IDX 28 96
REMARK H PARENT 87 24 55 35 21 87
REMARK Flexibility Score: inf
ROOT
ATOM      1  O   UNL     1       3.990  -0.856  -1.455  1.00  0.00    -0.374 OA
ENDROOT
BRANCH   1   2
ATOM      2  C   UNL     1       4.335  -1.516  -0.230  1.00  0.00     0.202 C 
BRANCH   2   3
ATOM      3  C   UNL     1       4.081  -0.740   1.068  1.00  0.00     0.261 C 
BRANCH   3   4
ATOM      4  O   UNL     1       2.692  -0.386   1.183  1.00  0.00    -0.460 OA
BRANCH   4   5
ATOM      5  C   UNL     1       2.114   0.820   0.971  1.00  0.00     0.338 C 
ATOM      6  O   UNL     1       0.902   0.931   1.149  1.00  0.00    -0.246 OA
BRANCH   5   7
ATOM      7  C   UNL     1       2.880   2.023   0.529  1.00  0.00     0.060 A 
ATOM      8  C   UNL     1       4.050   1.980  -0.233  1.00  0.00     0.016 A 
ATOM      9  C   UNL     1       2.336   3.279   0.836  1.00  0.00     0.016 A 
ATOM     10  C   UNL     1       4.726   3.131  -0.590  1.00  0.00     0.010 A 
ATOM     11  C   UNL     1       2.981   4.451   0.433  1.00  0.00     0.010 A 
ATOM     12  C   UNL     1       4.196   4.370  -0.255  1.00  0.00    -0.014 A 
BRANCH  12  13
ATOM     13  C   UNL     1       5.011   5.555  -0.556  1.00  0.00     0.031 A 
ATOM     14  C   UNL     1       5.745   6.209   0.569  1.00  0.00     0.074 A 
ATOM     15  C   UNL     1       5.174   5.929  -1.837  1.00  0.00     0.049 A 
ATOM     16  N   UNL     1       6.508   7.266   0.550  1.00  0.00    -0.248 NA
ATOM     17  C   UNL     1       5.620   5.577   1.896  1.00  0.00     0.031 C 
ATOM     18  C   UNL     1       4.571   5.260  -2.993  1.00  0.00     0.029 A 
ATOM     19  N   UNL     1       5.904   6.947  -2.383  1.00  0.00    -0.354 N 
ATOM     20  C   UNL     1       6.907   7.460   1.865  1.00  0.00     0.074 A 
ATOM     21  C   UNL     1       6.326   6.400   2.656  1.00  0.00     0.031 C 
ATOM     22  C   UNL     1       4.957   5.888  -4.114  1.00  0.00     0.029 A 
ATOM     23  C   UNL     1       5.776   7.037  -3.749  1.00  0.00     0.049 A 
ATOM     24  H   UNL     1       6.466   7.555  -1.851  1.00  0.00     0.167 HD
ATOM     25  C   UNL     1       7.687   8.447   2.359  1.00  0.00     0.034 A 
ATOM     26  C   UNL     1       6.240   7.976  -4.594  1.00  0.00     0.034 A 
ATOM     27  C   UNL     1       8.250   9.480   1.538  1.00  0.00     0.049 A 
ATOM     28  C   UNL     1       7.057   9.094  -4.009  1.00  0.00     0.074 A 
ATOM     29  C   UNL     1       9.018  10.564   1.916  1.00  0.00     0.029 A 
ATOM     30  N   UNL     1       8.093   9.555   0.159  1.00  0.00    -0.354 N 
ATOM     31  N   UNL     1       7.438   9.272  -2.764  1.00  0.00    -0.248 NA
ATOM     32  C   UNL     1       7.518  10.135  -4.934  1.00  0.00     0.031 C 
ATOM     33  C   UNL     1       9.304  11.308   0.766  1.00  0.00     0.029 A 
ATOM     34  C   UNL     1       8.742  10.671  -0.332  1.00  0.00     0.049 A 
ATOM     35  H   UNL     1       7.593   8.907  -0.388  1.00  0.00     0.167 HD
ATOM     36  C   UNL     1       8.202  10.430  -2.759  1.00  0.00     0.074 A 
ATOM     37  C   UNL     1       8.249  10.898  -4.132  1.00  0.00     0.031 C 
ATOM     38  C   UNL     1       8.797  11.066  -1.718  1.00  0.00     0.034 A 
BRANCH  25  39
ATOM     39  C   UNL     1       7.917   8.460   3.844  1.00  0.00     0.023 A 
ATOM     40  C   UNL     1       8.778   7.514   4.437  1.00  0.00     0.012 A 
ATOM     41  C   UNL     1       7.253   9.396   4.659  1.00  0.00     0.148 A 
ATOM     42  C   UNL     1       8.943   7.475   5.822  1.00  0.00     0.002 A 
ATOM     43  C   UNL     1       7.452   9.377   6.034  1.00  0.00     0.091 A 
ATOM     44  F   UNL     1       6.413  10.266   4.079  1.00  0.00    -0.205 F 
ATOM     45  C   UNL     1       8.286   8.410   6.619  1.00  0.00     0.022 A 
BRANCH  43  46
ATOM     46  S   UNL     1       6.689  10.568   7.140  1.00  0.00     0.127 S 
ATOM     47  O   UNL     1       5.737   9.729   7.867  1.00  0.00    -0.237 OA
ATOM     48  O   UNL     1       7.831  11.023   7.934  1.00  0.00    -0.237 OA
ATOM     49  O   UNL     1       6.096  11.588   6.287  1.00  0.00    -0.744 OA
ENDBRANCH  43  46
ENDBRANCH  25  39
BRANCH  26  50
ATOM     50  C   UNL     1       5.931   7.897  -6.050  1.00  0.00     0.023 A 
ATOM     51  C   UNL     1       6.967   7.674  -6.976  1.00  0.00     0.012 A 
ATOM     52  C   UNL     1       4.606   8.011  -6.522  1.00  0.00     0.148 A 
ATOM     53  C   UNL     1       6.694   7.590  -8.344  1.00  0.00     0.002 A 
ATOM     54  C   UNL     1       4.334   7.871  -7.878  1.00  0.00     0.091 A 
ATOM     55  F   UNL     1       3.632   8.244  -5.631  1.00  0.00    -0.205 F 
ATOM     56  C   UNL     1       5.378   7.677  -8.793  1.00  0.00     0.022 A 
BRANCH  54  57
ATOM     57  S   UNL     1       2.656   7.843  -8.521  1.00  0.00     0.127 S 
ATOM     58  O   UNL     1       2.562   9.149  -9.168  1.00  0.00    -0.237 OA
ATOM     59  O   UNL     1       2.697   6.703  -9.438  1.00  0.00    -0.237 OA
ATOM     60  O   UNL     1       1.796   7.645  -7.362  1.00  0.00    -0.744 OA
ENDBRANCH  54  57
ENDBRANCH  26  50
BRANCH  38  61
ATOM     61  C   UNL     1       9.572  12.314  -2.033  1.00  0.00     0.023 A 
ATOM     62  C   UNL     1       8.886  13.508  -2.326  1.00  0.00     0.012 A 
ATOM     63  C   UNL     1      10.976  12.318  -1.940  1.00  0.00     0.148 A 
ATOM     64  C   UNL     1       9.592  14.688  -2.547  1.00  0.00     0.002 A 
ATOM     65  C   UNL     1      11.669  13.509  -2.109  1.00  0.00     0.091 A 
ATOM     66  F   UNL     1      11.605  11.162  -1.681  1.00  0.00    -0.205 F 
ATOM     67  C   UNL     1      10.980  14.692  -2.424  1.00  0.00     0.022 A 
BRANCH  65  68
ATOM     68  S   UNL     1      13.443  13.624  -1.859  1.00  0.00     0.127 S 
ATOM     69  O   UNL     1      13.931  13.743  -3.231  1.00  0.00    -0.237 OA
ATOM     70  O   UNL     1      13.564  14.843  -1.058  1.00  0.00    -0.237 OA
ATOM     71  O   UNL     1      13.828  12.405  -1.160  1.00  0.00    -0.744 OA
ENDBRANCH  65  68
ENDBRANCH  38  61
ENDBRANCH  12  13
ENDBRANCH   5   7
ENDBRANCH   4   5
ENDBRANCH   3   4
ENDBRANCH   2   3
ENDBRANCH   1   2
BRANCH   1  72
ATOM     72  C   UNL     1       2.585  -0.819  -1.764  1.00  0.00     0.202 C 
BRANCH  72  73
ATOM     73  C   UNL     1       2.358  -1.202  -3.227  1.00  0.00     0.261 C 
BRANCH  73  74
ATOM     74  O   UNL     1       2.827  -2.548  -3.382  1.00  0.00    -0.463 OA
BRANCH  74  75
ATOM     75  C   UNL     1       4.134  -2.620  -3.760  1.00  0.00     0.310 C 
ATOM     76  O   UNL     1       4.689  -1.843  -4.523  1.00  0.00    -0.252 OA
BRANCH  75  77
ATOM     77  C   UNL     1       4.809  -3.731  -2.987  1.00  0.00     0.115 C 
ATOM     78  C   UNL     1       4.324  -5.108  -3.474  1.00  0.00     0.004 C 
ATOM     79  C   UNL     1       6.333  -3.778  -3.210  1.00  0.00     0.096 C 
ATOM     80  C   UNL     1       4.708  -6.145  -2.408  1.00  0.00     0.005 C 
ATOM     81  C   UNL     1       5.312  -5.415  -4.599  1.00  0.00     0.009 C 
ATOM     82  C   UNL     1       6.538  -5.242  -3.696  1.00  0.00     0.003 C 
ATOM     83  C   UNL     1       6.223  -6.289  -2.610  1.00  0.00     0.005 C 
BRANCH  79  84
ATOM     84  C   UNL     1       7.144  -3.429  -1.956  1.00  0.00     0.228 C 
ATOM     85  O   UNL     1       6.898  -3.925  -0.855  1.00  0.00    -0.274 OA
ATOM     86  N   UNL     1       8.267  -2.652  -2.094  1.00  0.00    -0.326 N 
ATOM     87  H   UNL     1       9.012  -2.864  -1.486  1.00  0.00     0.169 HD
BRANCH  86  88
ATOM     88  C   UNL     1       8.490  -1.595  -2.988  1.00  0.00     0.041 A 
ATOM     89  C   UNL     1       9.799  -1.331  -3.400  1.00  0.00     0.033 A 
ATOM     90  C   UNL     1       7.452  -0.762  -3.416  1.00  0.00     0.033 A 
ATOM     91  C   UNL     1      10.049  -0.319  -4.333  1.00  0.00     0.088 A 
ATOM     92  C   UNL     1       7.691   0.264  -4.333  1.00  0.00     0.088 A 
ATOM     93  C   UNL     1       8.988   0.463  -4.813  1.00  0.00     0.269 A 
BRANCH  93  94
ATOM     94  N   UNL     1       9.236   1.474  -5.849  1.00  0.00     0.062 N 
ATOM     95  O   UNL     1      10.388   1.558  -6.301  1.00  0.00    -0.258 OA
ATOM     96  O   UNL     1       8.278   2.155  -6.233  1.00  0.00    -0.258 OA
ENDBRANCH  93  94
ENDBRANCH  86  88
ENDBRANCH  79  84
ENDBRANCH  75  77
ENDBRANCH  74  75
ENDBRANCH  73  74
ENDBRANCH  72  73
ENDBRANCH   1  72
TORSDOF 20
