REMARK SMILES C[C@H](/N=C(\Cc1ccccc1)C(=O)OC(C)(C)C)C(=O)OCCOCCOC(=O)c1ccc(-c2c3nc(c(-c4cccc(S(=O)(=O)[O-])c4F)c4ccc([nH]4)c(-c4cccc(S(=O)(=O)[O-])c4F)c4nc(c(-c5cccc(S(=O)(=O)[O-])c5F)c5ccc2[nH]5)C=C4)C=C3)cc1
REMARK SMILES IDX 23 1 22 2 21 3 19 4 20 5 2 6 1 7 3 8 4 9 5 10 6 11 7 12
REMARK SMILES IDX 11 13 8 14 10 15 9 16 12 17 13 18 14 19 15 20 16 21 17 22
REMARK SMILES IDX 18 23 24 24 25 25 26 26 27 27 28 28 29 29 30 30 31 31 92 32
REMARK SMILES IDX 32 33 91 34 33 35 34 36 35 37 85 38 36 39 90 40 84 41 86 42
REMARK SMILES IDX 37 43 89 44 83 45 82 46 38 48 70 49 50 50 69 51 51 52 54 53
REMARK SMILES IDX 68 54 87 55 52 56 53 57 67 59 88 60 55 61 39 62 40 63 48 64
REMARK SMILES IDX 41 65 43 66 49 67 42 68 44 69 45 70 46 71 47 72 71 73 72 74
REMARK SMILES IDX 80 75 73 76 75 77 81 78 74 79 76 80 77 81 78 82 79 83 56 84
REMARK SMILES IDX 57 85 65 86 58 87 60 88 66 89 59 90 61 91 62 92 63 93 64 94
REMARK H PARENT 86 47 54 58
REMARK Flexibility Score: inf
ROOT
ATOM      1  C   UNL     1      -3.717  -0.438   0.774  1.00  0.00     0.202 C 
ENDROOT
BRANCH   1   2
ATOM      2  C   UNL     1      -2.980   0.251   1.926  1.00  0.00     0.261 C 
BRANCH   2   3
ATOM      3  O   UNL     1      -1.596   0.460   1.601  1.00  0.00    -0.462 OA
BRANCH   3   4
ATOM      4  C   UNL     1      -0.705  -0.110   2.456  1.00  0.00     0.330 C 
ATOM      5  O   UNL     1      -0.994  -0.575   3.555  1.00  0.00    -0.250 OA
BRANCH   4   6
ATOM      6  C   UNL     1       0.713  -0.187   1.892  1.00  0.00     0.212 C 
ATOM      7  C   UNL     1       1.721   0.431   2.842  1.00  0.00     0.046 C 
BRANCH   6   8
ATOM      8  N   UNL     1       0.859   0.201   0.478  1.00  0.00    -0.267 NA
ATOM      9  C   UNL     1       0.930   1.390  -0.017  1.00  0.00     0.125 C 
BRANCH   9  10
ATOM     10  C   UNL     1       0.905   2.693   0.748  1.00  0.00     0.099 C 
BRANCH  10  11
ATOM     11  C   UNL     1       2.274   3.282   1.045  1.00  0.00    -0.042 A 
ATOM     12  C   UNL     1       2.335   4.488   1.758  1.00  0.00     0.004 A 
ATOM     13  C   UNL     1       3.481   2.698   0.624  1.00  0.00     0.004 A 
ATOM     14  C   UNL     1       3.562   5.096   2.031  1.00  0.00     0.000 A 
ATOM     15  C   UNL     1       4.707   3.311   0.890  1.00  0.00     0.000 A 
ATOM     16  C   UNL     1       4.747   4.510   1.594  1.00  0.00     0.000 A 
ENDBRANCH  10  11
ENDBRANCH   9  10
BRANCH   9  17
ATOM     17  C   UNL     1       1.167   1.498  -1.548  1.00  0.00     0.353 C 
ATOM     18  O   UNL     1       1.194   0.520  -2.280  1.00  0.00    -0.245 OA
BRANCH  17  19
ATOM     19  O   UNL     1       1.440   2.769  -1.888  1.00  0.00    -0.455 OA
BRANCH  19  20
ATOM     20  C   UNL     1       1.980   3.132  -3.186  1.00  0.00     0.104 C 
ATOM     21  C   UNL     1       3.352   2.487  -3.409  1.00  0.00     0.056 C 
ATOM     22  C   UNL     1       1.008   2.800  -4.320  1.00  0.00     0.056 C 
ATOM     23  C   UNL     1       2.161   4.657  -3.119  1.00  0.00     0.056 C 
ENDBRANCH  19  20
ENDBRANCH  17  19
ENDBRANCH   9  17
ENDBRANCH   6   8
ENDBRANCH   4   6
ENDBRANCH   3   4
ENDBRANCH   2   3
ENDBRANCH   1   2
BRANCH   1  24
ATOM     24  O   UNL     1      -3.275  -1.748   0.417  1.00  0.00    -0.374 OA
BRANCH  24  25
ATOM     25  C   UNL     1      -2.033  -1.861  -0.281  1.00  0.00     0.202 C 
BRANCH  25  26
ATOM     26  C   UNL     1      -2.008  -1.441  -1.758  1.00  0.00     0.261 C 
BRANCH  26  27
ATOM     27  O   UNL     1      -2.336  -0.056  -1.962  1.00  0.00    -0.460 OA
BRANCH  27  28
ATOM     28  C   UNL     1      -3.525   0.163  -2.574  1.00  0.00     0.338 C 
ATOM     29  O   UNL     1      -4.309  -0.675  -2.995  1.00  0.00    -0.246 OA
BRANCH  28  30
ATOM     30  C   UNL     1      -3.860   1.596  -2.510  1.00  0.00     0.060 A 
ATOM     31  C   UNL     1      -5.079   1.956  -1.921  1.00  0.00     0.016 A 
ATOM     32  C   UNL     1      -3.031   2.566  -3.075  1.00  0.00     0.016 A 
ATOM     33  C   UNL     1      -5.489   3.287  -1.924  1.00  0.00     0.010 A 
ATOM     34  C   UNL     1      -3.448   3.902  -3.085  1.00  0.00     0.010 A 
ATOM     35  C   UNL     1      -4.691   4.264  -2.535  1.00  0.00    -0.014 A 
BRANCH  35  36
ATOM     36  C   UNL     1      -5.211   5.645  -2.690  1.00  0.00     0.031 A 
ATOM     37  C   UNL     1      -5.775   6.078  -4.016  1.00  0.00     0.074 A 
ATOM     38  C   UNL     1      -5.179   6.505  -1.656  1.00  0.00     0.049 A 
ATOM     39  N   UNL     1      -6.260   7.240  -4.367  1.00  0.00    -0.248 NA
ATOM     40  C   UNL     1      -5.794   5.069  -5.088  1.00  0.00     0.031 C 
ATOM     41  C   UNL     1      -4.658   6.203  -0.323  1.00  0.00     0.029 A 
ATOM     42  N   UNL     1      -5.573   7.817  -1.574  1.00  0.00    -0.354 N 
ATOM     43  C   UNL     1      -6.617   7.114  -5.704  1.00  0.00     0.074 A 
ATOM     44  C   UNL     1      -6.286   5.764  -6.105  1.00  0.00     0.031 C 
ATOM     45  C   UNL     1      -4.733   7.310   0.435  1.00  0.00     0.029 A 
ATOM     46  C   UNL     1      -5.288   8.402  -0.363  1.00  0.00     0.049 A 
ATOM     47  H   UNL     1      -6.016   8.294  -2.312  1.00  0.00     0.167 HD
ATOM     48  C   UNL     1      -7.184   8.034  -6.519  1.00  0.00     0.034 A 
ATOM     49  C   UNL     1      -5.437   9.678   0.047  1.00  0.00     0.034 A 
ATOM     50  C   UNL     1      -7.538   9.368  -6.112  1.00  0.00     0.049 A 
ATOM     51  C   UNL     1      -6.054  10.686  -0.888  1.00  0.00     0.074 A 
ATOM     52  C   UNL     1      -8.170  10.352  -6.852  1.00  0.00     0.029 A 
ATOM     53  N   UNL     1      -7.278   9.911  -4.864  1.00  0.00    -0.354 N 
ATOM     54  N   UNL     1      -6.511  10.512  -2.105  1.00  0.00    -0.248 NA
ATOM     55  C   UNL     1      -6.208  12.058  -0.382  1.00  0.00     0.031 C 
ATOM     56  C   UNL     1      -8.270  11.499  -6.058  1.00  0.00     0.029 A 
ATOM     57  C   UNL     1      -7.723  11.221  -4.816  1.00  0.00     0.049 A 
ATOM     58  H   UNL     1      -6.842   9.435  -4.121  1.00  0.00     0.167 HD
ATOM     59  C   UNL     1      -7.035  11.740  -2.495  1.00  0.00     0.074 A 
ATOM     60  C   UNL     1      -6.861  12.643  -1.377  1.00  0.00     0.031 C 
ATOM     61  C   UNL     1      -7.595  12.094  -3.678  1.00  0.00     0.034 A 
BRANCH  48  62
ATOM     62  C   UNL     1      -7.493   7.626  -7.934  1.00  0.00     0.023 A 
ATOM     63  C   UNL     1      -8.591   6.780  -8.191  1.00  0.00     0.012 A 
ATOM     64  C   UNL     1      -6.751   8.145  -9.013  1.00  0.00     0.148 A 
ATOM     65  C   UNL     1      -8.933   6.441  -9.499  1.00  0.00     0.002 A 
ATOM     66  C   UNL     1      -7.123   7.835 -10.315  1.00  0.00     0.091 A 
ATOM     67  F   UNL     1      -5.698   8.930  -8.744  1.00  0.00    -0.205 F 
ATOM     68  C   UNL     1      -8.208   6.977 -10.560  1.00  0.00     0.022 A 
BRANCH  66  69
ATOM     69  S   UNL     1      -6.300   8.533 -11.751  1.00  0.00     0.127 S 
ATOM     70  O   UNL     1      -5.620   7.360 -12.300  1.00  0.00    -0.237 OA
ATOM     71  O   UNL     1      -7.428   9.014 -12.549  1.00  0.00    -0.237 OA
ATOM     72  O   UNL     1      -5.423   9.579 -11.244  1.00  0.00    -0.744 OA
ENDBRANCH  66  69
ENDBRANCH  48  62
BRANCH  49  73
ATOM     73  C   UNL     1      -5.016  10.074   1.421  1.00  0.00     0.023 A 
ATOM     74  C   UNL     1      -5.990  10.441   2.370  1.00  0.00     0.012 A 
ATOM     75  C   UNL     1      -3.658  10.082   1.793  1.00  0.00     0.148 A 
ATOM     76  C   UNL     1      -5.615  10.841   3.654  1.00  0.00     0.002 A 
ATOM     77  C   UNL     1      -3.296  10.425   3.091  1.00  0.00     0.091 A 
ATOM     78  F   UNL     1      -2.743   9.753   0.871  1.00  0.00    -0.205 F 
ATOM     79  C   UNL     1      -4.271  10.823   4.018  1.00  0.00     0.022 A 
BRANCH  77  80
ATOM     80  S   UNL     1      -1.603  10.291   3.674  1.00  0.00     0.127 S 
ATOM     81  O   UNL     1      -1.179  11.688   3.693  1.00  0.00    -0.237 OA
ATOM     82  O   UNL     1      -1.780   9.681   4.992  1.00  0.00    -0.237 OA
ATOM     83  O   UNL     1      -0.928   9.431   2.709  1.00  0.00    -0.744 OA
ENDBRANCH  77  80
ENDBRANCH  49  73
BRANCH  61  84
ATOM     84  C   UNL     1      -8.093  13.508  -3.824  1.00  0.00     0.023 A 
ATOM     85  C   UNL     1      -7.170  14.564  -3.956  1.00  0.00     0.012 A 
ATOM     86  C   UNL     1      -9.473  13.782  -3.907  1.00  0.00     0.148 A 
ATOM     87  C   UNL     1      -7.612  15.875  -4.136  1.00  0.00     0.002 A 
ATOM     88  C   UNL     1      -9.905  15.084  -4.134  1.00  0.00     0.091 A 
ATOM     89  F   UNL     1     -10.337  12.767  -3.761  1.00  0.00    -0.205 F 
ATOM     90  C   UNL     1      -8.977  16.133  -4.237  1.00  0.00     0.022 A 
BRANCH  88  91
ATOM     91  S   UNL     1     -11.638  15.495  -4.371  1.00  0.00     0.127 S 
ATOM     92  O   UNL     1     -11.964  16.153  -3.107  1.00  0.00    -0.237 OA
ATOM     93  O   UNL     1     -11.591  16.388  -5.529  1.00  0.00    -0.237 OA
ATOM     94  O   UNL     1     -12.319  14.230  -4.613  1.00  0.00    -0.744 OA
ENDBRANCH  88  91
ENDBRANCH  61  84
ENDBRANCH  35  36
ENDBRANCH  28  30
ENDBRANCH  27  28
ENDBRANCH  26  27
ENDBRANCH  25  26
ENDBRANCH  24  25
ENDBRANCH   1  24
TORSDOF 23
