REMARK SMILES CS(=O)(=O)c1ccc(N2N=C(C(=O)OCCOCCOC(=O)c3ccc(-c4c5nc(c(-c6cccc(S(=O)(=O)[O-])c6F)c6ccc([nH]6)c(-c6cccc(S(=O)(=O)[O-])c6F)c6nc(c(-c7cccc(S(=O)(=O)[O-])c7F)c7ccc4[nH]7)C=C6)C=C5)cc3)C[C@H]2c2ccco2)cc1
REMARK SMILES IDX 18 1 17 2 16 3 15 4 14 5 12 6 13 7 11 8 9 9 10 10 87 11
REMARK SMILES IDX 86 12 8 13 5 14 6 15 94 16 7 17 93 18 2 19 1 20 3 21 4 22
REMARK SMILES IDX 88 23 89 24 92 25 90 26 91 27 19 28 20 29 21 30 22 31 23 32
REMARK SMILES IDX 24 33 85 34 25 35 84 36 26 37 27 38 28 39 78 40 29 41 83 42
REMARK SMILES IDX 77 43 79 44 30 45 82 46 76 47 75 48 31 50 63 51 43 52 62 53
REMARK SMILES IDX 44 54 47 55 61 56 80 57 45 58 46 59 60 61 81 62 48 63 32 64
REMARK SMILES IDX 33 65 41 66 34 67 36 68 42 69 35 70 37 71 38 72 39 73 40 74
REMARK SMILES IDX 64 75 65 76 73 77 66 78 68 79 74 80 67 81 69 82 70 83 71 84
REMARK SMILES IDX 72 85 49 86 50 87 58 88 51 89 53 90 59 91 52 92 54 93 55 94
REMARK SMILES IDX 56 95 57 96
REMARK H PARENT 79 49 47 60
REMARK Flexibility Score: inf
ROOT
ATOM      1  C   UNL     1       3.847   3.353   8.855  1.00  0.00     0.202 C 
ENDROOT
BRANCH   1   2
ATOM      2  O   UNL     1       5.065   3.862   9.406  1.00  0.00    -0.374 OA
BRANCH   2   3
ATOM      3  C   UNL     1       4.962   5.146  10.036  1.00  0.00     0.202 C 
BRANCH   3   4
ATOM      4  C   UNL     1       5.175   6.284   9.035  1.00  0.00     0.261 C 
BRANCH   4   5
ATOM      5  O   UNL     1       4.008   6.359   8.202  1.00  0.00    -0.459 OA
BRANCH   5   6
ATOM      6  C   UNL     1       4.233   6.467   6.878  1.00  0.00     0.354 C 
ATOM      7  O   UNL     1       5.265   6.748   6.308  1.00  0.00    -0.245 OA
BRANCH   6   8
ATOM      8  C   UNL     1       2.980   6.020   6.169  1.00  0.00     0.148 C 
ATOM      9  N   UNL     1       1.691   5.048   4.808  1.00  0.00    -0.254 N 
ATOM     10  N   UNL     1       2.997   5.194   5.166  1.00  0.00    -0.169 NA
ATOM     11  C   UNL     1       0.804   6.030   5.448  1.00  0.00     0.180 C 
ATOM     12  C   UNL     1       1.628   6.403   6.686  1.00  0.00     0.101 C 
BRANCH   9  13
ATOM     13  C   UNL     1       1.370   4.289   3.698  1.00  0.00     0.060 A 
ATOM     14  C   UNL     1       0.722   2.695   1.478  1.00  0.00     0.067 A 
ATOM     15  C   UNL     1       0.847   2.107   2.737  1.00  0.00     0.022 A 
ATOM     16  C   UNL     1       0.931   4.066   1.314  1.00  0.00     0.022 A 
ATOM     17  C   UNL     1       1.180   2.906   3.835  1.00  0.00     0.029 A 
ATOM     18  C   UNL     1       1.254   4.853   2.423  1.00  0.00     0.029 A 
BRANCH  14  19
ATOM     19  S   UNL     1       0.317   1.710   0.057  1.00  0.00     0.175 S 
ATOM     20  C   UNL     1       1.235   0.204   0.232  1.00  0.00     0.163 C 
ATOM     21  O   UNL     1       0.848   2.390  -1.111  1.00  0.00    -0.224 OA
ATOM     22  O   UNL     1      -1.094   1.392   0.156  1.00  0.00    -0.224 OA
ENDBRANCH  14  19
ENDBRANCH   9  13
BRANCH  11  23
ATOM     23  C   UNL     1       0.440   7.244   4.644  1.00  0.00     0.128 A 
ATOM     24  C   UNL     1      -0.627   7.542   3.819  1.00  0.00     0.048 A 
ATOM     25  O   UNL     1       1.288   8.315   4.701  1.00  0.00    -0.467 OA
ATOM     26  C   UNL     1      -0.423   8.866   3.361  1.00  0.00     0.042 A 
ATOM     27  C   UNL     1       0.750   9.295   3.934  1.00  0.00     0.195 A 
ENDBRANCH  11  23
ENDBRANCH   6   8
ENDBRANCH   5   6
ENDBRANCH   4   5
ENDBRANCH   3   4
ENDBRANCH   2   3
ENDBRANCH   1   2
BRANCH   1  28
ATOM     28  C   UNL     1       3.104   2.429   9.821  1.00  0.00     0.261 C 
BRANCH  28  29
ATOM     29  O   UNL     1       2.586   3.189  10.927  1.00  0.00    -0.460 OA
BRANCH  29  30
ATOM     30  C   UNL     1       3.249   3.028  12.098  1.00  0.00     0.338 C 
ATOM     31  O   UNL     1       4.136   2.219  12.326  1.00  0.00    -0.246 OA
BRANCH  30  32
ATOM     32  C   UNL     1       2.836   4.066  13.072  1.00  0.00     0.060 A 
ATOM     33  C   UNL     1       3.775   4.448  14.037  1.00  0.00     0.016 A 
ATOM     34  C   UNL     1       1.560   4.646  13.069  1.00  0.00     0.016 A 
ATOM     35  C   UNL     1       3.429   5.368  15.025  1.00  0.00     0.010 A 
ATOM     36  C   UNL     1       1.215   5.572  14.061  1.00  0.00     0.010 A 
ATOM     37  C   UNL     1       2.137   5.911  15.062  1.00  0.00    -0.014 A 
BRANCH  37  38
ATOM     38  C   UNL     1       1.750   6.736  16.229  1.00  0.00     0.031 A 
ATOM     39  C   UNL     1       1.116   6.074  17.418  1.00  0.00     0.074 A 
ATOM     40  C   UNL     1       2.006   8.056  16.255  1.00  0.00     0.049 A 
ATOM     41  N   UNL     1       0.909   6.558  18.615  1.00  0.00    -0.248 NA
ATOM     42  C   UNL     1       0.657   4.688  17.238  1.00  0.00     0.031 C 
ATOM     43  C   UNL     1       2.556   8.833  15.147  1.00  0.00     0.029 A 
ATOM     44  N   UNL     1       1.829   8.974  17.259  1.00  0.00    -0.354 N 
ATOM     45  C   UNL     1       0.312   5.534  19.336  1.00  0.00     0.074 A 
ATOM     46  C   UNL     1       0.155   4.413  18.434  1.00  0.00     0.031 C 
ATOM     47  C   UNL     1       2.657  10.119  15.527  1.00  0.00     0.029 A 
ATOM     48  C   UNL     1       2.206  10.248  16.913  1.00  0.00     0.049 A 
ATOM     49  H   UNL     1       1.465   8.742  18.144  1.00  0.00     0.167 HD
ATOM     50  C   UNL     1      -0.035   5.512  20.644  1.00  0.00     0.034 A 
ATOM     51  C   UNL     1       2.213  11.384  17.639  1.00  0.00     0.034 A 
ATOM     52  C   UNL     1       0.141   6.614  21.548  1.00  0.00     0.049 A 
ATOM     53  C   UNL     1       1.850  11.332  19.099  1.00  0.00     0.074 A 
ATOM     54  C   UNL     1      -0.096   6.659  22.910  1.00  0.00     0.029 A 
ATOM     55  N   UNL     1       0.583   7.873  21.176  1.00  0.00    -0.354 N 
ATOM     56  N   UNL     1       1.507  10.296  19.827  1.00  0.00    -0.248 NA
ATOM     57  C   UNL     1       1.927  12.594  19.852  1.00  0.00     0.031 C 
ATOM     58  C   UNL     1       0.204   7.950  23.363  1.00  0.00     0.029 A 
ATOM     59  C   UNL     1       0.613   8.709  22.278  1.00  0.00     0.049 A 
ATOM     60  H   UNL     1       0.838   8.135  20.262  1.00  0.00     0.167 HD
ATOM     61  C   UNL     1       1.354  10.773  21.124  1.00  0.00     0.074 A 
ATOM     62  C   UNL     1       1.660  12.189  21.088  1.00  0.00     0.031 C 
ATOM     63  C   UNL     1       0.976  10.102  22.240  1.00  0.00     0.034 A 
BRANCH  50  64
ATOM     64  C   UNL     1      -0.557   4.216  21.190  1.00  0.00     0.023 A 
ATOM     65  C   UNL     1       0.367   3.215  21.551  1.00  0.00     0.012 A 
ATOM     66  C   UNL     1      -1.932   3.990  21.372  1.00  0.00     0.148 A 
ATOM     67  C   UNL     1      -0.073   2.000  22.075  1.00  0.00     0.002 A 
ATOM     68  C   UNL     1      -2.362   2.782  21.914  1.00  0.00     0.091 A 
ATOM     69  F   UNL     1      -2.800   4.936  20.986  1.00  0.00    -0.205 F 
ATOM     70  C   UNL     1      -1.436   1.786  22.264  1.00  0.00     0.022 A 
BRANCH  68  71
ATOM     71  S   UNL     1      -4.107   2.476  22.207  1.00  0.00     0.127 S 
ATOM     72  O   UNL     1      -4.550   1.984  20.904  1.00  0.00    -0.237 OA
ATOM     73  O   UNL     1      -4.090   1.463  23.264  1.00  0.00    -0.237 OA
ATOM     74  O   UNL     1      -4.643   3.765  22.627  1.00  0.00    -0.744 OA
ENDBRANCH  68  71
ENDBRANCH  50  64
BRANCH  51  75
ATOM     75  C   UNL     1       2.679  12.648  17.007  1.00  0.00     0.023 A 
ATOM     76  C   UNL     1       3.951  13.156  17.329  1.00  0.00     0.012 A 
ATOM     77  C   UNL     1       1.893  13.315  16.049  1.00  0.00     0.148 A 
ATOM     78  C   UNL     1       4.428  14.315  16.714  1.00  0.00     0.002 A 
ATOM     79  C   UNL     1       2.392  14.443  15.407  1.00  0.00     0.091 A 
ATOM     80  F   UNL     1       0.672  12.832  15.775  1.00  0.00    -0.205 F 
ATOM     81  C   UNL     1       3.655  14.951  15.745  1.00  0.00     0.022 A 
BRANCH  79  82
ATOM     82  S   UNL     1       1.496  15.224  14.060  1.00  0.00     0.127 S 
ATOM     83  O   UNL     1       0.765  16.279  14.754  1.00  0.00    -0.237 OA
ATOM     84  O   UNL     1       2.577  15.692  13.191  1.00  0.00    -0.237 OA
ATOM     85  O   UNL     1       0.692  14.156  13.478  1.00  0.00    -0.744 OA
ENDBRANCH  79  82
ENDBRANCH  51  75
BRANCH  63  86
ATOM     86  C   UNL     1       0.859  10.883  23.520  1.00  0.00     0.023 A 
ATOM     87  C   UNL     1      -0.285  11.676  23.735  1.00  0.00     0.012 A 
ATOM     88  C   UNL     1       1.821  10.768  24.541  1.00  0.00     0.148 A 
ATOM     89  C   UNL     1      -0.463  12.354  24.940  1.00  0.00     0.002 A 
ATOM     90  C   UNL     1       1.621  11.423  25.753  1.00  0.00     0.091 A 
ATOM     91  F   UNL     1       2.917  10.028  24.319  1.00  0.00    -0.205 F 
ATOM     92  C   UNL     1       0.484  12.220  25.954  1.00  0.00     0.022 A 
BRANCH  90  93
ATOM     93  S   UNL     1       2.782  11.211  27.109  1.00  0.00     0.127 S 
ATOM     94  O   UNL     1       3.821  12.184  26.780  1.00  0.00    -0.237 OA
ATOM     95  O   UNL     1       1.982  11.552  28.287  1.00  0.00    -0.237 OA
ATOM     96  O   UNL     1       3.170   9.807  27.043  1.00  0.00    -0.744 OA
ENDBRANCH  90  93
ENDBRANCH  63  86
ENDBRANCH  37  38
ENDBRANCH  30  32
ENDBRANCH  29  30
ENDBRANCH  28  29
ENDBRANCH   1  28
TORSDOF 20
