REMARK SMILES C[C@@H](C(=O)OCCOCCOC(=O)c1ccc(-c2c3nc(c(-c4cccc(S(=O)(=O)[O-])c4F)c4ccc([nH]4)c(-c4cccc(S(=O)(=O)[O-])c4F)c4nc(c(-c5cccc(S(=O)(=O)[O-])c5F)c5ccc2[nH]5)C=C4)C=C3)cc1)c1ccc(Cc2ccco2)cc1F
REMARK SMILES IDX 8 1 7 2 6 3 5 4 3 5 4 6 2 7 1 8 77 9 78 10 88 11 79 12 87 13
REMARK SMILES IDX 89 14 80 15 81 16 82 17 83 18 86 19 84 20 85 21 9 22 10 23
REMARK SMILES IDX 11 24 12 25 13 26 14 27 15 28 76 29 16 30 75 31 17 32 18 33
REMARK SMILES IDX 19 34 69 35 20 36 74 37 68 38 70 39 21 40 73 41 67 42 66 43
REMARK SMILES IDX 22 45 54 46 34 47 53 48 35 49 38 50 52 51 71 52 36 53 37 54
REMARK SMILES IDX 51 56 72 57 39 58 23 59 24 60 32 61 25 62 27 63 33 64 26 65
REMARK SMILES IDX 28 66 29 67 30 68 31 69 55 70 56 71 64 72 57 73 59 74 65 75
REMARK SMILES IDX 58 76 60 77 61 78 62 79 63 80 40 81 41 82 49 83 42 84 44 85
REMARK SMILES IDX 50 86 43 87 45 88 46 89 47 90 48 91
REMARK H PARENT 70 44 38 55
REMARK Flexibility Score: inf
ROOT
ATOM      1  O   UNL     1       0.889  -2.325   3.937  1.00  0.00    -0.374 OA
ENDROOT
BRANCH   1   2
ATOM      2  C   UNL     1       2.210  -2.804   3.698  1.00  0.00     0.202 C 
BRANCH   2   3
ATOM      3  C   UNL     1       2.508  -3.426   2.329  1.00  0.00     0.261 C 
BRANCH   3   4
ATOM      4  O   UNL     1       2.112  -2.580   1.238  1.00  0.00    -0.463 OA
BRANCH   4   5
ATOM      5  C   UNL     1       1.021  -3.013   0.545  1.00  0.00     0.313 C 
ATOM      6  O   UNL     1       0.476  -4.090   0.756  1.00  0.00    -0.252 OA
BRANCH   5   7
ATOM      7  C   UNL     1       0.532  -1.993  -0.507  1.00  0.00     0.129 C 
ATOM      8  C   UNL     1       1.383  -0.712  -0.545  1.00  0.00     0.025 C 
BRANCH   7   9
ATOM      9  C   UNL     1      -0.973  -1.740  -0.364  1.00  0.00     0.002 A 
ATOM     10  C   UNL     1      -1.530  -0.491  -0.052  1.00  0.00     0.008 A 
ATOM     11  C   UNL     1      -1.867  -2.805  -0.538  1.00  0.00     0.127 A 
ATOM     12  C   UNL     1      -2.916  -0.339   0.120  1.00  0.00     0.005 A 
ATOM     13  C   UNL     1      -3.237  -2.672  -0.315  1.00  0.00     0.043 A 
ATOM     14  F   UNL     1      -1.421  -3.995  -0.965  1.00  0.00    -0.207 F 
ATOM     15  C   UNL     1      -3.786  -1.434   0.034  1.00  0.00    -0.038 A 
BRANCH  15  16
ATOM     16  C   UNL     1      -5.287  -1.299   0.188  1.00  0.00     0.111 C 
BRANCH  16  17
ATOM     17  C   UNL     1      -5.765  -0.649   1.444  1.00  0.00     0.108 A 
ATOM     18  C   UNL     1      -5.662   0.624   1.971  1.00  0.00     0.046 A 
ATOM     19  O   UNL     1      -6.557  -1.414   2.255  1.00  0.00    -0.469 OA
ATOM     20  C   UNL     1      -6.414   0.630   3.170  1.00  0.00     0.042 A 
ATOM     21  C   UNL     1      -6.942  -0.631   3.296  1.00  0.00     0.195 A 
ENDBRANCH  16  17
ENDBRANCH  15  16
ENDBRANCH   7   9
ENDBRANCH   5   7
ENDBRANCH   4   5
ENDBRANCH   3   4
ENDBRANCH   2   3
ENDBRANCH   1   2
BRANCH   1  22
ATOM     22  C   UNL     1       0.511  -1.087   3.334  1.00  0.00     0.202 C 
BRANCH  22  23
ATOM     23  C   UNL     1       1.165   0.192   3.875  1.00  0.00     0.261 C 
BRANCH  23  24
ATOM     24  O   UNL     1       2.575   0.252   3.590  1.00  0.00    -0.460 OA
BRANCH  24  25
ATOM     25  C   UNL     1       3.375   0.279   4.683  1.00  0.00     0.338 C 
ATOM     26  O   UNL     1       3.019   0.354   5.853  1.00  0.00    -0.246 OA
BRANCH  25  27
ATOM     27  C   UNL     1       4.772   0.005   4.304  1.00  0.00     0.060 A 
ATOM     28  C   UNL     1       5.414  -1.069   4.936  1.00  0.00     0.016 A 
ATOM     29  C   UNL     1       5.471   0.827   3.418  1.00  0.00     0.016 A 
ATOM     30  C   UNL     1       6.773  -1.293   4.726  1.00  0.00     0.010 A 
ATOM     31  C   UNL     1       6.838   0.606   3.216  1.00  0.00     0.010 A 
ATOM     32  C   UNL     1       7.503  -0.430   3.900  1.00  0.00    -0.014 A 
BRANCH  32  33
ATOM     33  C   UNL     1       8.983  -0.524   3.875  1.00  0.00     0.031 A 
ATOM     34  C   UNL     1       9.790   0.438   4.703  1.00  0.00     0.074 A 
ATOM     35  C   UNL     1       9.601  -1.464   3.139  1.00  0.00     0.049 A 
ATOM     36  N   UNL     1      11.088   0.540   4.824  1.00  0.00    -0.248 NA
ATOM     37  C   UNL     1       9.033   1.417   5.502  1.00  0.00     0.031 C 
ATOM     38  C   UNL     1       8.930  -2.454   2.299  1.00  0.00     0.029 A 
ATOM     39  N   UNL     1      10.938  -1.722   2.963  1.00  0.00    -0.354 N 
ATOM     40  C   UNL     1      11.306   1.605   5.690  1.00  0.00     0.074 A 
ATOM     41  C   UNL     1      10.006   2.128   6.053  1.00  0.00     0.031 C 
ATOM     42  C   UNL     1       9.860  -3.194   1.670  1.00  0.00     0.029 A 
ATOM     43  C   UNL     1      11.190  -2.717   2.049  1.00  0.00     0.049 A 
ATOM     44  H   UNL     1      11.648  -1.240   3.445  1.00  0.00     0.167 HD
ATOM     45  C   UNL     1      12.479   2.093   6.157  1.00  0.00     0.034 A 
ATOM     46  C   UNL     1      12.358  -3.177   1.560  1.00  0.00     0.034 A 
ATOM     47  C   UNL     1      13.770   1.561   5.812  1.00  0.00     0.049 A 
ATOM     48  C   UNL     1      13.652  -2.605   2.080  1.00  0.00     0.074 A 
ATOM     49  C   UNL     1      15.014   1.960   6.266  1.00  0.00     0.029 A 
ATOM     50  N   UNL     1      13.984   0.523   4.919  1.00  0.00    -0.354 N 
ATOM     51  N   UNL     1      13.839  -1.679   2.989  1.00  0.00    -0.248 NA
ATOM     52  C   UNL     1      14.896  -3.165   1.532  1.00  0.00     0.031 C 
ATOM     53  C   UNL     1      15.983   1.176   5.631  1.00  0.00     0.029 A 
ATOM     54  C   UNL     1      15.340   0.272   4.800  1.00  0.00     0.049 A 
ATOM     55  H   UNL     1      13.276   0.035   4.441  1.00  0.00     0.167 HD
ATOM     56  C   UNL     1      15.217  -1.569   3.147  1.00  0.00     0.074 A 
ATOM     57  C   UNL     1      15.817  -2.539   2.253  1.00  0.00     0.031 C 
ATOM     58  C   UNL     1      15.922  -0.732   3.947  1.00  0.00     0.034 A 
BRANCH  45  59
ATOM     59  C   UNL     1      12.419   3.246   7.124  1.00  0.00     0.023 A 
ATOM     60  C   UNL     1      11.991   3.021   8.448  1.00  0.00     0.012 A 
ATOM     61  C   UNL     1      12.831   4.537   6.740  1.00  0.00     0.148 A 
ATOM     62  C   UNL     1      11.945   4.068   9.367  1.00  0.00     0.002 A 
ATOM     63  C   UNL     1      12.821   5.567   7.674  1.00  0.00     0.091 A 
ATOM     64  F   UNL     1      13.210   4.737   5.470  1.00  0.00    -0.205 F 
ATOM     65  C   UNL     1      12.370   5.337   8.984  1.00  0.00     0.022 A 
BRANCH  63  66
ATOM     66  S   UNL     1      13.416   7.219   7.295  1.00  0.00     0.127 S 
ATOM     67  O   UNL     1      12.167   7.976   7.236  1.00  0.00    -0.237 OA
ATOM     68  O   UNL     1      14.255   7.519   8.456  1.00  0.00    -0.237 OA
ATOM     69  O   UNL     1      14.141   7.105   6.037  1.00  0.00    -0.744 OA
ENDBRANCH  63  66
ENDBRANCH  45  59
BRANCH  46  70
ATOM     70  C   UNL     1      12.358  -4.263   0.539  1.00  0.00     0.023 A 
ATOM     71  C   UNL     1      12.824  -5.545   0.885  1.00  0.00     0.012 A 
ATOM     72  C   UNL     1      11.877  -4.034  -0.765  1.00  0.00     0.148 A 
ATOM     73  C   UNL     1      12.834  -6.575  -0.058  1.00  0.00     0.002 A 
ATOM     74  C   UNL     1      11.838  -5.078  -1.682  1.00  0.00     0.091 A 
ATOM     75  F   UNL     1      11.457  -2.801  -1.080  1.00  0.00    -0.205 F 
ATOM     76  C   UNL     1      12.331  -6.345  -1.336  1.00  0.00     0.022 A 
BRANCH  74  77
ATOM     77  S   UNL     1      11.088  -4.903  -3.304  1.00  0.00     0.127 S 
ATOM     78  O   UNL     1      12.257  -4.923  -4.179  1.00  0.00    -0.237 OA
ATOM     79  O   UNL     1      10.243  -6.096  -3.377  1.00  0.00    -0.237 OA
ATOM     80  O   UNL     1      10.348  -3.648  -3.261  1.00  0.00    -0.744 OA
ENDBRANCH  74  77
ENDBRANCH  46  70
BRANCH  58  81
ATOM     81  C   UNL     1      17.425  -0.840   3.925  1.00  0.00     0.023 A 
ATOM     82  C   UNL     1      18.145  -0.358   2.814  1.00  0.00     0.012 A 
ATOM     83  C   UNL     1      18.128  -1.344   5.038  1.00  0.00     0.148 A 
ATOM     84  C   UNL     1      19.539  -0.404   2.797  1.00  0.00     0.002 A 
ATOM     85  C   UNL     1      19.518  -1.343   5.034  1.00  0.00     0.091 A 
ATOM     86  F   UNL     1      17.426  -1.815   6.079  1.00  0.00    -0.205 F 
ATOM     87  C   UNL     1      20.225  -0.884   3.910  1.00  0.00     0.022 A 
BRANCH  85  88
ATOM     88  S   UNL     1      20.485  -1.855   6.459  1.00  0.00     0.127 S 
ATOM     89  O   UNL     1      20.996  -3.153   6.022  1.00  0.00    -0.237 OA
ATOM     90  O   UNL     1      21.495  -0.800   6.546  1.00  0.00    -0.237 OA
ATOM     91  O   UNL     1      19.555  -1.893   7.580  1.00  0.00    -0.744 OA
ENDBRANCH  85  88
ENDBRANCH  58  81
ENDBRANCH  32  33
ENDBRANCH  25  27
ENDBRANCH  24  25
ENDBRANCH  23  24
ENDBRANCH  22  23
ENDBRANCH   1  22
TORSDOF 20
