REMARK SMILES CCn1cnc(S(=O)(=O)N[C@H](Cc2cnc[nH]2)C(=O)OCCOCCOC(=O)c2ccc(-c3c4nc(c(-c5cccc(S(=O)(=O)[O-])c5F)c5ccc([nH]5)c(-c5cccc(S(=O)(=O)[O-])c5F)c5nc(c(-c6cccc(S(=O)(=O)[O-])c6F)c6ccc3[nH]6)C=C5)C=C4)cc2)c1
REMARK SMILES IDX 22 1 21 2 20 3 18 4 19 5 11 6 10 7 7 9 8 10 9 11 6 12 3 13
REMARK SMILES IDX 4 14 92 15 5 16 2 17 1 18 12 19 13 20 14 21 17 22 15 23
REMARK SMILES IDX 16 24 23 26 24 27 25 28 26 29 27 30 28 31 29 32 30 33 91 34
REMARK SMILES IDX 31 35 90 36 32 37 33 38 34 39 84 40 35 41 89 42 83 43 85 44
REMARK SMILES IDX 36 45 88 46 82 47 81 48 37 50 69 51 49 52 68 53 50 54 53 55
REMARK SMILES IDX 67 56 86 57 51 58 52 59 66 61 87 62 54 63 38 64 39 65 47 66
REMARK SMILES IDX 40 67 42 68 48 69 41 70 43 71 44 72 45 73 46 74 70 75 71 76
REMARK SMILES IDX 79 77 72 78 74 79 80 80 73 81 75 82 76 83 77 84 78 85 55 86
REMARK SMILES IDX 56 87 64 88 57 89 59 90 65 91 58 92 60 93 61 94 62 95 63 96
REMARK H PARENT 10 8 17 25 85 49 53 60
REMARK Flexibility Score: inf
ROOT
ATOM      1  C   UNL     1      -3.377  -6.515  -5.608  1.00  0.00     0.202 C 
ENDROOT
BRANCH   1   2
ATOM      2  C   UNL     1      -1.888  -6.742  -5.883  1.00  0.00     0.261 C 
BRANCH   2   3
ATOM      3  O   UNL     1      -1.190  -6.765  -4.627  1.00  0.00    -0.462 OA
BRANCH   3   4
ATOM      4  C   UNL     1       0.002  -6.130  -4.581  1.00  0.00     0.324 C 
ATOM      5  O   UNL     1       0.626  -5.757  -5.568  1.00  0.00    -0.250 OA
BRANCH   4   6
ATOM      6  C   UNL     1       0.485  -5.873  -3.146  1.00  0.00     0.185 C 
BRANCH   6   7
ATOM      7  N   UNL     1       1.892  -6.373  -3.039  1.00  0.00    -0.195 NA
ATOM      8  H   UNL     1       1.932  -7.035  -2.265  1.00  0.00     0.142 HD
BRANCH   7   9
ATOM      9  S   UNL     1       3.071  -5.186  -2.771  1.00  0.00     0.260 S 
ATOM     10  O   UNL     1       2.769  -4.064  -3.631  1.00  0.00    -0.205 OA
ATOM     11  O   UNL     1       4.352  -5.854  -2.773  1.00  0.00    -0.205 OA
BRANCH   9  12
ATOM     12  C   UNL     1       2.867  -4.596  -1.141  1.00  0.00     0.188 A 
ATOM     13  N   UNL     1       2.311  -4.470   0.967  1.00  0.00    -0.336 N 
ATOM     14  C   UNL     1       2.646  -3.231   0.496  1.00  0.00     0.201 A 
ATOM     15  C   UNL     1       2.484  -5.361  -0.056  1.00  0.00     0.129 A 
ATOM     16  N   UNL     1       2.966  -3.264  -0.778  1.00  0.00    -0.224 NA
BRANCH  13  17
ATOM     17  C   UNL     1       1.744  -4.779   2.264  1.00  0.00     0.120 C 
ATOM     18  C   UNL     1       2.423  -4.091   3.435  1.00  0.00     0.027 C 
ENDBRANCH  13  17
ENDBRANCH   9  12
ENDBRANCH   7   9
ENDBRANCH   6   7
BRANCH   6  19
ATOM     19  C   UNL     1      -0.367  -6.482  -2.009  1.00  0.00     0.087 C 
BRANCH  19  20
ATOM     20  C   UNL     1      -0.858  -5.514  -0.957  1.00  0.00     0.037 A 
ATOM     21  C   UNL     1      -1.337  -5.771   0.314  1.00  0.00     0.134 A 
ATOM     22  N   UNL     1      -0.973  -4.147  -1.084  1.00  0.00    -0.348 N 
ATOM     23  N   UNL     1      -1.708  -4.616   0.950  1.00  0.00    -0.245 NA
ATOM     24  C   UNL     1      -1.490  -3.658   0.083  1.00  0.00     0.196 A 
ATOM     25  H   UNL     1      -0.726  -3.616  -1.875  1.00  0.00     0.167 HD
ENDBRANCH  19  20
ENDBRANCH   6  19
ENDBRANCH   4   6
ENDBRANCH   3   4
ENDBRANCH   2   3
ENDBRANCH   1   2
BRANCH   1  26
ATOM     26  O   UNL     1      -3.699  -5.215  -5.099  1.00  0.00    -0.374 OA
BRANCH  26  27
ATOM     27  C   UNL     1      -3.442  -4.972  -3.715  1.00  0.00     0.202 C 
BRANCH  27  28
ATOM     28  C   UNL     1      -4.471  -5.530  -2.725  1.00  0.00     0.261 C 
BRANCH  28  29
ATOM     29  O   UNL     1      -4.481  -6.967  -2.716  1.00  0.00    -0.460 OA
BRANCH  29  30
ATOM     30  C   UNL     1      -5.618  -7.522  -3.204  1.00  0.00     0.338 C 
ATOM     31  O   UNL     1      -6.630  -6.936  -3.553  1.00  0.00    -0.246 OA
BRANCH  30  32
ATOM     32  C   UNL     1      -5.418  -8.964  -3.447  1.00  0.00     0.060 A 
ATOM     33  C   UNL     1      -5.796  -9.454  -4.703  1.00  0.00     0.016 A 
ATOM     34  C   UNL     1      -4.949  -9.831  -2.457  1.00  0.00     0.016 A 
ATOM     35  C   UNL     1      -5.768 -10.823  -4.955  1.00  0.00     0.010 A 
ATOM     36  C   UNL     1      -4.929 -11.208  -2.711  1.00  0.00     0.010 A 
ATOM     37  C   UNL     1      -5.380 -11.711  -3.944  1.00  0.00    -0.014 A 
BRANCH  37  38
ATOM     38  C   UNL     1      -5.619 -13.162  -4.132  1.00  0.00     0.031 A 
ATOM     39  C   UNL     1      -6.864 -13.774  -3.549  1.00  0.00     0.074 A 
ATOM     40  C   UNL     1      -4.762 -13.918  -4.841  1.00  0.00     0.049 A 
ATOM     41  N   UNL     1      -7.291 -15.007  -3.619  1.00  0.00    -0.248 NA
ATOM     42  C   UNL     1      -7.746 -12.874  -2.785  1.00  0.00     0.031 C 
ATOM     43  C   UNL     1      -3.526 -13.441  -5.457  1.00  0.00     0.029 A 
ATOM     44  N   UNL     1      -4.798 -15.256  -5.146  1.00  0.00    -0.354 N 
ATOM     45  C   UNL     1      -8.477 -15.038  -2.896  1.00  0.00     0.074 A 
ATOM     46  C   UNL     1      -8.697 -13.704  -2.381  1.00  0.00     0.031 C 
ATOM     47  C   UNL     1      -2.907 -14.478  -6.049  1.00  0.00     0.029 A 
ATOM     48  C   UNL     1      -3.697 -15.691  -5.843  1.00  0.00     0.049 A 
ATOM     49  H   UNL     1      -5.543 -15.847  -4.890  1.00  0.00     0.167 HD
ATOM     50  C   UNL     1      -9.323 -16.077  -2.697  1.00  0.00     0.034 A 
ATOM     51  C   UNL     1      -3.361 -16.930  -6.257  1.00  0.00     0.034 A 
ATOM     52  C   UNL     1      -9.120 -17.396  -3.230  1.00  0.00     0.049 A 
ATOM     53  C   UNL     1      -4.310 -18.073  -6.007  1.00  0.00     0.074 A 
ATOM     54  C   UNL     1      -9.944 -18.502  -3.123  1.00  0.00     0.029 A 
ATOM     55  N   UNL     1      -8.012 -17.790  -3.962  1.00  0.00    -0.354 N 
ATOM     56  N   UNL     1      -5.490 -18.057  -5.436  1.00  0.00    -0.248 NA
ATOM     57  C   UNL     1      -3.896 -19.400  -6.488  1.00  0.00     0.031 C 
ATOM     58  C   UNL     1      -9.325 -19.572  -3.779  1.00  0.00     0.029 A 
ATOM     59  C   UNL     1      -8.122 -19.126  -4.305  1.00  0.00     0.049 A 
ATOM     60  H   UNL     1      -7.257 -17.206  -4.202  1.00  0.00     0.167 HD
ATOM     61  C   UNL     1      -5.973 -19.359  -5.518  1.00  0.00     0.074 A 
ATOM     62  C   UNL     1      -4.966 -20.135  -6.212  1.00  0.00     0.031 C 
ATOM     63  C   UNL     1      -7.137 -19.871  -5.046  1.00  0.00     0.034 A 
BRANCH  50  64
ATOM     64  C   UNL     1     -10.570 -15.813  -1.898  1.00  0.00     0.023 A 
ATOM     65  C   UNL     1     -11.636 -15.109  -2.493  1.00  0.00     0.012 A 
ATOM     66  C   UNL     1     -10.706 -16.298  -0.584  1.00  0.00     0.148 A 
ATOM     67  C   UNL     1     -12.811 -14.869  -1.782  1.00  0.00     0.002 A 
ATOM     68  C   UNL     1     -11.895 -16.085   0.106  1.00  0.00     0.091 A 
ATOM     69  F   UNL     1      -9.669 -16.939  -0.026  1.00  0.00    -0.205 F 
ATOM     70  C   UNL     1     -12.944 -15.365  -0.488  1.00  0.00     0.022 A 
BRANCH  68  71
ATOM     71  S   UNL     1     -12.181 -16.742   1.753  1.00  0.00     0.127 S 
ATOM     72  O   UNL     1     -12.047 -15.541   2.577  1.00  0.00    -0.237 OA
ATOM     73  O   UNL     1     -13.546 -17.260   1.649  1.00  0.00    -0.237 OA
ATOM     74  O   UNL     1     -11.162 -17.762   1.957  1.00  0.00    -0.744 OA
ENDBRANCH  68  71
ENDBRANCH  50  64
BRANCH  51  75
ATOM     75  C   UNL     1      -2.084 -17.144  -6.993  1.00  0.00     0.023 A 
ATOM     76  C   UNL     1      -2.115 -17.464  -8.363  1.00  0.00     0.012 A 
ATOM     77  C   UNL     1      -0.839 -17.007  -6.348  1.00  0.00     0.148 A 
ATOM     78  C   UNL     1      -0.931 -17.668  -9.073  1.00  0.00     0.002 A 
ATOM     79  C   UNL     1       0.337 -17.158  -7.073  1.00  0.00     0.091 A 
ATOM     80  F   UNL     1      -0.829 -16.726  -5.037  1.00  0.00    -0.205 F 
ATOM     81  C   UNL     1       0.294 -17.503  -8.432  1.00  0.00     0.022 A 
BRANCH  79  82
ATOM     82  S   UNL     1       1.951 -16.833  -6.353  1.00  0.00     0.127 S 
ATOM     83  O   UNL     1       2.472 -18.183  -6.162  1.00  0.00    -0.237 OA
ATOM     84  O   UNL     1       2.606 -16.061  -7.409  1.00  0.00    -0.237 OA
ATOM     85  O   UNL     1       1.686 -16.073  -5.138  1.00  0.00    -0.744 OA
ENDBRANCH  79  82
ENDBRANCH  51  75
BRANCH  63  86
ATOM     86  C   UNL     1      -7.405 -21.335  -5.278  1.00  0.00     0.023 A 
ATOM     87  C   UNL     1      -6.717 -22.296  -4.511  1.00  0.00     0.012 A 
ATOM     88  C   UNL     1      -8.396 -21.754  -6.187  1.00  0.00     0.148 A 
ATOM     89  C   UNL     1      -6.993 -23.654  -4.665  1.00  0.00     0.002 A 
ATOM     90  C   UNL     1      -8.696 -23.107  -6.303  1.00  0.00     0.091 A 
ATOM     91  F   UNL     1      -9.025 -20.825  -6.922  1.00  0.00    -0.205 F 
ATOM     92  C   UNL     1      -7.990 -24.058  -5.550  1.00  0.00     0.022 A 
BRANCH  90  93
ATOM     93  S   UNL     1     -10.027 -23.704  -7.352  1.00  0.00     0.127 S 
ATOM     94  O   UNL     1      -9.291 -24.224  -8.502  1.00  0.00    -0.237 OA
ATOM     95  O   UNL     1     -10.652 -24.729  -6.514  1.00  0.00    -0.237 OA
ATOM     96  O   UNL     1     -10.873 -22.547  -7.615  1.00  0.00    -0.744 OA
ENDBRANCH  90  93
ENDBRANCH  63  86
ENDBRANCH  37  38
ENDBRANCH  30  32
ENDBRANCH  29  30
ENDBRANCH  28  29
ENDBRANCH  27  28
ENDBRANCH  26  27
ENDBRANCH   1  26
TORSDOF 23
