REMARK SMILES Cc1c(NC(=O)c2ccccc2NC(=O)[C@@H]2CCCO2)cccc1C(=O)OCCOCCOC(=O)c1ccc(-c2c3nc(c(-c4cccc(S(=O)(=O)[O-])c4F)c4ccc([nH]4)c(-c4cccc(S(=O)(=O)[O-])c4F)c4nc(c(-c5cccc(S(=O)(=O)[O-])c5F)c5ccc2[nH]5)C=C4)C=C3)cc1
REMARK SMILES IDX 29 1 28 2 27 3 25 4 26 5 24 6 1 7 2 8 3 9 21 10 23 11 22 12
REMARK SMILES IDX 4 13 5 14 6 16 7 17 8 18 12 19 9 20 11 21 10 22 13 23 14 24
REMARK SMILES IDX 15 26 16 27 17 28 20 29 18 30 19 31 30 32 31 33 32 34 33 35
REMARK SMILES IDX 34 36 35 37 36 38 37 39 98 40 38 41 97 42 39 43 40 44 41 45
REMARK SMILES IDX 91 46 42 47 96 48 90 49 92 50 43 51 95 52 89 53 88 54 44 56
REMARK SMILES IDX 76 57 56 58 75 59 57 60 60 61 74 62 93 63 58 64 59 65 73 67
REMARK SMILES IDX 94 68 61 69 45 70 46 71 54 72 47 73 49 74 55 75 48 76 50 77
REMARK SMILES IDX 51 78 52 79 53 80 77 81 78 82 86 83 79 84 81 85 87 86 80 87
REMARK SMILES IDX 82 88 83 89 84 90 85 91 62 92 63 93 71 94 64 95 66 96 72 97
REMARK SMILES IDX 65 98 67 99 68 100 69 101 70 102
REMARK H PARENT 4 15 13 25 92 55 60 66
REMARK Flexibility Score: inf
ROOT
ATOM      1  C   UNL     1       0.220   4.040  -1.843  1.00  0.00     0.202 C 
ENDROOT
BRANCH   1   2
ATOM      2  C   UNL     1       1.331   3.309  -1.093  1.00  0.00     0.261 C 
BRANCH   2   3
ATOM      3  O   UNL     1       0.922   2.015  -0.713  1.00  0.00    -0.460 OA
BRANCH   3   4
ATOM      4  C   UNL     1       0.064   2.052   0.327  1.00  0.00     0.338 C 
ATOM      5  O   UNL     1      -0.433   3.028   0.845  1.00  0.00    -0.246 OA
BRANCH   4   6
ATOM      6  C   UNL     1      -0.379   0.676   0.574  1.00  0.00     0.065 A 
ATOM      7  C   UNL     1       1.915  -0.414   0.175  1.00  0.00     0.047 C 
ATOM      8  C   UNL     1       0.437  -0.473   0.493  1.00  0.00    -0.013 A 
ATOM      9  C   UNL     1      -0.212  -1.720   0.584  1.00  0.00     0.045 A 
ATOM     10  C   UNL     1      -1.593  -1.788   0.835  1.00  0.00     0.026 A 
ATOM     11  C   UNL     1      -1.760   0.595   0.795  1.00  0.00     0.016 A 
ATOM     12  C   UNL     1      -2.367  -0.637   0.931  1.00  0.00     0.003 A 
BRANCH   9  13
ATOM     13  N   UNL     1       0.548  -2.884   0.347  1.00  0.00    -0.322 N 
ATOM     14  C   UNL     1       0.203  -4.090  -0.218  1.00  0.00     0.257 C 
ATOM     15  H   UNL     1       1.487  -2.824   0.637  1.00  0.00     0.170 HD
ATOM     16  O   UNL     1       0.981  -5.041  -0.135  1.00  0.00    -0.269 OA
BRANCH  14  17
ATOM     17  C   UNL     1      -1.054  -4.263  -0.994  1.00  0.00     0.063 A 
ATOM     18  C   UNL     1      -1.725  -5.477  -0.770  1.00  0.00     0.016 A 
ATOM     19  C   UNL     1      -1.553  -3.330  -1.937  1.00  0.00     0.054 A 
ATOM     20  C   UNL     1      -2.937  -5.738  -1.395  1.00  0.00     0.001 A 
ATOM     21  C   UNL     1      -2.828  -3.568  -2.455  1.00  0.00     0.027 A 
ATOM     22  C   UNL     1      -3.507  -4.764  -2.201  1.00  0.00     0.002 A 
BRANCH  19  23
ATOM     23  N   UNL     1      -0.724  -2.262  -2.342  1.00  0.00    -0.323 N 
ATOM     24  C   UNL     1      -0.757  -1.280  -3.285  1.00  0.00     0.253 C 
ATOM     25  H   UNL     1       0.096  -2.214  -1.799  1.00  0.00     0.170 HD
ATOM     26  O   UNL     1       0.286  -0.629  -3.411  1.00  0.00    -0.272 OA
BRANCH  24  27
ATOM     27  C   UNL     1      -1.947  -1.056  -4.217  1.00  0.00     0.207 C 
ATOM     28  C   UNL     1      -1.901  -2.098  -5.327  1.00  0.00     0.044 C 
ATOM     29  O   UNL     1      -1.948   0.215  -4.889  1.00  0.00    -0.368 OA
ATOM     30  C   UNL     1      -2.635  -1.417  -6.447  1.00  0.00     0.032 C 
ATOM     31  C   UNL     1      -2.177   0.013  -6.287  1.00  0.00     0.161 C 
ENDBRANCH  24  27
ENDBRANCH  19  23
ENDBRANCH  14  17
ENDBRANCH   9  13
ENDBRANCH   4   6
ENDBRANCH   3   4
ENDBRANCH   2   3
ENDBRANCH   1   2
BRANCH   1  32
ATOM     32  O   UNL     1      -0.391   3.342  -2.905  1.00  0.00    -0.374 OA
BRANCH  32  33
ATOM     33  C   UNL     1       0.500   2.611  -3.738  1.00  0.00     0.202 C 
BRANCH  33  34
ATOM     34  C   UNL     1       1.938   3.162  -4.083  1.00  0.00     0.261 C 
BRANCH  34  35
ATOM     35  O   UNL     1       2.074   4.616  -3.899  1.00  0.00    -0.460 OA
BRANCH  35  36
ATOM     36  C   UNL     1       3.267   5.262  -3.639  1.00  0.00     0.338 C 
ATOM     37  O   UNL     1       4.173   5.383  -4.446  1.00  0.00    -0.246 OA
BRANCH  36  38
ATOM     38  C   UNL     1       3.267   5.934  -2.279  1.00  0.00     0.060 A 
ATOM     39  C   UNL     1       4.369   5.896  -1.424  1.00  0.00     0.016 A 
ATOM     40  C   UNL     1       2.107   6.474  -1.756  1.00  0.00     0.016 A 
ATOM     41  C   UNL     1       4.198   5.924  -0.024  1.00  0.00     0.010 A 
ATOM     42  C   UNL     1       1.898   6.407  -0.377  1.00  0.00     0.010 A 
ATOM     43  C   UNL     1       2.915   5.983   0.495  1.00  0.00    -0.014 A 
BRANCH  43  44
ATOM     44  C   UNL     1       2.501   5.422   1.804  1.00  0.00     0.031 A 
ATOM     45  C   UNL     1       1.673   6.237   2.740  1.00  0.00     0.074 A 
ATOM     46  C   UNL     1       2.575   4.078   2.040  1.00  0.00     0.049 A 
ATOM     47  N   UNL     1       1.353   5.860   3.933  1.00  0.00    -0.248 NA
ATOM     48  C   UNL     1       1.174   7.576   2.432  1.00  0.00     0.031 C 
ATOM     49  C   UNL     1       1.674   3.314   2.915  1.00  0.00     0.029 A 
ATOM     50  N   UNL     1       3.439   3.086   1.549  1.00  0.00    -0.354 N 
ATOM     51  C   UNL     1       0.361   6.700   4.384  1.00  0.00     0.074 A 
ATOM     52  C   UNL     1       0.390   7.823   3.486  1.00  0.00     0.031 C 
ATOM     53  C   UNL     1       2.120   2.062   3.053  1.00  0.00     0.029 A 
ATOM     54  C   UNL     1       3.427   2.000   2.441  1.00  0.00     0.049 A 
ATOM     55  H   UNL     1       3.966   3.142   0.719  1.00  0.00     0.167 HD
ATOM     56  C   UNL     1      -0.450   6.293   5.398  1.00  0.00     0.034 A 
ATOM     57  C   UNL     1       4.508   1.415   3.030  1.00  0.00     0.034 A 
ATOM     58  C   UNL     1       0.044   5.044   6.005  1.00  0.00     0.049 A 
ATOM     59  C   UNL     1       4.511   1.664   4.532  1.00  0.00     0.074 A 
ATOM     60  C   UNL     1      -0.395   3.733   6.005  1.00  0.00     0.029 A 
ATOM     61  N   UNL     1       1.335   5.017   6.534  1.00  0.00    -0.354 N 
ATOM     62  N   UNL     1       3.489   2.138   5.197  1.00  0.00    -0.248 NA
ATOM     63  C   UNL     1       5.663   1.454   5.406  1.00  0.00     0.031 C 
ATOM     64  C   UNL     1       0.698   2.909   6.411  1.00  0.00     0.029 A 
ATOM     65  C   UNL     1       1.784   3.716   6.721  1.00  0.00     0.049 A 
ATOM     66  H   UNL     1       1.863   5.820   6.749  1.00  0.00     0.167 HD
ATOM     67  C   UNL     1       3.895   2.570   6.430  1.00  0.00     0.074 A 
ATOM     68  C   UNL     1       5.222   1.987   6.561  1.00  0.00     0.031 C 
ATOM     69  C   UNL     1       3.158   3.455   7.178  1.00  0.00     0.034 A 
BRANCH  56  70
ATOM     70  C   UNL     1      -1.760   6.958   5.798  1.00  0.00     0.023 A 
ATOM     71  C   UNL     1      -2.342   6.560   7.022  1.00  0.00     0.012 A 
ATOM     72  C   UNL     1      -2.507   7.895   5.033  1.00  0.00     0.148 A 
ATOM     73  C   UNL     1      -3.568   7.071   7.473  1.00  0.00     0.002 A 
ATOM     74  C   UNL     1      -3.689   8.466   5.521  1.00  0.00     0.091 A 
ATOM     75  F   UNL     1      -2.141   8.176   3.778  1.00  0.00    -0.205 F 
ATOM     76  C   UNL     1      -4.230   8.043   6.736  1.00  0.00     0.022 A 
BRANCH  74  77
ATOM     77  S   UNL     1      -4.567   9.785   4.655  1.00  0.00     0.127 S 
ATOM     78  O   UNL     1      -5.799   9.117   4.237  1.00  0.00    -0.237 OA
ATOM     79  O   UNL     1      -4.748  10.786   5.707  1.00  0.00    -0.237 OA
ATOM     80  O   UNL     1      -3.691  10.212   3.570  1.00  0.00    -0.744 OA
ENDBRANCH  74  77
ENDBRANCH  56  70
BRANCH  57  81
ATOM     81  C   UNL     1       5.665   1.240   2.114  1.00  0.00     0.023 A 
ATOM     82  C   UNL     1       5.558   0.163   1.198  1.00  0.00     0.012 A 
ATOM     83  C   UNL     1       6.492   2.326   1.796  1.00  0.00     0.148 A 
ATOM     84  C   UNL     1       6.122   0.242  -0.075  1.00  0.00     0.002 A 
ATOM     85  C   UNL     1       6.999   2.423   0.503  1.00  0.00     0.091 A 
ATOM     86  F   UNL     1       6.610   3.316   2.689  1.00  0.00    -0.205 F 
ATOM     87  C   UNL     1       6.800   1.396  -0.437  1.00  0.00     0.022 A 
BRANCH  85  88
ATOM     88  S   UNL     1       7.575   3.980  -0.177  1.00  0.00     0.127 S 
ATOM     89  O   UNL     1       8.973   3.700  -0.480  1.00  0.00    -0.237 OA
ATOM     90  O   UNL     1       6.708   4.089  -1.345  1.00  0.00    -0.237 OA
ATOM     91  O   UNL     1       7.333   4.970   0.862  1.00  0.00    -0.744 OA
ENDBRANCH  85  88
ENDBRANCH  57  81
BRANCH  69  92
ATOM     92  C   UNL     1       3.702   4.190   8.399  1.00  0.00     0.023 A 
ATOM     93  C   UNL     1       5.084   4.372   8.615  1.00  0.00     0.012 A 
ATOM     94  C   UNL     1       2.836   4.847   9.311  1.00  0.00     0.148 A 
ATOM     95  C   UNL     1       5.584   5.071   9.720  1.00  0.00     0.002 A 
ATOM     96  C   UNL     1       3.338   5.653  10.331  1.00  0.00     0.091 A 
ATOM     97  F   UNL     1       1.509   4.679   9.210  1.00  0.00    -0.205 F 
ATOM     98  C   UNL     1       4.711   5.730  10.569  1.00  0.00     0.022 A 
BRANCH  96  99
ATOM     99  S   UNL     1       2.261   6.756  11.260  1.00  0.00     0.127 S 
ATOM    100  O   UNL     1       1.954   5.957  12.443  1.00  0.00    -0.237 OA
ATOM    101  O   UNL     1       3.131   7.907  11.511  1.00  0.00    -0.237 OA
ATOM    102  O   UNL     1       1.149   7.036  10.362  1.00  0.00    -0.744 OA
ENDBRANCH  96  99
ENDBRANCH  69  92
ENDBRANCH  43  44
ENDBRANCH  36  38
ENDBRANCH  35  36
ENDBRANCH  34  35
ENDBRANCH  33  34
ENDBRANCH  32  33
ENDBRANCH   1  32
TORSDOF 21
