REMARK SMILES CCCc1nn2c(=O)cc(CSc3ccccc3C(=O)OCCOCCOC(=O)c3ccc(-c4c5nc(c(-c6cccc(S(=O)(=O)[O-])c6F)c6ccc([nH]6)c(-c6cccc(S(=O)(=O)[O-])c6F)c6nc(c(-c7cccc(S(=O)(=O)[O-])c7F)c7ccc4[nH]7)C=C6)C=C5)cc3)nc2s1
REMARK SMILES IDX 23 1 22 2 21 3 19 4 20 5 18 6 13 7 14 8 15 9 17 10 16 11
REMARK SMILES IDX 12 12 11 13 10 14 4 15 5 16 95 17 6 18 94 19 7 20 93 21 8 22
REMARK SMILES IDX 9 23 3 24 2 25 1 26 24 27 25 28 26 29 27 30 28 31 29 32
REMARK SMILES IDX 30 33 31 34 92 35 32 36 91 37 33 38 34 39 35 40 85 41 36 42
REMARK SMILES IDX 90 43 84 44 86 45 37 46 89 47 83 48 82 49 38 51 70 52 50 53
REMARK SMILES IDX 69 54 51 55 54 56 68 57 87 58 52 59 53 60 67 62 88 63 55 64
REMARK SMILES IDX 39 65 40 66 48 67 41 68 43 69 49 70 42 71 44 72 45 73 46 74
REMARK SMILES IDX 47 75 71 76 72 77 80 78 73 79 75 80 81 81 74 82 76 83 77 84
REMARK SMILES IDX 78 85 79 86 56 87 57 88 65 89 58 90 60 91 66 92 59 93 61 94
REMARK SMILES IDX 62 95 63 96 64 97
REMARK H PARENT 86 50 54 61
REMARK Flexibility Score: inf
ROOT
ATOM      1  C   UNL     1      -6.135  -5.775   6.397  1.00  0.00     0.202 C 
ENDROOT
BRANCH   1   2
ATOM      2  C   UNL     1      -5.117  -5.287   5.364  1.00  0.00     0.261 C 
BRANCH   2   3
ATOM      3  O   UNL     1      -4.686  -3.968   5.730  1.00  0.00    -0.460 OA
BRANCH   3   4
ATOM      4  C   UNL     1      -4.687  -3.028   4.767  1.00  0.00     0.339 C 
ATOM      5  O   UNL     1      -4.875  -3.223   3.573  1.00  0.00    -0.246 OA
BRANCH   4   6
ATOM      6  C   UNL     1      -4.657  -1.657   5.354  1.00  0.00     0.073 A 
ATOM      7  C   UNL     1      -3.965  -1.259   6.517  1.00  0.00     0.022 A 
ATOM      8  C   UNL     1      -4.045   0.091   6.912  1.00  0.00     0.016 A 
ATOM      9  C   UNL     1      -4.798   1.020   6.189  1.00  0.00     0.001 A 
ATOM     10  C   UNL     1      -5.434  -0.712   4.651  1.00  0.00     0.017 A 
ATOM     11  C   UNL     1      -5.507   0.615   5.067  1.00  0.00     0.001 A 
BRANCH   7  12
ATOM     12  S   UNL     1      -3.061  -2.378   7.589  1.00  0.00    -0.119 SA
BRANCH  12  13
ATOM     13  C   UNL     1      -1.391  -1.641   7.629  1.00  0.00     0.131 C 
BRANCH  13  14
ATOM     14  C   UNL     1      -0.849  -1.339   6.249  1.00  0.00     0.060 A 
ATOM     15  C   UNL     1       0.592  -2.026   1.972  1.00  0.00     0.117 A 
ATOM     16  N   UNL     1       0.654  -0.849   2.509  1.00  0.00    -0.156 NA
ATOM     17  S   UNL     1      -0.056  -3.315   2.956  1.00  0.00    -0.079 S 
ATOM     18  N   UNL     1       0.161  -0.917   3.787  1.00  0.00    -0.167 N 
ATOM     19  C   UNL     1      -0.259  -2.146   4.219  1.00  0.00     0.215 A 
ATOM     20  C   UNL     1       0.058   0.199   4.584  1.00  0.00     0.275 A 
ATOM     21  N   UNL     1      -0.758  -2.405   5.378  1.00  0.00    -0.223 NA
ATOM     22  O   UNL     1       0.331   1.357   4.278  1.00  0.00    -0.267 OA
ATOM     23  C   UNL     1      -0.475  -0.087   5.932  1.00  0.00     0.098 A 
BRANCH  15  24
ATOM     24  C   UNL     1       1.074  -2.334   0.584  1.00  0.00     0.069 C 
BRANCH  24  25
ATOM     25  C   UNL     1       0.521  -1.376  -0.472  1.00  0.00     0.004 C 
ATOM     26  C   UNL     1       1.119   0.025  -0.409  1.00  0.00     0.004 C 
ENDBRANCH  24  25
ENDBRANCH  15  24
ENDBRANCH  13  14
ENDBRANCH  12  13
ENDBRANCH   7  12
ENDBRANCH   4   6
ENDBRANCH   3   4
ENDBRANCH   2   3
ENDBRANCH   1   2
BRANCH   1  27
ATOM     27  O   UNL     1      -7.400  -5.101   6.365  1.00  0.00    -0.374 OA
BRANCH  27  28
ATOM     28  C   UNL     1      -7.450  -3.803   6.959  1.00  0.00     0.202 C 
BRANCH  28  29
ATOM     29  C   UNL     1      -7.628  -3.765   8.482  1.00  0.00     0.261 C 
BRANCH  29  30
ATOM     30  O   UNL     1      -6.507  -4.334   9.179  1.00  0.00    -0.460 OA
BRANCH  30  31
ATOM     31  C   UNL     1      -6.739  -5.547   9.730  1.00  0.00     0.338 C 
ATOM     32  O   UNL     1      -7.806  -6.149   9.766  1.00  0.00    -0.246 OA
BRANCH  31  33
ATOM     33  C   UNL     1      -5.473  -6.163  10.167  1.00  0.00     0.060 A 
ATOM     34  C   UNL     1      -5.218  -7.474   9.747  1.00  0.00     0.016 A 
ATOM     35  C   UNL     1      -4.582  -5.508  11.022  1.00  0.00     0.016 A 
ATOM     36  C   UNL     1      -4.098  -8.153  10.220  1.00  0.00     0.010 A 
ATOM     37  C   UNL     1      -3.460  -6.195  11.500  1.00  0.00     0.010 A 
ATOM     38  C   UNL     1      -3.232  -7.532  11.129  1.00  0.00    -0.014 A 
BRANCH  38  39
ATOM     39  C   UNL     1      -2.154  -8.330  11.763  1.00  0.00     0.031 A 
ATOM     40  C   UNL     1      -2.345  -8.861  13.158  1.00  0.00     0.074 A 
ATOM     41  C   UNL     1      -1.022  -8.601  11.089  1.00  0.00     0.049 A 
ATOM     42  N   UNL     1      -1.552  -9.618  13.870  1.00  0.00    -0.248 NA
ATOM     43  C   UNL     1      -3.595  -8.489  13.841  1.00  0.00     0.031 C 
ATOM     44  C   UNL     1      -0.712  -8.133   9.739  1.00  0.00     0.029 A 
ATOM     45  N   UNL     1       0.084  -9.326  11.457  1.00  0.00    -0.354 N 
ATOM     46  C   UNL     1      -2.193  -9.799  15.090  1.00  0.00     0.074 A 
ATOM     47  C   UNL     1      -3.434  -9.056  15.028  1.00  0.00     0.031 C 
ATOM     48  C   UNL     1       0.514  -8.567   9.398  1.00  0.00     0.029 A 
ATOM     49  C   UNL     1       1.079  -9.332  10.509  1.00  0.00     0.049 A 
ATOM     50  H   UNL     1       0.157  -9.798  12.318  1.00  0.00     0.167 HD
ATOM     51  C   UNL     1      -1.798 -10.534  16.156  1.00  0.00     0.034 A 
ATOM     52  C   UNL     1       2.308  -9.884  10.536  1.00  0.00     0.034 A 
ATOM     53  C   UNL     1      -0.574 -11.290  16.210  1.00  0.00     0.049 A 
ATOM     54  C   UNL     1       2.726 -10.692  11.737  1.00  0.00     0.074 A 
ATOM     55  C   UNL     1      -0.115 -12.113  17.224  1.00  0.00     0.029 A 
ATOM     56  N   UNL     1       0.391 -11.306  15.215  1.00  0.00    -0.354 N 
ATOM     57  N   UNL     1       2.046 -10.973  12.823  1.00  0.00    -0.248 NA
ATOM     58  C   UNL     1       4.068 -11.292  11.700  1.00  0.00     0.031 C 
ATOM     59  C   UNL     1       1.141 -12.607  16.851  1.00  0.00     0.029 A 
ATOM     60  C   UNL     1       1.452 -12.111  15.596  1.00  0.00     0.049 A 
ATOM     61  H   UNL     1       0.331 -10.817  14.363  1.00  0.00     0.167 HD
ATOM     62  C   UNL     1       2.864 -11.803  13.583  1.00  0.00     0.074 A 
ATOM     63  C   UNL     1       4.079 -12.002  12.820  1.00  0.00     0.031 C 
ATOM     64  C   UNL     1       2.638 -12.338  14.809  1.00  0.00     0.034 A 
BRANCH  51  65
ATOM     65  C   UNL     1      -2.718 -10.587  17.347  1.00  0.00     0.023 A 
ATOM     66  C   UNL     1      -3.905 -11.344  17.274  1.00  0.00     0.012 A 
ATOM     67  C   UNL     1      -2.385  -9.938  18.552  1.00  0.00     0.148 A 
ATOM     68  C   UNL     1      -4.761 -11.432  18.372  1.00  0.00     0.002 A 
ATOM     69  C   UNL     1      -3.223 -10.063  19.655  1.00  0.00     0.091 A 
ATOM     70  F   UNL     1      -1.265  -9.204  18.595  1.00  0.00    -0.205 F 
ATOM     71  C   UNL     1      -4.415 -10.800  19.563  1.00  0.00     0.022 A 
BRANCH  69  72
ATOM     72  S   UNL     1      -2.828  -9.348  21.255  1.00  0.00     0.127 S 
ATOM     73  O   UNL     1      -3.780  -8.240  21.325  1.00  0.00    -0.237 OA
ATOM     74  O   UNL     1      -3.114 -10.455  22.168  1.00  0.00    -0.237 OA
ATOM     75  O   UNL     1      -1.425  -8.965  21.187  1.00  0.00    -0.744 OA
ENDBRANCH  69  72
ENDBRANCH  51  65
BRANCH  52  76
ATOM     76  C   UNL     1       3.215  -9.732   9.364  1.00  0.00     0.023 A 
ATOM     77  C   UNL     1       3.511 -10.852   8.563  1.00  0.00     0.012 A 
ATOM     78  C   UNL     1       3.766  -8.480   9.026  1.00  0.00     0.148 A 
ATOM     79  C   UNL     1       4.361 -10.734   7.463  1.00  0.00     0.002 A 
ATOM     80  C   UNL     1       4.568  -8.358   7.897  1.00  0.00     0.091 A 
ATOM     81  F   UNL     1       3.489  -7.431   9.813  1.00  0.00    -0.205 F 
ATOM     82  C   UNL     1       4.880  -9.487   7.124  1.00  0.00     0.022 A 
BRANCH  80  83
ATOM     83  S   UNL     1       5.173  -6.770   7.315  1.00  0.00     0.127 S 
ATOM     84  O   UNL     1       6.596  -6.856   7.635  1.00  0.00    -0.237 OA
ATOM     85  O   UNL     1       4.858  -6.829   5.887  1.00  0.00    -0.237 OA
ATOM     86  O   UNL     1       4.417  -5.767   8.053  1.00  0.00    -0.744 OA
ENDBRANCH  80  83
ENDBRANCH  52  76
BRANCH  64  87
ATOM     87  C   UNL     1       3.719 -13.206  15.402  1.00  0.00     0.023 A 
ATOM     88  C   UNL     1       4.910 -12.614  15.869  1.00  0.00     0.012 A 
ATOM     89  C   UNL     1       3.533 -14.594  15.554  1.00  0.00     0.148 A 
ATOM     90  C   UNL     1       5.914 -13.394  16.442  1.00  0.00     0.002 A 
ATOM     91  C   UNL     1       4.519 -15.359  16.170  1.00  0.00     0.091 A 
ATOM     92  F   UNL     1       2.403 -15.145  15.088  1.00  0.00    -0.205 F 
ATOM     93  C   UNL     1       5.714 -14.763  16.602  1.00  0.00     0.022 A 
BRANCH  91  94
ATOM     94  S   UNL     1       4.306 -17.112  16.501  1.00  0.00     0.127 S 
ATOM     95  O   UNL     1       5.136 -17.715  15.460  1.00  0.00    -0.237 OA
ATOM     96  O   UNL     1       4.839 -17.242  17.857  1.00  0.00    -0.237 OA
ATOM     97  O   UNL     1       2.875 -17.366  16.391  1.00  0.00    -0.744 OA
ENDBRANCH  91  94
ENDBRANCH  64  87
ENDBRANCH  38  39
ENDBRANCH  31  33
ENDBRANCH  30  31
ENDBRANCH  29  30
ENDBRANCH  28  29
ENDBRANCH  27  28
ENDBRANCH   1  27
TORSDOF 22
