REMARK SMILES O=C(OCCOCCOC(=O)c1ccccc1NC(=O)c1cc2cc(Cl)cc(Cl)c2oc1=O)c1ccc(-c2c3nc(c(-c4cccc(S(=O)(=O)[O-])c4F)c4ccc([nH]4)c(-c4cccc(S(=O)(=O)[O-])c4F)c4nc(c(-c5cccc(S(=O)(=O)[O-])c5F)c5ccc2[nH]5)C=C4)C=C3)cc1
REMARK SMILES IDX 5 1 4 2 3 3 2 4 1 5 34 6 35 7 96 8 36 9 95 10 37 11 38 12
REMARK SMILES IDX 39 13 89 14 40 15 94 16 88 17 90 18 41 19 93 20 87 21 86 22
REMARK SMILES IDX 42 24 74 25 54 26 73 27 55 28 58 29 72 30 91 31 56 32 57 33
REMARK SMILES IDX 71 35 92 36 59 37 43 38 44 39 52 40 45 41 47 42 53 43 46 44
REMARK SMILES IDX 48 45 49 46 50 47 51 48 75 49 76 50 84 51 77 52 79 53 85 54
REMARK SMILES IDX 78 55 80 56 81 57 82 58 83 59 60 60 61 61 69 62 62 63 64 64
REMARK SMILES IDX 70 65 63 66 65 67 66 68 67 69 68 70 6 71 7 72 8 73 9 74
REMARK SMILES IDX 10 75 11 76 12 77 13 78 17 79 14 80 16 81 15 82 18 83 19 84
REMARK SMILES IDX 20 86 21 87 22 88 32 89 23 90 31 91 33 92 24 93 30 94 25 95
REMARK SMILES IDX 28 96 26 97 27 98 29 99
REMARK H PARENT 90 23 58 34 18 85
REMARK Flexibility Score: inf
ROOT
ATOM      1  C   UNL     1       4.191  -1.698  -0.284  1.00  0.00     0.202 C 
ENDROOT
BRANCH   1   2
ATOM      2  C   UNL     1       3.854  -1.006   1.039  1.00  0.00     0.261 C 
BRANCH   2   3
ATOM      3  O   UNL     1       2.469  -0.618   1.055  1.00  0.00    -0.460 OA
BRANCH   3   4
ATOM      4  C   UNL     1       1.947   0.629   0.976  1.00  0.00     0.338 C 
ATOM      5  O   UNL     1       0.736   0.769   1.135  1.00  0.00    -0.246 OA
BRANCH   4   6
ATOM      6  C   UNL     1       2.769   1.845   0.692  1.00  0.00     0.060 A 
ATOM      7  C   UNL     1       3.957   1.841  -0.039  1.00  0.00     0.016 A 
ATOM      8  C   UNL     1       2.256   3.084   1.106  1.00  0.00     0.016 A 
ATOM      9  C   UNL     1       4.659   3.003  -0.301  1.00  0.00     0.010 A 
ATOM     10  C   UNL     1       2.932   4.272   0.810  1.00  0.00     0.010 A 
ATOM     11  C   UNL     1       4.146   4.225   0.115  1.00  0.00    -0.014 A 
BRANCH  11  12
ATOM     12  C   UNL     1       4.971   5.417  -0.126  1.00  0.00     0.031 A 
ATOM     13  C   UNL     1       5.725   5.999   1.025  1.00  0.00     0.074 A 
ATOM     14  C   UNL     1       5.127   5.863  -1.385  1.00  0.00     0.049 A 
ATOM     15  N   UNL     1       6.497   7.048   1.057  1.00  0.00    -0.248 NA
ATOM     16  C   UNL     1       5.609   5.293   2.314  1.00  0.00     0.031 C 
ATOM     17  C   UNL     1       4.507   5.266  -2.572  1.00  0.00     0.029 A 
ATOM     18  N   UNL     1       5.865   6.901  -1.882  1.00  0.00    -0.354 N 
ATOM     19  C   UNL     1       6.913   7.164   2.376  1.00  0.00     0.074 A 
ATOM     20  C   UNL     1       6.330   6.065   3.111  1.00  0.00     0.031 C 
ATOM     21  C   UNL     1       4.894   5.949  -3.661  1.00  0.00     0.029 A 
ATOM     22  C   UNL     1       5.731   7.066  -3.240  1.00  0.00     0.049 A 
ATOM     23  H   UNL     1       6.436   7.475  -1.321  1.00  0.00     0.167 HD
ATOM     24  C   UNL     1       7.705   8.116   2.917  1.00  0.00     0.034 A 
ATOM     25  C   UNL     1       6.203   8.041  -4.039  1.00  0.00     0.034 A 
ATOM     26  C   UNL     1       8.271   9.188   2.149  1.00  0.00     0.049 A 
ATOM     27  C   UNL     1       7.035   9.119  -3.399  1.00  0.00     0.074 A 
ATOM     28  C   UNL     1       9.050  10.243   2.580  1.00  0.00     0.029 A 
ATOM     29  N   UNL     1       8.105   9.341   0.778  1.00  0.00    -0.354 N 
ATOM     30  N   UNL     1       7.428   9.224  -2.150  1.00  0.00    -0.248 NA
ATOM     31  C   UNL     1       7.496  10.207  -4.269  1.00  0.00     0.031 C 
ATOM     32  C   UNL     1       9.332  11.050   1.472  1.00  0.00     0.029 A 
ATOM     33  C   UNL     1       8.758  10.478   0.344  1.00  0.00     0.049 A 
ATOM     34  H   UNL     1       7.596   8.727   0.200  1.00  0.00     0.167 HD
ATOM     35  C   UNL     1       8.200  10.375  -2.087  1.00  0.00     0.074 A 
ATOM     36  C   UNL     1       8.241  10.917  -3.433  1.00  0.00     0.031 C 
ATOM     37  C   UNL     1       8.806  10.949  -1.018  1.00  0.00     0.034 A 
BRANCH  24  38
ATOM     38  C   UNL     1       7.943   8.049   4.400  1.00  0.00     0.023 A 
ATOM     39  C   UNL     1       8.790   7.059   4.940  1.00  0.00     0.012 A 
ATOM     40  C   UNL     1       7.297   8.953   5.264  1.00  0.00     0.148 A 
ATOM     41  C   UNL     1       8.957   6.947   6.321  1.00  0.00     0.002 A 
ATOM     42  C   UNL     1       7.500   8.861   6.635  1.00  0.00     0.091 A 
ATOM     43  F   UNL     1       6.472   9.866   4.732  1.00  0.00    -0.205 F 
ATOM     44  C   UNL     1       8.318   7.850   7.167  1.00  0.00     0.022 A 
BRANCH  42  45
ATOM     45  S   UNL     1       6.762  10.008   7.804  1.00  0.00     0.127 S 
ATOM     46  O   UNL     1       5.818   9.143   8.510  1.00  0.00    -0.237 OA
ATOM     47  O   UNL     1       7.920  10.421   8.596  1.00  0.00    -0.237 OA
ATOM     48  O   UNL     1       6.160  11.066   7.005  1.00  0.00    -0.744 OA
ENDBRANCH  42  45
ENDBRANCH  24  38
BRANCH  25  49
ATOM     49  C   UNL     1       5.888   8.047  -5.497  1.00  0.00     0.023 A 
ATOM     50  C   UNL     1       6.921   7.883  -6.439  1.00  0.00     0.012 A 
ATOM     51  C   UNL     1       4.563   8.193  -5.957  1.00  0.00     0.148 A 
ATOM     52  C   UNL     1       6.645   7.893  -7.809  1.00  0.00     0.002 A 
ATOM     53  C   UNL     1       4.287   8.144  -7.318  1.00  0.00     0.091 A 
ATOM     54  F   UNL     1       3.591   8.370  -5.050  1.00  0.00    -0.205 F 
ATOM     55  C   UNL     1       5.328   8.011  -8.248  1.00  0.00     0.022 A 
BRANCH  53  56
ATOM     56  S   UNL     1       2.608   8.163  -7.959  1.00  0.00     0.127 S 
ATOM     57  O   UNL     1       2.524   9.502  -8.537  1.00  0.00    -0.237 OA
ATOM     58  O   UNL     1       2.642   7.072  -8.934  1.00  0.00    -0.237 OA
ATOM     59  O   UNL     1       1.748   7.912  -6.811  1.00  0.00    -0.744 OA
ENDBRANCH  53  56
ENDBRANCH  25  49
BRANCH  37  60
ATOM     60  C   UNL     1       9.589  12.206  -1.270  1.00  0.00     0.023 A 
ATOM     61  C   UNL     1       8.912  13.418  -1.503  1.00  0.00     0.012 A 
ATOM     62  C   UNL     1      10.994  12.196  -1.179  1.00  0.00     0.148 A 
ATOM     63  C   UNL     1       9.627  14.602  -1.669  1.00  0.00     0.002 A 
ATOM     64  C   UNL     1      11.695  13.388  -1.291  1.00  0.00     0.091 A 
ATOM     65  F   UNL     1      11.614  11.024  -0.978  1.00  0.00    -0.205 F 
ATOM     66  C   UNL     1      11.015  14.590  -1.549  1.00  0.00     0.022 A 
BRANCH  64  67
ATOM     67  S   UNL     1      13.470  13.479  -1.038  1.00  0.00     0.127 S 
ATOM     68  O   UNL     1      13.955  13.682  -2.401  1.00  0.00    -0.237 OA
ATOM     69  O   UNL     1      13.598  14.646  -0.164  1.00  0.00    -0.237 OA
ATOM     70  O   UNL     1      13.852  12.218  -0.418  1.00  0.00    -0.744 OA
ENDBRANCH  64  67
ENDBRANCH  37  60
ENDBRANCH  11  12
ENDBRANCH   4   6
ENDBRANCH   3   4
ENDBRANCH   2   3
ENDBRANCH   1   2
BRANCH   1  71
ATOM     71  O   UNL     1       4.019  -0.883  -1.441  1.00  0.00    -0.374 OA
BRANCH  71  72
ATOM     72  C   UNL     1       2.694  -0.806  -1.982  1.00  0.00     0.202 C 
BRANCH  72  73
ATOM     73  C   UNL     1       2.791  -0.889  -3.507  1.00  0.00     0.261 C 
BRANCH  73  74
ATOM     74  O   UNL     1       3.342  -2.180  -3.820  1.00  0.00    -0.460 OA
BRANCH  74  75
ATOM     75  C   UNL     1       4.699  -2.240  -3.797  1.00  0.00     0.340 C 
ATOM     76  O   UNL     1       5.466  -1.323  -4.044  1.00  0.00    -0.246 OA
BRANCH  75  77
ATOM     77  C   UNL     1       5.135  -3.549  -3.229  1.00  0.00     0.083 A 
ATOM     78  C   UNL     1       6.387  -3.546  -2.588  1.00  0.00     0.018 A 
ATOM     79  C   UNL     1       4.364  -4.732  -3.262  1.00  0.00     0.056 A 
ATOM     80  C   UNL     1       6.882  -4.702  -1.991  1.00  0.00     0.001 A 
ATOM     81  C   UNL     1       4.896  -5.896  -2.691  1.00  0.00     0.027 A 
ATOM     82  C   UNL     1       6.144  -5.878  -2.059  1.00  0.00     0.002 A 
BRANCH  79  83
ATOM     83  N   UNL     1       3.031  -4.694  -3.727  1.00  0.00    -0.321 N 
ATOM     84  C   UNL     1       2.156  -5.676  -4.084  1.00  0.00     0.263 C 
ATOM     85  H   UNL     1       2.663  -3.785  -3.808  1.00  0.00     0.170 HD
ATOM     86  O   UNL     1       0.945  -5.476  -3.997  1.00  0.00    -0.269 OA
BRANCH  84  87
ATOM     87  C   UNL     1       2.713  -6.914  -4.720  1.00  0.00     0.126 A 
ATOM     88  C   UNL     1       1.856  -7.921  -5.004  1.00  0.00     0.033 A 
ATOM     89  C   UNL     1       3.513  -6.629  -5.945  1.00  0.00     0.349 A 
ATOM     90  C   UNL     1       0.923  -7.570  -6.100  1.00  0.00     0.021 A 
ATOM     91  O   UNL     1       2.728  -6.234  -7.032  1.00  0.00    -0.421 OA
ATOM     92  O   UNL     1       4.731  -6.730  -5.987  1.00  0.00    -0.245 OA
ATOM     93  C   UNL     1      -0.362  -8.097  -6.187  1.00  0.00     0.032 A 
ATOM     94  C   UNL     1       1.373  -6.654  -7.065  1.00  0.00     0.157 A 
ATOM     95  C   UNL     1      -1.200  -7.669  -7.219  1.00  0.00     0.043 A 
ATOM     96  C   UNL     1       0.523  -6.203  -8.072  1.00  0.00     0.085 A 
ATOM     97  Cl  UNL     1      -2.781  -8.338  -7.356  1.00  0.00    -0.084 Cl
ATOM     98  C   UNL     1      -0.774  -6.713  -8.147  1.00  0.00     0.045 A 
ATOM     99  Cl  UNL     1       1.034  -5.034  -9.226  1.00  0.00    -0.080 Cl
ENDBRANCH  84  87
ENDBRANCH  79  83
ENDBRANCH  75  77
ENDBRANCH  74  75
ENDBRANCH  73  74
ENDBRANCH  72  73
ENDBRANCH  71  72
ENDBRANCH   1  71
TORSDOF 19
