REMARK SMILES C[C@@H](C(=O)OCCOCCOC(=O)c1ccc(-c2c3nc(c(-c4cccc(S(=O)(=O)[O-])c4F)c4ccc([nH]4)c(-c4cccc(S(=O)(=O)[O-])c4F)c4nc(c(-c5cccc(S(=O)(=O)[O-])c5F)c5ccc2[nH]5)C=C4)C=C3)cc1)c1ccc(C[C@H]2CCC[C@@H]2O)cc1F
REMARK SMILES IDX 7 1 6 2 5 3 3 4 4 5 2 6 1 7 77 8 78 9 89 10 79 11 88 12
REMARK SMILES IDX 90 13 80 14 81 15 82 16 83 17 86 18 84 19 85 20 87 21 8 23
REMARK SMILES IDX 9 24 10 25 11 26 12 27 13 28 14 29 15 30 76 31 16 32 75 33
REMARK SMILES IDX 17 34 18 35 19 36 69 37 20 38 74 39 68 40 70 41 21 42 73 43
REMARK SMILES IDX 67 44 66 45 22 47 54 48 34 49 53 50 35 51 38 52 52 53 71 54
REMARK SMILES IDX 36 55 37 56 51 58 72 59 39 60 23 61 24 62 32 63 25 64 27 65
REMARK SMILES IDX 33 66 26 67 28 68 29 69 30 70 31 71 55 72 56 73 64 74 57 75
REMARK SMILES IDX 59 76 65 77 58 78 60 79 61 80 62 81 63 82 40 83 41 84 49 85
REMARK SMILES IDX 42 86 44 87 50 88 43 89 45 90 46 91 47 92 48 93
REMARK H PARENT 87 22 70 46 38 57
REMARK Flexibility Score: inf
ROOT
ATOM      1  C   UNL     1       2.104   3.928  -2.534  1.00  0.00     0.202 C 
ENDROOT
BRANCH   1   2
ATOM      2  C   UNL     1       2.303   4.021  -1.017  1.00  0.00     0.261 C 
BRANCH   2   3
ATOM      3  O   UNL     1       2.038   2.753  -0.401  1.00  0.00    -0.463 OA
BRANCH   3   4
ATOM      4  C   UNL     1       1.358   2.794   0.776  1.00  0.00     0.313 C 
ATOM      5  O   UNL     1       1.180   3.812   1.438  1.00  0.00    -0.252 OA
BRANCH   4   6
ATOM      6  C   UNL     1       0.693   1.452   1.101  1.00  0.00     0.129 C 
ATOM      7  C   UNL     1       1.485   0.273   0.518  1.00  0.00     0.025 C 
BRANCH   6   8
ATOM      8  C   UNL     1      -0.807   1.418   0.787  1.00  0.00     0.002 A 
ATOM      9  C   UNL     1      -1.523   2.565   0.398  1.00  0.00     0.008 A 
ATOM     10  C   UNL     1      -1.553   0.248   0.979  1.00  0.00     0.127 A 
ATOM     11  C   UNL     1      -2.918   2.553   0.283  1.00  0.00     0.004 A 
ATOM     12  C   UNL     1      -2.945   0.230   0.871  1.00  0.00     0.043 A 
ATOM     13  F   UNL     1      -0.949  -0.893   1.336  1.00  0.00    -0.207 F 
ATOM     14  C   UNL     1      -3.649   1.402   0.586  1.00  0.00    -0.045 A 
BRANCH  14  15
ATOM     15  C   UNL     1      -5.154   1.446   0.699  1.00  0.00     0.041 C 
BRANCH  15  16
ATOM     16  C   UNL     1      -5.696   1.999   2.035  1.00  0.00     0.022 C 
ATOM     17  C   UNL     1      -5.191   1.307   3.315  1.00  0.00     0.007 C 
ATOM     18  C   UNL     1      -5.442   3.491   2.283  1.00  0.00     0.117 C 
ATOM     19  C   UNL     1      -4.990   2.416   4.353  1.00  0.00     0.003 C 
ATOM     20  C   UNL     1      -5.683   3.640   3.778  1.00  0.00     0.032 C 
BRANCH  18  21
ATOM     21  O   UNL     1      -6.314   4.307   1.522  1.00  0.00    -0.393 OA
ATOM     22  H   UNL     1      -7.234   4.084   1.734  1.00  0.00     0.210 HD
ENDBRANCH  18  21
ENDBRANCH  15  16
ENDBRANCH  14  15
ENDBRANCH   6   8
ENDBRANCH   4   6
ENDBRANCH   3   4
ENDBRANCH   2   3
ENDBRANCH   1   2
BRANCH   1  23
ATOM     23  O   UNL     1       0.804   3.535  -2.981  1.00  0.00    -0.374 OA
BRANCH  23  24
ATOM     24  C   UNL     1       0.420   2.171  -2.790  1.00  0.00     0.202 C 
BRANCH  24  25
ATOM     25  C   UNL     1       1.115   1.111  -3.654  1.00  0.00     0.261 C 
BRANCH  25  26
ATOM     26  O   UNL     1       2.524   1.000  -3.380  1.00  0.00    -0.460 OA
BRANCH  26  27
ATOM     27  C   UNL     1       3.330   1.298  -4.427  1.00  0.00     0.338 C 
ATOM     28  O   UNL     1       2.981   1.579  -5.568  1.00  0.00    -0.246 OA
BRANCH  27  29
ATOM     29  C   UNL     1       4.729   1.426  -3.985  1.00  0.00     0.060 A 
ATOM     30  C   UNL     1       5.376   2.643  -4.236  1.00  0.00     0.016 A 
ATOM     31  C   UNL     1       5.428   0.350  -3.433  1.00  0.00     0.016 A 
ATOM     32  C   UNL     1       6.739   2.775  -3.982  1.00  0.00     0.010 A 
ATOM     33  C   UNL     1       6.800   0.483  -3.187  1.00  0.00     0.010 A 
ATOM     34  C   UNL     1       7.469   1.682  -3.496  1.00  0.00    -0.014 A 
BRANCH  34  35
ATOM     35  C   UNL     1       8.949   1.760  -3.445  1.00  0.00     0.031 A 
ATOM     36  C   UNL     1       9.756   1.121  -4.543  1.00  0.00     0.074 A 
ATOM     37  C   UNL     1       9.569   2.406  -2.441  1.00  0.00     0.049 A 
ATOM     38  N   UNL     1      11.054   1.064  -4.691  1.00  0.00    -0.248 NA
ATOM     39  C   UNL     1       8.999   0.457  -5.617  1.00  0.00     0.031 C 
ATOM     40  C   UNL     1       8.899   3.067  -1.323  1.00  0.00     0.029 A 
ATOM     41  N   UNL     1      10.906   2.592  -2.192  1.00  0.00    -0.354 N 
ATOM     42  C   UNL     1      11.272   0.342  -5.858  1.00  0.00     0.074 A 
ATOM     43  C   UNL     1       9.972  -0.032  -6.372  1.00  0.00     0.031 C 
ATOM     44  C   UNL     1       9.831   3.559  -0.488  1.00  0.00     0.029 A 
ATOM     45  C   UNL     1      11.159   3.232  -1.002  1.00  0.00     0.049 A 
ATOM     46  H   UNL     1      11.616   2.294  -2.806  1.00  0.00     0.167 HD
ATOM     47  C   UNL     1      12.446   0.034  -6.459  1.00  0.00     0.034 A 
ATOM     48  C   UNL     1      12.328   3.505  -0.389  1.00  0.00     0.034 A 
ATOM     49  C   UNL     1      13.737   0.422  -5.958  1.00  0.00     0.049 A 
ATOM     50  C   UNL     1      13.621   3.134  -1.068  1.00  0.00     0.074 A 
ATOM     51  C   UNL     1      14.981   0.192  -6.518  1.00  0.00     0.029 A 
ATOM     52  N   UNL     1      13.952   1.111  -4.775  1.00  0.00    -0.354 N 
ATOM     53  N   UNL     1      13.808   2.558  -2.231  1.00  0.00    -0.248 NA
ATOM     54  C   UNL     1      14.866   3.482  -0.366  1.00  0.00     0.031 C 
ATOM     55  C   UNL     1      15.951   0.724  -5.661  1.00  0.00     0.029 A 
ATOM     56  C   UNL     1      15.309   1.307  -4.581  1.00  0.00     0.049 A 
ATOM     57  H   UNL     1      13.244   1.416  -4.163  1.00  0.00     0.167 HD
ATOM     58  C   UNL     1      15.186   2.506  -2.416  1.00  0.00     0.074 A 
ATOM     59  C   UNL     1      15.786   3.127  -1.253  1.00  0.00     0.031 C 
ATOM     60  C   UNL     1      15.891   1.977  -3.446  1.00  0.00     0.034 A 
BRANCH  47  61
ATOM     61  C   UNL     1      12.387  -0.738  -7.751  1.00  0.00     0.023 A 
ATOM     62  C   UNL     1      11.963  -0.088  -8.929  1.00  0.00     0.012 A 
ATOM     63  C   UNL     1      12.802  -2.082  -7.814  1.00  0.00     0.148 A 
ATOM     64  C   UNL     1      11.926  -0.773 -10.143  1.00  0.00     0.002 A 
ATOM     65  C   UNL     1      12.800  -2.746  -9.035  1.00  0.00     0.091 A 
ATOM     66  F   UNL     1      13.178  -2.689  -6.679  1.00  0.00    -0.205 F 
ATOM     67  C   UNL     1      12.353  -2.097 -10.198  1.00  0.00     0.022 A 
BRANCH  65  68
ATOM     68  S   UNL     1      13.401  -4.429  -9.223  1.00  0.00     0.127 S 
ATOM     69  O   UNL     1      12.156  -5.164  -9.442  1.00  0.00    -0.237 OA
ATOM     70  O   UNL     1      14.260  -4.320 -10.402  1.00  0.00    -0.237 OA
ATOM     71  O   UNL     1      14.104  -4.743  -7.987  1.00  0.00    -0.744 OA
ENDBRANCH  65  68
ENDBRANCH  47  61
BRANCH  48  72
ATOM     72  C   UNL     1      12.330   4.196   0.931  1.00  0.00     0.023 A 
ATOM     73  C   UNL     1      12.803   5.519   1.027  1.00  0.00     0.012 A 
ATOM     74  C   UNL     1      11.847   3.553   2.088  1.00  0.00     0.148 A 
ATOM     75  C   UNL     1      12.821   6.180   2.256  1.00  0.00     0.002 A 
ATOM     76  C   UNL     1      11.816   4.237   3.298  1.00  0.00     0.091 A 
ATOM     77  F   UNL     1      11.421   2.287   1.981  1.00  0.00    -0.205 F 
ATOM     78  C   UNL     1      12.318   5.544   3.388  1.00  0.00     0.022 A 
BRANCH  76  79
ATOM     79  S   UNL     1      11.067   3.540   4.775  1.00  0.00     0.127 S 
ATOM     80  O   UNL     1      12.239   3.252   5.598  1.00  0.00    -0.237 OA
ATOM     81  O   UNL     1      10.239   4.651   5.247  1.00  0.00    -0.237 OA
ATOM     82  O   UNL     1      10.310   2.381   4.320  1.00  0.00    -0.744 OA
ENDBRANCH  76  79
ENDBRANCH  48  72
BRANCH  60  83
ATOM     83  C   UNL     1      17.395   2.071  -3.390  1.00  0.00     0.023 A 
ATOM     84  C   UNL     1      18.114   1.253  -2.497  1.00  0.00     0.012 A 
ATOM     85  C   UNL     1      18.097   2.911  -4.278  1.00  0.00     0.148 A 
ATOM     86  C   UNL     1      19.508   1.292  -2.467  1.00  0.00     0.002 A 
ATOM     87  C   UNL     1      19.487   2.910  -4.274  1.00  0.00     0.091 A 
ATOM     88  F   UNL     1      17.394   3.696  -5.108  1.00  0.00    -0.205 F 
ATOM     89  C   UNL     1      20.194   2.110  -3.362  1.00  0.00     0.022 A 
BRANCH  87  90
ATOM     90  S   UNL     1      20.453   3.860  -5.454  1.00  0.00     0.127 S 
ATOM     91  O   UNL     1      20.966   4.942  -4.617  1.00  0.00    -0.237 OA
ATOM     92  O   UNL     1      21.462   2.890  -5.883  1.00  0.00    -0.237 OA
ATOM     93  O   UNL     1      19.523   4.264  -6.500  1.00  0.00    -0.744 OA
ENDBRANCH  87  90
ENDBRANCH  60  83
ENDBRANCH  34  35
ENDBRANCH  27  29
ENDBRANCH  26  27
ENDBRANCH  25  26
ENDBRANCH  24  25
ENDBRANCH  23  24
ENDBRANCH   1  23
TORSDOF 21
