REMARK SMILES NS(=O)(=O)c1ccc(-n2nc(C(F)(F)F)cc2-c2ccc(C(=O)OCCOCCOC(=O)c3ccc(-c4c5nc(c(-c6cccc(S(=O)(=O)[O-])c6F)c6ccc([nH]6)c(-c6cccc(S(=O)(=O)[O-])c6F)c6nc(c(-c7cccc(S(=O)(=O)[O-])c7F)c7ccc4[nH]7)C=C6)C=C5)cc3)cc2)cc1
REMARK SMILES IDX 26 1 25 2 24 3 22 4 23 5 21 6 18 7 19 8 97 9 20 10 96 11
REMARK SMILES IDX 17 12 9 13 10 14 11 15 16 16 8 17 5 18 6 19 99 20 7 21 98 22
REMARK SMILES IDX 2 23 3 24 4 25 1 26 12 29 13 30 14 31 15 32 27 33 28 34
REMARK SMILES IDX 29 35 30 36 31 37 32 38 33 39 34 40 95 41 35 42 94 43 36 44
REMARK SMILES IDX 37 45 38 46 88 47 39 48 93 49 87 50 89 51 40 52 92 53 86 54
REMARK SMILES IDX 85 55 41 57 73 58 53 59 72 60 54 61 57 62 71 63 90 64 55 65
REMARK SMILES IDX 56 66 70 68 91 69 58 70 42 71 43 72 51 73 44 74 46 75 52 76
REMARK SMILES IDX 45 77 47 78 48 79 49 80 50 81 74 82 75 83 83 84 76 85 78 86
REMARK SMILES IDX 84 87 77 88 79 89 80 90 81 91 82 92 59 93 60 94 68 95 61 96
REMARK SMILES IDX 63 97 69 98 62 99 64 100 65 101 66 102 67 103
REMARK H PARENT 1 27 1 28 89 56 57 67
REMARK Flexibility Score: inf
ROOT
ATOM      1  C   UNL     1       6.499  -5.768  -2.448  1.00  0.00     0.202 C 
ENDROOT
BRANCH   1   2
ATOM      2  C   UNL     1       6.655  -6.841  -1.369  1.00  0.00     0.261 C 
BRANCH   2   3
ATOM      3  O   UNL     1       5.665  -6.747  -0.336  1.00  0.00    -0.460 OA
BRANCH   3   4
ATOM      4  C   UNL     1       6.138  -6.269   0.839  1.00  0.00     0.338 C 
ATOM      5  O   UNL     1       7.292  -5.958   1.094  1.00  0.00    -0.246 OA
BRANCH   4   6
ATOM      6  C   UNL     1       5.029  -6.000   1.775  1.00  0.00     0.060 A 
ATOM      7  C   UNL     1       3.148  -5.521   3.783  1.00  0.00     0.000 A 
ATOM      8  C   UNL     1       4.197  -4.615   3.571  1.00  0.00     0.011 A 
ATOM      9  C   UNL     1       3.011  -6.631   2.939  1.00  0.00     0.011 A 
ATOM     10  C   UNL     1       5.137  -4.857   2.575  1.00  0.00     0.016 A 
ATOM     11  C   UNL     1       3.943  -6.866   1.923  1.00  0.00     0.016 A 
BRANCH   7  12
ATOM     12  C   UNL     1       2.285  -5.357   4.949  1.00  0.00     0.075 A 
ATOM     13  N   UNL     1       1.583  -4.208   5.290  1.00  0.00    -0.233 N 
ATOM     14  N   UNL     1       1.234  -4.210   6.605  1.00  0.00    -0.163 NA
ATOM     15  C   UNL     1       1.450  -5.477   7.014  1.00  0.00     0.167 A 
ATOM     16  C   UNL     1       2.141  -6.211   6.022  1.00  0.00     0.064 A 
BRANCH  13  17
ATOM     17  C   UNL     1       1.260  -3.113   4.448  1.00  0.00     0.065 A 
ATOM     18  C   UNL     1       0.726  -0.965   2.758  1.00  0.00     0.082 A 
ATOM     19  C   UNL     1       0.636  -2.268   2.263  1.00  0.00     0.024 A 
ATOM     20  C   UNL     1       1.054  -0.730   4.099  1.00  0.00     0.024 A 
ATOM     21  C   UNL     1       0.919  -3.342   3.106  1.00  0.00     0.030 A 
ATOM     22  C   UNL     1       1.290  -1.808   4.957  1.00  0.00     0.030 A 
BRANCH  18  23
ATOM     23  S   UNL     1       0.478   0.410   1.673  1.00  0.00     0.238 S 
ATOM     24  O   UNL     1       1.367   1.481   2.088  1.00  0.00    -0.207 OA
ATOM     25  O   UNL     1      -0.927   0.608   1.468  1.00  0.00    -0.207 OA
BRANCH  23  26
ATOM     26  N   UNL     1       1.116  -0.121   0.208  1.00  0.00    -0.225 NA
ATOM     27  H   UNL     1       1.017   0.615  -0.492  1.00  0.00     0.137 HD
ATOM     28  H   UNL     1       0.613  -0.953  -0.101  1.00  0.00     0.137 HD
ENDBRANCH  23  26
ENDBRANCH  18  23
ENDBRANCH  13  17
BRANCH  15  29
ATOM     29  C   UNL     1       1.052  -5.996   8.369  1.00  0.00     0.435 C 
ATOM     30  F   UNL     1       1.432  -5.179   9.387  1.00  0.00    -0.164 F 
ATOM     31  F   UNL     1      -0.290  -6.180   8.481  1.00  0.00    -0.164 F 
ATOM     32  F   UNL     1       1.624  -7.208   8.627  1.00  0.00    -0.164 F 
ENDBRANCH  15  29
ENDBRANCH   7  12
ENDBRANCH   4   6
ENDBRANCH   3   4
ENDBRANCH   2   3
ENDBRANCH   1   2
BRANCH   1  33
ATOM     33  O   UNL     1       6.610  -4.394  -2.080  1.00  0.00    -0.374 OA
BRANCH  33  34
ATOM     34  C   UNL     1       5.607  -3.780  -1.276  1.00  0.00     0.202 C 
BRANCH  34  35
ATOM     35  C   UNL     1       4.220  -3.569  -1.861  1.00  0.00     0.261 C 
BRANCH  35  36
ATOM     36  O   UNL     1       3.638  -4.792  -2.274  1.00  0.00    -0.460 OA
BRANCH  36  37
ATOM     37  C   UNL     1       3.674  -4.992  -3.610  1.00  0.00     0.338 C 
ATOM     38  O   UNL     1       4.357  -4.400  -4.429  1.00  0.00    -0.246 OA
BRANCH  37  39
ATOM     39  C   UNL     1       2.624  -5.951  -3.955  1.00  0.00     0.060 A 
ATOM     40  C   UNL     1       2.444  -6.185  -5.319  1.00  0.00     0.016 A 
ATOM     41  C   UNL     1       1.627  -6.209  -3.004  1.00  0.00     0.016 A 
ATOM     42  C   UNL     1       1.160  -6.374  -5.764  1.00  0.00     0.010 A 
ATOM     43  C   UNL     1       0.346  -6.361  -3.452  1.00  0.00     0.010 A 
ATOM     44  C   UNL     1       0.126  -6.330  -4.825  1.00  0.00    -0.014 A 
BRANCH  44  45
ATOM     45  C   UNL     1      -1.235  -6.393  -5.297  1.00  0.00     0.031 A 
ATOM     46  C   UNL     1      -1.598  -7.794  -5.595  1.00  0.00     0.074 A 
ATOM     47  C   UNL     1      -2.038  -5.312  -5.308  1.00  0.00     0.049 A 
ATOM     48  N   UNL     1      -1.617  -8.369  -6.753  1.00  0.00    -0.248 NA
ATOM     49  C   UNL     1      -1.623  -8.737  -4.461  1.00  0.00     0.031 C 
ATOM     50  C   UNL     1      -1.792  -3.991  -4.718  1.00  0.00     0.029 A 
ATOM     51  N   UNL     1      -3.319  -5.208  -5.740  1.00  0.00    -0.354 N 
ATOM     52  C   UNL     1      -1.971  -9.684  -6.468  1.00  0.00     0.074 A 
ATOM     53  C   UNL     1      -1.603  -9.906  -5.101  1.00  0.00     0.031 C 
ATOM     54  C   UNL     1      -2.970  -3.334  -4.595  1.00  0.00     0.029 A 
ATOM     55  C   UNL     1      -4.020  -4.128  -5.209  1.00  0.00     0.049 A 
ATOM     56  H   UNL     1      -3.720  -5.843  -6.377  1.00  0.00     0.167 HD
ATOM     57  C   UNL     1      -2.913 -10.319  -7.217  1.00  0.00     0.034 A 
ATOM     58  C   UNL     1      -5.372  -3.980  -5.202  1.00  0.00     0.034 A 
ATOM     59  C   UNL     1      -3.121  -9.624  -8.464  1.00  0.00     0.049 A 
ATOM     60  C   UNL     1      -5.913  -4.924  -6.210  1.00  0.00     0.074 A 
ATOM     61  C   UNL     1      -2.333  -9.271  -9.540  1.00  0.00     0.029 A 
ATOM     62  N   UNL     1      -4.230  -8.815  -8.509  1.00  0.00    -0.354 N 
ATOM     63  N   UNL     1      -5.681  -4.824  -7.489  1.00  0.00    -0.248 NA
ATOM     64  C   UNL     1      -6.318  -6.242  -5.745  1.00  0.00     0.031 C 
ATOM     65  C   UNL     1      -2.808  -7.989  -9.943  1.00  0.00     0.029 A 
ATOM     66  C   UNL     1      -3.911  -7.654  -9.153  1.00  0.00     0.049 A 
ATOM     67  H   UNL     1      -5.114  -9.037  -8.137  1.00  0.00     0.167 HD
ATOM     68  C   UNL     1      -5.453  -6.132  -7.897  1.00  0.00     0.074 A 
ATOM     69  C   UNL     1      -5.964  -6.966  -6.810  1.00  0.00     0.031 C 
ATOM     70  C   UNL     1      -4.592  -6.398  -8.921  1.00  0.00     0.034 A 
BRANCH  57  71
ATOM     71  C   UNL     1      -3.978 -11.246  -6.650  1.00  0.00     0.023 A 
ATOM     72  C   UNL     1      -4.830 -11.868  -7.589  1.00  0.00     0.012 A 
ATOM     73  C   UNL     1      -4.373 -11.325  -5.292  1.00  0.00     0.148 A 
ATOM     74  C   UNL     1      -6.034 -12.468  -7.205  1.00  0.00     0.002 A 
ATOM     75  C   UNL     1      -5.531 -11.987  -4.906  1.00  0.00     0.091 A 
ATOM     76  F   UNL     1      -3.715 -10.656  -4.347  1.00  0.00    -0.205 F 
ATOM     77  C   UNL     1      -6.385 -12.531  -5.863  1.00  0.00     0.022 A 
BRANCH  75  78
ATOM     78  S   UNL     1      -6.008 -12.120  -3.175  1.00  0.00     0.127 S 
ATOM     79  O   UNL     1      -7.184 -11.258  -3.131  1.00  0.00    -0.237 OA
ATOM     80  O   UNL     1      -6.278 -13.553  -3.055  1.00  0.00    -0.237 OA
ATOM     81  O   UNL     1      -4.856 -11.665  -2.405  1.00  0.00    -0.744 OA
ENDBRANCH  75  78
ENDBRANCH  57  71
BRANCH  58  82
ATOM     82  C   UNL     1      -6.261  -3.381  -4.171  1.00  0.00     0.023 A 
ATOM     83  C   UNL     1      -7.589  -3.036  -4.505  1.00  0.00     0.012 A 
ATOM     84  C   UNL     1      -5.919  -3.439  -2.802  1.00  0.00     0.148 A 
ATOM     85  C   UNL     1      -8.548  -2.790  -3.512  1.00  0.00     0.002 A 
ATOM     86  C   UNL     1      -6.874  -3.192  -1.819  1.00  0.00     0.091 A 
ATOM     87  F   UNL     1      -4.684  -3.830  -2.465  1.00  0.00    -0.205 F 
ATOM     88  C   UNL     1      -8.193  -2.878  -2.169  1.00  0.00     0.022 A 
BRANCH  86  89
ATOM     89  S   UNL     1      -6.500  -3.331  -0.064  1.00  0.00     0.127 S 
ATOM     90  O   UNL     1      -6.975  -2.044   0.445  1.00  0.00    -0.237 OA
ATOM     91  O   UNL     1      -7.311  -4.481   0.326  1.00  0.00    -0.237 OA
ATOM     92  O   UNL     1      -5.058  -3.521   0.022  1.00  0.00    -0.744 OA
ENDBRANCH  86  89
ENDBRANCH  58  82
BRANCH  70  93
ATOM     93  C   UNL     1      -4.158  -5.251  -9.796  1.00  0.00     0.023 A 
ATOM     94  C   UNL     1      -3.294  -4.224  -9.361  1.00  0.00     0.012 A 
ATOM     95  C   UNL     1      -4.483  -5.343 -11.157  1.00  0.00     0.148 A 
ATOM     96  C   UNL     1      -2.766  -3.308 -10.279  1.00  0.00     0.002 A 
ATOM     97  C   UNL     1      -3.913  -4.470 -12.070  1.00  0.00     0.091 A 
ATOM     98  F   UNL     1      -5.312  -6.327 -11.540  1.00  0.00    -0.205 F 
ATOM     99  C   UNL     1      -3.060  -3.444 -11.636  1.00  0.00     0.022 A 
BRANCH  97 100
ATOM    100  S   UNL     1      -4.139  -4.694 -13.834  1.00  0.00     0.127 S 
ATOM    101  O   UNL     1      -4.989  -3.557 -14.178  1.00  0.00    -0.237 OA
ATOM    102  O   UNL     1      -2.767  -4.609 -14.335  1.00  0.00    -0.237 OA
ATOM    103  O   UNL     1      -4.754  -6.005 -14.000  1.00  0.00    -0.744 OA
ENDBRANCH  97 100
ENDBRANCH  70  93
ENDBRANCH  44  45
ENDBRANCH  37  39
ENDBRANCH  36  37
ENDBRANCH  35  36
ENDBRANCH  34  35
ENDBRANCH  33  34
ENDBRANCH   1  33
TORSDOF 22
