REMARK SMILES CCOc1cc(OCC)cc(-c2ccc([C@@H](C)C(=O)OCCOCCOC(=O)c3ccc(-c4c5nc(c(-c6cccc(S(=O)(=O)[O-])c6F)c6ccc([nH]6)c(-c6cccc(S(=O)(=O)[O-])c6F)c6nc(c(-c7cccc(S(=O)(=O)[O-])c7F)c7ccc4[nH]7)C=C6)C=C5)cc3)cc2F)c1
REMARK SMILES IDX 22 1 21 2 20 3 18 4 19 5 16 6 17 7 15 8 12 9 13 10 93 11
REMARK SMILES IDX 14 12 92 13 94 14 11 15 4 16 5 17 95 18 6 19 10 20 3 21 2 22
REMARK SMILES IDX 1 23 7 24 8 25 9 26 23 27 24 28 25 29 26 30 27 31 28 32
REMARK SMILES IDX 29 33 30 34 91 35 31 36 90 37 32 38 33 39 34 40 84 41 35 42
REMARK SMILES IDX 89 43 83 44 85 45 36 46 88 47 82 48 81 49 37 51 69 52 49 53
REMARK SMILES IDX 68 54 50 55 53 56 67 57 86 58 51 59 52 60 66 62 87 63 54 64
REMARK SMILES IDX 38 65 39 66 47 67 40 68 42 69 48 70 41 71 43 72 44 73 45 74
REMARK SMILES IDX 46 75 70 76 71 77 79 78 72 79 74 80 80 81 73 82 75 83 76 84
REMARK SMILES IDX 77 85 78 86 55 87 56 88 64 89 57 90 59 91 65 92 58 93 60 94
REMARK SMILES IDX 61 95 62 96 63 97
REMARK H PARENT 85 50 53 61
REMARK Flexibility Score: inf
ROOT
ATOM      1  C   UNL     1       7.544  -4.923   0.786  1.00  0.00     0.202 C 
ENDROOT
BRANCH   1   2
ATOM      2  C   UNL     1       8.838  -4.625   0.024  1.00  0.00     0.261 C 
BRANCH   2   3
ATOM      3  O   UNL     1       8.697  -3.443  -0.785  1.00  0.00    -0.463 OA
BRANCH   3   4
ATOM      4  C   UNL     1       8.816  -3.612  -2.127  1.00  0.00     0.313 C 
ATOM      5  O   UNL     1       9.157  -4.659  -2.670  1.00  0.00    -0.252 OA
BRANCH   4   6
ATOM      6  C   UNL     1       8.511  -2.355  -2.928  1.00  0.00     0.126 C 
ATOM      7  C   UNL     1       9.813  -1.629  -3.252  1.00  0.00     0.025 C 
BRANCH   6   8
ATOM      8  C   UNL     1       7.456  -1.405  -2.373  1.00  0.00    -0.031 A 
ATOM      9  C   UNL     1       5.538   0.528  -1.523  1.00  0.00     0.018 A 
ATOM     10  C   UNL     1       6.717   0.299  -0.794  1.00  0.00     0.012 A 
ATOM     11  C   UNL     1       5.319  -0.269  -2.652  1.00  0.00     0.131 A 
ATOM     12  C   UNL     1       7.662  -0.647  -1.212  1.00  0.00     0.005 A 
ATOM     13  C   UNL     1       6.254  -1.218  -3.074  1.00  0.00     0.044 A 
ATOM     14  F   UNL     1       4.211  -0.110  -3.392  1.00  0.00    -0.206 F 
BRANCH   9  15
ATOM     15  C   UNL     1       4.612   1.605  -1.136  1.00  0.00    -0.008 A 
ATOM     16  C   UNL     1       2.390   2.410  -0.578  1.00  0.00     0.123 A 
ATOM     17  C   UNL     1       2.885   3.701  -0.402  1.00  0.00     0.092 A 
ATOM     18  C   UNL     1       3.241   1.375  -0.965  1.00  0.00     0.055 A 
ATOM     19  C   UNL     1       4.240   3.965  -0.600  1.00  0.00     0.123 A 
ATOM     20  C   UNL     1       5.092   2.916  -0.955  1.00  0.00     0.055 A 
BRANCH  16  21
ATOM     21  O   UNL     1       1.038   2.219  -0.490  1.00  0.00    -0.494 OA
BRANCH  21  22
ATOM     22  C   UNL     1       0.648   1.409   0.626  1.00  0.00     0.226 C 
ATOM     23  C   UNL     1       0.478  -0.047   0.222  1.00  0.00     0.049 C 
ENDBRANCH  21  22
ENDBRANCH  16  21
BRANCH  19  24
ATOM     24  O   UNL     1       4.623   5.264  -0.408  1.00  0.00    -0.494 OA
BRANCH  24  25
ATOM     25  C   UNL     1       5.877   5.682  -0.952  1.00  0.00     0.226 C 
ATOM     26  C   UNL     1       7.004   5.520   0.055  1.00  0.00     0.049 C 
ENDBRANCH  24  25
ENDBRANCH  19  24
ENDBRANCH   9  15
ENDBRANCH   6   8
ENDBRANCH   4   6
ENDBRANCH   3   4
ENDBRANCH   2   3
ENDBRANCH   1   2
BRANCH   1  27
ATOM     27  O   UNL     1       6.437  -5.351  -0.011  1.00  0.00    -0.374 OA
BRANCH  27  28
ATOM     28  C   UNL     1       5.733  -4.345  -0.739  1.00  0.00     0.202 C 
BRANCH  28  29
ATOM     29  C   UNL     1       4.733  -3.498   0.057  1.00  0.00     0.261 C 
BRANCH  29  30
ATOM     30  O   UNL     1       5.376  -2.697   1.063  1.00  0.00    -0.460 OA
BRANCH  30  31
ATOM     31  C   UNL     1       5.125  -3.086   2.333  1.00  0.00     0.338 C 
ATOM     32  O   UNL     1       4.354  -3.972   2.692  1.00  0.00    -0.246 OA
BRANCH  31  33
ATOM     33  C   UNL     1       6.034  -2.416   3.280  1.00  0.00     0.060 A 
ATOM     34  C   UNL     1       6.675  -3.227   4.225  1.00  0.00     0.016 A 
ATOM     35  C   UNL     1       6.181  -1.026   3.322  1.00  0.00     0.016 A 
ATOM     36  C   UNL     1       7.391  -2.649   5.269  1.00  0.00     0.010 A 
ATOM     37  C   UNL     1       6.904  -0.447   4.374  1.00  0.00     0.010 A 
ATOM     38  C   UNL     1       7.461  -1.255   5.383  1.00  0.00    -0.014 A 
BRANCH  38  39
ATOM     39  C   UNL     1       7.952  -0.674   6.659  1.00  0.00     0.031 A 
ATOM     40  C   UNL     1       6.948  -0.199   7.678  1.00  0.00     0.074 A 
ATOM     41  C   UNL     1       9.266  -0.636   6.942  1.00  0.00     0.049 A 
ATOM     42  N   UNL     1       7.148   0.248   8.890  1.00  0.00    -0.248 NA
ATOM     43  C   UNL     1       5.531  -0.235   7.279  1.00  0.00     0.031 C 
ATOM     44  C   UNL     1      10.337  -1.063   6.043  1.00  0.00     0.029 A 
ATOM     45  N   UNL     1       9.922  -0.214   8.072  1.00  0.00    -0.354 N 
ATOM     46  C   UNL     1       5.890   0.563   9.392  1.00  0.00     0.074 A 
ATOM     47  C   UNL     1       4.934   0.279   8.344  1.00  0.00     0.031 C 
ATOM     48  C   UNL     1      11.519  -0.869   6.652  1.00  0.00     0.029 A 
ATOM     49  C   UNL     1      11.290  -0.299   7.979  1.00  0.00     0.049 A 
ATOM     50  H   UNL     1       9.455   0.119   8.872  1.00  0.00     0.167 HD
ATOM     51  C   UNL     1       5.554   1.022  10.621  1.00  0.00     0.034 A 
ATOM     52  C   UNL     1      12.248   0.042   8.865  1.00  0.00     0.034 A 
ATOM     53  C   UNL     1       6.497   1.279  11.674  1.00  0.00     0.049 A 
ATOM     54  C   UNL     1      11.847   0.548  10.227  1.00  0.00     0.074 A 
ATOM     55  C   UNL     1       6.249   1.704  12.967  1.00  0.00     0.029 A 
ATOM     56  N   UNL     1       7.871   1.140  11.556  1.00  0.00    -0.354 N 
ATOM     57  N   UNL     1      10.647   0.714  10.728  1.00  0.00    -0.248 NA
ATOM     58  C   UNL     1      12.935   0.873  11.162  1.00  0.00     0.031 C 
ATOM     59  C   UNL     1       7.477   1.840  13.626  1.00  0.00     0.029 A 
ATOM     60  C   UNL     1       8.486   1.477  12.749  1.00  0.00     0.049 A 
ATOM     61  H   UNL     1       8.341   0.845  10.742  1.00  0.00     0.167 HD
ATOM     62  C   UNL     1      10.834   1.122  12.044  1.00  0.00     0.074 A 
ATOM     63  C   UNL     1      12.264   1.159  12.270  1.00  0.00     0.031 C 
ATOM     64  C   UNL     1       9.908   1.453  12.979  1.00  0.00     0.034 A 
BRANCH  51  65
ATOM     65  C   UNL     1       4.091   1.240  10.905  1.00  0.00     0.023 A 
ATOM     66  C   UNL     1       3.247   0.127  11.097  1.00  0.00     0.012 A 
ATOM     67  C   UNL     1       3.562   2.539  11.031  1.00  0.00     0.148 A 
ATOM     68  C   UNL     1       1.893   0.302  11.379  1.00  0.00     0.002 A 
ATOM     69  C   UNL     1       2.220   2.706  11.353  1.00  0.00     0.091 A 
ATOM     70  F   UNL     1       4.374   3.584  10.819  1.00  0.00    -0.205 F 
ATOM     71  C   UNL     1       1.382   1.590  11.517  1.00  0.00     0.022 A 
BRANCH  69  72
ATOM     72  S   UNL     1       1.486   4.323  11.624  1.00  0.00     0.127 S 
ATOM     73  O   UNL     1       0.675   4.485  10.419  1.00  0.00    -0.237 OA
ATOM     74  O   UNL     1       0.718   4.112  12.852  1.00  0.00    -0.237 OA
ATOM     75  O   UNL     1       2.601   5.250  11.759  1.00  0.00    -0.744 OA
ENDBRANCH  69  72
ENDBRANCH  51  65
BRANCH  52  76
ATOM     76  C   UNL     1      13.684  -0.140   8.512  1.00  0.00     0.023 A 
ATOM     77  C   UNL     1      14.443  -1.131   9.165  1.00  0.00     0.012 A 
ATOM     78  C   UNL     1      14.297   0.653   7.524  1.00  0.00     0.148 A 
ATOM     79  C   UNL     1      15.793  -1.308   8.861  1.00  0.00     0.002 A 
ATOM     80  C   UNL     1      15.628   0.435   7.186  1.00  0.00     0.091 A 
ATOM     81  F   UNL     1      13.564   1.605   6.928  1.00  0.00    -0.205 F 
ATOM     82  C   UNL     1      16.383  -0.534   7.865  1.00  0.00     0.022 A 
BRANCH  80  83
ATOM     83  S   UNL     1      16.426   1.296   5.827  1.00  0.00     0.127 S 
ATOM     84  O   UNL     1      17.317   2.212   6.534  1.00  0.00    -0.237 OA
ATOM     85  O   UNL     1      17.096   0.201   5.126  1.00  0.00    -0.237 OA
ATOM     86  O   UNL     1      15.346   1.917   5.071  1.00  0.00    -0.744 OA
ENDBRANCH  80  83
ENDBRANCH  52  76
BRANCH  64  87
ATOM     87  C   UNL     1      10.403   1.850  14.346  1.00  0.00     0.023 A 
ATOM     88  C   UNL     1      11.033   3.098  14.528  1.00  0.00     0.012 A 
ATOM     89  C   UNL     1      10.187   1.018  15.462  1.00  0.00     0.148 A 
ATOM     90  C   UNL     1      11.473   3.493  15.790  1.00  0.00     0.002 A 
ATOM     91  C   UNL     1      10.585   1.439  16.725  1.00  0.00     0.091 A 
ATOM     92  F   UNL     1       9.604  -0.175  15.269  1.00  0.00    -0.205 F 
ATOM     93  C   UNL     1      11.239   2.670  16.890  1.00  0.00     0.022 A 
BRANCH  91  94
ATOM     94  S   UNL     1      10.237   0.480  18.205  1.00  0.00     0.127 S 
ATOM     95  O   UNL     1      11.526  -0.160  18.457  1.00  0.00    -0.237 OA
ATOM     96  O   UNL     1       9.871   1.516  19.173  1.00  0.00    -0.237 OA
ATOM     97  O   UNL     1       9.146  -0.416  17.845  1.00  0.00    -0.744 OA
ENDBRANCH  91  94
ENDBRANCH  64  87
ENDBRANCH  38  39
ENDBRANCH  31  33
ENDBRANCH  30  31
ENDBRANCH  29  30
ENDBRANCH  28  29
ENDBRANCH  27  28
ENDBRANCH   1  27
TORSDOF 23
