REMARK SMILES O=C(OCCOCCOC(=O)c1cc(S(=O)(=O)NNC(=O)[C@H]2C=C(c3ccccc3)N=N2)ccc1F)c1ccc(-c2c3nc(c(-c4cccc(S(=O)(=O)[O-])c4F)c4ccc([nH]4)c(-c4cccc(S(=O)(=O)[O-])c4F)c4nc(c(-c5cccc(S(=O)(=O)[O-])c5F)c5ccc2[nH]5)C=C4)C=C3)cc1
REMARK SMILES IDX 7 1 6 2 5 3 4 4 3 5 2 6 1 7 37 8 38 9 99 10 39 11 98 12
REMARK SMILES IDX 40 13 41 14 42 15 92 16 43 17 97 18 91 19 93 20 44 21 96 22
REMARK SMILES IDX 90 23 89 24 45 26 77 27 57 28 76 29 58 30 61 31 75 32 94 33
REMARK SMILES IDX 59 34 60 35 74 37 95 38 62 39 46 40 47 41 55 42 48 43 50 44
REMARK SMILES IDX 56 45 49 46 51 47 52 48 53 49 54 50 78 51 79 52 87 53 80 54
REMARK SMILES IDX 82 55 88 56 81 57 83 58 84 59 85 60 86 61 63 62 64 63 72 64
REMARK SMILES IDX 65 65 67 66 73 67 66 68 68 69 69 70 70 71 71 72 8 73 9 74
REMARK SMILES IDX 10 75 11 76 12 77 13 78 35 79 14 80 34 81 36 82 33 83 15 84
REMARK SMILES IDX 16 85 17 86 18 87 19 89 20 90 21 92 22 93 23 94 32 95 24 96
REMARK SMILES IDX 31 97 25 98 26 99 30 100 27 101 29 102 28 103
REMARK H PARENT 93 25 61 36 18 88 19 91
REMARK Flexibility Score: inf
ROOT
ATOM      1  C   UNL     1      14.854  16.882   0.088  1.00  0.00     0.202 C 
ENDROOT
BRANCH   1   2
ATOM      2  O   UNL     1      13.494  16.439   0.005  1.00  0.00    -0.374 OA
BRANCH   2   3
ATOM      3  C   UNL     1      13.159  15.526  -1.031  1.00  0.00     0.202 C 
BRANCH   3   4
ATOM      4  C   UNL     1      12.566  16.068  -2.330  1.00  0.00     0.261 C 
BRANCH   4   5
ATOM      5  O   UNL     1      13.472  16.881  -3.091  1.00  0.00    -0.460 OA
BRANCH   5   6
ATOM      6  C   UNL     1      14.015  18.059  -2.713  1.00  0.00     0.338 C 
ATOM      7  O   UNL     1      15.184  18.299  -3.013  1.00  0.00    -0.246 OA
BRANCH   6   8
ATOM      8  C   UNL     1      13.179  19.142  -2.129  1.00  0.00     0.060 A 
ATOM      9  C   UNL     1      11.861  18.995  -1.704  1.00  0.00     0.016 A 
ATOM     10  C   UNL     1      13.741  20.430  -2.168  1.00  0.00     0.016 A 
ATOM     11  C   UNL     1      11.037  20.096  -1.638  1.00  0.00     0.010 A 
ATOM     12  C   UNL     1      12.938  21.546  -2.024  1.00  0.00     0.010 A 
ATOM     13  C   UNL     1      11.571  21.359  -1.879  1.00  0.00    -0.014 A 
BRANCH  13  14
ATOM     14  C   UNL     1      10.643  22.471  -1.862  1.00  0.00     0.031 A 
ATOM     15  C   UNL     1       9.949  22.629  -0.558  1.00  0.00     0.074 A 
ATOM     16  C   UNL     1      10.480  23.274  -2.931  1.00  0.00     0.049 A 
ATOM     17  N   UNL     1       8.686  22.505  -0.315  1.00  0.00    -0.248 NA
ATOM     18  C   UNL     1      10.786  22.741   0.648  1.00  0.00     0.031 C 
ATOM     19  C   UNL     1      11.288  23.327  -4.154  1.00  0.00     0.029 A 
ATOM     20  N   UNL     1       9.634  24.326  -3.083  1.00  0.00    -0.354 N 
ATOM     21  C   UNL     1       8.547  22.755   1.048  1.00  0.00     0.074 A 
ATOM     22  C   UNL     1       9.868  22.705   1.614  1.00  0.00     0.031 C 
ATOM     23  C   UNL     1      11.086  24.517  -4.763  1.00  0.00     0.029 A 
ATOM     24  C   UNL     1      10.043  25.236  -4.054  1.00  0.00     0.049 A 
ATOM     25  H   UNL     1       8.809  24.435  -2.557  1.00  0.00     0.167 HD
ATOM     26  C   UNL     1       7.383  23.227   1.569  1.00  0.00     0.034 A 
ATOM     27  C   UNL     1       9.625  26.521  -4.171  1.00  0.00     0.034 A 
ATOM     28  C   UNL     1       6.279  23.025   0.674  1.00  0.00     0.049 A 
ATOM     29  C   UNL     1       8.342  26.628  -3.435  1.00  0.00     0.074 A 
ATOM     30  C   UNL     1       5.660  21.918   0.131  1.00  0.00     0.029 A 
ATOM     31  N   UNL     1       5.906  24.094  -0.103  1.00  0.00    -0.354 N 
ATOM     32  N   UNL     1       7.251  26.017  -3.800  1.00  0.00    -0.248 NA
ATOM     33  C   UNL     1       8.395  27.046  -2.042  1.00  0.00     0.031 C 
ATOM     34  C   UNL     1       5.341  22.297  -1.204  1.00  0.00     0.029 A 
ATOM     35  C   UNL     1       5.715  23.631  -1.378  1.00  0.00     0.049 A 
ATOM     36  H   UNL     1       5.797  25.024   0.201  1.00  0.00     0.167 HD
ATOM     37  C   UNL     1       6.700  25.563  -2.608  1.00  0.00     0.074 A 
ATOM     38  C   UNL     1       7.392  26.309  -1.558  1.00  0.00     0.031 C 
ATOM     39  C   UNL     1       5.958  24.419  -2.567  1.00  0.00     0.034 A 
BRANCH  26  40
ATOM     40  C   UNL     1       7.310  24.187   2.726  1.00  0.00     0.023 A 
ATOM     41  C   UNL     1       6.047  24.424   3.309  1.00  0.00     0.012 A 
ATOM     42  C   UNL     1       8.363  25.059   3.091  1.00  0.00     0.148 A 
ATOM     43  C   UNL     1       5.839  25.489   4.191  1.00  0.00     0.002 A 
ATOM     44  C   UNL     1       8.173  26.063   4.030  1.00  0.00     0.091 A 
ATOM     45  F   UNL     1       9.525  25.011   2.432  1.00  0.00    -0.205 F 
ATOM     46  C   UNL     1       6.905  26.302   4.562  1.00  0.00     0.022 A 
BRANCH  44  47
ATOM     47  S   UNL     1       9.526  27.106   4.584  1.00  0.00     0.127 S 
ATOM     48  O   UNL     1       9.168  28.392   3.993  1.00  0.00    -0.237 OA
ATOM     49  O   UNL     1       9.382  27.030   6.038  1.00  0.00    -0.237 OA
ATOM     50  O   UNL     1      10.739  26.482   4.072  1.00  0.00    -0.744 OA
ENDBRANCH  44  47
ENDBRANCH  26  40
BRANCH  27  51
ATOM     51  C   UNL     1      10.409  27.730  -4.532  1.00  0.00     0.023 A 
ATOM     52  C   UNL     1       9.729  28.920  -4.865  1.00  0.00     0.012 A 
ATOM     53  C   UNL     1      11.791  27.814  -4.249  1.00  0.00     0.148 A 
ATOM     54  C   UNL     1      10.390  30.155  -4.869  1.00  0.00     0.002 A 
ATOM     55  C   UNL     1      12.444  29.043  -4.253  1.00  0.00     0.091 A 
ATOM     56  F   UNL     1      12.445  26.706  -3.879  1.00  0.00    -0.205 F 
ATOM     57  C   UNL     1      11.744  30.219  -4.550  1.00  0.00     0.022 A 
BRANCH  55  58
ATOM     58  S   UNL     1      14.177  29.209  -3.799  1.00  0.00     0.127 S 
ATOM     59  O   UNL     1      14.703  30.009  -4.905  1.00  0.00    -0.237 OA
ATOM     60  O   UNL     1      14.086  29.912  -2.522  1.00  0.00    -0.237 OA
ATOM     61  O   UNL     1      14.705  27.852  -3.736  1.00  0.00    -0.744 OA
ENDBRANCH  55  58
ENDBRANCH  27  51
BRANCH  39  62
ATOM     62  C   UNL     1       5.557  23.779  -3.873  1.00  0.00     0.023 A 
ATOM     63  C   UNL     1       6.496  23.226  -4.770  1.00  0.00     0.012 A 
ATOM     64  C   UNL     1       4.190  23.546  -4.092  1.00  0.00     0.148 A 
ATOM     65  C   UNL     1       6.076  22.463  -5.865  1.00  0.00     0.002 A 
ATOM     66  C   UNL     1       3.780  22.742  -5.147  1.00  0.00     0.091 A 
ATOM     67  F   UNL     1       3.312  24.081  -3.230  1.00  0.00    -0.205 F 
ATOM     68  C   UNL     1       4.718  22.206  -6.043  1.00  0.00     0.022 A 
BRANCH  66  69
ATOM     69  S   UNL     1       2.064  22.253  -5.335  1.00  0.00     0.127 S 
ATOM     70  O   UNL     1       1.645  23.048  -6.487  1.00  0.00    -0.237 OA
ATOM     71  O   UNL     1       2.175  20.816  -5.590  1.00  0.00    -0.237 OA
ATOM     72  O   UNL     1       1.411  22.584  -4.074  1.00  0.00    -0.744 OA
ENDBRANCH  66  69
ENDBRANCH  39  62
ENDBRANCH  13  14
ENDBRANCH   6   8
ENDBRANCH   5   6
ENDBRANCH   4   5
ENDBRANCH   3   4
ENDBRANCH   2   3
ENDBRANCH   1   2
BRANCH   1  73
ATOM     73  C   UNL     1      15.952  15.883   0.490  1.00  0.00     0.261 C 
BRANCH  73  74
ATOM     74  O   UNL     1      16.106  14.805  -0.453  1.00  0.00    -0.460 OA
BRANCH  74  75
ATOM     75  C   UNL     1      15.671  13.597  -0.027  1.00  0.00     0.341 C 
ATOM     76  O   UNL     1      15.244  13.304   1.076  1.00  0.00    -0.246 OA
BRANCH  75  77
ATOM     77  C   UNL     1      15.507  12.705  -1.182  1.00  0.00     0.097 A 
ATOM     78  C   UNL     1      14.216  12.240  -1.457  1.00  0.00     0.040 A 
ATOM     79  C   UNL     1      16.570  12.313  -1.982  1.00  0.00     0.137 A 
ATOM     80  C   UNL     1      13.995  11.414  -2.560  1.00  0.00     0.085 A 
ATOM     81  C   UNL     1      16.354  11.449  -3.060  1.00  0.00     0.041 A 
ATOM     82  F   UNL     1      17.818  12.723  -1.718  1.00  0.00    -0.206 F 
ATOM     83  C   UNL     1      15.061  10.999  -3.360  1.00  0.00     0.025 A 
BRANCH  80  84
ATOM     84  S   UNL     1      12.329  10.894  -2.845  1.00  0.00     0.257 S 
ATOM     85  O   UNL     1      11.696  10.712  -1.563  1.00  0.00    -0.205 OA
ATOM     86  O   UNL     1      11.775  11.756  -3.869  1.00  0.00    -0.205 OA
BRANCH  84  87
ATOM     87  N   UNL     1      12.457   9.359  -3.536  1.00  0.00    -0.123 NA
ATOM     88  H   UNL     1      13.058   9.456  -4.354  1.00  0.00     0.167 HD
BRANCH  87  89
ATOM     89  N   UNL     1      12.974   8.264  -2.774  1.00  0.00    -0.275 N 
ATOM     90  C   UNL     1      12.589   6.947  -2.834  1.00  0.00     0.265 C 
ATOM     91  H   UNL     1      13.688   8.480  -2.132  1.00  0.00     0.186 HD
ATOM     92  O   UNL     1      13.306   6.137  -2.236  1.00  0.00    -0.271 OA
BRANCH  90  93
ATOM     93  C   UNL     1      11.232   6.553  -3.462  1.00  0.00     0.244 C 
ATOM     94  C   UNL     1      10.949   7.020  -4.838  1.00  0.00     0.042 C 
ATOM     95  N   UNL     1      11.256   5.064  -3.652  1.00  0.00    -0.171 NA
ATOM     96  C   UNL     1      10.971   5.930  -5.601  1.00  0.00     0.091 C 
ATOM     97  N   UNL     1      11.144   4.781  -4.881  1.00  0.00    -0.155 NA
BRANCH  96  98
ATOM     98  C   UNL     1      10.799   5.974  -7.046  1.00  0.00     0.002 A 
ATOM     99  C   UNL     1       9.685   5.396  -7.661  1.00  0.00     0.010 A 
ATOM    100  C   UNL     1      11.747   6.650  -7.829  1.00  0.00     0.010 A 
ATOM    101  C   UNL     1       9.515   5.508  -9.042  1.00  0.00     0.001 A 
ATOM    102  C   UNL     1      11.579   6.755  -9.208  1.00  0.00     0.001 A 
ATOM    103  C   UNL     1      10.460   6.187  -9.813  1.00  0.00     0.000 A 
ENDBRANCH  96  98
ENDBRANCH  90  93
ENDBRANCH  87  89
ENDBRANCH  84  87
ENDBRANCH  80  84
ENDBRANCH  75  77
ENDBRANCH  74  75
ENDBRANCH  73  74
ENDBRANCH   1  73
TORSDOF 22
