REMARK SMILES O=C(OCCOCCOC(=O)[C@@H]1CC2(CC[NH2+]CC2)C[N@@H+]1Cc1cccc2nonc12)c1ccc(-c2c3nc(c(-c4cccc(S(=O)(=O)[O-])c4F)c4ccc([nH]4)c(-c4cccc(S(=O)(=O)[O-])c4F)c4nc(c(-c5cccc(S(=O)(=O)[O-])c5F)c5ccc2[nH]5)C=C4)C=C3)cc1
REMARK SMILES IDX 5 1 4 2 3 3 2 4 1 5 32 6 33 7 94 8 34 9 93 10 35 11 36 12
REMARK SMILES IDX 37 13 87 14 38 15 92 16 86 17 88 18 39 19 91 20 85 21 84 22
REMARK SMILES IDX 40 24 72 25 52 26 71 27 53 28 56 29 70 30 89 31 54 32 55 33
REMARK SMILES IDX 69 35 90 36 57 37 41 38 42 39 50 40 43 41 45 42 51 43 44 44
REMARK SMILES IDX 46 45 47 46 48 47 49 48 73 49 74 50 82 51 75 52 77 53 83 54
REMARK SMILES IDX 76 55 78 56 79 57 80 58 81 59 58 60 59 61 67 62 60 63 62 64
REMARK SMILES IDX 68 65 61 66 63 67 64 68 65 69 66 70 6 71 7 72 8 73 9 74
REMARK SMILES IDX 10 75 11 76 12 77 13 78 21 79 14 80 20 81 15 83 19 84 16 85
REMARK SMILES IDX 18 86 17 87 22 90 23 91 24 92 31 93 25 94 27 95 30 96 26 97
REMARK SMILES IDX 28 98 29 99
REMARK H PARENT 88 23 56 34 21 82 17 88 17 89
REMARK Flexibility Score: inf
ROOT
ATOM      1  C   UNL     1       4.190   0.142  -0.660  1.00  0.00     0.202 C 
ENDROOT
BRANCH   1   2
ATOM      2  C   UNL     1       3.899  -1.308  -1.031  1.00  0.00     0.261 C 
BRANCH   2   3
ATOM      3  O   UNL     1       3.907  -2.098   0.173  1.00  0.00    -0.460 OA
BRANCH   3   4
ATOM      4  C   UNL     1       2.701  -2.152   0.800  1.00  0.00     0.338 C 
ATOM      5  O   UNL     1       1.631  -2.379   0.253  1.00  0.00    -0.246 OA
BRANCH   4   6
ATOM      6  C   UNL     1       2.842  -1.790   2.235  1.00  0.00     0.060 A 
ATOM      7  C   UNL     1       1.821  -2.096   3.142  1.00  0.00     0.016 A 
ATOM      8  C   UNL     1       3.919  -1.008   2.657  1.00  0.00     0.016 A 
ATOM      9  C   UNL     1       1.909  -1.656   4.470  1.00  0.00     0.010 A 
ATOM     10  C   UNL     1       3.963  -0.509   3.947  1.00  0.00     0.010 A 
ATOM     11  C   UNL     1       2.994  -0.867   4.888  1.00  0.00    -0.014 A 
BRANCH  11  12
ATOM     12  C   UNL     1       3.234  -0.583   6.329  1.00  0.00     0.031 A 
ATOM     13  C   UNL     1       4.703  -0.388   6.674  1.00  0.00     0.074 A 
ATOM     14  C   UNL     1       2.268   0.027   7.047  1.00  0.00     0.049 A 
ATOM     15  N   UNL     1       5.374   0.728   6.742  1.00  0.00    -0.248 NA
ATOM     16  C   UNL     1       5.567  -1.579   6.644  1.00  0.00     0.031 C 
ATOM     17  C   UNL     1       1.833   1.406   6.827  1.00  0.00     0.029 A 
ATOM     18  N   UNL     1       1.796  -0.292   8.309  1.00  0.00    -0.354 N 
ATOM     19  C   UNL     1       6.733   0.402   6.710  1.00  0.00     0.074 A 
ATOM     20  C   UNL     1       6.793  -1.041   6.628  1.00  0.00     0.031 C 
ATOM     21  C   UNL     1       1.277   1.870   7.964  1.00  0.00     0.029 A 
ATOM     22  C   UNL     1       1.296   0.821   8.986  1.00  0.00     0.049 A 
ATOM     23  H   UNL     1       1.812  -1.202   8.686  1.00  0.00     0.167 HD
ATOM     24  C   UNL     1       7.760   1.303   6.755  1.00  0.00     0.034 A 
ATOM     25  C   UNL     1       1.415   1.005  10.336  1.00  0.00     0.034 A 
ATOM     26  C   UNL     1       7.394   2.675   6.961  1.00  0.00     0.049 A 
ATOM     27  C   UNL     1       2.718   1.770  10.397  1.00  0.00     0.074 A 
ATOM     28  C   UNL     1       7.533   3.909   6.364  1.00  0.00     0.029 A 
ATOM     29  N   UNL     1       6.820   2.997   8.162  1.00  0.00    -0.354 N 
ATOM     30  N   UNL     1       2.917   3.022  10.073  1.00  0.00    -0.248 NA
ATOM     31  C   UNL     1       3.922   0.940  10.405  1.00  0.00     0.031 C 
ATOM     32  C   UNL     1       6.484   4.714   6.926  1.00  0.00     0.029 A 
ATOM     33  C   UNL     1       5.891   3.977   7.947  1.00  0.00     0.049 A 
ATOM     34  H   UNL     1       7.040   2.592   9.033  1.00  0.00     0.167 HD
ATOM     35  C   UNL     1       4.194   3.049   9.503  1.00  0.00     0.074 A 
ATOM     36  C   UNL     1       4.759   1.738   9.761  1.00  0.00     0.031 C 
ATOM     37  C   UNL     1       4.666   4.059   8.711  1.00  0.00     0.034 A 
BRANCH  24  38
ATOM     38  C   UNL     1       9.197   0.925   6.861  1.00  0.00     0.023 A 
ATOM     39  C   UNL     1       9.714   0.861   8.171  1.00  0.00     0.012 A 
ATOM     40  C   UNL     1      10.081   0.840   5.768  1.00  0.00     0.148 A 
ATOM     41  C   UNL     1      11.082   0.761   8.402  1.00  0.00     0.002 A 
ATOM     42  C   UNL     1      11.454   0.735   6.007  1.00  0.00     0.091 A 
ATOM     43  F   UNL     1       9.580   0.911   4.527  1.00  0.00    -0.205 F 
ATOM     44  C   UNL     1      11.953   0.707   7.322  1.00  0.00     0.022 A 
BRANCH  42  45
ATOM     45  S   UNL     1      12.695   0.686   4.703  1.00  0.00     0.127 S 
ATOM     46  O   UNL     1      13.419   1.937   4.925  1.00  0.00    -0.237 OA
ATOM     47  O   UNL     1      13.447  -0.522   5.046  1.00  0.00    -0.237 OA
ATOM     48  O   UNL     1      11.957   0.608   3.450  1.00  0.00    -0.744 OA
ENDBRANCH  42  45
ENDBRANCH  24  38
BRANCH  25  49
ATOM     49  C   UNL     1       1.105  -0.184  11.211  1.00  0.00     0.023 A 
ATOM     50  C   UNL     1      -0.080  -0.897  10.906  1.00  0.00     0.012 A 
ATOM     51  C   UNL     1       1.895  -0.668  12.273  1.00  0.00     0.148 A 
ATOM     52  C   UNL     1      -0.390  -2.111  11.520  1.00  0.00     0.002 A 
ATOM     53  C   UNL     1       1.607  -1.905  12.857  1.00  0.00     0.091 A 
ATOM     54  F   UNL     1       2.936   0.057  12.698  1.00  0.00    -0.205 F 
ATOM     55  C   UNL     1       0.474  -2.633  12.471  1.00  0.00     0.022 A 
BRANCH  53  56
ATOM     56  S   UNL     1       2.682  -2.683  14.073  1.00  0.00     0.127 S 
ATOM     57  O   UNL     1       1.727  -3.136  15.083  1.00  0.00    -0.237 OA
ATOM     58  O   UNL     1       3.291  -3.749  13.279  1.00  0.00    -0.237 OA
ATOM     59  O   UNL     1       3.593  -1.638  14.520  1.00  0.00    -0.744 OA
ENDBRANCH  53  56
ENDBRANCH  25  49
BRANCH  37  60
ATOM     60  C   UNL     1       3.800   5.277   8.581  1.00  0.00     0.023 A 
ATOM     61  C   UNL     1       3.769   6.162   9.672  1.00  0.00     0.012 A 
ATOM     62  C   UNL     1       3.084   5.608   7.411  1.00  0.00     0.148 A 
ATOM     63  C   UNL     1       3.060   7.358   9.603  1.00  0.00     0.002 A 
ATOM     64  C   UNL     1       2.377   6.810   7.346  1.00  0.00     0.091 A 
ATOM     65  F   UNL     1       3.130   4.770   6.368  1.00  0.00    -0.205 F 
ATOM     66  C   UNL     1       2.370   7.685   8.441  1.00  0.00     0.022 A 
BRANCH  64  67
ATOM     67  S   UNL     1       1.431   7.317   5.901  1.00  0.00     0.127 S 
ATOM     68  O   UNL     1       0.325   8.080   6.487  1.00  0.00    -0.237 OA
ATOM     69  O   UNL     1       2.399   8.132   5.169  1.00  0.00    -0.237 OA
ATOM     70  O   UNL     1       1.005   6.082   5.261  1.00  0.00    -0.744 OA
ENDBRANCH  64  67
ENDBRANCH  37  60
ENDBRANCH  11  12
ENDBRANCH   4   6
ENDBRANCH   3   4
ENDBRANCH   2   3
ENDBRANCH   1   2
BRANCH   1  71
ATOM     71  O   UNL     1       3.292   0.567   0.355  1.00  0.00    -0.374 OA
BRANCH  71  72
ATOM     72  C   UNL     1       2.064   1.139  -0.058  1.00  0.00     0.202 C 
BRANCH  72  73
ATOM     73  C   UNL     1       2.072   2.618   0.296  1.00  0.00     0.261 C 
BRANCH  73  74
ATOM     74  O   UNL     1       2.892   3.385  -0.608  1.00  0.00    -0.459 OA
BRANCH  74  75
ATOM     75  C   UNL     1       4.221   3.435  -0.281  1.00  0.00     0.365 C 
ATOM     76  O   UNL     1       4.756   2.754   0.569  1.00  0.00    -0.245 OA
BRANCH  75  77
ATOM     77  C   UNL     1       4.958   4.407  -1.195  1.00  0.00     0.296 C 
ATOM     78  C   UNL     1       5.995   3.632  -2.017  1.00  0.00     0.091 C 
ATOM     79  N   UNL     1       5.734   5.455  -0.525  1.00  0.00    -0.319 N 
ATOM     80  C   UNL     1       7.365   3.886  -1.349  1.00  0.00     0.036 C 
ATOM     81  C   UNL     1       7.164   5.257  -0.676  1.00  0.00     0.270 C 
ATOM     82  H   UNL     1       5.511   6.290  -1.065  1.00  0.00     0.349 HD
ATOM     83  C   UNL     1       8.497   3.949  -2.394  1.00  0.00     0.074 C 
ATOM     84  C   UNL     1       7.771   2.801  -0.317  1.00  0.00     0.074 C 
ATOM     85  C   UNL     1       8.808   2.577  -2.993  1.00  0.00     0.261 C 
ATOM     86  C   UNL     1       8.129   1.459  -0.961  1.00  0.00     0.261 C 
ATOM     87  N   UNL     1       9.178   1.598  -1.976  1.00  0.00    -0.346 N 
ATOM     88  H   UNL     1      10.040   1.900  -1.523  1.00  0.00     0.346 HD
ATOM     89  H   UNL     1       9.306   0.694  -2.432  1.00  0.00     0.346 HD
BRANCH  79  90
ATOM     90  C   UNL     1       5.213   6.154   0.653  1.00  0.00     0.302 C 
BRANCH  90  91
ATOM     91  C   UNL     1       5.106   5.329   1.904  1.00  0.00     0.038 A 
ATOM     92  C   UNL     1       6.231   4.718   2.510  1.00  0.00     0.012 A 
ATOM     93  C   UNL     1       3.879   4.932   2.497  1.00  0.00     0.144 A 
ATOM     94  C   UNL     1       6.143   3.696   3.483  1.00  0.00     0.003 A 
ATOM     95  C   UNL     1       3.800   3.905   3.531  1.00  0.00     0.135 A 
ATOM     96  N   UNL     1       2.630   5.304   2.182  1.00  0.00    -0.049 NA
ATOM     97  C   UNL     1       4.933   3.263   4.045  1.00  0.00     0.034 A 
ATOM     98  N   UNL     1       2.510   3.665   3.788  1.00  0.00    -0.050 NA
ATOM     99  O   UNL     1       1.805   4.605   3.055  1.00  0.00    -0.243 OA
ENDBRANCH  90  91
ENDBRANCH  79  90
ENDBRANCH  75  77
ENDBRANCH  74  75
ENDBRANCH  73  74
ENDBRANCH  72  73
ENDBRANCH  71  72
ENDBRANCH   1  71
TORSDOF 19
