REMARK SMILES COc1ccc(CCN2/C(=[NH+]/C(=O)CCC(=O)OCCOCCOC(=O)c3ccc(-c4c5nc(c(-c6cccc(S(=O)(=O)[O-])c6F)c6ccc([nH]6)c(-c6cccc(S(=O)(=O)[O-])c6F)c6nc(c(-c7cccc(S(=O)(=O)[O-])c7F)c7ccc4[nH]7)C=C6)C=C5)cc3)S[C@@H]3CS(=O)(=O)C[C@@H]32)cc1
REMARK SMILES IDX 19 1 18 2 16 3 17 4 15 5 14 6 12 7 9 8 10 9 97 10 11 11
REMARK SMILES IDX 90 12 91 13 96 14 92 16 93 17 13 18 94 19 95 20 8 21 7 22
REMARK SMILES IDX 6 23 3 24 4 25 99 26 5 27 98 28 2 29 1 30 20 31 21 32 22 33
REMARK SMILES IDX 23 34 24 35 25 36 26 37 27 38 28 39 89 40 29 41 88 42 30 43
REMARK SMILES IDX 31 44 32 45 82 46 33 47 87 48 81 49 83 50 34 51 86 52 80 53
REMARK SMILES IDX 79 54 35 56 67 57 47 58 66 59 48 60 51 61 65 62 84 63 49 64
REMARK SMILES IDX 50 65 64 67 85 68 52 69 36 70 37 71 45 72 38 73 40 74 46 75
REMARK SMILES IDX 39 76 41 77 42 78 43 79 44 80 68 81 69 82 77 83 70 84 72 85
REMARK SMILES IDX 78 86 71 87 73 88 74 89 75 90 76 91 53 92 54 93 62 94 55 95
REMARK SMILES IDX 57 96 63 97 56 98 58 99 59 100 60 101 61 102
REMARK H PARENT 11 15 83 55 51 66
REMARK Flexibility Score: inf
ROOT
ATOM      1  C   UNL     1       3.465  -5.867   4.486  1.00  0.00     0.261 C 
ENDROOT
BRANCH   1   2
ATOM      2  O   UNL     1       2.240  -5.537   5.149  1.00  0.00    -0.463 OA
BRANCH   2   3
ATOM      3  C   UNL     1       2.243  -4.471   5.971  1.00  0.00     0.306 C 
ATOM      4  O   UNL     1       3.245  -3.939   6.428  1.00  0.00    -0.252 OA
BRANCH   3   5
ATOM      5  C   UNL     1       0.835  -4.000   6.260  1.00  0.00     0.135 C 
BRANCH   5   6
ATOM      6  C   UNL     1      -0.020  -3.619   5.057  1.00  0.00     0.139 C 
BRANCH   6   7
ATOM      7  C   UNL     1      -0.559  -4.811   4.269  1.00  0.00     0.308 C 
ATOM      8  N   UNL     1       0.708  -7.379   1.785  1.00  0.00    -0.251 N 
ATOM      9  C   UNL     1      -0.015  -6.455   2.633  1.00  0.00     0.314 C 
ATOM     10  C   UNL     1      -0.142  -8.633   1.601  1.00  0.00     0.206 C 
ATOM     11  N   UNL     1       0.340  -5.534   3.471  1.00  0.00    -0.205 N 
ATOM     12  S   UNL     1      -1.782  -6.743   2.365  1.00  0.00    -0.030 SA
ATOM     13  C   UNL     1      -1.548  -8.487   2.228  1.00  0.00     0.120 C 
ATOM     14  C   UNL     1       0.417  -9.930   2.142  1.00  0.00     0.187 C 
ATOM     15  H   UNL     1       1.299  -5.328   3.554  1.00  0.00     0.316 HD
ATOM     16  C   UNL     1      -1.605  -9.035   3.642  1.00  0.00     0.156 C 
ATOM     17  S   UNL     1      -0.413 -10.332   3.653  1.00  0.00     0.155 S 
ATOM     18  O   UNL     1      -1.752  -5.048   4.469  1.00  0.00    -0.247 OA
ATOM     19  O   UNL     1       0.535 -10.095   4.739  1.00  0.00    -0.229 OA
ATOM     20  O   UNL     1      -1.065 -11.596   3.466  1.00  0.00    -0.229 OA
BRANCH   8  21
ATOM     21  C   UNL     1       2.139  -7.300   0.866  1.00  0.00     0.242 C 
BRANCH  21  22
ATOM     22  C   UNL     1       2.981  -6.086  -0.297  1.00  0.00     0.081 C 
BRANCH  22  23
ATOM     23  C   UNL     1       2.663  -4.628  -1.132  1.00  0.00    -0.044 A 
ATOM     24  C   UNL     1       1.679  -1.916  -1.442  1.00  0.00     0.118 A 
ATOM     25  C   UNL     1       0.985  -2.998  -1.959  1.00  0.00     0.046 A 
ATOM     26  C   UNL     1       3.003  -2.155  -1.085  1.00  0.00     0.046 A 
ATOM     27  C   UNL     1       1.543  -4.305  -1.941  1.00  0.00     0.007 A 
ATOM     28  C   UNL     1       3.477  -3.501  -0.897  1.00  0.00     0.007 A 
BRANCH  24  29
ATOM     29  O   UNL     1       0.918  -0.799  -1.255  1.00  0.00    -0.497 OA
ATOM     30  C   UNL     1       1.443   0.396  -0.693  1.00  0.00     0.278 C 
ENDBRANCH  24  29
ENDBRANCH  22  23
ENDBRANCH  21  22
ENDBRANCH   8  21
ENDBRANCH   6   7
ENDBRANCH   5   6
ENDBRANCH   3   5
ENDBRANCH   2   3
ENDBRANCH   1   2
BRANCH   1  31
ATOM     31  C   UNL     1       3.502  -5.385   3.017  1.00  0.00     0.202 C 
BRANCH  31  32
ATOM     32  O   UNL     1       3.505  -4.014   2.595  1.00  0.00    -0.374 OA
BRANCH  32  33
ATOM     33  C   UNL     1       2.295  -3.265   2.816  1.00  0.00     0.202 C 
BRANCH  33  34
ATOM     34  C   UNL     1       1.174  -2.876   1.713  1.00  0.00     0.261 C 
BRANCH  34  35
ATOM     35  O   UNL     1      -0.091  -3.590   1.221  1.00  0.00    -0.460 OA
BRANCH  35  36
ATOM     36  C   UNL     1       0.186  -4.738   0.544  1.00  0.00     0.338 C 
ATOM     37  O   UNL     1       1.308  -5.113   0.837  1.00  0.00    -0.246 OA
BRANCH  36  38
ATOM     38  C   UNL     1      -0.608  -5.731  -0.439  1.00  0.00     0.060 A 
ATOM     39  C   UNL     1       0.165  -6.725  -1.123  1.00  0.00     0.016 A 
ATOM     40  C   UNL     1      -1.959  -5.932  -0.649  1.00  0.00     0.016 A 
ATOM     41  C   UNL     1      -0.233  -7.890  -1.770  1.00  0.00     0.010 A 
ATOM     42  C   UNL     1      -2.425  -7.143  -1.308  1.00  0.00     0.010 A 
ATOM     43  C   UNL     1      -1.563  -8.160  -1.803  1.00  0.00    -0.014 A 
BRANCH  43  44
ATOM     44  C   UNL     1      -1.972  -9.415  -2.477  1.00  0.00     0.031 A 
ATOM     45  C   UNL     1      -2.189  -9.370  -3.946  1.00  0.00     0.074 A 
ATOM     46  C   UNL     1      -1.913 -10.643  -1.917  1.00  0.00     0.049 A 
ATOM     47  N   UNL     1      -2.805 -10.223  -4.704  1.00  0.00    -0.248 NA
ATOM     48  C   UNL     1      -1.556  -8.252  -4.667  1.00  0.00     0.031 C 
ATOM     49  C   UNL     1      -1.153 -11.027  -0.740  1.00  0.00     0.029 A 
ATOM     50  N   UNL     1      -2.614 -11.788  -2.201  1.00  0.00    -0.354 N 
ATOM     51  C   UNL     1      -2.698  -9.715  -5.986  1.00  0.00     0.074 A 
ATOM     52  C   UNL     1      -1.912  -8.507  -5.916  1.00  0.00     0.031 C 
ATOM     53  C   UNL     1      -1.653 -12.159  -0.215  1.00  0.00     0.029 A 
ATOM     54  C   UNL     1      -2.726 -12.604  -1.085  1.00  0.00     0.049 A 
ATOM     55  H   UNL     1      -2.990 -12.003  -3.085  1.00  0.00     0.167 HD
ATOM     56  C   UNL     1      -3.255 -10.225  -7.103  1.00  0.00     0.034 A 
ATOM     57  C   UNL     1      -3.641 -13.550  -0.805  1.00  0.00     0.034 A 
ATOM     58  C   UNL     1      -4.052 -11.417  -7.074  1.00  0.00     0.049 A 
ATOM     59  C   UNL     1      -4.509 -13.956  -1.962  1.00  0.00     0.074 A 
ATOM     60  C   UNL     1      -4.748 -12.025  -8.097  1.00  0.00     0.029 A 
ATOM     61  N   UNL     1      -4.273 -12.173  -5.926  1.00  0.00    -0.354 N 
ATOM     62  N   UNL     1      -4.533 -13.433  -3.167  1.00  0.00    -0.248 NA
ATOM     63  C   UNL     1      -5.370 -15.128  -1.791  1.00  0.00     0.031 C 
ATOM     64  C   UNL     1      -5.436 -13.115  -7.552  1.00  0.00     0.029 A 
ATOM     65  C   UNL     1      -5.118 -13.226  -6.203  1.00  0.00     0.049 A 
ATOM     66  H   UNL     1      -3.883 -11.983  -5.042  1.00  0.00     0.167 HD
ATOM     67  C   UNL     1      -5.304 -14.283  -3.936  1.00  0.00     0.074 A 
ATOM     68  C   UNL     1      -5.787 -15.320  -3.037  1.00  0.00     0.031 C 
ATOM     69  C   UNL     1      -5.545 -14.241  -5.269  1.00  0.00     0.034 A 
BRANCH  56  70
ATOM     70  C   UNL     1      -3.114  -9.415  -8.356  1.00  0.00     0.023 A 
ATOM     71  C   UNL     1      -1.872  -9.307  -9.014  1.00  0.00     0.012 A 
ATOM     72  C   UNL     1      -4.220  -8.691  -8.838  1.00  0.00     0.148 A 
ATOM     73  C   UNL     1      -1.727  -8.458 -10.113  1.00  0.00     0.002 A 
ATOM     74  C   UNL     1      -4.081  -7.886  -9.960  1.00  0.00     0.091 A 
ATOM     75  F   UNL     1      -5.378  -8.777  -8.168  1.00  0.00    -0.205 F 
ATOM     76  C   UNL     1      -2.832  -7.755 -10.589  1.00  0.00     0.022 A 
BRANCH  74  77
ATOM     77  S   UNL     1      -5.454  -6.981 -10.675  1.00  0.00     0.127 S 
ATOM     78  O   UNL     1      -4.982  -5.599 -10.579  1.00  0.00    -0.237 OA
ATOM     79  O   UNL     1      -5.492  -7.521 -12.034  1.00  0.00    -0.237 OA
ATOM     80  O   UNL     1      -6.617  -7.290  -9.855  1.00  0.00    -0.744 OA
ENDBRANCH  74  77
ENDBRANCH  56  70
BRANCH  57  81
ATOM     81  C   UNL     1      -3.754 -14.181   0.545  1.00  0.00     0.023 A 
ATOM     82  C   UNL     1      -3.332 -15.509   0.742  1.00  0.00     0.012 A 
ATOM     83  C   UNL     1      -4.315 -13.479   1.638  1.00  0.00     0.148 A 
ATOM     84  C   UNL     1      -3.494 -16.137   1.981  1.00  0.00     0.002 A 
ATOM     85  C   UNL     1      -4.462 -14.107   2.876  1.00  0.00     0.091 A 
ATOM     86  F   UNL     1      -4.724 -12.218   1.438  1.00  0.00    -0.205 F 
ATOM     87  C   UNL     1      -4.058 -15.439   3.046  1.00  0.00     0.022 A 
BRANCH  85  88
ATOM     88  S   UNL     1      -5.174 -13.287   4.313  1.00  0.00     0.127 S 
ATOM     89  O   UNL     1      -6.479 -13.940   4.408  1.00  0.00    -0.237 OA
ATOM     90  O   UNL     1      -4.238 -13.646   5.378  1.00  0.00    -0.237 OA
ATOM     91  O   UNL     1      -5.203 -11.868   3.982  1.00  0.00    -0.744 OA
ENDBRANCH  85  88
ENDBRANCH  57  81
BRANCH  69  92
ATOM     92  C   UNL     1      -6.298 -15.394  -5.852  1.00  0.00     0.023 A 
ATOM     93  C   UNL     1      -7.683 -15.515  -5.645  1.00  0.00     0.012 A 
ATOM     94  C   UNL     1      -5.629 -16.284  -6.714  1.00  0.00     0.148 A 
ATOM     95  C   UNL     1      -8.394 -16.528  -6.280  1.00  0.00     0.002 A 
ATOM     96  C   UNL     1      -6.355 -17.245  -7.394  1.00  0.00     0.091 A 
ATOM     97  F   UNL     1      -4.303 -16.153  -6.866  1.00  0.00    -0.205 F 
ATOM     98  C   UNL     1      -7.735 -17.379  -7.168  1.00  0.00     0.022 A 
BRANCH  96  99
ATOM     99  S   UNL     1      -5.615 -18.287  -8.653  1.00  0.00     0.127 S 
ATOM    100  O   UNL     1      -5.679 -19.604  -8.023  1.00  0.00    -0.237 OA
ATOM    101  O   UNL     1      -6.532 -18.101  -9.778  1.00  0.00    -0.237 OA
ATOM    102  O   UNL     1      -4.272 -17.768  -8.873  1.00  0.00    -0.744 OA
ENDBRANCH  96  99
ENDBRANCH  69  92
ENDBRANCH  43  44
ENDBRANCH  36  38
ENDBRANCH  35  36
ENDBRANCH  34  35
ENDBRANCH  33  34
ENDBRANCH  32  33
ENDBRANCH  31  32
ENDBRANCH   1  31
TORSDOF 23
