REMARK SMILES CN1CC[N@H+](CC(=O)OCCOCCOC(=O)c2ccc(-c3c4nc(c(-c5cccc(S(=O)(=O)[O-])c5F)c5ccc([nH]5)c(-c5cccc(S(=O)(=O)[O-])c5F)c5nc(c(-c6cccc(S(=O)(=O)[O-])c6F)c6ccc3[nH]6)C=C5)C=C4)cc2)C(C)(C)C1=O
REMARK SMILES IDX 13 1 12 2 11 3 10 4 9 5 7 6 8 7 6 8 5 9 1 10 2 11 3 12 84 13
REMARK SMILES IDX 4 14 81 15 85 16 82 17 83 18 14 20 15 21 16 22 17 23 18 24
REMARK SMILES IDX 19 25 80 26 20 27 79 28 21 29 22 30 23 31 73 32 24 33 78 34
REMARK SMILES IDX 72 35 74 36 25 37 77 38 71 39 70 40 26 42 58 43 38 44 57 45
REMARK SMILES IDX 39 46 42 47 56 48 75 49 40 50 41 51 55 53 76 54 43 55 27 56
REMARK SMILES IDX 28 57 36 58 29 59 31 60 37 61 30 62 32 63 33 64 34 65 35 66
REMARK SMILES IDX 59 67 60 68 68 69 61 70 63 71 69 72 62 73 64 74 65 75 66 76
REMARK SMILES IDX 67 77 44 78 45 79 53 80 46 81 48 82 54 83 47 84 49 85 50 86
REMARK SMILES IDX 51 87 52 88
REMARK H PARENT 5 19 74 41 42 52
REMARK Flexibility Score: inf
ROOT
ATOM      1  C   UNL     1      -1.738  -0.471  -2.486  1.00  0.00     0.202 C 
ENDROOT
BRANCH   1   2
ATOM      2  O   UNL     1      -3.035  -0.272  -1.925  1.00  0.00    -0.374 OA
BRANCH   2   3
ATOM      3  C   UNL     1      -3.144  -0.459  -0.515  1.00  0.00     0.202 C 
BRANCH   3   4
ATOM      4  C   UNL     1      -3.191  -1.910  -0.028  1.00  0.00     0.261 C 
BRANCH   4   5
ATOM      5  O   UNL     1      -2.012  -2.699  -0.286  1.00  0.00    -0.459 OA
BRANCH   5   6
ATOM      6  C   UNL     1      -2.159  -3.674  -1.222  1.00  0.00     0.361 C 
ATOM      7  O   UNL     1      -3.031  -3.670  -2.088  1.00  0.00    -0.245 OA
BRANCH   6   8
ATOM      8  C   UNL     1      -1.262  -4.884  -1.000  1.00  0.00     0.387 C 
BRANCH   8   9
ATOM      9  N   UNL     1       0.171  -4.690  -0.774  1.00  0.00    -0.312 N 
ATOM     10  C   UNL     1       2.619  -1.131  -0.747  1.00  0.00     0.147 C 
ATOM     11  N   UNL     1       1.810  -2.333  -0.736  1.00  0.00    -0.335 N 
ATOM     12  C   UNL     1       1.386  -2.886  -2.009  1.00  0.00     0.180 C 
ATOM     13  C   UNL     1       1.159  -2.710   0.443  1.00  0.00     0.283 C 
ATOM     14  C   UNL     1       0.980  -4.356  -1.939  1.00  0.00     0.285 C 
ATOM     15  C   UNL     1       0.692  -4.194   0.520  1.00  0.00     0.172 C 
ATOM     16  O   UNL     1       1.135  -1.974   1.429  1.00  0.00    -0.268 OA
ATOM     17  C   UNL     1       1.987  -4.978   0.861  1.00  0.00     0.090 C 
ATOM     18  C   UNL     1      -0.261  -4.420   1.712  1.00  0.00     0.090 C 
ATOM     19  H   UNL     1       0.338  -5.680  -0.591  1.00  0.00     0.349 HD
ENDBRANCH   8   9
ENDBRANCH   6   8
ENDBRANCH   5   6
ENDBRANCH   4   5
ENDBRANCH   3   4
ENDBRANCH   2   3
ENDBRANCH   1   2
BRANCH   1  20
ATOM     20  C   UNL     1      -0.719   0.621  -2.155  1.00  0.00     0.261 C 
BRANCH  20  21
ATOM     21  O   UNL     1      -0.360   0.582  -0.763  1.00  0.00    -0.460 OA
BRANCH  21  22
ATOM     22  C   UNL     1      -0.093   1.795  -0.225  1.00  0.00     0.338 C 
ATOM     23  O   UNL     1       0.014   2.849  -0.828  1.00  0.00    -0.246 OA
BRANCH  22  24
ATOM     24  C   UNL     1      -0.070   1.716   1.247  1.00  0.00     0.060 A 
ATOM     25  C   UNL     1      -1.005   2.475   1.955  1.00  0.00     0.016 A 
ATOM     26  C   UNL     1       0.930   1.022   1.926  1.00  0.00     0.016 A 
ATOM     27  C   UNL     1      -0.885   2.601   3.339  1.00  0.00     0.010 A 
ATOM     28  C   UNL     1       1.027   1.117   3.317  1.00  0.00     0.010 A 
ATOM     29  C   UNL     1       0.163   1.964   4.022  1.00  0.00    -0.014 A 
BRANCH  29  30
ATOM     30  C   UNL     1       0.419   2.302   5.443  1.00  0.00     0.031 A 
ATOM     31  C   UNL     1       1.567   3.213   5.794  1.00  0.00     0.074 A 
ATOM     32  C   UNL     1      -0.384   1.822   6.409  1.00  0.00     0.049 A 
ATOM     33  N   UNL     1       1.850   3.780   6.939  1.00  0.00    -0.248 NA
ATOM     34  C   UNL     1       2.531   3.520   4.723  1.00  0.00     0.031 C 
ATOM     35  C   UNL     1      -1.464   0.857   6.204  1.00  0.00     0.029 A 
ATOM     36  N   UNL     1      -0.408   2.075   7.756  1.00  0.00    -0.354 N 
ATOM     37  C   UNL     1       3.022   4.500   6.729  1.00  0.00     0.074 A 
ATOM     38  C   UNL     1       3.422   4.266   5.360  1.00  0.00     0.031 C 
ATOM     39  C   UNL     1      -2.047   0.599   7.387  1.00  0.00     0.029 A 
ATOM     40  C   UNL     1      -1.393   1.390   8.427  1.00  0.00     0.049 A 
ATOM     41  H   UNL     1       0.221   2.688   8.201  1.00  0.00     0.167 HD
ATOM     42  C   UNL     1       3.684   5.311   7.587  1.00  0.00     0.034 A 
ATOM     43  C   UNL     1      -1.742   1.421   9.728  1.00  0.00     0.034 A 
ATOM     44  C   UNL     1       3.259   5.561   8.938  1.00  0.00     0.049 A 
ATOM     45  C   UNL     1      -1.045   2.392  10.644  1.00  0.00     0.074 A 
ATOM     46  C   UNL     1       3.792   6.439   9.864  1.00  0.00     0.029 A 
ATOM     47  N   UNL     1       2.199   4.918   9.559  1.00  0.00    -0.354 N 
ATOM     48  N   UNL     1      -0.073   3.231  10.374  1.00  0.00    -0.248 NA
ATOM     49  C   UNL     1      -1.530   2.464  12.030  1.00  0.00     0.031 C 
ATOM     50  C   UNL     1       3.064   6.313  11.053  1.00  0.00     0.029 A 
ATOM     51  C   UNL     1       2.067   5.370  10.860  1.00  0.00     0.049 A 
ATOM     52  H   UNL     1       1.625   4.239   9.137  1.00  0.00     0.167 HD
ATOM     53  C   UNL     1       0.151   3.948  11.543  1.00  0.00     0.074 A 
ATOM     54  C   UNL     1      -0.809   3.466  12.516  1.00  0.00     0.031 C 
ATOM     55  C   UNL     1       1.076   4.907  11.798  1.00  0.00     0.034 A 
BRANCH  42  56
ATOM     56  C   UNL     1       4.897   6.043   7.071  1.00  0.00     0.023 A 
ATOM     57  C   UNL     1       4.725   7.106   6.159  1.00  0.00     0.012 A 
ATOM     58  C   UNL     1       6.192   5.730   7.526  1.00  0.00     0.148 A 
ATOM     59  C   UNL     1       5.822   7.824   5.685  1.00  0.00     0.002 A 
ATOM     60  C   UNL     1       7.278   6.476   7.080  1.00  0.00     0.091 A 
ATOM     61  F   UNL     1       6.341   4.704   8.376  1.00  0.00    -0.205 F 
ATOM     62  C   UNL     1       7.096   7.516   6.153  1.00  0.00     0.022 A 
BRANCH  60  63
ATOM     63  S   UNL     1       8.953   6.208   7.676  1.00  0.00     0.127 S 
ATOM     64  O   UNL     1       9.592   5.615   6.502  1.00  0.00    -0.237 OA
ATOM     65  O   UNL     1       9.392   7.569   7.985  1.00  0.00    -0.237 OA
ATOM     66  O   UNL     1       8.832   5.332   8.832  1.00  0.00    -0.744 OA
ENDBRANCH  60  63
ENDBRANCH  42  56
BRANCH  43  67
ATOM     67  C   UNL     1      -2.878   0.584  10.205  1.00  0.00     0.023 A 
ATOM     68  C   UNL     1      -4.101   1.197  10.541  1.00  0.00     0.012 A 
ATOM     69  C   UNL     1      -2.771  -0.819  10.277  1.00  0.00     0.148 A 
ATOM     70  C   UNL     1      -5.188   0.432  10.966  1.00  0.00     0.002 A 
ATOM     71  C   UNL     1      -3.874  -1.579  10.650  1.00  0.00     0.091 A 
ATOM     72  F   UNL     1      -1.595  -1.384   9.969  1.00  0.00    -0.205 F 
ATOM     73  C   UNL     1      -5.079  -0.956  11.008  1.00  0.00     0.022 A 
BRANCH  71  74
ATOM     74  S   UNL     1      -3.859  -3.376  10.600  1.00  0.00     0.127 S 
ATOM     75  O   UNL     1      -3.760  -3.714  12.017  1.00  0.00    -0.237 OA
ATOM     76  O   UNL     1      -5.153  -3.675   9.984  1.00  0.00    -0.237 OA
ATOM     77  O   UNL     1      -2.712  -3.732   9.777  1.00  0.00    -0.744 OA
ENDBRANCH  71  74
ENDBRANCH  43  67
BRANCH  55  78
ATOM     78  C   UNL     1       1.094   5.504  13.181  1.00  0.00     0.023 A 
ATOM     79  C   UNL     1       1.583   4.740  14.259  1.00  0.00     0.012 A 
ATOM     80  C   UNL     1       0.692   6.835  13.402  1.00  0.00     0.148 A 
ATOM     81  C   UNL     1       1.636   5.279  15.543  1.00  0.00     0.002 A 
ATOM     82  C   UNL     1       0.791   7.381  14.676  1.00  0.00     0.091 A 
ATOM     83  F   UNL     1       0.212   7.542  12.368  1.00  0.00    -0.205 F 
ATOM     84  C   UNL     1       1.251   6.602  15.750  1.00  0.00     0.022 A 
BRANCH  82  85
ATOM     85  S   UNL     1       0.404   9.104  15.008  1.00  0.00     0.127 S 
ATOM     86  O   UNL     1      -0.929   9.003  15.598  1.00  0.00    -0.237 OA
ATOM     87  O   UNL     1       1.459   9.489  15.947  1.00  0.00    -0.237 OA
ATOM     88  O   UNL     1       0.475   9.780  13.719  1.00  0.00    -0.744 OA
ENDBRANCH  82  85
ENDBRANCH  55  78
ENDBRANCH  29  30
ENDBRANCH  22  24
ENDBRANCH  21  22
ENDBRANCH  20  21
ENDBRANCH   1  20
TORSDOF 18
