REMARK SMILES CCc1cc(OC(F)(F)F)cc2c1O[C@@H](C(F)(F)F)C(C(=O)OCCOCCOC(=O)c1ccc(-c3c4nc(c(-c5cccc(S(=O)(=O)[O-])c5F)c5ccc([nH]5)c(-c5cccc(S(=O)(=O)[O-])c5F)c5nc(c(-c6cccc(S(=O)(=O)[O-])c6F)c6ccc3[nH]6)C=C5)C=C4)cc1)=C2
REMARK SMILES IDX 27 1 26 2 25 3 24 4 23 5 21 6 22 7 20 8 3 9 4 10 13 11 5 12
REMARK SMILES IDX 12 13 14 14 11 15 95 16 15 17 2 18 1 19 6 20 7 21 8 22 9 23
REMARK SMILES IDX 10 24 16 25 17 26 18 27 19 28 28 29 29 30 30 31 31 32 32 33
REMARK SMILES IDX 33 34 94 35 34 36 93 37 35 38 36 39 37 40 87 41 38 42 92 43
REMARK SMILES IDX 86 44 88 45 39 46 91 47 85 48 84 49 40 51 72 52 52 53 71 54
REMARK SMILES IDX 53 55 56 56 70 57 89 58 54 59 55 60 69 62 90 63 57 64 41 65
REMARK SMILES IDX 42 66 50 67 43 68 45 69 51 70 44 71 46 72 47 73 48 74 49 75
REMARK SMILES IDX 73 76 74 77 82 78 75 79 77 80 83 81 76 82 78 83 79 84 80 85
REMARK SMILES IDX 81 86 58 87 59 88 67 89 60 90 62 91 68 92 61 93 63 94 64 95
REMARK SMILES IDX 65 96 66 97
REMARK H PARENT 88 50 56 61
REMARK Flexibility Score: inf
ROOT
ATOM      1  C   UNL     1       1.112   7.041   1.033  1.00  0.00     0.202 C 
ENDROOT
BRANCH   1   2
ATOM      2  O   UNL     1       0.077   8.020   1.069  1.00  0.00    -0.374 OA
BRANCH   2   3
ATOM      3  C   UNL     1      -0.423   8.438   2.335  1.00  0.00     0.202 C 
BRANCH   3   4
ATOM      4  C   UNL     1      -1.302   7.468   3.131  1.00  0.00     0.261 C 
BRANCH   4   5
ATOM      5  O   UNL     1      -0.683   6.185   3.302  1.00  0.00    -0.460 OA
BRANCH   5   6
ATOM      6  C   UNL     1      -1.283   5.180   2.622  1.00  0.00     0.338 C 
ATOM      7  O   UNL     1      -2.328   5.248   1.995  1.00  0.00    -0.246 OA
BRANCH   6   8
ATOM      8  C   UNL     1      -0.432   3.982   2.596  1.00  0.00     0.087 C 
ATOM      9  C   UNL     1       0.964   0.063   2.402  1.00  0.00    -0.002 A 
ATOM     10  C   UNL     1       1.714  -0.455   3.469  1.00  0.00     0.054 A 
ATOM     11  C   UNL     1       0.510   1.383   2.490  1.00  0.00     0.131 A 
ATOM     12  C   UNL     1       1.993   0.325   4.598  1.00  0.00     0.130 A 
ATOM     13  C   UNL     1       0.778   2.183   3.614  1.00  0.00     0.021 A 
ATOM     14  O   UNL     1      -0.285   1.840   1.466  1.00  0.00    -0.475 OA
ATOM     15  C   UNL     1       1.536   1.649   4.657  1.00  0.00     0.058 A 
ATOM     16  C   UNL     1       0.129   3.496   3.717  1.00  0.00     0.027 C 
ATOM     17  C   UNL     1      -0.212   3.273   1.281  1.00  0.00     0.316 C 
BRANCH   9  18
ATOM     18  C   UNL     1       0.610  -0.812   1.221  1.00  0.00     0.036 C 
ATOM     19  C   UNL     1       1.236  -0.355  -0.091  1.00  0.00     0.009 C 
ENDBRANCH   9  18
BRANCH  12  20
ATOM     20  O   UNL     1       2.678  -0.090   5.707  1.00  0.00    -0.406 OA
BRANCH  20  21
ATOM     21  C   UNL     1       2.906  -1.482   5.854  1.00  0.00     0.573 C 
ATOM     22  F   UNL     1       1.755  -2.185   5.765  1.00  0.00    -0.132 F 
ATOM     23  F   UNL     1       3.773  -1.930   4.919  1.00  0.00    -0.132 F 
ATOM     24  F   UNL     1       3.447  -1.716   7.069  1.00  0.00    -0.132 F 
ENDBRANCH  20  21
ENDBRANCH  12  20
BRANCH  17  25
ATOM     25  C   UNL     1      -1.060   3.646   0.054  1.00  0.00     0.430 C 
ATOM     26  F   UNL     1      -0.916   4.952  -0.272  1.00  0.00    -0.167 F 
ATOM     27  F   UNL     1      -0.620   2.948  -1.032  1.00  0.00    -0.167 F 
ATOM     28  F   UNL     1      -2.369   3.363   0.189  1.00  0.00    -0.167 F 
ENDBRANCH  17  25
ENDBRANCH   6   8
ENDBRANCH   5   6
ENDBRANCH   4   5
ENDBRANCH   3   4
ENDBRANCH   2   3
ENDBRANCH   1   2
BRANCH   1  29
ATOM     29  C   UNL     1       2.510   7.409   1.548  1.00  0.00     0.261 C 
BRANCH  29  30
ATOM     30  O   UNL     1       2.528   7.795   2.930  1.00  0.00    -0.460 OA
BRANCH  30  31
ATOM     31  C   UNL     1       2.789   9.110   3.138  1.00  0.00     0.338 C 
ATOM     32  O   UNL     1       3.044   9.953   2.293  1.00  0.00    -0.246 OA
BRANCH  31  33
ATOM     33  C   UNL     1       2.530   9.459   4.546  1.00  0.00     0.060 A 
ATOM     34  C   UNL     1       1.574  10.451   4.800  1.00  0.00     0.016 A 
ATOM     35  C   UNL     1       3.266   8.893   5.586  1.00  0.00     0.016 A 
ATOM     36  C   UNL     1       1.384  10.917   6.097  1.00  0.00     0.010 A 
ATOM     37  C   UNL     1       3.080   9.370   6.888  1.00  0.00     0.010 A 
ATOM     38  C   UNL     1       2.167  10.410   7.141  1.00  0.00    -0.014 A 
BRANCH  38  39
ATOM     39  C   UNL     1       2.119  11.071   8.467  1.00  0.00     0.031 A 
ATOM     40  C   UNL     1       3.235  11.996   8.867  1.00  0.00     0.074 A 
ATOM     41  C   UNL     1       1.078  10.867   9.294  1.00  0.00     0.049 A 
ATOM     42  N   UNL     1       3.390  12.675   9.973  1.00  0.00    -0.248 NA
ATOM     43  C   UNL     1       4.324  12.179   7.892  1.00  0.00     0.031 C 
ATOM     44  C   UNL     1      -0.064   9.997   9.014  1.00  0.00     0.029 A 
ATOM     45  N   UNL     1       0.825  11.364  10.547  1.00  0.00    -0.354 N 
ATOM     46  C   UNL     1       4.604  13.339   9.844  1.00  0.00     0.074 A 
ATOM     47  C   UNL     1       5.152  12.972   8.556  1.00  0.00     0.031 C 
ATOM     48  C   UNL     1      -0.886  10.002  10.077  1.00  0.00     0.029 A 
ATOM     49  C   UNL     1      -0.316  10.854  11.119  1.00  0.00     0.049 A 
ATOM     50  H   UNL     1       1.404  12.023  10.993  1.00  0.00     0.167 HD
ATOM     51  C   UNL     1       5.201  14.189  10.712  1.00  0.00     0.034 A 
ATOM     52  C   UNL     1      -0.828  11.034  12.353  1.00  0.00     0.034 A 
ATOM     53  C   UNL     1       4.643  14.566  11.983  1.00  0.00     0.049 A 
ATOM     54  C   UNL     1      -0.132  11.967  13.308  1.00  0.00     0.074 A 
ATOM     55  C   UNL     1       5.144  15.464  12.909  1.00  0.00     0.029 A 
ATOM     56  N   UNL     1       3.470  14.055  12.516  1.00  0.00    -0.354 N 
ATOM     57  N   UNL     1       0.952  12.682  13.123  1.00  0.00    -0.248 NA
ATOM     58  C   UNL     1      -0.748  12.146  14.631  1.00  0.00     0.031 C 
ATOM     59  C   UNL     1       4.295  15.465  14.021  1.00  0.00     0.029 A 
ATOM     60  C   UNL     1       3.241  14.602  13.768  1.00  0.00     0.049 A 
ATOM     61  H   UNL     1       2.886  13.400  12.071  1.00  0.00     0.167 HD
ATOM     62  C   UNL     1       1.127  13.420  14.290  1.00  0.00     0.074 A 
ATOM     63  C   UNL     1       0.024  13.082  15.165  1.00  0.00     0.031 C 
ATOM     64  C   UNL     1       2.116  14.291  14.612  1.00  0.00     0.034 A 
BRANCH  51  65
ATOM     65  C   UNL     1       6.528  14.782  10.313  1.00  0.00     0.023 A 
ATOM     66  C   UNL     1       6.586  15.755   9.295  1.00  0.00     0.012 A 
ATOM     67  C   UNL     1       7.709  14.417  10.989  1.00  0.00     0.148 A 
ATOM     68  C   UNL     1       7.803  16.331   8.932  1.00  0.00     0.002 A 
ATOM     69  C   UNL     1       8.910  15.030  10.655  1.00  0.00     0.091 A 
ATOM     70  F   UNL     1       7.636  13.475  11.940  1.00  0.00    -0.205 F 
ATOM     71  C   UNL     1       8.962  15.977   9.619  1.00  0.00     0.022 A 
BRANCH  69  72
ATOM     72  S   UNL     1      10.442  14.703  11.533  1.00  0.00     0.127 S 
ATOM     73  O   UNL     1      11.220  13.996  10.516  1.00  0.00    -0.237 OA
ATOM     74  O   UNL     1      10.917  16.053  11.835  1.00  0.00    -0.237 OA
ATOM     75  O   UNL     1      10.077  13.911  12.700  1.00  0.00    -0.744 OA
ENDBRANCH  69  72
ENDBRANCH  51  65
BRANCH  52  76
ATOM     76  C   UNL     1      -2.080  10.330  12.749  1.00  0.00     0.023 A 
ATOM     77  C   UNL     1      -3.259  11.068  12.966  1.00  0.00     0.012 A 
ATOM     78  C   UNL     1      -2.107   8.930  12.902  1.00  0.00     0.148 A 
ATOM     79  C   UNL     1      -4.435  10.427  13.361  1.00  0.00     0.002 A 
ATOM     80  C   UNL     1      -3.294   8.293  13.238  1.00  0.00     0.091 A 
ATOM     81  F   UNL     1      -0.969   8.248  12.705  1.00  0.00    -0.205 F 
ATOM     82  C   UNL     1      -4.455   9.040  13.487  1.00  0.00     0.022 A 
BRANCH  80  83
ATOM     83  S   UNL     1      -3.444   6.504  13.293  1.00  0.00     0.127 S 
ATOM     84  O   UNL     1      -3.635   6.264  14.721  1.00  0.00    -0.237 OA
ATOM     85  O   UNL     1      -4.629   6.277  12.465  1.00  0.00    -0.237 OA
ATOM     86  O   UNL     1      -2.207   5.986  12.725  1.00  0.00    -0.744 OA
ENDBRANCH  80  83
ENDBRANCH  52  76
BRANCH  64  87
ATOM     87  C   UNL     1       2.037  14.976  15.953  1.00  0.00     0.023 A 
ATOM     88  C   UNL     1       2.269  14.244  17.134  1.00  0.00     0.012 A 
ATOM     89  C   UNL     1       1.800  16.363  16.035  1.00  0.00     0.148 A 
ATOM     90  C   UNL     1       2.227  14.874  18.378  1.00  0.00     0.002 A 
ATOM     91  C   UNL     1       1.813  16.993  17.273  1.00  0.00     0.091 A 
ATOM     92  F   UNL     1       1.566  17.040  14.901  1.00  0.00    -0.205 F 
ATOM     93  C   UNL     1       2.012  16.248  18.447  1.00  0.00     0.022 A 
BRANCH  91  94
ATOM     94  S   UNL     1       1.643  18.773  17.451  1.00  0.00     0.127 S 
ATOM     95  O   UNL     1       0.316  18.886  18.053  1.00  0.00    -0.237 OA
ATOM     96  O   UNL     1       2.751  19.100  18.350  1.00  0.00    -0.237 OA
ATOM     97  O   UNL     1       1.770  19.326  16.110  1.00  0.00    -0.744 OA
ENDBRANCH  91  94
ENDBRANCH  64  87
ENDBRANCH  38  39
ENDBRANCH  31  33
ENDBRANCH  30  31
ENDBRANCH  29  30
ENDBRANCH   1  29
TORSDOF 21
