REMARK SMILES CCN(Cc1cn(CC)nc1C)C(=O)c1ccn([C@@H](C)C(=O)OCCOCCOC(=O)c2ccc(-c3c4nc(c(-c5cccc(S(=O)(=O)[O-])c5F)c5ccc([nH]5)c(-c5cccc(S(=O)(=O)[O-])c5F)c5nc(c(-c6cccc(S(=O)(=O)[O-])c6F)c6ccc3[nH]6)C=C5)C=C4)cc2)n1
REMARK SMILES IDX 24 1 23 2 21 3 22 4 19 5 20 6 18 7 15 8 16 9 95 10 17 11
REMARK SMILES IDX 13 12 14 13 3 14 2 15 1 16 4 17 5 18 6 19 11 20 7 21 10 22
REMARK SMILES IDX 12 23 8 24 9 25 25 26 26 27 27 28 28 29 29 30 30 31 31 32
REMARK SMILES IDX 32 33 33 34 94 35 34 36 93 37 35 38 36 39 37 40 87 41 38 42
REMARK SMILES IDX 92 43 86 44 88 45 39 46 91 47 85 48 84 49 40 51 72 52 52 53
REMARK SMILES IDX 71 54 53 55 56 56 70 57 89 58 54 59 55 60 69 62 90 63 57 64
REMARK SMILES IDX 41 65 42 66 50 67 43 68 45 69 51 70 44 71 46 72 47 73 48 74
REMARK SMILES IDX 49 75 73 76 74 77 82 78 75 79 77 80 83 81 76 82 78 83 79 84
REMARK SMILES IDX 80 85 81 86 58 87 59 88 67 89 60 90 62 91 68 92 61 93 63 94
REMARK SMILES IDX 64 95 65 96 66 97
REMARK H PARENT 88 50 56 61
REMARK Flexibility Score: inf
ROOT
ATOM      1  C   UNL     1       6.554   5.225  -7.454  1.00  0.00     0.261 C 
ENDROOT
BRANCH   1   2
ATOM      2  O   UNL     1       5.487   4.375  -6.985  1.00  0.00    -0.462 OA
BRANCH   2   3
ATOM      3  C   UNL     1       5.676   3.035  -7.078  1.00  0.00     0.330 C 
ATOM      4  O   UNL     1       6.619   2.519  -7.672  1.00  0.00    -0.250 OA
BRANCH   3   5
ATOM      5  C   UNL     1       4.570   2.210  -6.451  1.00  0.00     0.213 C 
ATOM      6  C   UNL     1       3.453   2.001  -7.463  1.00  0.00     0.046 C 
BRANCH   5   7
ATOM      7  N   UNL     1       4.053   2.658  -5.154  1.00  0.00    -0.258 N 
ATOM      8  C   UNL     1       3.189   2.408  -3.207  1.00  0.00     0.150 A 
ATOM      9  C   UNL     1       3.188   3.790  -3.489  1.00  0.00     0.056 A 
ATOM     10  N   UNL     1       3.727   1.714  -4.232  1.00  0.00    -0.167 NA
ATOM     11  C   UNL     1       3.707   3.914  -4.753  1.00  0.00     0.110 A 
BRANCH   8  12
ATOM     12  C   UNL     1       2.725   1.806  -1.946  1.00  0.00     0.274 C 
ATOM     13  O   UNL     1       3.543   1.353  -1.146  1.00  0.00    -0.267 OA
BRANCH  12  14
ATOM     14  N   UNL     1       1.349   1.846  -1.683  1.00  0.00    -0.333 N 
BRANCH  14  15
ATOM     15  C   UNL     1       0.892   1.556  -0.321  1.00  0.00     0.117 C 
ATOM     16  C   UNL     1       0.932   0.066  -0.005  1.00  0.00     0.027 C 
ENDBRANCH  14  15
BRANCH  14  17
ATOM     17  C   UNL     1       0.323   2.016  -2.715  1.00  0.00     0.159 C 
BRANCH  17  18
ATOM     18  C   UNL     1      -0.053   3.444  -2.931  1.00  0.00     0.012 A 
ATOM     19  C   UNL     1      -0.582   4.333  -2.015  1.00  0.00     0.114 A 
ATOM     20  C   UNL     1      -0.017   4.195  -4.146  1.00  0.00     0.064 A 
ATOM     21  N   UNL     1      -0.809   5.503  -2.680  1.00  0.00    -0.272 N 
ATOM     22  N   UNL     1      -0.422   5.458  -3.971  1.00  0.00    -0.178 NA
ATOM     23  C   UNL     1       0.406   3.773  -5.505  1.00  0.00     0.069 C 
BRANCH  21  24
ATOM     24  C   UNL     1      -1.330   6.735  -2.110  1.00  0.00     0.141 C 
ATOM     25  C   UNL     1      -0.233   7.486  -1.390  1.00  0.00     0.029 C 
ENDBRANCH  21  24
ENDBRANCH  17  18
ENDBRANCH  14  17
ENDBRANCH  12  14
ENDBRANCH   8  12
ENDBRANCH   5   7
ENDBRANCH   3   5
ENDBRANCH   2   3
ENDBRANCH   1   2
BRANCH   1  26
ATOM     26  C   UNL     1       7.332   5.810  -6.276  1.00  0.00     0.202 C 
BRANCH  26  27
ATOM     27  O   UNL     1       8.228   4.894  -5.641  1.00  0.00    -0.374 OA
BRANCH  27  28
ATOM     28  C   UNL     1       7.685   4.035  -4.639  1.00  0.00     0.202 C 
BRANCH  28  29
ATOM     29  C   UNL     1       7.523   4.651  -3.257  1.00  0.00     0.261 C 
BRANCH  29  30
ATOM     30  O   UNL     1       6.530   5.665  -3.276  1.00  0.00    -0.460 OA
BRANCH  30  31
ATOM     31  C   UNL     1       6.945   6.958  -3.316  1.00  0.00     0.338 C 
ATOM     32  O   UNL     1       8.062   7.375  -3.474  1.00  0.00    -0.246 OA
BRANCH  31  33
ATOM     33  C   UNL     1       5.754   7.768  -2.988  1.00  0.00     0.060 A 
ATOM     34  C   UNL     1       5.948   9.059  -2.503  1.00  0.00     0.016 A 
ATOM     35  C   UNL     1       4.507   7.142  -2.912  1.00  0.00     0.016 A 
ATOM     36  C   UNL     1       4.944   9.624  -1.740  1.00  0.00     0.010 A 
ATOM     37  C   UNL     1       3.538   7.665  -2.100  1.00  0.00     0.010 A 
ATOM     38  C   UNL     1       3.795   8.873  -1.468  1.00  0.00    -0.014 A 
BRANCH  38  39
ATOM     39  C   UNL     1       2.798   9.400  -0.560  1.00  0.00     0.031 A 
ATOM     40  C   UNL     1       1.957  10.467  -1.158  1.00  0.00     0.074 A 
ATOM     41  C   UNL     1       2.595   8.841   0.655  1.00  0.00     0.049 A 
ATOM     42  N   UNL     1       1.732  11.640  -0.677  1.00  0.00    -0.248 NA
ATOM     43  C   UNL     1       1.366  10.252  -2.493  1.00  0.00     0.031 C 
ATOM     44  C   UNL     1       3.207   7.610   1.180  1.00  0.00     0.029 A 
ATOM     45  N   UNL     1       1.708   9.178   1.635  1.00  0.00    -0.354 N 
ATOM     46  C   UNL     1       0.779  12.214  -1.513  1.00  0.00     0.074 A 
ATOM     47  C   UNL     1       0.647  11.360  -2.659  1.00  0.00     0.031 C 
ATOM     48  C   UNL     1       2.527   7.198   2.274  1.00  0.00     0.029 A 
ATOM     49  C   UNL     1       1.523   8.192   2.605  1.00  0.00     0.049 A 
ATOM     50  H   UNL     1       1.238  10.043   1.656  1.00  0.00     0.167 HD
ATOM     51  C   UNL     1       0.007  13.235  -1.068  1.00  0.00     0.034 A 
ATOM     52  C   UNL     1       0.589   8.173   3.588  1.00  0.00     0.034 A 
ATOM     53  C   UNL     1       0.639  13.922   0.024  1.00  0.00     0.049 A 
ATOM     54  C   UNL     1       0.103   9.556   3.754  1.00  0.00     0.074 A 
ATOM     55  C   UNL     1       1.832  14.598   0.175  1.00  0.00     0.029 A 
ATOM     56  N   UNL     1       0.201  13.600   1.282  1.00  0.00    -0.354 N 
ATOM     57  N   UNL     1       0.822  10.518   4.257  1.00  0.00    -0.248 NA
ATOM     58  C   UNL     1      -1.090   9.970   3.036  1.00  0.00     0.031 C 
ATOM     59  C   UNL     1       2.264  14.293   1.496  1.00  0.00     0.029 A 
ATOM     60  C   UNL     1       1.288  13.503   2.108  1.00  0.00     0.049 A 
ATOM     61  H   UNL     1      -0.737  13.462   1.547  1.00  0.00     0.167 HD
ATOM     62  C   UNL     1       0.445  11.634   3.528  1.00  0.00     0.074 A 
ATOM     63  C   UNL     1      -0.832  11.275   2.920  1.00  0.00     0.031 C 
ATOM     64  C   UNL     1       1.350  12.617   3.251  1.00  0.00     0.034 A 
BRANCH  51  65
ATOM     65  C   UNL     1      -1.474  13.335  -1.325  1.00  0.00     0.023 A 
ATOM     66  C   UNL     1      -2.118  14.518  -0.904  1.00  0.00     0.012 A 
ATOM     67  C   UNL     1      -2.292  12.226  -1.646  1.00  0.00     0.148 A 
ATOM     68  C   UNL     1      -3.505  14.576  -0.745  1.00  0.00     0.002 A 
ATOM     69  C   UNL     1      -3.675  12.308  -1.543  1.00  0.00     0.091 A 
ATOM     70  F   UNL     1      -1.734  11.045  -1.931  1.00  0.00    -0.205 F 
ATOM     71  C   UNL     1      -4.285  13.471  -1.064  1.00  0.00     0.022 A 
BRANCH  69  72
ATOM     72  S   UNL     1      -4.742  10.919  -1.951  1.00  0.00     0.127 S 
ATOM     73  O   UNL     1      -5.246  10.543  -0.634  1.00  0.00    -0.237 OA
ATOM     74  O   UNL     1      -5.721  11.551  -2.836  1.00  0.00    -0.237 OA
ATOM     75  O   UNL     1      -3.883   9.939  -2.604  1.00  0.00    -0.744 OA
ENDBRANCH  69  72
ENDBRANCH  51  65
BRANCH  52  76
ATOM     76  C   UNL     1      -0.061   7.059   4.320  1.00  0.00     0.023 A 
ATOM     77  C   UNL     1      -0.656   7.307   5.577  1.00  0.00     0.012 A 
ATOM     78  C   UNL     1      -0.372   5.851   3.663  1.00  0.00     0.148 A 
ATOM     79  C   UNL     1      -1.573   6.409   6.134  1.00  0.00     0.002 A 
ATOM     80  C   UNL     1      -1.288   4.960   4.219  1.00  0.00     0.091 A 
ATOM     81  F   UNL     1       0.152   5.625   2.451  1.00  0.00    -0.205 F 
ATOM     82  C   UNL     1      -1.901   5.243   5.448  1.00  0.00     0.022 A 
BRANCH  80  83
ATOM     83  S   UNL     1      -1.809   3.463   3.369  1.00  0.00     0.127 S 
ATOM     84  O   UNL     1      -1.625   2.446   4.404  1.00  0.00    -0.237 OA
ATOM     85  O   UNL     1      -3.201   3.768   3.049  1.00  0.00    -0.237 OA
ATOM     86  O   UNL     1      -0.922   3.321   2.220  1.00  0.00    -0.744 OA
ENDBRANCH  80  83
ENDBRANCH  52  76
BRANCH  64  87
ATOM     87  C   UNL     1       2.635  12.634   4.041  1.00  0.00     0.023 A 
ATOM     88  C   UNL     1       3.573  11.581   4.008  1.00  0.00     0.012 A 
ATOM     89  C   UNL     1       2.974  13.822   4.710  1.00  0.00     0.148 A 
ATOM     90  C   UNL     1       4.809  11.703   4.650  1.00  0.00     0.002 A 
ATOM     91  C   UNL     1       4.226  13.963   5.293  1.00  0.00     0.091 A 
ATOM     92  F   UNL     1       2.070  14.814   4.741  1.00  0.00    -0.205 F 
ATOM     93  C   UNL     1       5.143  12.901   5.278  1.00  0.00     0.022 A 
BRANCH  91  94
ATOM     94  S   UNL     1       4.754  15.534   5.978  1.00  0.00     0.127 S 
ATOM     95  O   UNL     1       4.571  15.321   7.412  1.00  0.00    -0.237 OA
ATOM     96  O   UNL     1       6.150  15.617   5.544  1.00  0.00    -0.237 OA
ATOM     97  O   UNL     1       3.889  16.540   5.373  1.00  0.00    -0.744 OA
ENDBRANCH  91  94
ENDBRANCH  64  87
ENDBRANCH  38  39
ENDBRANCH  31  33
ENDBRANCH  30  31
ENDBRANCH  29  30
ENDBRANCH  28  29
ENDBRANCH  27  28
ENDBRANCH  26  27
ENDBRANCH   1  26
TORSDOF 24
