REMARK SMILES Cc1ccc(NC(=O)c2ccccc2NC(=O)[C@H]2CCCC[C@H]2C(=O)OCCOCCOC(=O)c2ccc(-c3c4nc(c(-c5cccc(S(=O)(=O)[O-])c5F)c5ccc([nH]5)c(-c5cccc(S(=O)(=O)[O-])c5F)c5nc(c(-c6cccc(S(=O)(=O)[O-])c6F)c6ccc3[nH]6)C=C5)C=C4)cc2)cc1
REMARK SMILES IDX 28 1 27 2 26 3 24 4 25 5 23 6 18 7 19 8 20 9 22 10 21 11
REMARK SMILES IDX 16 12 15 13 17 15 14 16 9 17 10 18 11 19 13 20 12 21 7 22
REMARK SMILES IDX 6 23 8 25 5 26 1 27 2 28 3 29 99 30 4 31 98 32 29 33 30 34
REMARK SMILES IDX 31 35 32 36 33 37 34 38 35 39 36 40 97 41 37 42 96 43 38 44
REMARK SMILES IDX 39 45 40 46 90 47 41 48 95 49 89 50 91 51 42 52 94 53 88 54
REMARK SMILES IDX 87 55 43 57 75 58 55 59 74 60 56 61 59 62 73 63 92 64 57 65
REMARK SMILES IDX 58 66 72 68 93 69 60 70 44 71 45 72 53 73 46 74 48 75 54 76
REMARK SMILES IDX 47 77 49 78 50 79 51 80 52 81 76 82 77 83 85 84 78 85 80 86
REMARK SMILES IDX 86 87 79 88 81 89 82 90 83 91 84 92 61 93 62 94 70 95 63 96
REMARK SMILES IDX 65 97 71 98 64 99 66 100 67 101 68 102 69 103
REMARK H PARENT 15 14 6 24 91 56 59 67
REMARK Flexibility Score: inf
ROOT
ATOM      1  C   UNL     1      -2.784   1.576   4.839  1.00  0.00     0.202 C 
ENDROOT
BRANCH   1   2
ATOM      2  C   UNL     1      -1.720   0.812   5.646  1.00  0.00     0.261 C 
BRANCH   2   3
ATOM      3  O   UNL     1      -1.276  -0.363   5.008  1.00  0.00    -0.463 OA
BRANCH   3   4
ATOM      4  C   UNL     1      -2.061  -1.417   5.282  1.00  0.00     0.309 C 
ATOM      5  O   UNL     1      -3.073  -1.405   5.970  1.00  0.00    -0.252 OA
BRANCH   4   6
ATOM      6  C   UNL     1      -1.589  -2.630   4.553  1.00  0.00     0.111 C 
ATOM      7  C   UNL     1      -0.473  -2.419   3.495  1.00  0.00     0.093 C 
ATOM      8  C   UNL     1      -0.241  -3.760   2.784  1.00  0.00     0.014 C 
ATOM      9  C   UNL     1      -0.065  -4.939   3.754  1.00  0.00     0.001 C 
ATOM     10  C   UNL     1      -1.326  -3.749   5.552  1.00  0.00     0.016 C 
ATOM     11  C   UNL     1      -1.180  -5.050   4.788  1.00  0.00     0.001 C 
BRANCH   7  12
ATOM     12  C   UNL     1       0.859  -1.847   4.010  1.00  0.00     0.228 C 
ATOM     13  N   UNL     1       1.616  -0.910   3.354  1.00  0.00    -0.325 N 
ATOM     14  H   UNL     1       2.404  -0.661   3.889  1.00  0.00     0.169 HD
ATOM     15  O   UNL     1       1.330  -2.253   5.080  1.00  0.00    -0.274 OA
BRANCH  13  16
ATOM     16  C   UNL     1       1.595  -0.195   2.127  1.00  0.00     0.054 A 
ATOM     17  C   UNL     1       2.477   0.909   1.924  1.00  0.00     0.063 A 
ATOM     18  C   UNL     1       2.176   1.843   0.906  1.00  0.00     0.016 A 
ATOM     19  C   UNL     1       1.112   1.647   0.033  1.00  0.00     0.001 A 
ATOM     20  C   UNL     1       0.658  -0.464   1.122  1.00  0.00     0.027 A 
ATOM     21  C   UNL     1       0.395   0.464   0.104  1.00  0.00     0.002 A 
BRANCH  17  22
ATOM     22  C   UNL     1       3.672   1.297   2.752  1.00  0.00     0.257 C 
ATOM     23  N   UNL     1       4.489   0.401   3.409  1.00  0.00    -0.322 N 
ATOM     24  H   UNL     1       5.050   0.805   4.110  1.00  0.00     0.170 HD
ATOM     25  O   UNL     1       3.955   2.493   2.853  1.00  0.00    -0.269 OA
BRANCH  23  26
ATOM     26  C   UNL     1       4.662  -0.981   3.259  1.00  0.00     0.041 A 
ATOM     27  C   UNL     1       3.864  -5.171   3.482  1.00  0.00     0.044 C 
ATOM     28  C   UNL     1       4.287  -3.740   3.369  1.00  0.00    -0.051 A 
ATOM     29  C   UNL     1       4.080  -3.047   2.172  1.00  0.00     0.005 A 
ATOM     30  C   UNL     1       4.848  -3.065   4.455  1.00  0.00     0.005 A 
ATOM     31  C   UNL     1       4.291  -1.671   2.112  1.00  0.00     0.026 A 
ATOM     32  C   UNL     1       5.097  -1.696   4.372  1.00  0.00     0.026 A 
ENDBRANCH  23  26
ENDBRANCH  17  22
ENDBRANCH  13  16
ENDBRANCH   7  12
ENDBRANCH   4   6
ENDBRANCH   3   4
ENDBRANCH   2   3
ENDBRANCH   1   2
BRANCH   1  33
ATOM     33  O   UNL     1      -2.858   1.328   3.456  1.00  0.00    -0.374 OA
BRANCH  33  34
ATOM     34  C   UNL     1      -1.623   1.437   2.767  1.00  0.00     0.202 C 
BRANCH  34  35
ATOM     35  C   UNL     1      -0.422   2.354   3.253  1.00  0.00     0.261 C 
BRANCH  35  36
ATOM     36  O   UNL     1      -0.676   3.197   4.412  1.00  0.00    -0.460 OA
BRANCH  36  37
ATOM     37  C   UNL     1       0.217   3.939   5.144  1.00  0.00     0.338 C 
ATOM     38  O   UNL     1       1.359   4.222   4.795  1.00  0.00    -0.246 OA
BRANCH  37  39
ATOM     39  C   UNL     1      -0.450   4.255   6.487  1.00  0.00     0.060 A 
ATOM     40  C   UNL     1       0.209   4.192   7.710  1.00  0.00     0.016 A 
ATOM     41  C   UNL     1      -1.806   4.060   6.560  1.00  0.00     0.016 A 
ATOM     42  C   UNL     1      -0.298   3.368   8.744  1.00  0.00     0.010 A 
ATOM     43  C   UNL     1      -2.236   3.103   7.464  1.00  0.00     0.010 A 
ATOM     44  C   UNL     1      -1.408   2.609   8.476  1.00  0.00    -0.014 A 
BRANCH  44  45
ATOM     45  C   UNL     1      -1.835   1.353   9.122  1.00  0.00     0.031 A 
ATOM     46  C   UNL     1      -3.176   1.389   9.770  1.00  0.00     0.074 A 
ATOM     47  C   UNL     1      -1.206   0.147   8.954  1.00  0.00     0.049 A 
ATOM     48  N   UNL     1      -3.626   0.480  10.558  1.00  0.00    -0.248 NA
ATOM     49  C   UNL     1      -4.117   2.507   9.632  1.00  0.00     0.031 C 
ATOM     50  C   UNL     1      -1.851  -1.179   9.037  1.00  0.00     0.029 A 
ATOM     51  N   UNL     1       0.102  -0.199   8.614  1.00  0.00    -0.354 N 
ATOM     52  C   UNL     1      -4.971   0.720  10.730  1.00  0.00     0.074 A 
ATOM     53  C   UNL     1      -5.186   2.062  10.288  1.00  0.00     0.031 C 
ATOM     54  C   UNL     1      -0.935  -2.156   8.938  1.00  0.00     0.029 A 
ATOM     55  C   UNL     1       0.370  -1.540   8.955  1.00  0.00     0.049 A 
ATOM     56  H   UNL     1       0.751   0.411   8.194  1.00  0.00     0.167 HD
ATOM     57  C   UNL     1      -5.780  -0.307  11.090  1.00  0.00     0.034 A 
ATOM     58  C   UNL     1       1.348  -1.903   9.845  1.00  0.00     0.034 A 
ATOM     59  C   UNL     1      -4.968  -1.482  11.444  1.00  0.00     0.049 A 
ATOM     60  C   UNL     1       0.792  -2.284  11.207  1.00  0.00     0.074 A 
ATOM     61  C   UNL     1      -4.699  -2.685  10.821  1.00  0.00     0.029 A 
ATOM     62  N   UNL     1      -4.005  -1.340  12.442  1.00  0.00    -0.354 N 
ATOM     63  N   UNL     1      -0.479  -2.461  11.452  1.00  0.00    -0.248 NA
ATOM     64  C   UNL     1       1.602  -2.491  12.407  1.00  0.00     0.031 C 
ATOM     65  C   UNL     1      -3.502  -3.213  11.396  1.00  0.00     0.029 A 
ATOM     66  C   UNL     1      -3.072  -2.365  12.407  1.00  0.00     0.049 A 
ATOM     67  H   UNL     1      -3.989  -0.602  13.092  1.00  0.00     0.167 HD
ATOM     68  C   UNL     1      -0.693  -2.524  12.801  1.00  0.00     0.074 A 
ATOM     69  C   UNL     1       0.650  -2.673  13.340  1.00  0.00     0.031 C 
ATOM     70  C   UNL     1      -1.942  -2.357  13.349  1.00  0.00     0.034 A 
BRANCH  57  71
ATOM     71  C   UNL     1      -7.298  -0.309  11.002  1.00  0.00     0.023 A 
ATOM     72  C   UNL     1      -7.949  -1.423  11.572  1.00  0.00     0.012 A 
ATOM     73  C   UNL     1      -8.141   0.641  10.359  1.00  0.00     0.148 A 
ATOM     74  C   UNL     1      -9.339  -1.585  11.524  1.00  0.00     0.002 A 
ATOM     75  C   UNL     1      -9.536   0.516  10.378  1.00  0.00     0.091 A 
ATOM     76  F   UNL     1      -7.616   1.632   9.635  1.00  0.00    -0.205 F 
ATOM     77  C   UNL     1     -10.136  -0.607  10.948  1.00  0.00     0.022 A 
BRANCH  75  78
ATOM     78  S   UNL     1     -10.650   1.767   9.698  1.00  0.00     0.127 S 
ATOM     79  O   UNL     1     -11.308   1.039   8.612  1.00  0.00    -0.237 OA
ATOM     80  O   UNL     1     -11.518   2.066  10.838  1.00  0.00    -0.237 OA
ATOM     81  O   UNL     1      -9.812   2.881   9.271  1.00  0.00    -0.744 OA
ENDBRANCH  75  78
ENDBRANCH  57  71
BRANCH  58  82
ATOM     82  C   UNL     1       2.651  -1.247   9.548  1.00  0.00     0.023 A 
ATOM     83  C   UNL     1       3.195  -1.609   8.293  1.00  0.00     0.012 A 
ATOM     84  C   UNL     1       2.954   0.005  10.097  1.00  0.00     0.148 A 
ATOM     85  C   UNL     1       3.819  -0.654   7.504  1.00  0.00     0.002 A 
ATOM     86  C   UNL     1       3.574   0.947   9.283  1.00  0.00     0.091 A 
ATOM     87  F   UNL     1       2.472   0.315  11.308  1.00  0.00    -0.205 F 
ATOM     88  C   UNL     1       4.020   0.620   7.990  1.00  0.00     0.022 A 
BRANCH  86  89
ATOM     89  S   UNL     1       3.154   2.680   9.434  1.00  0.00     0.127 S 
ATOM     90  O   UNL     1       4.447   3.353   9.439  1.00  0.00    -0.237 OA
ATOM     91  O   UNL     1       2.421   2.805   8.179  1.00  0.00    -0.237 OA
ATOM     92  O   UNL     1       2.370   2.811  10.652  1.00  0.00    -0.744 OA
ENDBRANCH  86  89
ENDBRANCH  58  82
BRANCH  70  93
ATOM     93  C   UNL     1      -2.212  -2.139  14.838  1.00  0.00     0.023 A 
ATOM     94  C   UNL     1      -1.197  -1.788  15.749  1.00  0.00     0.012 A 
ATOM     95  C   UNL     1      -3.531  -2.172  15.366  1.00  0.00     0.148 A 
ATOM     96  C   UNL     1      -1.445  -1.605  17.114  1.00  0.00     0.002 A 
ATOM     97  C   UNL     1      -3.792  -1.835  16.691  1.00  0.00     0.091 A 
ATOM     98  F   UNL     1      -4.556  -2.567  14.598  1.00  0.00    -0.205 F 
ATOM     99  C   UNL     1      -2.747  -1.609  17.584  1.00  0.00     0.022 A 
BRANCH  97 100
ATOM    100  S   UNL     1      -5.466  -1.526  17.271  1.00  0.00     0.127 S 
ATOM    101  O   UNL     1      -5.778  -2.772  17.967  1.00  0.00    -0.237 OA
ATOM    102  O   UNL     1      -5.279  -0.368  18.147  1.00  0.00    -0.237 OA
ATOM    103  O   UNL     1      -6.246  -1.247  16.073  1.00  0.00    -0.744 OA
ENDBRANCH  97 100
ENDBRANCH  70  93
ENDBRANCH  44  45
ENDBRANCH  37  39
ENDBRANCH  36  37
ENDBRANCH  35  36
ENDBRANCH  34  35
ENDBRANCH  33  34
ENDBRANCH   1  33
TORSDOF 21
