REMARK SMILES CN(C(=O)N[C@@](C)(C(=O)OCCOCCOC(=O)c1ccc(-c2c3nc(c(-c4cccc(S(=O)(=O)[O-])c4F)c4ccc([nH]4)c(-c4cccc(S(=O)(=O)[O-])c4F)c4nc(c(-c5cccc(S(=O)(=O)[O-])c5F)c5ccc2[nH]5)C=C4)C=C3)cc1)C(F)(F)F)c1ccc(F)cc1
REMARK SMILES IDX 13 1 12 2 11 3 10 4 8 5 9 6 6 7 7 8 5 9 3 10 4 11 2 13 1 14
REMARK SMILES IDX 86 15 87 16 92 17 88 18 91 19 89 20 90 21 82 22 83 23 84 24
REMARK SMILES IDX 85 25 14 26 15 27 16 28 17 29 18 30 19 31 20 32 81 33 21 34
REMARK SMILES IDX 80 35 22 36 23 37 24 38 74 39 25 40 79 41 73 42 75 43 26 44
REMARK SMILES IDX 78 45 72 46 71 47 27 49 59 50 39 51 58 52 40 53 43 54 57 55
REMARK SMILES IDX 76 56 41 57 42 58 56 60 77 61 44 62 28 63 29 64 37 65 30 66
REMARK SMILES IDX 32 67 38 68 31 69 33 70 34 71 35 72 36 73 60 74 61 75 69 76
REMARK SMILES IDX 62 77 64 78 70 79 63 80 65 81 66 82 67 83 68 84 45 85 46 86
REMARK SMILES IDX 54 87 47 88 49 89 55 90 48 91 50 92 51 93 52 94 53 95
REMARK H PARENT 5 12 75 48 43 59
REMARK Flexibility Score: inf
ROOT
ATOM      1  O   UNL     1       3.128   2.897   3.350  1.00  0.00    -0.374 OA
ENDROOT
BRANCH   1   2
ATOM      2  C   UNL     1       2.366   3.849   4.083  1.00  0.00     0.202 C 
BRANCH   2   3
ATOM      3  C   UNL     1       0.912   4.126   3.664  1.00  0.00     0.261 C 
BRANCH   3   4
ATOM      4  O   UNL     1       0.309   3.108   2.850  1.00  0.00    -0.461 OA
BRANCH   4   5
ATOM      5  C   UNL     1       0.371   3.329   1.501  1.00  0.00     0.341 C 
ATOM      6  O   UNL     1       0.845   4.345   1.008  1.00  0.00    -0.249 OA
BRANCH   5   7
ATOM      7  C   UNL     1      -0.382   2.240   0.716  1.00  0.00     0.232 C 
ATOM      8  C   UNL     1      -1.867   2.675   0.710  1.00  0.00     0.058 C 
BRANCH   7   9
ATOM      9  N   UNL     1      -0.383   0.906   1.466  1.00  0.00    -0.314 N 
ATOM     10  C   UNL     1       0.008  -0.373   1.550  1.00  0.00     0.322 C 
ATOM     11  O   UNL     1      -0.405  -0.907   2.590  1.00  0.00    -0.248 OA
ATOM     12  H   UNL     1      -0.930   1.062   2.270  1.00  0.00     0.166 HD
BRANCH  10  13
ATOM     13  N   UNL     1       0.801  -1.049   0.662  1.00  0.00    -0.298 N 
ATOM     14  C   UNL     1       1.505  -0.459  -0.456  1.00  0.00     0.155 C 
BRANCH  13  15
ATOM     15  C   UNL     1       1.008  -2.475   0.809  1.00  0.00     0.045 A 
ATOM     16  C   UNL     1      -0.050  -3.339   1.135  1.00  0.00     0.029 A 
ATOM     17  C   UNL     1       2.265  -3.048   0.531  1.00  0.00     0.029 A 
ATOM     18  C   UNL     1       0.128  -4.729   1.115  1.00  0.00     0.041 A 
ATOM     19  C   UNL     1       2.446  -4.434   0.518  1.00  0.00     0.041 A 
ATOM     20  C   UNL     1       1.369  -5.262   0.794  1.00  0.00     0.123 A 
ATOM     21  F   UNL     1       1.530  -6.591   0.740  1.00  0.00    -0.207 F 
ENDBRANCH  13  15
ENDBRANCH  10  13
ENDBRANCH   7   9
BRANCH   7  22
ATOM     22  C   UNL     1       0.115   2.372  -0.725  1.00  0.00     0.422 C 
ATOM     23  F   UNL     1       1.441   2.148  -0.848  1.00  0.00    -0.168 F 
ATOM     24  F   UNL     1      -0.533   1.502  -1.541  1.00  0.00    -0.168 F 
ATOM     25  F   UNL     1      -0.124   3.594  -1.259  1.00  0.00    -0.168 F 
ENDBRANCH   7  22
ENDBRANCH   5   7
ENDBRANCH   4   5
ENDBRANCH   3   4
ENDBRANCH   2   3
ENDBRANCH   1   2
BRANCH   1  26
ATOM     26  C   UNL     1       2.696   1.539   3.333  1.00  0.00     0.202 C 
BRANCH  26  27
ATOM     27  C   UNL     1       2.458   0.806   4.657  1.00  0.00     0.261 C 
BRANCH  27  28
ATOM     28  O   UNL     1       1.468   1.438   5.488  1.00  0.00    -0.460 OA
BRANCH  28  29
ATOM     29  C   UNL     1       1.891   1.697   6.751  1.00  0.00     0.338 C 
ATOM     30  O   UNL     1       2.982   1.436   7.231  1.00  0.00    -0.246 OA
BRANCH  29  31
ATOM     31  C   UNL     1       0.904   2.520   7.470  1.00  0.00     0.060 A 
ATOM     32  C   UNL     1       1.331   3.767   7.944  1.00  0.00     0.016 A 
ATOM     33  C   UNL     1      -0.361   2.029   7.795  1.00  0.00     0.016 A 
ATOM     34  C   UNL     1       0.509   4.505   8.791  1.00  0.00     0.010 A 
ATOM     35  C   UNL     1      -1.183   2.772   8.651  1.00  0.00     0.010 A 
ATOM     36  C   UNL     1      -0.735   3.993   9.185  1.00  0.00    -0.014 A 
BRANCH  36  37
ATOM     37  C   UNL     1      -1.492   4.690  10.253  1.00  0.00     0.031 A 
ATOM     38  C   UNL     1      -1.398   4.197  11.671  1.00  0.00     0.074 A 
ATOM     39  C   UNL     1      -2.216   5.787   9.968  1.00  0.00     0.049 A 
ATOM     40  N   UNL     1      -1.891   4.722  12.763  1.00  0.00    -0.248 NA
ATOM     41  C   UNL     1      -0.647   2.951  11.888  1.00  0.00     0.031 C 
ATOM     42  C   UNL     1      -2.385   6.360   8.634  1.00  0.00     0.029 A 
ATOM     43  N   UNL     1      -2.943   6.612  10.787  1.00  0.00    -0.354 N 
ATOM     44  C   UNL     1      -1.520   3.869  13.796  1.00  0.00     0.074 A 
ATOM     45  C   UNL     1      -0.784   2.777  13.194  1.00  0.00     0.031 C 
ATOM     46  C   UNL     1      -3.168   7.449   8.726  1.00  0.00     0.029 A 
ATOM     47  C   UNL     1      -3.562   7.642  10.120  1.00  0.00     0.049 A 
ATOM     48  H   UNL     1      -3.015   6.479  11.760  1.00  0.00     0.167 HD
ATOM     49  C   UNL     1      -1.746   3.994  15.126  1.00  0.00     0.034 A 
ATOM     50  C   UNL     1      -4.349   8.632  10.584  1.00  0.00     0.034 A 
ATOM     51  C   UNL     1      -2.470   5.083  15.725  1.00  0.00     0.049 A 
ATOM     52  C   UNL     1      -4.611   8.734  12.063  1.00  0.00     0.074 A 
ATOM     53  C   UNL     1      -2.718   5.322  17.065  1.00  0.00     0.029 A 
ATOM     54  N   UNL     1      -3.078   6.111  15.019  1.00  0.00    -0.354 N 
ATOM     55  N   UNL     1      -4.140   7.996  13.040  1.00  0.00    -0.248 NA
ATOM     56  C   UNL     1      -5.484   9.831  12.507  1.00  0.00     0.031 C 
ATOM     57  C   UNL     1      -3.493   6.484  17.168  1.00  0.00     0.029 A 
ATOM     58  C   UNL     1      -3.713   6.979  15.892  1.00  0.00     0.049 A 
ATOM     59  H   UNL     1      -3.061   6.209  14.040  1.00  0.00     0.167 HD
ATOM     60  C   UNL     1      -4.632   8.557  14.214  1.00  0.00     0.074 A 
ATOM     61  C   UNL     1      -5.419   9.710  13.826  1.00  0.00     0.031 C 
ATOM     62  C   UNL     1      -4.460   8.147  15.496  1.00  0.00     0.034 A 
BRANCH  49  63
ATOM     63  C   UNL     1      -1.166   2.932  16.023  1.00  0.00     0.023 A 
ATOM     64  C   UNL     1       0.227   2.899  16.247  1.00  0.00     0.012 A 
ATOM     65  C   UNL     1      -1.987   1.979  16.655  1.00  0.00     0.148 A 
ATOM     66  C   UNL     1       0.796   1.913  17.051  1.00  0.00     0.002 A 
ATOM     67  C   UNL     1      -1.416   1.021  17.488  1.00  0.00     0.091 A 
ATOM     68  F   UNL     1      -3.305   2.003  16.411  1.00  0.00    -0.205 F 
ATOM     69  C   UNL     1      -0.025   0.979  17.677  1.00  0.00     0.022 A 
BRANCH  67  70
ATOM     70  S   UNL     1      -2.409  -0.175  18.387  1.00  0.00     0.127 S 
ATOM     71  O   UNL     1      -2.278  -1.363  17.545  1.00  0.00    -0.237 OA
ATOM     72  O   UNL     1      -1.713  -0.260  19.672  1.00  0.00    -0.237 OA
ATOM     73  O   UNL     1      -3.743   0.404  18.466  1.00  0.00    -0.744 OA
ENDBRANCH  67  70
ENDBRANCH  49  63
BRANCH  50  74
ATOM     74  C   UNL     1      -4.878   9.656   9.640  1.00  0.00     0.023 A 
ATOM     75  C   UNL     1      -4.366  10.967   9.688  1.00  0.00     0.012 A 
ATOM     76  C   UNL     1      -5.849   9.331   8.674  1.00  0.00     0.148 A 
ATOM     77  C   UNL     1      -4.825  11.942   8.802  1.00  0.00     0.002 A 
ATOM     78  C   UNL     1      -6.264  10.293   7.760  1.00  0.00     0.091 A 
ATOM     79  F   UNL     1      -6.334   8.081   8.657  1.00  0.00    -0.205 F 
ATOM     80  C   UNL     1      -5.764  11.602   7.832  1.00  0.00     0.022 A 
BRANCH  78  81
ATOM     81  S   UNL     1      -7.372   9.917   6.397  1.00  0.00     0.127 S 
ATOM     82  O   UNL     1      -8.565  10.676   6.763  1.00  0.00    -0.237 OA
ATOM     83  O   UNL     1      -6.630  10.447   5.253  1.00  0.00    -0.237 OA
ATOM     84  O   UNL     1      -7.521   8.468   6.397  1.00  0.00    -0.744 OA
ENDBRANCH  78  81
ENDBRANCH  50  74
BRANCH  62  85
ATOM     85  C   UNL     1      -5.126   8.959  16.578  1.00  0.00     0.023 A 
ATOM     86  C   UNL     1      -6.525   8.894  16.736  1.00  0.00     0.012 A 
ATOM     87  C   UNL     1      -4.369   9.746  17.467  1.00  0.00     0.148 A 
ATOM     88  C   UNL     1      -7.163   9.630  17.734  1.00  0.00     0.002 A 
ATOM     89  C   UNL     1      -5.007  10.442  18.489  1.00  0.00     0.091 A 
ATOM     90  F   UNL     1      -3.041   9.817  17.292  1.00  0.00    -0.205 F 
ATOM     91  C   UNL     1      -6.404  10.395  18.616  1.00  0.00     0.022 A 
BRANCH  89  92
ATOM     92  S   UNL     1      -4.090  11.376  19.720  1.00  0.00     0.127 S 
ATOM     93  O   UNL     1      -4.208  12.741  19.211  1.00  0.00    -0.237 OA
ATOM     94  O   UNL     1      -4.848  11.116  20.946  1.00  0.00    -0.237 OA
ATOM     95  O   UNL     1      -2.746  10.813  19.718  1.00  0.00    -0.744 OA
ENDBRANCH  89  92
ENDBRANCH  62  85
ENDBRANCH  36  37
ENDBRANCH  29  31
ENDBRANCH  28  29
ENDBRANCH  27  28
ENDBRANCH  26  27
ENDBRANCH   1  26
TORSDOF 21
