REMARK SMILES CC(C)Cc1cc2c(cc1Cl)C=C(C(=O)OCCOCCOC(=O)c1ccc(-c3c4nc(c(-c5cccc(S(=O)(=O)[O-])c5F)c5ccc([nH]5)c(-c5cccc(S(=O)(=O)[O-])c5F)c5nc(c(-c6cccc(S(=O)(=O)[O-])c6F)c6ccc3[nH]6)C=C5)C=C4)cc1)[C@@H](C(F)(F)F)O2
REMARK SMILES IDX 20 1 19 2 18 3 17 4 16 5 14 6 15 7 13 8 5 9 6 10 10 11 7 12
REMARK SMILES IDX 9 13 11 14 8 15 93 16 12 17 88 18 4 19 2 20 1 21 3 22 89 23
REMARK SMILES IDX 90 24 91 25 92 26 21 27 22 28 23 29 24 30 25 31 26 32 87 33
REMARK SMILES IDX 27 34 86 35 28 36 29 37 30 38 80 39 31 40 85 41 79 42 81 43
REMARK SMILES IDX 32 44 84 45 78 46 77 47 33 49 65 50 45 51 64 52 46 53 49 54
REMARK SMILES IDX 63 55 82 56 47 57 48 58 62 60 83 61 50 62 34 63 35 64 43 65
REMARK SMILES IDX 36 66 38 67 44 68 37 69 39 70 40 71 41 72 42 73 66 74 67 75
REMARK SMILES IDX 75 76 68 77 70 78 76 79 69 80 71 81 72 82 73 83 74 84 51 85
REMARK SMILES IDX 52 86 60 87 53 88 55 89 61 90 54 91 56 92 57 93 58 94 59 95
REMARK H PARENT 81 48 49 59
REMARK Flexibility Score: inf
ROOT
ATOM      1  C   UNL     1      -2.027   1.785   8.168  1.00  0.00     0.202 C 
ENDROOT
BRANCH   1   2
ATOM      2  O   UNL     1      -3.086   1.978   9.103  1.00  0.00    -0.374 OA
BRANCH   2   3
ATOM      3  C   UNL     1      -3.924   0.869   9.423  1.00  0.00     0.202 C 
BRANCH   3   4
ATOM      4  C   UNL     1      -4.968   0.441   8.386  1.00  0.00     0.261 C 
BRANCH   4   5
ATOM      5  O   UNL     1      -4.375   0.140   7.115  1.00  0.00    -0.460 OA
BRANCH   5   6
ATOM      6  C   UNL     1      -4.647   1.042   6.144  1.00  0.00     0.338 C 
ATOM      7  O   UNL     1      -5.396   2.003   6.222  1.00  0.00    -0.246 OA
BRANCH   6   8
ATOM      8  C   UNL     1      -3.787   0.789   4.973  1.00  0.00     0.087 C 
ATOM      9  C   UNL     1      -1.422   1.374   0.595  1.00  0.00    -0.025 A 
ATOM     10  C   UNL     1      -1.803   0.262   1.369  1.00  0.00     0.052 A 
ATOM     11  C   UNL     1      -1.577   2.657   1.142  1.00  0.00     0.045 A 
ATOM     12  C   UNL     1      -2.372   0.428   2.631  1.00  0.00     0.128 A 
ATOM     13  C   UNL     1      -2.147   2.822   2.406  1.00  0.00     0.032 A 
ATOM     14  Cl  UNL     1      -1.114   4.084   0.286  1.00  0.00    -0.084 Cl
ATOM     15  C   UNL     1      -2.572   1.709   3.137  1.00  0.00     0.019 A 
ATOM     16  O   UNL     1      -2.701  -0.713   3.303  1.00  0.00    -0.475 OA
ATOM     17  C   UNL     1      -3.292   1.884   4.382  1.00  0.00     0.027 C 
ATOM     18  C   UNL     1      -3.543  -0.614   4.488  1.00  0.00     0.316 C 
BRANCH   9  19
ATOM     19  C   UNL     1      -0.867   1.136  -0.791  1.00  0.00     0.040 C 
BRANCH  19  20
ATOM     20  C   UNL     1       0.671   1.148  -0.860  1.00  0.00    -0.013 C 
ATOM     21  C   UNL     1       1.292  -0.009  -0.074  1.00  0.00     0.008 C 
ATOM     22  C   UNL     1       1.116   1.078  -2.322  1.00  0.00     0.008 C 
ENDBRANCH  19  20
ENDBRANCH   9  19
BRANCH  18  23
ATOM     23  C   UNL     1      -4.846  -1.381   4.215  1.00  0.00     0.430 C 
ATOM     24  F   UNL     1      -4.591  -2.617   3.722  1.00  0.00    -0.167 F 
ATOM     25  F   UNL     1      -5.577  -1.551   5.339  1.00  0.00    -0.167 F 
ATOM     26  F   UNL     1      -5.625  -0.738   3.315  1.00  0.00    -0.167 F 
ENDBRANCH  18  23
ENDBRANCH   6   8
ENDBRANCH   5   6
ENDBRANCH   4   5
ENDBRANCH   3   4
ENDBRANCH   2   3
ENDBRANCH   1   2
BRANCH   1  27
ATOM     27  C   UNL     1      -0.809   0.954   8.591  1.00  0.00     0.261 C 
BRANCH  27  28
ATOM     28  O   UNL     1      -1.129  -0.416   8.875  1.00  0.00    -0.460 OA
BRANCH  28  29
ATOM     29  C   UNL     1      -1.107  -0.742  10.193  1.00  0.00     0.338 C 
ATOM     30  O   UNL     1      -0.840  -0.002  11.127  1.00  0.00    -0.246 OA
BRANCH  29  31
ATOM     31  C   UNL     1      -1.653  -2.101  10.365  1.00  0.00     0.060 A 
ATOM     32  C   UNL     1      -1.140  -3.178   9.642  1.00  0.00     0.016 A 
ATOM     33  C   UNL     1      -2.680  -2.293  11.299  1.00  0.00     0.016 A 
ATOM     34  C   UNL     1      -1.647  -4.458   9.874  1.00  0.00     0.010 A 
ATOM     35  C   UNL     1      -3.181  -3.574  11.532  1.00  0.00     0.010 A 
ATOM     36  C   UNL     1      -2.656  -4.669  10.833  1.00  0.00    -0.014 A 
BRANCH  36  37
ATOM     37  C   UNL     1      -3.064  -6.053  11.177  1.00  0.00     0.031 A 
ATOM     38  C   UNL     1      -4.399  -6.605  10.775  1.00  0.00     0.074 A 
ATOM     39  C   UNL     1      -2.200  -6.820  11.873  1.00  0.00     0.049 A 
ATOM     40  N   UNL     1      -4.849  -7.826  10.906  1.00  0.00    -0.248 NA
ATOM     41  C   UNL     1      -5.354  -5.676  10.151  1.00  0.00     0.031 C 
ATOM     42  C   UNL     1      -0.901  -6.372  12.379  1.00  0.00     0.029 A 
ATOM     43  N   UNL     1      -2.279  -8.130  12.269  1.00  0.00    -0.354 N 
ATOM     44  C   UNL     1      -6.136  -7.817  10.388  1.00  0.00     0.074 A 
ATOM     45  C   UNL     1      -6.408  -6.461   9.959  1.00  0.00     0.031 C 
ATOM     46  C   UNL     1      -0.291  -7.398  12.991  1.00  0.00     0.029 A 
ATOM     47  C   UNL     1      -1.162  -8.569  12.940  1.00  0.00     0.049 A 
ATOM     48  H   UNL     1      -3.060  -8.702  12.090  1.00  0.00     0.167 HD
ATOM     49  C   UNL     1      -7.000  -8.851  10.260  1.00  0.00     0.034 A 
ATOM     50  C   UNL     1      -0.863  -9.779  13.451  1.00  0.00     0.034 A 
ATOM     51  C   UNL     1      -6.721 -10.200  10.673  1.00  0.00     0.049 A 
ATOM     52  C   UNL     1      -1.835 -10.911  13.284  1.00  0.00     0.074 A 
ATOM     53  C   UNL     1      -7.515 -11.323  10.518  1.00  0.00     0.029 A 
ATOM     54  N   UNL     1      -5.574 -10.608  11.334  1.00  0.00    -0.354 N 
ATOM     55  N   UNL     1      -2.989 -10.915  12.664  1.00  0.00    -0.248 NA
ATOM     56  C   UNL     1      -1.457 -12.209  13.862  1.00  0.00     0.031 C 
ATOM     57  C   UNL     1      -6.858 -12.407  11.106  1.00  0.00     0.029 A 
ATOM     58  C   UNL     1      -5.644 -11.963  11.605  1.00  0.00     0.049 A 
ATOM     59  H   UNL     1      -4.820 -10.022  11.574  1.00  0.00     0.167 HD
ATOM     60  C   UNL     1      -3.467 -12.216  12.759  1.00  0.00     0.074 A 
ATOM     61  C   UNL     1      -2.472 -12.978  13.485  1.00  0.00     0.031 C 
ATOM     62  C   UNL     1      -4.633 -12.724  12.293  1.00  0.00     0.034 A 
BRANCH  49  63
ATOM     63  C   UNL     1      -8.321  -8.595   9.588  1.00  0.00     0.023 A 
ATOM     64  C   UNL     1      -8.366  -8.496   8.184  1.00  0.00     0.012 A 
ATOM     65  C   UNL     1      -9.520  -8.582  10.326  1.00  0.00     0.148 A 
ATOM     66  C   UNL     1      -9.587  -8.382   7.521  1.00  0.00     0.002 A 
ATOM     67  C   UNL     1     -10.735  -8.496   9.657  1.00  0.00     0.091 A 
ATOM     68  F   UNL     1      -9.448  -8.673  11.662  1.00  0.00    -0.205 F 
ATOM     69  C   UNL     1     -10.770  -8.393   8.256  1.00  0.00     0.022 A 
BRANCH  67  70
ATOM     70  S   UNL     1     -12.319  -8.550  10.502  1.00  0.00     0.127 S 
ATOM     71  O   UNL     1     -12.855  -7.222  10.204  1.00  0.00    -0.237 OA
ATOM     72  O   UNL     1     -12.995  -9.649   9.815  1.00  0.00    -0.237 OA
ATOM     73  O   UNL     1     -12.021  -8.792  11.907  1.00  0.00    -0.744 OA
ENDBRANCH  67  70
ENDBRANCH  49  63
BRANCH  50  74
ATOM     74  C   UNL     1       0.456  -9.983  14.106  1.00  0.00     0.023 A 
ATOM     75  C   UNL     1       1.468 -10.681  13.420  1.00  0.00     0.012 A 
ATOM     76  C   UNL     1       0.732  -9.423  15.368  1.00  0.00     0.148 A 
ATOM     77  C   UNL     1       2.736 -10.823  13.985  1.00  0.00     0.002 A 
ATOM     78  C   UNL     1       2.007  -9.537  15.908  1.00  0.00     0.091 A 
ATOM     79  F   UNL     1      -0.250  -8.761  15.994  1.00  0.00    -0.205 F 
ATOM     80  C   UNL     1       3.008 -10.243  15.222  1.00  0.00     0.022 A 
BRANCH  78  81
ATOM     81  S   UNL     1       2.481  -8.750  17.451  1.00  0.00     0.127 S 
ATOM     82  O   UNL     1       2.832  -9.902  18.277  1.00  0.00    -0.237 OA
ATOM     83  O   UNL     1       3.613  -7.926  17.028  1.00  0.00    -0.237 OA
ATOM     84  O   UNL     1       1.312  -8.001  17.890  1.00  0.00    -0.744 OA
ENDBRANCH  78  81
ENDBRANCH  50  74
BRANCH  62  85
ATOM     85  C   UNL     1      -4.923 -14.180  12.533  1.00  0.00     0.023 A 
ATOM     86  C   UNL     1      -5.376 -14.595  13.799  1.00  0.00     0.012 A 
ATOM     87  C   UNL     1      -4.885 -15.103  11.469  1.00  0.00     0.148 A 
ATOM     88  C   UNL     1      -5.788 -15.912  14.004  1.00  0.00     0.002 A 
ATOM     89  C   UNL     1      -5.328 -16.404  11.672  1.00  0.00     0.091 A 
ATOM     90  F   UNL     1      -4.444 -14.680  10.275  1.00  0.00    -0.205 F 
ATOM     91  C   UNL     1      -5.777 -16.811  12.939  1.00  0.00     0.022 A 
BRANCH  89  92
ATOM     92  S   UNL     1      -5.418 -17.616  10.349  1.00  0.00     0.127 S 
ATOM     93  O   UNL     1      -4.450 -18.617  10.797  1.00  0.00    -0.237 OA
ATOM     94  O   UNL     1      -6.814 -18.043  10.418  1.00  0.00    -0.237 OA
ATOM     95  O   UNL     1      -5.053 -16.911   9.127  1.00  0.00    -0.744 OA
ENDBRANCH  89  92
ENDBRANCH  62  85
ENDBRANCH  36  37
ENDBRANCH  29  31
ENDBRANCH  28  29
ENDBRANCH  27  28
ENDBRANCH   1  27
TORSDOF 20
