REMARK SMILES C[C@@H](C(=O)OCCOCCOC(=O)c1ccc(-c2c3nc(c(-c4cccc(S(=O)(=O)[O-])c4F)c4ccc([nH]4)c(-c4cccc(S(=O)(=O)[O-])c4F)c4nc(c(-c5cccc(S(=O)(=O)[O-])c5F)c5ccc2[nH]5)C=C4)C=C3)cc1)N1C(=O)/C(=C\c2ccc(OCc3ccccc3Cl)cc2)SC1=S
REMARK SMILES IDX 7 1 6 2 5 3 3 4 4 5 2 6 1 7 77 8 78 9 98 10 79 11 80 12
REMARK SMILES IDX 97 13 99 14 81 15 82 16 83 17 96 18 84 19 95 20 85 21 86 22
REMARK SMILES IDX 87 23 88 24 89 25 93 26 90 27 92 28 94 29 91 30 8 31 9 32
REMARK SMILES IDX 10 33 11 34 12 35 13 36 14 37 15 38 76 39 16 40 75 41 17 42
REMARK SMILES IDX 18 43 19 44 69 45 20 46 74 47 68 48 70 49 21 50 73 51 67 52
REMARK SMILES IDX 66 53 22 55 54 56 34 57 53 58 35 59 38 60 52 61 71 62 36 63
REMARK SMILES IDX 37 64 51 66 72 67 39 68 23 69 24 70 32 71 25 72 27 73 33 74
REMARK SMILES IDX 26 75 28 76 29 77 30 78 31 79 55 80 56 81 64 82 57 83 59 84
REMARK SMILES IDX 65 85 58 86 60 87 61 88 62 89 63 90 40 91 41 92 49 93 42 94
REMARK SMILES IDX 44 95 50 96 43 97 45 98 46 99 47 100 48 101
REMARK H PARENT 70 54 38 65
REMARK Flexibility Score: inf
ROOT
ATOM      1  C   UNL     1       2.047   3.365  -2.978  1.00  0.00     0.202 C 
ENDROOT
BRANCH   1   2
ATOM      2  C   UNL     1       2.168   3.852  -1.530  1.00  0.00     0.261 C 
BRANCH   2   3
ATOM      3  O   UNL     1       1.825   2.845  -0.564  1.00  0.00    -0.462 OA
BRANCH   3   4
ATOM      4  C   UNL     1       0.528   2.870  -0.151  1.00  0.00     0.329 C 
ATOM      5  O   UNL     1      -0.301   3.682  -0.551  1.00  0.00    -0.250 OA
BRANCH   4   6
ATOM      6  C   UNL     1       0.224   1.807   0.924  1.00  0.00     0.199 C 
ATOM      7  C   UNL     1       1.108   0.562   0.791  1.00  0.00     0.044 C 
BRANCH   6   8
ATOM      8  N   UNL     1      -1.249   1.561   0.886  1.00  0.00    -0.279 N 
ATOM      9  C   UNL     1      -1.819   0.467   0.251  1.00  0.00     0.266 C 
ATOM     10  C   UNL     1      -2.153   2.503   1.363  1.00  0.00     0.149 C 
ATOM     11  O   UNL     1      -1.231  -0.433  -0.330  1.00  0.00    -0.268 OA
ATOM     12  C   UNL     1      -3.312   0.542   0.334  1.00  0.00     0.081 C 
ATOM     13  S   UNL     1      -3.765   2.150   0.747  1.00  0.00    -0.054 SA
ATOM     14  S   UNL     1      -1.885   3.787   2.398  1.00  0.00    -0.052 S 
ATOM     15  C   UNL     1      -4.219  -0.445   0.280  1.00  0.00     0.029 C 
BRANCH  15  16
ATOM     16  C   UNL     1      -3.905  -1.871   0.346  1.00  0.00    -0.024 A 
ATOM     17  C   UNL     1      -4.084  -2.716  -0.747  1.00  0.00     0.012 A 
ATOM     18  C   UNL     1      -3.452  -2.402   1.562  1.00  0.00     0.012 A 
ATOM     19  C   UNL     1      -3.716  -4.061  -0.647  1.00  0.00     0.047 A 
ATOM     20  C   UNL     1      -3.093  -3.747   1.663  1.00  0.00     0.047 A 
ATOM     21  C   UNL     1      -3.161  -4.561   0.536  1.00  0.00     0.119 A 
BRANCH  21  22
ATOM     22  O   UNL     1      -2.624  -5.812   0.426  1.00  0.00    -0.489 OA
BRANCH  22  23
ATOM     23  C   UNL     1      -1.624  -6.226   1.371  1.00  0.00     0.267 C 
BRANCH  23  24
ATOM     24  C   UNL     1      -0.228  -5.628   1.231  1.00  0.00     0.008 A 
ATOM     25  C   UNL     1       0.001  -4.375   0.631  1.00  0.00     0.009 A 
ATOM     26  C   UNL     1       0.889  -6.283   1.785  1.00  0.00     0.047 A 
ATOM     27  C   UNL     1       1.269  -3.788   0.609  1.00  0.00     0.001 A 
ATOM     28  C   UNL     1       2.166  -5.707   1.738  1.00  0.00     0.021 A 
ATOM     29  Cl  UNL     1       0.752  -7.821   2.569  1.00  0.00    -0.084 Cl
ATOM     30  C   UNL     1       2.353  -4.454   1.161  1.00  0.00     0.002 A 
ENDBRANCH  23  24
ENDBRANCH  22  23
ENDBRANCH  21  22
ENDBRANCH  15  16
ENDBRANCH   6   8
ENDBRANCH   4   6
ENDBRANCH   3   4
ENDBRANCH   2   3
ENDBRANCH   1   2
BRANCH   1  31
ATOM     31  O   UNL     1       0.763   2.914  -3.404  1.00  0.00    -0.374 OA
BRANCH  31  32
ATOM     32  C   UNL     1       0.405   1.567  -3.087  1.00  0.00     0.202 C 
BRANCH  32  33
ATOM     33  C   UNL     1       1.027   0.470  -3.956  1.00  0.00     0.261 C 
BRANCH  33  34
ATOM     34  O   UNL     1       2.443   0.351  -3.721  1.00  0.00    -0.460 OA
BRANCH  34  35
ATOM     35  C   UNL     1       3.224   0.727  -4.760  1.00  0.00     0.338 C 
ATOM     36  O   UNL     1       2.851   1.050  -5.882  1.00  0.00    -0.246 OA
BRANCH  35  37
ATOM     37  C   UNL     1       4.619   0.899  -4.313  1.00  0.00     0.060 A 
ATOM     38  C   UNL     1       5.259   2.097  -4.657  1.00  0.00     0.016 A 
ATOM     39  C   UNL     1       5.311  -0.104  -3.631  1.00  0.00     0.016 A 
ATOM     40  C   UNL     1       6.613   2.270  -4.382  1.00  0.00     0.010 A 
ATOM     41  C   UNL     1       6.673   0.069  -3.361  1.00  0.00     0.010 A 
ATOM     42  C   UNL     1       7.339   1.238  -3.775  1.00  0.00    -0.014 A 
BRANCH  42  43
ATOM     43  C   UNL     1       8.818   1.323  -3.725  1.00  0.00     0.031 A 
ATOM     44  C   UNL     1       9.625   0.576  -4.752  1.00  0.00     0.074 A 
ATOM     45  C   UNL     1       9.435   2.071  -2.792  1.00  0.00     0.049 A 
ATOM     46  N   UNL     1      10.923   0.502  -4.891  1.00  0.00    -0.248 NA
ATOM     47  C   UNL     1       8.868  -0.192  -5.755  1.00  0.00     0.031 C 
ATOM     48  C   UNL     1       8.763   2.843  -1.750  1.00  0.00     0.029 A 
ATOM     49  N   UNL     1      10.771   2.282  -2.561  1.00  0.00    -0.354 N 
ATOM     50  C   UNL     1      11.140  -0.336  -5.979  1.00  0.00     0.074 A 
ATOM     51  C   UNL     1       9.841  -0.758  -6.454  1.00  0.00     0.031 C 
ATOM     52  C   UNL     1       9.692   3.420  -0.968  1.00  0.00     0.029 A 
ATOM     53  C   UNL     1      11.022   3.042  -1.444  1.00  0.00     0.049 A 
ATOM     54  H   UNL     1      11.482   1.923  -3.140  1.00  0.00     0.167 HD
ATOM     55  C   UNL     1      12.313  -0.704  -6.545  1.00  0.00     0.034 A 
ATOM     56  C   UNL     1      12.191   3.376  -0.861  1.00  0.00     0.034 A 
ATOM     57  C   UNL     1      13.604  -0.267  -6.085  1.00  0.00     0.049 A 
ATOM     58  C   UNL     1      13.484   2.936  -1.497  1.00  0.00     0.074 A 
ATOM     59  C   UNL     1      14.849  -0.554  -6.616  1.00  0.00     0.029 A 
ATOM     60  N   UNL     1      13.817   0.540  -4.978  1.00  0.00    -0.354 N 
ATOM     61  N   UNL     1      13.670   2.242  -2.594  1.00  0.00    -0.248 NA
ATOM     62  C   UNL     1      14.728   3.355  -0.835  1.00  0.00     0.031 C 
ATOM     63  C   UNL     1      15.817   0.064  -5.816  1.00  0.00     0.029 A 
ATOM     64  C   UNL     1      15.173   0.754  -4.803  1.00  0.00     0.049 A 
ATOM     65  H   UNL     1      13.108   0.906  -4.402  1.00  0.00     0.167 HD
ATOM     66  C   UNL     1      15.048   2.171  -2.773  1.00  0.00     0.074 A 
ATOM     67  C   UNL     1      15.648   2.910  -1.681  1.00  0.00     0.031 C 
ATOM     68  C   UNL     1      15.754   1.538  -3.743  1.00  0.00     0.034 A 
BRANCH  55  69
ATOM     69  C   UNL     1      12.254  -1.604  -7.750  1.00  0.00     0.023 A 
ATOM     70  C   UNL     1      11.828  -1.081  -8.988  1.00  0.00     0.012 A 
ATOM     71  C   UNL     1      12.667  -2.948  -7.673  1.00  0.00     0.148 A 
ATOM     72  C   UNL     1      11.786  -1.889 -10.124  1.00  0.00     0.002 A 
ATOM     73  C   UNL     1      12.662  -3.736  -8.818  1.00  0.00     0.091 A 
ATOM     74  F   UNL     1      13.045  -3.433  -6.482  1.00  0.00    -0.205 F 
ATOM     75  C   UNL     1      12.213  -3.211 -10.041  1.00  0.00     0.022 A 
BRANCH  73  76
ATOM     76  S   UNL     1      13.262  -5.429  -8.830  1.00  0.00     0.127 S 
ATOM     77  O   UNL     1      12.017  -6.182  -8.971  1.00  0.00    -0.237 OA
ATOM     78  O   UNL     1      14.121  -5.444 -10.014  1.00  0.00    -0.237 OA
ATOM     79  O   UNL     1      13.966  -5.613  -7.568  1.00  0.00    -0.744 OA
ENDBRANCH  73  76
ENDBRANCH  55  69
BRANCH  56  80
ATOM     80  C   UNL     1      12.191   4.197   0.383  1.00  0.00     0.023 A 
ATOM     81  C   UNL     1      12.665   5.522   0.345  1.00  0.00     0.012 A 
ATOM     82  C   UNL     1      11.702   3.677   1.597  1.00  0.00     0.148 A 
ATOM     83  C   UNL     1      12.680   6.305   1.500  1.00  0.00     0.002 A 
ATOM     84  C   UNL     1      11.666   4.480   2.731  1.00  0.00     0.091 A 
ATOM     85  F   UNL     1      11.273   2.407   1.617  1.00  0.00    -0.205 F 
ATOM     86  C   UNL     1      12.171   5.788   2.689  1.00  0.00     0.022 A 
BRANCH  84  87
ATOM     87  S   UNL     1      10.904   3.940   4.265  1.00  0.00     0.127 S 
ATOM     88  O   UNL     1      12.068   3.735   5.122  1.00  0.00    -0.237 OA
ATOM     89  O   UNL     1      10.076   5.095   4.614  1.00  0.00    -0.237 OA
ATOM     90  O   UNL     1      10.146   2.743   3.925  1.00  0.00    -0.744 OA
ENDBRANCH  84  87
ENDBRANCH  56  80
BRANCH  68  91
ATOM     91  C   UNL     1      17.257   1.639  -3.697  1.00  0.00     0.023 A 
ATOM     92  C   UNL     1      17.977   0.918  -2.724  1.00  0.00     0.012 A 
ATOM     93  C   UNL     1      17.958   2.383  -4.667  1.00  0.00     0.148 A 
ATOM     94  C   UNL     1      19.371   0.960  -2.699  1.00  0.00     0.002 A 
ATOM     95  C   UNL     1      19.348   2.382  -4.664  1.00  0.00     0.091 A 
ATOM     96  F   UNL     1      17.254   3.077  -5.573  1.00  0.00    -0.205 F 
ATOM     97  C   UNL     1      20.056   1.681  -3.675  1.00  0.00     0.022 A 
BRANCH  95  98
ATOM     98  S   UNL     1      20.313   3.205  -5.937  1.00  0.00     0.127 S 
ATOM     99  O   UNL     1      20.827   4.368  -5.216  1.00  0.00    -0.237 OA
ATOM    100  O   UNL     1      21.321   2.196  -6.265  1.00  0.00    -0.237 OA
ATOM    101  O   UNL     1      19.381   3.499  -7.018  1.00  0.00    -0.744 OA
ENDBRANCH  95  98
ENDBRANCH  68  91
ENDBRANCH  42  43
ENDBRANCH  35  37
ENDBRANCH  34  35
ENDBRANCH  33  34
ENDBRANCH  32  33
ENDBRANCH  31  32
ENDBRANCH   1  31
TORSDOF 22
