REMARK SMILES O=C(CCCN1C(=O)/C(=C/c2ccccc2Cl)SC1=S)Nc1cccc(C(=O)OCCOCCOC(=O)c2ccc(-c3c4nc(c(-c5cccc(S(=O)(=O)[O-])c5F)c5ccc([nH]5)c(-c5cccc(S(=O)(=O)[O-])c5F)c5nc(c(-c6cccc(S(=O)(=O)[O-])c6F)c6ccc3[nH]6)C=C5)C=C4)cc2)c1
REMARK SMILES IDX 30 1 29 2 27 3 28 4 26 5 22 6 23 7 101 8 24 9 25 10 21 11
REMARK SMILES IDX 1 12 2 13 3 15 4 16 5 17 6 18 7 19 19 20 8 21 9 22 18 23
REMARK SMILES IDX 20 24 10 25 11 26 12 27 16 28 13 29 15 30 17 31 14 32 31 33
REMARK SMILES IDX 32 34 33 35 34 36 35 37 36 38 37 39 38 40 39 41 100 42 40 43
REMARK SMILES IDX 99 44 41 45 42 46 43 47 93 48 44 49 98 50 92 51 94 52 45 53
REMARK SMILES IDX 97 54 91 55 90 56 46 58 78 59 58 60 77 61 59 62 62 63 76 64
REMARK SMILES IDX 95 65 60 66 61 67 75 69 96 70 63 71 47 72 48 73 56 74 49 75
REMARK SMILES IDX 51 76 57 77 50 78 52 79 53 80 54 81 55 82 79 83 80 84 88 85
REMARK SMILES IDX 81 86 83 87 89 88 82 89 84 90 85 91 86 92 87 93 64 94 65 95
REMARK SMILES IDX 73 96 66 97 68 98 74 99 67 100 69 101 70 102 71 103 72 104
REMARK H PARENT 21 14 94 57 62 68
REMARK Flexibility Score: inf
ROOT
ATOM      1  C   UNL     1      -2.512  -0.720  -4.337  1.00  0.00     0.261 C 
ENDROOT
BRANCH   1   2
ATOM      2  O   UNL     1      -1.437  -1.089  -3.463  1.00  0.00    -0.460 OA
BRANCH   2   3
ATOM      3  C   UNL     1      -1.395  -2.388  -3.078  1.00  0.00     0.338 C 
ATOM      4  O   UNL     1      -2.230  -3.252  -3.298  1.00  0.00    -0.246 OA
BRANCH   3   5
ATOM      5  C   UNL     1      -0.049  -2.675  -2.530  1.00  0.00     0.062 A 
ATOM      6  C   UNL     1       1.965  -1.974  -1.389  1.00  0.00     0.042 A 
ATOM      7  C   UNL     1       2.577  -3.184  -1.726  1.00  0.00     0.026 A 
ATOM      8  C   UNL     1       0.667  -1.706  -1.827  1.00  0.00     0.041 A 
ATOM      9  C   UNL     1       1.853  -4.165  -2.409  1.00  0.00     0.003 A 
ATOM     10  C   UNL     1       0.536  -3.917  -2.799  1.00  0.00     0.016 A 
BRANCH   6  11
ATOM     11  N   UNL     1       2.676  -1.048  -0.605  1.00  0.00    -0.326 N 
ATOM     12  O   UNL     1       0.868  -0.202   0.572  1.00  0.00    -0.275 OA
ATOM     13  C   UNL     1       2.059  -0.176   0.276  1.00  0.00     0.224 C 
ATOM     14  H   UNL     1       3.657  -1.018  -0.686  1.00  0.00     0.169 HD
BRANCH  13  15
ATOM     15  C   UNL     1       2.987   0.822   0.921  1.00  0.00     0.102 C 
BRANCH  15  16
ATOM     16  C   UNL     1       3.878   0.210   2.001  1.00  0.00     0.032 C 
BRANCH  16  17
ATOM     17  C   UNL     1       5.174  -0.458   1.516  1.00  0.00     0.128 C 
BRANCH  17  18
ATOM     18  N   UNL     1       5.943   0.250   0.485  1.00  0.00    -0.293 N 
ATOM     19  C   UNL     1       6.084   1.627   0.543  1.00  0.00     0.266 C 
ATOM     20  C   UNL     1       6.702  -0.380  -0.484  1.00  0.00     0.148 C 
ATOM     21  O   UNL     1       5.731   2.358   1.456  1.00  0.00    -0.268 OA
ATOM     22  C   UNL     1       6.774   2.120  -0.672  1.00  0.00     0.081 C 
ATOM     23  S   UNL     1       7.553   0.811  -1.459  1.00  0.00    -0.054 SA
ATOM     24  S   UNL     1       6.847  -2.018  -0.774  1.00  0.00    -0.052 S 
ATOM     25  C   UNL     1       6.711   3.406  -1.038  1.00  0.00     0.031 C 
BRANCH  25  26
ATOM     26  C   UNL     1       7.412   3.998  -2.185  1.00  0.00    -0.006 A 
ATOM     27  C   UNL     1       8.455   4.885  -1.881  1.00  0.00     0.010 A 
ATOM     28  C   UNL     1       7.120   3.729  -3.533  1.00  0.00     0.048 A 
ATOM     29  C   UNL     1       9.225   5.454  -2.895  1.00  0.00     0.001 A 
ATOM     30  C   UNL     1       7.902   4.291  -4.546  1.00  0.00     0.021 A 
ATOM     31  Cl  UNL     1       5.787   2.731  -4.008  1.00  0.00    -0.084 Cl
ATOM     32  C   UNL     1       8.959   5.146  -4.226  1.00  0.00     0.002 A 
ENDBRANCH  25  26
ENDBRANCH  17  18
ENDBRANCH  16  17
ENDBRANCH  15  16
ENDBRANCH  13  15
ENDBRANCH   6  11
ENDBRANCH   3   5
ENDBRANCH   2   3
ENDBRANCH   1   2
BRANCH   1  33
ATOM     33  C   UNL     1      -2.009  -0.488  -5.767  1.00  0.00     0.202 C 
BRANCH  33  34
ATOM     34  O   UNL     1      -1.470  -1.622  -6.451  1.00  0.00    -0.374 OA
BRANCH  34  35
ATOM     35  C   UNL     1      -0.118  -1.973  -6.154  1.00  0.00     0.202 C 
BRANCH  35  36
ATOM     36  C   UNL     1       0.986  -1.171  -6.854  1.00  0.00     0.261 C 
BRANCH  36  37
ATOM     37  O   UNL     1       0.995   0.211  -6.461  1.00  0.00    -0.460 OA
BRANCH  37  38
ATOM     38  C   UNL     1       0.482   1.059  -7.385  1.00  0.00     0.338 C 
ATOM     39  O   UNL     1       0.088   0.777  -8.505  1.00  0.00    -0.246 OA
BRANCH  38  40
ATOM     40  C   UNL     1       0.293   2.394  -6.791  1.00  0.00     0.060 A 
ATOM     41  C   UNL     1      -0.979   2.970  -6.893  1.00  0.00     0.016 A 
ATOM     42  C   UNL     1       1.352   3.103  -6.218  1.00  0.00     0.016 A 
ATOM     43  C   UNL     1      -1.186   4.281  -6.475  1.00  0.00     0.010 A 
ATOM     44  C   UNL     1       1.142   4.421  -5.802  1.00  0.00     0.010 A 
ATOM     45  C   UNL     1      -0.117   5.029  -5.966  1.00  0.00    -0.014 A 
BRANCH  45  46
ATOM     46  C   UNL     1      -0.291   6.483  -5.726  1.00  0.00     0.031 A 
ATOM     47  C   UNL     1       0.301   7.466  -6.700  1.00  0.00     0.074 A 
ATOM     48  C   UNL     1      -0.980   6.922  -4.657  1.00  0.00     0.049 A 
ATOM     49  N   UNL     1       0.286   8.773  -6.668  1.00  0.00    -0.248 NA
ATOM     50  C   UNL     1       1.006   6.901  -7.863  1.00  0.00     0.031 C 
ATOM     51  C   UNL     1      -1.603   6.068  -3.646  1.00  0.00     0.029 A 
ATOM     52  N   UNL     1      -1.250   8.199  -4.233  1.00  0.00    -0.354 N 
ATOM     53  C   UNL     1       1.006   9.188  -7.782  1.00  0.00     0.074 A 
ATOM     54  C   UNL     1       1.454   7.994  -8.465  1.00  0.00     0.031 C 
ATOM     55  C   UNL     1      -2.161   6.846  -2.703  1.00  0.00     0.029 A 
ATOM     56  C   UNL     1      -1.911   8.248  -3.028  1.00  0.00     0.049 A 
ATOM     57  H   UNL     1      -0.996   9.002  -4.742  1.00  0.00     0.167 HD
ATOM     58  C   UNL     1       1.259  10.449  -8.206  1.00  0.00     0.034 A 
ATOM     59  C   UNL     1      -2.250   9.304  -2.263  1.00  0.00     0.034 A 
ATOM     60  C   UNL     1       0.795  11.634  -7.536  1.00  0.00     0.049 A 
ATOM     61  C   UNL     1      -1.935  10.696  -2.746  1.00  0.00     0.074 A 
ATOM     62  C   UNL     1       0.955  12.955  -7.917  1.00  0.00     0.029 A 
ATOM     63  N   UNL     1       0.095  11.645  -6.339  1.00  0.00    -0.354 N 
ATOM     64  N   UNL     1      -1.354  11.073  -3.859  1.00  0.00    -0.248 NA
ATOM     65  C   UNL     1      -2.355  11.810  -1.883  1.00  0.00     0.031 C 
ATOM     66  C   UNL     1       0.388  13.766  -6.928  1.00  0.00     0.029 A 
ATOM     67  C   UNL     1      -0.168  12.949  -5.957  1.00  0.00     0.049 A 
ATOM     68  H   UNL     1      -0.174  10.843  -5.835  1.00  0.00     0.167 HD
ATOM     69  C   UNL     1      -1.375  12.464  -3.850  1.00  0.00     0.074 A 
ATOM     70  C   UNL     1      -2.044  12.862  -2.628  1.00  0.00     0.031 C 
ATOM     71  C   UNL     1      -0.879  13.333  -4.764  1.00  0.00     0.034 A 
BRANCH  58  72
ATOM     72  C   UNL     1       2.069  10.619  -9.466  1.00  0.00     0.023 A 
ATOM     73  C   UNL     1       1.502  10.298 -10.716  1.00  0.00     0.012 A 
ATOM     74  C   UNL     1       3.368  11.162  -9.415  1.00  0.00     0.148 A 
ATOM     75  C   UNL     1       2.226  10.486 -11.893  1.00  0.00     0.002 A 
ATOM     76  C   UNL     1       4.066  11.390 -10.595  1.00  0.00     0.091 A 
ATOM     77  F   UNL     1       3.898  11.442  -8.216  1.00  0.00    -0.205 F 
ATOM     78  C   UNL     1       3.502  11.042 -11.833  1.00  0.00     0.022 A 
BRANCH  76  79
ATOM     79  S   UNL     1       5.681  12.175 -10.631  1.00  0.00     0.127 S 
ATOM     80  O   UNL     1       6.535  11.072 -11.069  1.00  0.00    -0.237 OA
ATOM     81  O   UNL     1       5.487  13.230 -11.626  1.00  0.00    -0.237 OA
ATOM     82  O   UNL     1       5.929  12.652  -9.277  1.00  0.00    -0.744 OA
ENDBRANCH  76  79
ENDBRANCH  58  72
BRANCH  59  83
ATOM     83  C   UNL     1      -2.945   9.091  -0.962  1.00  0.00     0.023 A 
ATOM     84  C   UNL     1      -4.282   9.506  -0.807  1.00  0.00     0.012 A 
ATOM     85  C   UNL     1      -2.286   8.479   0.121  1.00  0.00     0.148 A 
ATOM     86  C   UNL     1      -4.937   9.350   0.415  1.00  0.00     0.002 A 
ATOM     87  C   UNL     1      -2.962   8.274   1.317  1.00  0.00     0.091 A 
ATOM     88  F   UNL     1      -1.009   8.105  -0.043  1.00  0.00    -0.205 F 
ATOM     89  C   UNL     1      -4.282   8.726   1.473  1.00  0.00     0.022 A 
BRANCH  87  90
ATOM     90  S   UNL     1      -2.238   7.374   2.692  1.00  0.00     0.127 S 
ATOM     91  O   UNL     1      -2.065   8.432   3.684  1.00  0.00    -0.237 OA
ATOM     92  O   UNL     1      -3.289   6.404   3.001  1.00  0.00    -0.237 OA
ATOM     93  O   UNL     1      -1.009   6.787   2.175  1.00  0.00    -0.744 OA
ENDBRANCH  87  90
ENDBRANCH  59  83
BRANCH  71  94
ATOM     94  C   UNL     1      -1.083  14.806  -4.517  1.00  0.00     0.023 A 
ATOM     95  C   UNL     1      -0.372  15.458  -3.489  1.00  0.00     0.012 A 
ATOM     96  C   UNL     1      -1.930  15.560  -5.354  1.00  0.00     0.148 A 
ATOM     97  C   UNL     1      -0.533  16.827  -3.274  1.00  0.00     0.002 A 
ATOM     98  C   UNL     1      -2.043  16.932  -5.169  1.00  0.00     0.091 A 
ATOM     99  F   UNL     1      -2.610  14.920  -6.317  1.00  0.00    -0.205 F 
ATOM    100  C   UNL     1      -1.357  17.565  -4.120  1.00  0.00     0.022 A 
BRANCH  98 101
ATOM    101  S   UNL     1      -3.000  17.979  -6.271  1.00  0.00     0.127 S 
ATOM    102  O   UNL     1      -4.123  18.362  -5.416  1.00  0.00    -0.237 OA
ATOM    103  O   UNL     1      -2.059  19.061  -6.564  1.00  0.00    -0.237 OA
ATOM    104  O   UNL     1      -3.345  17.150  -7.417  1.00  0.00    -0.744 OA
ENDBRANCH  98 101
ENDBRANCH  71  94
ENDBRANCH  45  46
ENDBRANCH  38  40
ENDBRANCH  37  38
ENDBRANCH  36  37
ENDBRANCH  35  36
ENDBRANCH  34  35
ENDBRANCH  33  34
ENDBRANCH   1  33
TORSDOF 23
