REMARK SMILES O=C(OCCOCCOC(=O)[C@@H]1[C@H](C(=O)NCc2ccncc2)[C@H]2C=C[C@@H]1O2)c1ccc(-c2c3nc(c(-c4cccc(S(=O)(=O)[O-])c4F)c4ccc([nH]4)c(-c4cccc(S(=O)(=O)[O-])c4F)c4nc(c(-c5cccc(S(=O)(=O)[O-])c5F)c5ccc2[nH]5)C=C4)C=C3)cc1
REMARK SMILES IDX 6 1 5 2 4 3 3 4 2 5 1 6 29 7 30 8 91 9 31 10 90 11 32 12
REMARK SMILES IDX 33 13 34 14 84 15 35 16 89 17 83 18 85 19 36 20 88 21 82 22
REMARK SMILES IDX 81 23 37 25 69 26 49 27 68 28 50 29 53 30 67 31 86 32 51 33
REMARK SMILES IDX 52 34 66 36 87 37 54 38 38 39 39 40 47 41 40 42 42 43 48 44
REMARK SMILES IDX 41 45 43 46 44 47 45 48 46 49 70 50 71 51 79 52 72 53 74 54
REMARK SMILES IDX 80 55 73 56 75 57 76 58 77 59 78 60 55 61 56 62 64 63 57 64
REMARK SMILES IDX 59 65 65 66 58 67 60 68 61 69 62 70 63 71 7 72 8 73 9 74
REMARK SMILES IDX 10 75 11 76 12 77 13 78 27 79 24 80 26 81 28 82 25 83 14 84
REMARK SMILES IDX 15 85 16 86 17 88 18 89 19 90 23 91 20 92 22 93 21 94
REMARK H PARENT 85 24 53 35 16 87
REMARK Flexibility Score: inf
ROOT
ATOM      1  O   UNL     1       3.751   1.412   0.469  1.00  0.00    -0.374 OA
ENDROOT
BRANCH   1   2
ATOM      2  C   UNL     1       4.110   1.292  -0.910  1.00  0.00     0.202 C 
BRANCH   2   3
ATOM      3  C   UNL     1       3.863  -0.082  -1.544  1.00  0.00     0.261 C 
BRANCH   3   4
ATOM      4  O   UNL     1       2.513  -0.522  -1.336  1.00  0.00    -0.460 OA
BRANCH   4   5
ATOM      5  C   UNL     1       2.044  -1.330  -0.353  1.00  0.00     0.338 C 
ATOM      6  O   UNL     1       0.839  -1.573  -0.324  1.00  0.00    -0.246 OA
BRANCH   5   7
ATOM      7  C   UNL     1       2.918  -1.967   0.681  1.00  0.00     0.060 A 
ATOM      8  C   UNL     1       4.131  -1.446   1.130  1.00  0.00     0.016 A 
ATOM      9  C   UNL     1       2.449  -3.145   1.287  1.00  0.00     0.016 A 
ATOM     10  C   UNL     1       4.894  -2.092   2.081  1.00  0.00     0.010 A 
ATOM     11  C   UNL     1       3.193  -3.788   2.284  1.00  0.00     0.010 A 
ATOM     12  C   UNL     1       4.430  -3.265   2.665  1.00  0.00    -0.014 A 
BRANCH  12  13
ATOM     13  C   UNL     1       5.359  -3.931   3.590  1.00  0.00     0.031 A 
ATOM     14  C   UNL     1       6.145  -5.096   3.089  1.00  0.00     0.074 A 
ATOM     15  C   UNL     1       5.637  -3.331   4.762  1.00  0.00     0.049 A 
ATOM     16  N   UNL     1       7.080  -5.772   3.693  1.00  0.00    -0.248 NA
ATOM     17  C   UNL     1       5.849  -5.558   1.721  1.00  0.00     0.031 C 
ATOM     18  C   UNL     1       4.954  -2.140   5.267  1.00  0.00     0.029 A 
ATOM     19  N   UNL     1       6.590  -3.591   5.707  1.00  0.00    -0.354 N 
ATOM     20  C   UNL     1       7.442  -6.776   2.809  1.00  0.00     0.074 A 
ATOM     21  C   UNL     1       6.652  -6.605   1.611  1.00  0.00     0.031 C 
ATOM     22  C   UNL     1       5.555  -1.727   6.392  1.00  0.00     0.029 A 
ATOM     23  C   UNL     1       6.596  -2.685   6.743  1.00  0.00     0.049 A 
ATOM     24  H   UNL     1       7.213  -4.352   5.651  1.00  0.00     0.167 HD
ATOM     25  C   UNL     1       8.346  -7.762   3.000  1.00  0.00     0.034 A 
ATOM     26  C   UNL     1       7.335  -2.669   7.869  1.00  0.00     0.034 A 
ATOM     27  C   UNL     1       9.111  -7.897   4.208  1.00  0.00     0.049 A 
ATOM     28  C   UNL     1       8.317  -3.793   8.060  1.00  0.00     0.074 A 
ATOM     29  C   UNL     1       9.989  -8.899   4.569  1.00  0.00     0.029 A 
ATOM     30  N   UNL     1       9.079  -6.988   5.259  1.00  0.00    -0.354 N 
ATOM     31  N   UNL     1       8.632  -4.763   7.231  1.00  0.00    -0.248 NA
ATOM     32  C   UNL     1       9.039  -3.833   9.336  1.00  0.00     0.031 C 
ATOM     33  C   UNL     1      10.476  -8.605   5.848  1.00  0.00     0.029 A 
ATOM     34  C   UNL     1       9.928  -7.401   6.269  1.00  0.00     0.049 A 
ATOM     35  H   UNL     1       8.533  -6.170   5.281  1.00  0.00     0.167 HD
ATOM     36  C   UNL     1       9.582  -5.532   7.887  1.00  0.00     0.074 A 
ATOM     37  C   UNL     1       9.834  -4.880   9.158  1.00  0.00     0.031 C 
ATOM     38  C   UNL     1      10.170  -6.692   7.500  1.00  0.00     0.034 A 
BRANCH  25  39
ATOM     39  C   UNL     1       8.493  -8.777   1.903  1.00  0.00     0.023 A 
ATOM     40  C   UNL     1       9.153  -8.436   0.705  1.00  0.00     0.012 A 
ATOM     41  C   UNL     1       7.947 -10.067   2.050  1.00  0.00     0.148 A 
ATOM     42  C   UNL     1       9.237  -9.354  -0.343  1.00  0.00     0.002 A 
ATOM     43  C   UNL     1       8.071 -10.989   1.019  1.00  0.00     0.091 A 
ATOM     44  F   UNL     1       7.297 -10.358   3.186  1.00  0.00    -0.205 F 
ATOM     45  C   UNL     1       8.703 -10.630  -0.183  1.00  0.00     0.022 A 
BRANCH  43  46
ATOM     46  S   UNL     1       7.463 -12.673   1.144  1.00  0.00     0.127 S 
ATOM     47  O   UNL     1       6.425 -12.690   0.113  1.00  0.00    -0.237 OA
ATOM     48  O   UNL     1       8.658 -13.451   0.819  1.00  0.00    -0.237 OA
ATOM     49  O   UNL     1       6.981 -12.830   2.509  1.00  0.00    -0.744 OA
ENDBRANCH  43  46
ENDBRANCH  25  39
BRANCH  26  50
ATOM     50  C   UNL     1       7.137  -1.614   8.906  1.00  0.00     0.023 A 
ATOM     51  C   UNL     1       8.196  -0.753   9.256  1.00  0.00     0.012 A 
ATOM     52  C   UNL     1       5.897  -1.463   9.561  1.00  0.00     0.148 A 
ATOM     53  C   UNL     1       8.033   0.208  10.257  1.00  0.00     0.002 A 
ATOM     54  C   UNL     1       5.721  -0.460  10.506  1.00  0.00     0.091 A 
ATOM     55  F   UNL     1       4.906  -2.312   9.252  1.00  0.00    -0.205 F 
ATOM     56  C   UNL     1       6.793   0.364  10.872  1.00  0.00     0.022 A 
BRANCH  54  57
ATOM     57  S   UNL     1       4.117  -0.118  11.239  1.00  0.00     0.127 S 
ATOM     58  O   UNL     1       4.256  -0.728  12.559  1.00  0.00    -0.237 OA
ATOM     59  O   UNL     1       4.082   1.345  11.239  1.00  0.00    -0.237 OA
ATOM     60  O   UNL     1       3.145  -0.739  10.349  1.00  0.00    -0.744 OA
ENDBRANCH  54  57
ENDBRANCH  26  50
BRANCH  38  61
ATOM     61  C   UNL     1      11.151  -7.304   8.461  1.00  0.00     0.023 A 
ATOM     62  C   UNL     1      10.686  -7.919   9.640  1.00  0.00     0.012 A 
ATOM     63  C   UNL     1      12.525  -7.321   8.159  1.00  0.00     0.148 A 
ATOM     64  C   UNL     1      11.584  -8.508  10.527  1.00  0.00     0.002 A 
ATOM     65  C   UNL     1      13.406  -7.959   9.020  1.00  0.00     0.091 A 
ATOM     66  F   UNL     1      12.943  -6.710   7.041  1.00  0.00    -0.205 F 
ATOM     67  C   UNL     1      12.940  -8.540  10.212  1.00  0.00     0.022 A 
BRANCH  65  68
ATOM     68  S   UNL     1      15.150  -8.136   8.638  1.00  0.00     0.127 S 
ATOM     69  O   UNL     1      15.754  -7.160   9.542  1.00  0.00    -0.237 OA
ATOM     70  O   UNL     1      15.404  -9.534   8.989  1.00  0.00    -0.237 OA
ATOM     71  O   UNL     1      15.280  -7.840   7.217  1.00  0.00    -0.744 OA
ENDBRANCH  65  68
ENDBRANCH  38  61
ENDBRANCH  12  13
ENDBRANCH   5   7
ENDBRANCH   4   5
ENDBRANCH   3   4
ENDBRANCH   2   3
ENDBRANCH   1   2
BRANCH   1  72
ATOM     72  C   UNL     1       2.369   1.704   0.718  1.00  0.00     0.202 C 
BRANCH  72  73
ATOM     73  C   UNL     1       2.219   3.157   1.145  1.00  0.00     0.261 C 
BRANCH  73  74
ATOM     74  O   UNL     1       2.882   3.936   0.136  1.00  0.00    -0.463 OA
BRANCH  74  75
ATOM     75  C   UNL     1       4.018   4.565   0.539  1.00  0.00     0.312 C 
ATOM     76  O   UNL     1       4.245   4.928   1.678  1.00  0.00    -0.252 OA
BRANCH  75  77
ATOM     77  C   UNL     1       4.851   4.907  -0.655  1.00  0.00     0.147 C 
ATOM     78  C   UNL     1       6.280   4.351  -0.864  1.00  0.00     0.128 C 
ATOM     79  C   UNL     1       5.110   6.417  -0.593  1.00  0.00     0.157 C 
ATOM     80  C   UNL     1       7.120   5.634  -0.867  1.00  0.00     0.155 C 
ATOM     81  C   UNL     1       5.552   6.895  -1.946  1.00  0.00     0.004 C 
ATOM     82  O   UNL     1       6.393   6.445   0.087  1.00  0.00    -0.365 OA
ATOM     83  C   UNL     1       6.796   6.421  -2.114  1.00  0.00     0.004 C 
BRANCH  78  84
ATOM     84  C   UNL     1       6.970   3.208  -0.136  1.00  0.00     0.227 C 
ATOM     85  O   UNL     1       7.392   2.271  -0.836  1.00  0.00    -0.275 OA
ATOM     86  N   UNL     1       7.272   3.099   1.165  1.00  0.00    -0.352 N 
ATOM     87  H   UNL     1       7.752   2.265   1.372  1.00  0.00     0.163 HD
BRANCH  86  88
ATOM     88  C   UNL     1       7.058   3.923   2.336  1.00  0.00     0.151 C 
BRANCH  88  89
ATOM     89  C   UNL     1       6.067   3.321   3.303  1.00  0.00    -0.026 A 
ATOM     90  C   UNL     1       5.364   4.169   4.167  1.00  0.00     0.025 A 
ATOM     91  C   UNL     1       5.795   1.952   3.375  1.00  0.00     0.025 A 
ATOM     92  C   UNL     1       4.356   3.643   4.959  1.00  0.00     0.111 A 
ATOM     93  C   UNL     1       4.775   1.521   4.209  1.00  0.00     0.111 A 
ATOM     94  N   UNL     1       4.032   2.338   4.981  1.00  0.00    -0.265 NA
ENDBRANCH  88  89
ENDBRANCH  86  88
ENDBRANCH  78  84
ENDBRANCH  75  77
ENDBRANCH  74  75
ENDBRANCH  73  74
ENDBRANCH  72  73
ENDBRANCH   1  72
TORSDOF 20
