REMARK SMILES CC[C@H](C)[C@H](NC(=O)N1CCc2cc(OC)c(OC)cc2[C@@H]1c1ccc(F)cc1)C(=O)OCCOCCOC(=O)c1ccc(-c2c3nc(c(-c4cccc(S(=O)(=O)[O-])c4F)c4ccc([nH]4)c(-c4cccc(S(=O)(=O)[O-])c4F)c4nc(c(-c5cccc(S(=O)(=O)[O-])c5F)c5ccc2[nH]5)C=C4)C=C3)cc1
REMARK SMILES IDX 35 1 34 2 33 3 32 4 30 5 31 6 5 7 3 8 4 9 2 10 1 11 6 12
REMARK SMILES IDX 7 13 8 15 9 16 10 17 22 18 11 19 21 20 12 21 20 22 13 23
REMARK SMILES IDX 17 24 14 25 23 26 24 27 29 28 25 29 28 30 26 31 27 32 18 33
REMARK SMILES IDX 19 34 15 35 16 36 36 37 37 38 38 39 39 40 40 41 41 42 42 43
REMARK SMILES IDX 103 44 43 45 102 46 44 47 45 48 46 49 96 50 47 51 101 52
REMARK SMILES IDX 95 53 97 54 48 55 100 56 94 57 93 58 49 60 81 61 61 62 80 63
REMARK SMILES IDX 62 64 65 65 79 66 98 67 63 68 64 69 78 71 99 72 66 73 50 74
REMARK SMILES IDX 51 75 59 76 52 77 54 78 60 79 53 80 55 81 56 82 57 83 58 84
REMARK SMILES IDX 82 85 83 86 91 87 84 88 86 89 92 90 85 91 87 92 88 93 89 94
REMARK SMILES IDX 90 95 67 96 68 97 76 98 69 99 71 100 77 101 70 102 72 103
REMARK SMILES IDX 73 104 74 105 75 106
REMARK H PARENT 6 14 97 59 65 70
REMARK Flexibility Score: inf
ROOT
ATOM      1  O   UNL     1      -0.587   4.200   3.495  1.00  0.00    -0.374 OA
ENDROOT
BRANCH   1   2
ATOM      2  C   UNL     1      -0.005   4.862   4.649  1.00  0.00     0.202 C 
BRANCH   2   3
ATOM      3  C   UNL     1       0.144   4.107   5.976  1.00  0.00     0.261 C 
BRANCH   3   4
ATOM      4  O   UNL     1       0.805   2.887   5.742  1.00  0.00    -0.462 OA
BRANCH   4   5
ATOM      5  C   UNL     1      -0.007   2.062   5.047  1.00  0.00     0.329 C 
ATOM      6  O   UNL     1      -1.231   2.041   5.136  1.00  0.00    -0.250 OA
BRANCH   5   7
ATOM      7  C   UNL     1       0.790   1.126   4.178  1.00  0.00     0.196 C 
BRANCH   7   8
ATOM      8  C   UNL     1       1.194  -0.207   4.896  1.00  0.00     0.019 C 
ATOM      9  C   UNL     1       2.575  -0.721   4.456  1.00  0.00     0.010 C 
BRANCH   8  10
ATOM     10  C   UNL     1       1.125  -0.182   6.438  1.00  0.00     0.002 C 
ATOM     11  C   UNL     1      -0.294  -0.218   7.005  1.00  0.00     0.004 C 
ENDBRANCH   8  10
ENDBRANCH   7   8
BRANCH   7  12
ATOM     12  N   UNL     1       1.874   1.705   3.343  1.00  0.00    -0.324 N 
ATOM     13  C   UNL     1       2.553   2.815   2.993  1.00  0.00     0.318 C 
ATOM     14  H   UNL     1       2.261   0.962   2.826  1.00  0.00     0.166 HD
ATOM     15  O   UNL     1       3.416   2.488   2.172  1.00  0.00    -0.249 OA
BRANCH  13  16
ATOM     16  N   UNL     1       2.498   4.062   3.667  1.00  0.00    -0.313 N 
ATOM     17  C   UNL     1       3.465   3.794   4.750  1.00  0.00     0.127 C 
ATOM     18  C   UNL     1       2.619   5.666   3.009  1.00  0.00     0.148 C 
ATOM     19  C   UNL     1       3.768   4.918   5.706  1.00  0.00     0.057 C 
ATOM     20  C   UNL     1       3.837   6.370   3.662  1.00  0.00    -0.014 A 
ATOM     21  C   UNL     1       4.304   6.085   4.941  1.00  0.00    -0.037 A 
ATOM     22  C   UNL     1       4.624   7.228   2.872  1.00  0.00     0.057 A 
ATOM     23  C   UNL     1       5.403   6.795   5.448  1.00  0.00     0.054 A 
ATOM     24  C   UNL     1       5.709   7.950   3.353  1.00  0.00     0.161 A 
ATOM     25  C   UNL     1       6.095   7.738   4.673  1.00  0.00     0.161 A 
BRANCH  18  26
ATOM     26  C   UNL     1       1.449   6.841   2.588  1.00  0.00    -0.021 A 
ATOM     27  C   UNL     1       1.869   8.059   1.977  1.00  0.00     0.009 A 
ATOM     28  C   UNL     1       0.042   6.836   2.613  1.00  0.00     0.009 A 
ATOM     29  C   UNL     1       1.043   9.180   1.700  1.00  0.00     0.039 A 
ATOM     30  C   UNL     1      -0.822   7.934   2.370  1.00  0.00     0.039 A 
ATOM     31  C   UNL     1      -0.301   9.128   1.961  1.00  0.00     0.123 A 
ATOM     32  F   UNL     1      -1.096  10.181   1.740  1.00  0.00    -0.207 F 
ENDBRANCH  18  26
BRANCH  24  33
ATOM     33  O   UNL     1       6.370   8.856   2.570  1.00  0.00    -0.493 OA
ATOM     34  C   UNL     1       6.268   8.688   1.158  1.00  0.00     0.278 C 
ENDBRANCH  24  33
BRANCH  25  35
ATOM     35  O   UNL     1       7.141   8.325   5.332  1.00  0.00    -0.493 OA
ATOM     36  C   UNL     1       8.231   8.745   4.519  1.00  0.00     0.278 C 
ENDBRANCH  25  35
ENDBRANCH  13  16
ENDBRANCH   7  12
ENDBRANCH   5   7
ENDBRANCH   4   5
ENDBRANCH   3   4
ENDBRANCH   2   3
ENDBRANCH   1   2
BRANCH   1  37
ATOM     37  C   UNL     1      -0.114   3.698   2.192  1.00  0.00     0.202 C 
BRANCH  37  38
ATOM     38  C   UNL     1       0.769   4.230   0.864  1.00  0.00     0.261 C 
BRANCH  38  39
ATOM     39  O   UNL     1       2.252   3.999   0.801  1.00  0.00    -0.460 OA
BRANCH  39  40
ATOM     40  C   UNL     1       3.174   4.361  -0.172  1.00  0.00     0.338 C 
ATOM     41  O   UNL     1       2.836   4.861  -1.238  1.00  0.00    -0.246 OA
BRANCH  40  42
ATOM     42  C   UNL     1       4.710   4.239   0.215  1.00  0.00     0.060 A 
ATOM     43  C   UNL     1       5.162   4.393   1.522  1.00  0.00     0.016 A 
ATOM     44  C   UNL     1       5.770   4.123  -0.688  1.00  0.00     0.016 A 
ATOM     45  C   UNL     1       6.488   4.552   1.964  1.00  0.00     0.010 A 
ATOM     46  C   UNL     1       7.155   4.171  -0.248  1.00  0.00     0.010 A 
ATOM     47  C   UNL     1       7.542   4.435   1.092  1.00  0.00    -0.014 A 
BRANCH  47  48
ATOM     48  C   UNL     1       8.953   4.726   1.576  1.00  0.00     0.031 A 
ATOM     49  C   UNL     1       9.783   5.732   0.811  1.00  0.00     0.074 A 
ATOM     50  C   UNL     1       9.505   4.265   2.733  1.00  0.00     0.049 A 
ATOM     51  N   UNL     1      11.069   5.972   0.852  1.00  0.00    -0.248 NA
ATOM     52  C   UNL     1       9.046   6.614  -0.106  1.00  0.00     0.031 C 
ATOM     53  C   UNL     1       8.834   3.475   3.769  1.00  0.00     0.029 A 
ATOM     54  N   UNL     1      10.794   4.399   3.236  1.00  0.00    -0.354 N 
ATOM     55  C   UNL     1      11.303   6.953  -0.106  1.00  0.00     0.074 A 
ATOM     56  C   UNL     1      10.020   7.314  -0.664  1.00  0.00     0.031 C 
ATOM     57  C   UNL     1       9.697   3.201   4.763  1.00  0.00     0.029 A 
ATOM     58  C   UNL     1      11.027   3.670   4.388  1.00  0.00     0.049 A 
ATOM     59  H   UNL     1      11.480   4.962   2.810  1.00  0.00     0.167 HD
ATOM     60  C   UNL     1      12.479   7.480  -0.518  1.00  0.00     0.034 A 
ATOM     61  C   UNL     1      12.172   3.330   5.030  1.00  0.00     0.034 A 
ATOM     62  C   UNL     1      13.757   7.145   0.044  1.00  0.00     0.049 A 
ATOM     63  C   UNL     1      13.498   3.787   4.470  1.00  0.00     0.074 A 
ATOM     64  C   UNL     1      15.012   7.549  -0.375  1.00  0.00     0.029 A 
ATOM     65  N   UNL     1      13.945   6.329   1.146  1.00  0.00    -0.354 N 
ATOM     66  N   UNL     1      13.732   4.610   3.477  1.00  0.00    -0.248 NA
ATOM     67  C   UNL     1      14.721   3.260   5.102  1.00  0.00     0.031 C 
ATOM     68  C   UNL     1      15.963   6.935   0.444  1.00  0.00     0.029 A 
ATOM     69  C   UNL     1      15.296   6.198   1.410  1.00  0.00     0.049 A 
ATOM     70  H   UNL     1      13.224   5.905   1.665  1.00  0.00     0.167 HD
ATOM     71  C   UNL     1      15.117   4.713   3.378  1.00  0.00     0.074 A 
ATOM     72  C   UNL     1      15.676   3.886   4.425  1.00  0.00     0.031 C 
ATOM     73  C   UNL     1      15.853   5.419   2.486  1.00  0.00     0.034 A 
BRANCH  60  74
ATOM     74  C   UNL     1      12.445   8.401  -1.707  1.00  0.00     0.023 A 
ATOM     75  C   UNL     1      11.988   9.726  -1.585  1.00  0.00     0.012 A 
ATOM     76  C   UNL     1      12.900   7.934  -2.958  1.00  0.00     0.148 A 
ATOM     77  C   UNL     1      11.955  10.565  -2.700  1.00  0.00     0.002 A 
ATOM     78  C   UNL     1      12.909   8.789  -4.051  1.00  0.00     0.091 A 
ATOM     79  F   UNL     1      13.307   6.661  -3.053  1.00  0.00    -0.205 F 
ATOM     80  C   UNL     1      12.424  10.100  -3.928  1.00  0.00     0.022 A 
BRANCH  78  81
ATOM     81  S   UNL     1      13.561   8.298  -5.651  1.00  0.00     0.127 S 
ATOM     82  O   UNL     1      12.354   8.342  -6.483  1.00  0.00    -0.237 OA
ATOM     83  O   UNL     1      14.523   9.371  -5.926  1.00  0.00    -0.237 OA
ATOM     84  O   UNL     1      14.142   6.985  -5.471  1.00  0.00    -0.744 OA
ENDBRANCH  78  81
ENDBRANCH  60  74
BRANCH  61  85
ATOM     85  C   UNL     1      12.137   2.430   6.234  1.00  0.00     0.023 A 
ATOM     86  C   UNL     1      12.599   2.892   7.483  1.00  0.00     0.012 A 
ATOM     87  C   UNL     1      11.646   1.109   6.144  1.00  0.00     0.148 A 
ATOM     88  C   UNL     1      12.573   2.063   8.610  1.00  0.00     0.002 A 
ATOM     89  C   UNL     1      11.555   0.315   7.283  1.00  0.00     0.091 A 
ATOM     90  F   UNL     1      11.261   0.656   4.943  1.00  0.00    -0.205 F 
ATOM     91  C   UNL     1      12.034   0.782   8.515  1.00  0.00     0.022 A 
BRANCH  89  92
ATOM     92  S   UNL     1      10.741  -1.288   7.282  1.00  0.00     0.127 S 
ATOM     93  O   UNL     1      11.845  -2.189   7.603  1.00  0.00    -0.237 OA
ATOM     94  O   UNL     1       9.752  -1.120   8.348  1.00  0.00    -0.237 OA
ATOM     95  O   UNL     1      10.170  -1.443   5.951  1.00  0.00    -0.744 OA
ENDBRANCH  89  92
ENDBRANCH  61  85
BRANCH  73  96
ATOM     96  C   UNL     1      17.355   5.388   2.596  1.00  0.00     0.023 A 
ATOM     97  C   UNL     1      18.070   4.245   2.191  1.00  0.00     0.012 A 
ATOM     98  C   UNL     1      18.062   6.555   2.955  1.00  0.00     0.148 A 
ATOM     99  C   UNL     1      19.465   4.260   2.150  1.00  0.00     0.002 A 
ATOM    100  C   UNL     1      19.447   6.580   2.860  1.00  0.00     0.091 A 
ATOM    101  F   UNL     1      17.361   7.627   3.353  1.00  0.00    -0.205 F 
ATOM    102  C   UNL     1      20.151   5.431   2.467  1.00  0.00     0.022 A 
BRANCH 100 103
ATOM    103  S   UNL     1      20.406   8.075   3.134  1.00  0.00     0.127 S 
ATOM    104  O   UNL     1      21.116   7.751   4.370  1.00  0.00    -0.237 OA
ATOM    105  O   UNL     1      21.250   8.124   1.939  1.00  0.00    -0.237 OA
ATOM    106  O   UNL     1      19.440   9.161   3.239  1.00  0.00    -0.744 OA
ENDBRANCH 100 103
ENDBRANCH  73  96
ENDBRANCH  47  48
ENDBRANCH  40  42
ENDBRANCH  39  40
ENDBRANCH  38  39
ENDBRANCH  37  38
ENDBRANCH   1  37
TORSDOF 24
