REMARK SMILES COc1ccccc1[C@@H]1C[N@@H+](Cc2cn3cc(C)ccc3n2)C[C@H]1C(=O)OCCOCCOC(=O)c1ccc(-c2c3nc(c(-c4cccc(S(=O)(=O)[O-])c4F)c4ccc([nH]4)c(-c4cccc(S(=O)(=O)[O-])c4F)c4nc(c(-c5cccc(S(=O)(=O)[O-])c5F)c5ccc2[nH]5)C=C4)C=C3)cc1
REMARK SMILES IDX 31 1 30 2 29 3 28 4 27 5 25 6 26 7 24 8 9 9 10 10 11 11
REMARK SMILES IDX 23 12 8 14 3 15 4 16 5 17 7 18 6 19 2 20 1 21 12 22 13 23
REMARK SMILES IDX 14 24 22 25 15 26 21 27 16 28 20 29 17 30 19 31 18 32 32 33
REMARK SMILES IDX 33 34 34 35 35 36 36 37 37 38 98 39 38 40 97 41 39 42 40 43
REMARK SMILES IDX 41 44 91 45 42 46 96 47 90 48 92 49 43 50 95 51 89 52 88 53
REMARK SMILES IDX 44 55 76 56 56 57 75 58 57 59 60 60 74 61 93 62 58 63 59 64
REMARK SMILES IDX 73 66 94 67 61 68 45 69 46 70 54 71 47 72 49 73 55 74 48 75
REMARK SMILES IDX 50 76 51 77 52 78 53 79 77 80 78 81 86 82 79 83 81 84 87 85
REMARK SMILES IDX 80 86 82 87 83 88 84 89 85 90 62 91 63 92 71 93 64 94 66 95
REMARK SMILES IDX 72 96 65 97 67 98 68 99 69 100 70 101
REMARK H PARENT 11 13 92 54 60 65
REMARK Flexibility Score: inf
ROOT
ATOM      1  C   UNL     1       2.197  -5.179   1.638  1.00  0.00     0.202 C 
ENDROOT
BRANCH   1   2
ATOM      2  O   UNL     1       2.319  -5.954   0.446  1.00  0.00    -0.374 OA
BRANCH   2   3
ATOM      3  C   UNL     1       3.610  -5.917  -0.156  1.00  0.00     0.202 C 
BRANCH   3   4
ATOM      4  C   UNL     1       3.793  -4.774  -1.159  1.00  0.00     0.261 C 
BRANCH   4   5
ATOM      5  O   UNL     1       3.652  -3.457  -0.575  1.00  0.00    -0.463 OA
BRANCH   5   6
ATOM      6  C   UNL     1       2.548  -2.757  -0.938  1.00  0.00     0.315 C 
ATOM      7  O   UNL     1       1.634  -3.224  -1.615  1.00  0.00    -0.252 OA
BRANCH   6   8
ATOM      8  C   UNL     1       2.568  -1.282  -0.574  1.00  0.00     0.167 C 
ATOM      9  C   UNL     1       2.790  -0.821   0.863  1.00  0.00     0.098 C 
ATOM     10  C   UNL     1       3.428   0.575   0.712  1.00  0.00     0.272 C 
ATOM     11  N   UNL     1       4.094   0.618  -0.605  1.00  0.00    -0.329 N 
ATOM     12  C   UNL     1       3.642  -0.547  -1.382  1.00  0.00     0.278 C 
ATOM     13  H   UNL     1       3.809   1.483  -1.065  1.00  0.00     0.348 HD
BRANCH   9  14
ATOM     14  C   UNL     1       1.730  -0.874   1.970  1.00  0.00     0.004 A 
ATOM     15  C   UNL     1       0.397  -0.447   2.025  1.00  0.00     0.122 A 
ATOM     16  C   UNL     1      -0.351  -0.651   3.219  1.00  0.00     0.047 A 
ATOM     17  C   UNL     1       0.187  -1.200   4.378  1.00  0.00     0.004 A 
ATOM     18  C   UNL     1       2.255  -1.347   3.208  1.00  0.00     0.008 A 
ATOM     19  C   UNL     1       1.521  -1.524   4.381  1.00  0.00     0.001 A 
BRANCH  15  20
ATOM     20  O   UNL     1      -0.392   0.260   1.172  1.00  0.00    -0.496 OA
ATOM     21  C   UNL     1      -0.107   0.471  -0.183  1.00  0.00     0.278 C 
ENDBRANCH  15  20
ENDBRANCH   9  14
BRANCH  11  22
ATOM     22  C   UNL     1       5.575   0.777  -0.581  1.00  0.00     0.321 C 
BRANCH  22  23
ATOM     23  C   UNL     1       6.240  -0.136   0.405  1.00  0.00     0.114 A 
ATOM     24  C   UNL     1       6.789   0.193   1.635  1.00  0.00     0.122 A 
ATOM     25  N   UNL     1       6.087  -1.495   0.292  1.00  0.00    -0.228 NA
ATOM     26  N   UNL     1       6.529  -0.912   2.411  1.00  0.00    -0.306 N 
ATOM     27  C   UNL     1       6.121  -1.912   1.536  1.00  0.00     0.137 A 
ATOM     28  C   UNL     1       6.396  -0.994   3.797  1.00  0.00     0.096 A 
ATOM     29  C   UNL     1       5.498  -3.047   2.099  1.00  0.00     0.048 A 
ATOM     30  C   UNL     1       5.708  -2.026   4.318  1.00  0.00    -0.034 A 
ATOM     31  C   UNL     1       5.215  -3.050   3.411  1.00  0.00     0.009 A 
ATOM     32  C   UNL     1       5.372  -2.203   5.757  1.00  0.00     0.046 C 
ENDBRANCH  22  23
ENDBRANCH  11  22
ENDBRANCH   6   8
ENDBRANCH   5   6
ENDBRANCH   4   5
ENDBRANCH   3   4
ENDBRANCH   2   3
ENDBRANCH   1   2
BRANCH   1  33
ATOM     33  C   UNL     1       2.744  -5.890   2.882  1.00  0.00     0.261 C 
BRANCH  33  34
ATOM     34  O   UNL     1       4.186  -5.940   2.899  1.00  0.00    -0.460 OA
BRANCH  34  35
ATOM     35  C   UNL     1       4.803  -7.120   3.210  1.00  0.00     0.338 C 
ATOM     36  O   UNL     1       4.342  -8.229   3.111  1.00  0.00    -0.246 OA
BRANCH  35  37
ATOM     37  C   UNL     1       6.016  -6.747   3.994  1.00  0.00     0.060 A 
ATOM     38  C   UNL     1       6.191  -7.302   5.263  1.00  0.00     0.016 A 
ATOM     39  C   UNL     1       6.773  -5.648   3.632  1.00  0.00     0.016 A 
ATOM     40  C   UNL     1       6.877  -6.581   6.255  1.00  0.00     0.010 A 
ATOM     41  C   UNL     1       7.395  -4.909   4.634  1.00  0.00     0.010 A 
ATOM     42  C   UNL     1       7.355  -5.299   5.984  1.00  0.00    -0.014 A 
BRANCH  42  43
ATOM     43  C   UNL     1       8.027  -4.455   7.005  1.00  0.00     0.031 A 
ATOM     44  C   UNL     1       9.429  -4.178   6.612  1.00  0.00     0.074 A 
ATOM     45  C   UNL     1       7.552  -3.838   8.122  1.00  0.00     0.049 A 
ATOM     46  N   UNL     1      10.421  -4.997   6.761  1.00  0.00    -0.248 NA
ATOM     47  C   UNL     1       9.722  -3.037   5.725  1.00  0.00     0.031 C 
ATOM     48  C   UNL     1       6.159  -3.646   8.542  1.00  0.00     0.029 A 
ATOM     49  N   UNL     1       8.239  -3.133   9.092  1.00  0.00    -0.354 N 
ATOM     50  C   UNL     1      11.507  -4.289   6.271  1.00  0.00     0.074 A 
ATOM     51  C   UNL     1      10.962  -3.350   5.333  1.00  0.00     0.031 C 
ATOM     52  C   UNL     1       6.095  -2.699   9.515  1.00  0.00     0.029 A 
ATOM     53  C   UNL     1       7.442  -2.352   9.940  1.00  0.00     0.049 A 
ATOM     54  H   UNL     1       9.218  -3.176   9.181  1.00  0.00     0.167 HD
ATOM     55  C   UNL     1      12.645  -4.184   7.013  1.00  0.00     0.034 A 
ATOM     56  C   UNL     1       7.851  -1.503  10.926  1.00  0.00     0.034 A 
ATOM     57  C   UNL     1      12.575  -5.050   8.168  1.00  0.00     0.049 A 
ATOM     58  C   UNL     1       9.186  -1.957  11.363  1.00  0.00     0.074 A 
ATOM     59  C   UNL     1      12.518  -6.401   8.428  1.00  0.00     0.029 A 
ATOM     60  N   UNL     1      12.126  -4.401   9.287  1.00  0.00    -0.354 N 
ATOM     61  N   UNL     1       9.380  -3.060  12.027  1.00  0.00    -0.248 NA
ATOM     62  C   UNL     1      10.385  -1.303  10.857  1.00  0.00     0.031 C 
ATOM     63  C   UNL     1      11.893  -6.538   9.704  1.00  0.00     0.029 A 
ATOM     64  C   UNL     1      11.633  -5.270  10.217  1.00  0.00     0.049 A 
ATOM     65  H   UNL     1      12.156  -3.424   9.407  1.00  0.00     0.167 HD
ATOM     66  C   UNL     1      10.616  -3.480  11.586  1.00  0.00     0.074 A 
ATOM     67  C   UNL     1      11.263  -2.288  11.057  1.00  0.00     0.031 C 
ATOM     68  C   UNL     1      10.828  -4.798  11.323  1.00  0.00     0.034 A 
BRANCH  55  69
ATOM     69  C   UNL     1      13.580  -2.981   7.045  1.00  0.00     0.023 A 
ATOM     70  C   UNL     1      14.766  -3.127   7.801  1.00  0.00     0.012 A 
ATOM     71  C   UNL     1      13.267  -1.668   6.622  1.00  0.00     0.148 A 
ATOM     72  C   UNL     1      15.566  -2.030   8.144  1.00  0.00     0.002 A 
ATOM     73  C   UNL     1      14.108  -0.595   6.888  1.00  0.00     0.091 A 
ATOM     74  F   UNL     1      12.080  -1.392   6.084  1.00  0.00    -0.205 F 
ATOM     75  C   UNL     1      15.245  -0.763   7.676  1.00  0.00     0.022 A 
BRANCH  73  76
ATOM     76  S   UNL     1      13.746   1.055   6.267  1.00  0.00     0.127 S 
ATOM     77  O   UNL     1      13.413   1.763   7.498  1.00  0.00    -0.237 OA
ATOM     78  O   UNL     1      15.023   1.426   5.657  1.00  0.00    -0.237 OA
ATOM     79  O   UNL     1      12.655   0.889   5.313  1.00  0.00    -0.744 OA
ENDBRANCH  73  76
ENDBRANCH  55  69
BRANCH  56  80
ATOM     80  C   UNL     1       7.279  -0.292  11.582  1.00  0.00     0.023 A 
ATOM     81  C   UNL     1       7.755   0.109  12.857  1.00  0.00     0.012 A 
ATOM     82  C   UNL     1       6.555   0.651  10.829  1.00  0.00     0.148 A 
ATOM     83  C   UNL     1       7.585   1.419  13.328  1.00  0.00     0.002 A 
ATOM     84  C   UNL     1       6.393   1.956  11.300  1.00  0.00     0.091 A 
ATOM     85  F   UNL     1       6.116   0.291   9.616  1.00  0.00    -0.205 F 
ATOM     86  C   UNL     1       6.921   2.349  12.540  1.00  0.00     0.022 A 
BRANCH  84  87
ATOM     87  S   UNL     1       5.593   3.237  10.323  1.00  0.00     0.127 S 
ATOM     88  O   UNL     1       4.658   3.816  11.288  1.00  0.00    -0.237 OA
ATOM     89  O   UNL     1       6.720   4.096   9.970  1.00  0.00    -0.237 OA
ATOM     90  O   UNL     1       4.957   2.540   9.212  1.00  0.00    -0.744 OA
ENDBRANCH  84  87
ENDBRANCH  56  80
BRANCH  68  91
ATOM     91  C   UNL     1      10.067  -5.802  12.136  1.00  0.00     0.023 A 
ATOM     92  C   UNL     1       8.664  -5.918  12.139  1.00  0.00     0.012 A 
ATOM     93  C   UNL     1      10.828  -6.708  12.894  1.00  0.00     0.148 A 
ATOM     94  C   UNL     1       8.036  -6.906  12.905  1.00  0.00     0.002 A 
ATOM     95  C   UNL     1      10.206  -7.720  13.606  1.00  0.00     0.091 A 
ATOM     96  F   UNL     1      12.162  -6.560  12.907  1.00  0.00    -0.205 F 
ATOM     97  C   UNL     1       8.808  -7.817  13.625  1.00  0.00     0.022 A 
BRANCH  95  98
ATOM     98  S   UNL     1      11.168  -8.974  14.450  1.00  0.00     0.127 S 
ATOM     99  O   UNL     1      11.111  -8.522  15.838  1.00  0.00    -0.237 OA
ATOM    100  O   UNL     1      10.410 -10.194  14.169  1.00  0.00    -0.237 OA
ATOM    101  O   UNL     1      12.488  -8.943  13.829  1.00  0.00    -0.744 OA
ENDBRANCH  95  98
ENDBRANCH  68  91
ENDBRANCH  42  43
ENDBRANCH  35  37
ENDBRANCH  34  35
ENDBRANCH  33  34
ENDBRANCH   1  33
TORSDOF 21
