REMARK SMILES O=C(OCCOCCOC(=O)[C@@H]1CC=CC[C@@H]1C(=O)Nc1sc2c(c1C(=O)N1CCCCC1)CCCC2)c1ccc(-c2c3nc(c(-c4cccc(S(=O)(=O)[O-])c4F)c4ccc([nH]4)c(-c4cccc(S(=O)(=O)[O-])c4F)c4nc(c(-c5cccc(S(=O)(=O)[O-])c5F)c5ccc2[nH]5)C=C4)C=C3)cc1
REMARK SMILES IDX 6 1 5 2 4 3 3 4 2 5 1 6 38 7 39 8 100 9 40 10 99 11 41 12
REMARK SMILES IDX 42 13 43 14 93 15 44 16 98 17 92 18 94 19 45 20 97 21 91 22
REMARK SMILES IDX 90 23 46 25 78 26 58 27 77 28 59 29 62 30 76 31 95 32 60 33
REMARK SMILES IDX 61 34 75 36 96 37 63 38 47 39 48 40 56 41 49 42 51 43 57 44
REMARK SMILES IDX 50 45 52 46 53 47 54 48 55 49 79 50 80 51 88 52 81 53 83 54
REMARK SMILES IDX 89 55 82 56 84 57 85 58 86 59 87 60 64 61 65 62 73 63 66 64
REMARK SMILES IDX 68 65 74 66 67 67 69 68 70 69 71 70 72 71 7 72 8 73 9 74
REMARK SMILES IDX 10 75 11 76 12 77 13 78 17 79 14 80 16 81 15 82 18 83 19 84
REMARK SMILES IDX 20 85 21 87 22 88 25 89 23 90 24 91 37 92 34 93 36 94 35 95
REMARK SMILES IDX 26 96 27 97 28 98 29 99 33 100 30 101 32 102 31 103
REMARK H PARENT 94 24 62 35 20 86
REMARK Flexibility Score: inf
ROOT
ATOM      1  O   UNL     1       3.152  -0.561   3.257  1.00  0.00    -0.374 OA
ENDROOT
BRANCH   1   2
ATOM      2  C   UNL     1       3.056  -1.093   1.940  1.00  0.00     0.202 C 
BRANCH   2   3
ATOM      3  C   UNL     1       1.820  -0.636   1.171  1.00  0.00     0.261 C 
BRANCH   3   4
ATOM      4  O   UNL     1       1.879   0.786   0.972  1.00  0.00    -0.460 OA
BRANCH   4   5
ATOM      5  C   UNL     1       1.199   1.746   1.642  1.00  0.00     0.338 C 
ATOM      6  O   UNL     1       1.404   2.923   1.354  1.00  0.00    -0.246 OA
BRANCH   5   7
ATOM      7  C   UNL     1       0.180   1.438   2.685  1.00  0.00     0.060 A 
ATOM      8  C   UNL     1       0.276   0.386   3.598  1.00  0.00     0.016 A 
ATOM      9  C   UNL     1      -0.899   2.325   2.808  1.00  0.00     0.016 A 
ATOM     10  C   UNL     1      -0.702   0.157   4.549  1.00  0.00     0.010 A 
ATOM     11  C   UNL     1      -1.866   2.135   3.799  1.00  0.00     0.010 A 
ATOM     12  C   UNL     1      -1.774   1.034   4.658  1.00  0.00    -0.014 A 
BRANCH  12  13
ATOM     13  C   UNL     1      -2.819   0.712   5.640  1.00  0.00     0.031 A 
ATOM     14  C   UNL     1      -4.115   0.158   5.141  1.00  0.00     0.074 A 
ATOM     15  C   UNL     1      -2.538   0.810   6.952  1.00  0.00     0.049 A 
ATOM     16  N   UNL     1      -5.184  -0.166   5.812  1.00  0.00    -0.248 NA
ATOM     17  C   UNL     1      -4.216  -0.078   3.689  1.00  0.00     0.031 C 
ATOM     18  C   UNL     1      -1.251   1.240   7.506  1.00  0.00     0.029 A 
ATOM     19  N   UNL     1      -3.300   0.536   8.053  1.00  0.00    -0.354 N 
ATOM     20  C   UNL     1      -6.105  -0.589   4.863  1.00  0.00     0.074 A 
ATOM     21  C   UNL     1      -5.464  -0.505   3.571  1.00  0.00     0.031 C 
ATOM     22  C   UNL     1      -1.311   1.191   8.846  1.00  0.00     0.029 A 
ATOM     23  C   UNL     1      -2.656   0.794   9.241  1.00  0.00     0.049 A 
ATOM     24  H   UNL     1      -4.220   0.189   8.001  1.00  0.00     0.167 HD
ATOM     25  C   UNL     1      -7.375  -1.003   5.066  1.00  0.00     0.034 A 
ATOM     26  C   UNL     1      -3.126   0.746  10.501  1.00  0.00     0.034 A 
ATOM     27  C   UNL     1      -7.971  -1.085   6.369  1.00  0.00     0.049 A 
ATOM     28  C   UNL     1      -4.559   0.329  10.692  1.00  0.00     0.074 A 
ATOM     29  C   UNL     1      -9.262  -1.437   6.710  1.00  0.00     0.029 A 
ATOM     30  N   UNL     1      -7.300  -0.806   7.554  1.00  0.00    -0.354 N 
ATOM     31  N   UNL     1      -5.429  -0.064   9.790  1.00  0.00    -0.248 NA
ATOM     32  C   UNL     1      -5.077   0.342  12.065  1.00  0.00     0.031 C 
ATOM     33  C   UNL     1      -9.376  -1.349   8.103  1.00  0.00     0.029 A 
ATOM     34  C   UNL     1      -8.149  -0.971   8.630  1.00  0.00     0.049 A 
ATOM     35  H   UNL     1      -6.356  -0.531   7.616  1.00  0.00     0.167 HD
ATOM     36  C   UNL     1      -6.591  -0.365  10.485  1.00  0.00     0.074 A 
ATOM     37  C   UNL     1      -6.303  -0.134  11.889  1.00  0.00     0.031 C 
ATOM     38  C   UNL     1      -7.796  -0.773  10.014  1.00  0.00     0.034 A 
BRANCH  25  39
ATOM     39  C   UNL     1      -8.187  -1.347   3.848  1.00  0.00     0.023 A 
ATOM     40  C   UNL     1      -7.940  -2.545   3.148  1.00  0.00     0.012 A 
ATOM     41  C   UNL     1      -9.180  -0.465   3.381  1.00  0.00     0.148 A 
ATOM     42  C   UNL     1      -8.643  -2.841   1.979  1.00  0.00     0.002 A 
ATOM     43  C   UNL     1      -9.902  -0.784   2.237  1.00  0.00     0.091 A 
ATOM     44  F   UNL     1      -9.378   0.683   4.044  1.00  0.00    -0.205 F 
ATOM     45  C   UNL     1      -9.627  -1.965   1.528  1.00  0.00     0.022 A 
BRANCH  43  46
ATOM     46  S   UNL     1     -11.221   0.257   1.601  1.00  0.00     0.127 S 
ATOM     47  O   UNL     1     -10.631   0.754   0.358  1.00  0.00    -0.237 OA
ATOM     48  O   UNL     1     -12.308  -0.705   1.417  1.00  0.00    -0.237 OA
ATOM     49  O   UNL     1     -11.466   1.266   2.621  1.00  0.00    -0.744 OA
ENDBRANCH  43  46
ENDBRANCH  25  39
BRANCH  26  50
ATOM     50  C   UNL     1      -2.246   1.103  11.651  1.00  0.00     0.023 A 
ATOM     51  C   UNL     1      -1.889   0.117  12.591  1.00  0.00     0.012 A 
ATOM     52  C   UNL     1      -1.734   2.408  11.805  1.00  0.00     0.148 A 
ATOM     53  C   UNL     1      -1.062   0.429  13.673  1.00  0.00     0.002 A 
ATOM     54  C   UNL     1      -0.867   2.699  12.852  1.00  0.00     0.091 A 
ATOM     55  F   UNL     1      -2.101   3.344  10.918  1.00  0.00    -0.205 F 
ATOM     56  C   UNL     1      -0.541   1.715  13.797  1.00  0.00     0.022 A 
BRANCH  54  57
ATOM     57  S   UNL     1      -0.056   4.296  13.010  1.00  0.00     0.127 S 
ATOM     58  O   UNL     1      -0.797   4.900  14.114  1.00  0.00    -0.237 OA
ATOM     59  O   UNL     1       1.319   3.912  13.329  1.00  0.00    -0.237 OA
ATOM     60  O   UNL     1      -0.210   4.940  11.713  1.00  0.00    -0.744 OA
ENDBRANCH  54  57
ENDBRANCH  26  50
BRANCH  38  61
ATOM     61  C   UNL     1      -8.877  -1.019  11.028  1.00  0.00     0.023 A 
ATOM     62  C   UNL     1      -9.525   0.073  11.636  1.00  0.00     0.012 A 
ATOM     63  C   UNL     1      -9.310  -2.330  11.302  1.00  0.00     0.148 A 
ATOM     64  C   UNL     1     -10.577  -0.139  12.523  1.00  0.00     0.002 A 
ATOM     65  C   UNL     1     -10.392  -2.530  12.147  1.00  0.00     0.091 A 
ATOM     66  F   UNL     1      -8.660  -3.353  10.727  1.00  0.00    -0.205 F 
ATOM     67  C   UNL     1     -11.020  -1.437  12.767  1.00  0.00     0.022 A 
BRANCH  65  68
ATOM     68  S   UNL     1     -11.094  -4.158  12.429  1.00  0.00     0.127 S 
ATOM     69  O   UNL     1     -10.629  -4.453  13.783  1.00  0.00    -0.237 OA
ATOM     70  O   UNL     1     -12.530  -3.901  12.319  1.00  0.00    -0.237 OA
ATOM     71  O   UNL     1     -10.554  -5.013  11.380  1.00  0.00    -0.744 OA
ENDBRANCH  65  68
ENDBRANCH  38  61
ENDBRANCH  12  13
ENDBRANCH   5   7
ENDBRANCH   4   5
ENDBRANCH   3   4
ENDBRANCH   2   3
ENDBRANCH   1   2
BRANCH   1  72
ATOM     72  C   UNL     1       3.839   0.688   3.409  1.00  0.00     0.202 C 
BRANCH  72  73
ATOM     73  C   UNL     1       4.746   0.599   4.641  1.00  0.00     0.261 C 
BRANCH  73  74
ATOM     74  O   UNL     1       5.624  -0.518   4.445  1.00  0.00    -0.463 OA
BRANCH  74  75
ATOM     75  C   UNL     1       5.092  -1.727   4.812  1.00  0.00     0.310 C 
ATOM     76  O   UNL     1       4.239  -1.891   5.675  1.00  0.00    -0.252 OA
BRANCH  75  77
ATOM     77  C   UNL     1       5.552  -2.789   3.827  1.00  0.00     0.116 C 
ATOM     78  C   UNL     1       5.139  -4.188   4.279  1.00  0.00     0.043 C 
ATOM     79  C   UNL     1       7.036  -2.639   3.476  1.00  0.00     0.097 C 
ATOM     80  C   UNL     1       5.775  -5.270   3.459  1.00  0.00    -0.030 C 
ATOM     81  C   UNL     1       7.549  -3.751   2.550  1.00  0.00     0.041 C 
ATOM     82  C   UNL     1       6.844  -5.069   2.677  1.00  0.00    -0.030 C 
BRANCH  79  83
ATOM     83  C   UNL     1       7.880  -2.496   4.737  1.00  0.00     0.229 C 
ATOM     84  O   UNL     1       7.544  -3.050   5.789  1.00  0.00    -0.274 OA
ATOM     85  N   UNL     1       9.069  -1.825   4.738  1.00  0.00    -0.317 N 
ATOM     86  H   UNL     1       9.477  -1.658   5.618  1.00  0.00     0.170 HD
BRANCH  85  87
ATOM     87  C   UNL     1       9.761  -1.356   3.643  1.00  0.00     0.108 A 
ATOM     88  S   UNL     1       9.087  -0.118   2.707  1.00  0.00    -0.122 S 
ATOM     89  C   UNL     1      11.052  -1.710   3.268  1.00  0.00     0.078 A 
ATOM     90  C   UNL     1      10.338  -0.237   1.574  1.00  0.00     0.011 A 
ATOM     91  C   UNL     1      11.374  -1.056   2.003  1.00  0.00    -0.019 A 
ATOM     92  C   UNL     1      10.277   0.508   0.274  1.00  0.00     0.047 C 
ATOM     93  C   UNL     1      12.584  -1.248   1.133  1.00  0.00     0.037 C 
ATOM     94  C   UNL     1      11.309  -0.052  -0.711  1.00  0.00     0.006 C 
ATOM     95  C   UNL     1      12.662  -0.244  -0.028  1.00  0.00     0.005 C 
BRANCH  89  96
ATOM     96  C   UNL     1      11.764  -2.746   4.047  1.00  0.00     0.257 C 
ATOM     97  O   UNL     1      11.244  -3.298   5.019  1.00  0.00    -0.269 OA
ATOM     98  N   UNL     1      13.001  -3.174   3.597  1.00  0.00    -0.339 N 
ATOM     99  C   UNL     1      13.244  -4.612   3.589  1.00  0.00     0.120 C 
ATOM    100  C   UNL     1      14.165  -2.317   3.779  1.00  0.00     0.120 C 
ATOM    101  C   UNL     1      14.096  -5.067   4.771  1.00  0.00     0.022 C 
ATOM    102  C   UNL     1      15.016  -2.752   4.970  1.00  0.00     0.022 C 
ATOM    103  C   UNL     1      15.370  -4.233   4.865  1.00  0.00     0.004 C 
ENDBRANCH  89  96
ENDBRANCH  85  87
ENDBRANCH  79  83
ENDBRANCH  75  77
ENDBRANCH  74  75
ENDBRANCH  73  74
ENDBRANCH  72  73
ENDBRANCH   1  72
TORSDOF 20
