REMARK SMILES O=C(OCCOCCOC(=O)[C@@H]1CCn2c(C(=O)c3ccccc3)ccc21)c1ccc(-c2c3nc(c(-c4cccc(S(=O)(=O)[O-])c4F)c4ccc([nH]4)c(-c4cccc(S(=O)(=O)[O-])c4F)c4nc(c(-c5cccc(S(=O)(=O)[O-])c5F)c5ccc2[nH]5)C=C4)C=C3)cc1
REMARK SMILES IDX 5 1 4 2 3 3 2 4 1 5 28 6 29 7 90 8 30 9 89 10 31 11 32 12
REMARK SMILES IDX 33 13 83 14 34 15 88 16 82 17 84 18 35 19 87 20 81 21 80 22
REMARK SMILES IDX 36 24 68 25 48 26 67 27 49 28 52 29 66 30 85 31 50 32 51 33
REMARK SMILES IDX 65 35 86 36 53 37 37 38 38 39 46 40 39 41 41 42 47 43 40 44
REMARK SMILES IDX 42 45 43 46 44 47 45 48 69 49 70 50 78 51 71 52 73 53 79 54
REMARK SMILES IDX 72 55 74 56 75 57 76 58 77 59 54 60 55 61 63 62 56 63 58 64
REMARK SMILES IDX 64 65 57 66 59 67 60 68 61 69 62 70 6 71 7 72 8 73 9 74
REMARK SMILES IDX 10 75 11 76 12 77 13 78 27 79 14 80 15 81 26 82 16 83 25 84
REMARK SMILES IDX 17 85 18 86 19 87 20 88 24 89 21 90 23 91 22 92
REMARK H PARENT 84 23 52 34
REMARK Flexibility Score: inf
ROOT
ATOM      1  C   UNL     1       4.542  -0.768  -1.044  1.00  0.00     0.202 C 
ENDROOT
BRANCH   1   2
ATOM      2  C   UNL     1       4.089  -1.017   0.401  1.00  0.00     0.261 C 
BRANCH   2   3
ATOM      3  O   UNL     1       2.665  -0.880   0.543  1.00  0.00    -0.460 OA
BRANCH   3   4
ATOM      4  C   UNL     1       2.000   0.191   1.049  1.00  0.00     0.338 C 
ATOM      5  O   UNL     1       0.780   0.134   1.176  1.00  0.00    -0.246 OA
BRANCH   4   6
ATOM      6  C   UNL     1       2.714   1.427   1.475  1.00  0.00     0.060 A 
ATOM      7  C   UNL     1       3.889   1.873   0.878  1.00  0.00     0.016 A 
ATOM      8  C   UNL     1       2.158   2.205   2.497  1.00  0.00     0.016 A 
ATOM      9  C   UNL     1       4.585   2.958   1.347  1.00  0.00     0.010 A 
ATOM     10  C   UNL     1       2.814   3.361   2.935  1.00  0.00     0.010 A 
ATOM     11  C   UNL     1       4.050   3.711   2.377  1.00  0.00    -0.014 A 
BRANCH  11  12
ATOM     12  C   UNL     1       4.923   4.761   2.907  1.00  0.00     0.031 A 
ATOM     13  C   UNL     1       5.602   4.506   4.213  1.00  0.00     0.074 A 
ATOM     14  C   UNL     1       5.243   5.800   2.115  1.00  0.00     0.049 A 
ATOM     15  N   UNL     1       6.428   5.266   4.871  1.00  0.00    -0.248 NA
ATOM     16  C   UNL     1       5.329   3.208   4.857  1.00  0.00     0.031 C 
ATOM     17  C   UNL     1       4.739   6.011   0.752  1.00  0.00     0.029 A 
ATOM     18  N   UNL     1       6.098   6.845   2.317  1.00  0.00    -0.354 N 
ATOM     19  C   UNL     1       6.709   4.578   6.043  1.00  0.00     0.074 A 
ATOM     20  C   UNL     1       5.996   3.324   5.993  1.00  0.00     0.031 C 
ATOM     21  C   UNL     1       5.310   7.109   0.237  1.00  0.00     0.029 A 
ATOM     22  C   UNL     1       6.148   7.720   1.258  1.00  0.00     0.049 A 
ATOM     23  H   UNL     1       6.625   6.962   3.140  1.00  0.00     0.167 HD
ATOM     24  C   UNL     1       7.483   4.983   7.073  1.00  0.00     0.034 A 
ATOM     25  C   UNL     1       6.776   8.904   1.157  1.00  0.00     0.034 A 
ATOM     26  C   UNL     1       8.188   6.233   7.067  1.00  0.00     0.049 A 
ATOM     27  C   UNL     1       7.577   9.359   2.345  1.00  0.00     0.074 A 
ATOM     28  C   UNL     1       8.972   6.790   8.057  1.00  0.00     0.029 A 
ATOM     29  N   UNL     1       8.181   7.127   6.003  1.00  0.00    -0.354 N 
ATOM     30  N   UNL     1       7.815   8.724   3.469  1.00  0.00    -0.248 NA
ATOM     31  C   UNL     1       8.203  10.681   2.253  1.00  0.00     0.031 C 
ATOM     32  C   UNL     1       9.404   8.042   7.607  1.00  0.00     0.029 A 
ATOM     33  C   UNL     1       8.936   8.240   6.314  1.00  0.00     0.049 A 
ATOM     34  H   UNL     1       7.708   6.987   5.151  1.00  0.00     0.167 HD
ATOM     35  C   UNL     1       8.652   9.549   4.205  1.00  0.00     0.074 A 
ATOM     36  C   UNL     1       8.887  10.727   3.388  1.00  0.00     0.031 C 
ATOM     37  C   UNL     1       9.176   9.364   5.442  1.00  0.00     0.034 A 
BRANCH  24  38
ATOM     38  C   UNL     1       7.511   4.105   8.293  1.00  0.00     0.023 A 
ATOM     39  C   UNL     1       8.167   2.857   8.273  1.00  0.00     0.012 A 
ATOM     40  C   UNL     1       6.827   4.507   9.457  1.00  0.00     0.148 A 
ATOM     41  C   UNL     1       8.100   2.004   9.376  1.00  0.00     0.002 A 
ATOM     42  C   UNL     1       6.807   3.674  10.568  1.00  0.00     0.091 A 
ATOM     43  F   UNL     1       6.178   5.680   9.444  1.00  0.00    -0.205 F 
ATOM     44  C   UNL     1       7.426   2.415  10.524  1.00  0.00     0.022 A 
BRANCH  42  45
ATOM     45  S   UNL     1       6.021   4.145  12.112  1.00  0.00     0.127 S 
ATOM     46  O   UNL     1       4.880   3.232  12.153  1.00  0.00    -0.237 OA
ATOM     47  O   UNL     1       7.070   3.855  13.089  1.00  0.00    -0.237 OA
ATOM     48  O   UNL     1       5.686   5.556  11.980  1.00  0.00    -0.744 OA
ENDBRANCH  42  45
ENDBRANCH  24  38
BRANCH  25  49
ATOM     49  C   UNL     1       6.660   9.722  -0.083  1.00  0.00     0.023 A 
ATOM     50  C   UNL     1       7.801   9.963  -0.871  1.00  0.00     0.012 A 
ATOM     51  C   UNL     1       5.419  10.247  -0.499  1.00  0.00     0.148 A 
ATOM     52  C   UNL     1       7.715  10.737  -2.031  1.00  0.00     0.002 A 
ATOM     53  C   UNL     1       5.329  10.970  -1.682  1.00  0.00     0.091 A 
ATOM     54  F   UNL     1       4.343  10.018   0.268  1.00  0.00    -0.205 F 
ATOM     55  C   UNL     1       6.480  11.232  -2.441  1.00  0.00     0.022 A 
BRANCH  53  56
ATOM     56  S   UNL     1       3.763  11.549  -2.346  1.00  0.00     0.127 S 
ATOM     57  O   UNL     1       3.897  12.997  -2.208  1.00  0.00    -0.237 OA
ATOM     58  O   UNL     1       3.818  11.053  -3.722  1.00  0.00    -0.237 OA
ATOM     59  O   UNL     1       2.732  10.930  -1.525  1.00  0.00    -0.744 OA
ENDBRANCH  53  56
ENDBRANCH  25  49
BRANCH  37  60
ATOM     60  C   UNL     1      10.106  10.427   5.953  1.00  0.00     0.023 A 
ATOM     61  C   UNL     1       9.603  11.678   6.358  1.00  0.00     0.012 A 
ATOM     62  C   UNL     1      11.476  10.142   6.104  1.00  0.00     0.148 A 
ATOM     63  C   UNL     1      10.461  12.645   6.875  1.00  0.00     0.002 A 
ATOM     64  C   UNL     1      12.313  11.087   6.677  1.00  0.00     0.091 A 
ATOM     65  F   UNL     1      11.933   8.951   5.689  1.00  0.00    -0.205 F 
ATOM     66  C   UNL     1      11.812  12.345   7.049  1.00  0.00     0.022 A 
BRANCH  64  67
ATOM     67  S   UNL     1      14.034  10.737   7.046  1.00  0.00     0.127 S 
ATOM     68  O   UNL     1      14.723  11.516   6.019  1.00  0.00    -0.237 OA
ATOM     69  O   UNL     1      14.172  11.260   8.405  1.00  0.00    -0.237 OA
ATOM     70  O   UNL     1      14.181   9.291   6.940  1.00  0.00    -0.744 OA
ENDBRANCH  64  67
ENDBRANCH  37  60
ENDBRANCH  11  12
ENDBRANCH   4   6
ENDBRANCH   3   4
ENDBRANCH   2   3
ENDBRANCH   1   2
BRANCH   1  71
ATOM     71  O   UNL     1       4.076   0.399  -1.723  1.00  0.00    -0.374 OA
BRANCH  71  72
ATOM     72  C   UNL     1       2.707   0.424  -2.131  1.00  0.00     0.202 C 
BRANCH  72  73
ATOM     73  C   UNL     1       2.616   0.600  -3.647  1.00  0.00     0.261 C 
BRANCH  73  74
ATOM     74  O   UNL     1       3.139  -0.595  -4.252  1.00  0.00    -0.463 OA
BRANCH  74  75
ATOM     75  C   UNL     1       4.482  -0.570  -4.482  1.00  0.00     0.315 C 
ATOM     76  O   UNL     1       5.130   0.452  -4.691  1.00  0.00    -0.251 OA
BRANCH  75  77
ATOM     77  C   UNL     1       5.068  -1.976  -4.477  1.00  0.00     0.148 C 
ATOM     78  C   UNL     1       4.187  -3.077  -3.819  1.00  0.00     0.043 C 
ATOM     79  C   UNL     1       6.308  -2.057  -3.646  1.00  0.00     0.033 A 
ATOM     80  C   UNL     1       5.151  -4.004  -3.057  1.00  0.00     0.124 C 
ATOM     81  N   UNL     1       6.361  -3.212  -2.915  1.00  0.00    -0.341 N 
ATOM     82  C   UNL     1       7.391  -1.289  -3.313  1.00  0.00     0.025 A 
ATOM     83  C   UNL     1       7.494  -3.276  -2.155  1.00  0.00     0.090 A 
ATOM     84  C   UNL     1       8.130  -2.050  -2.370  1.00  0.00     0.032 A 
BRANCH  83  85
ATOM     85  C   UNL     1       7.975  -4.315  -1.254  1.00  0.00     0.209 C 
ATOM     86  O   UNL     1       8.866  -4.114  -0.429  1.00  0.00    -0.287 OA
BRANCH  85  87
ATOM     87  C   UNL     1       7.412  -5.685  -1.281  1.00  0.00     0.024 A 
ATOM     88  C   UNL     1       7.137  -6.316  -0.062  1.00  0.00     0.012 A 
ATOM     89  C   UNL     1       7.198  -6.367  -2.482  1.00  0.00     0.012 A 
ATOM     90  C   UNL     1       6.577  -7.594  -0.049  1.00  0.00     0.001 A 
ATOM     91  C   UNL     1       6.614  -7.634  -2.467  1.00  0.00     0.001 A 
ATOM     92  C   UNL     1       6.297  -8.242  -1.252  1.00  0.00     0.000 A 
ENDBRANCH  85  87
ENDBRANCH  83  85
ENDBRANCH  75  77
ENDBRANCH  74  75
ENDBRANCH  73  74
ENDBRANCH  72  73
ENDBRANCH  71  72
ENDBRANCH   1  71
TORSDOF 19
