REMARK SMILES CCc1ccc(S(=O)(=O)c2nnn(-c3ccc(C(=O)OCCOCCOC(=O)c4ccc(-c5c6nc(c(-c7cccc(S(=O)(=O)[O-])c7F)c7ccc([nH]7)c(-c7cccc(S(=O)(=O)[O-])c7F)c7nc(c(-c8cccc(S(=O)(=O)[O-])c8F)c8ccc5[nH]8)C=C7)C=C6)cc4)cc3)c2C)cc1
REMARK SMILES IDX 22 1 21 2 20 3 18 4 19 5 17 6 14 7 15 8 93 9 16 10 92 11
REMARK SMILES IDX 13 12 10 13 11 14 94 15 12 16 95 17 7 18 8 19 9 20 6 21 3 22
REMARK SMILES IDX 4 23 97 24 5 25 96 26 2 27 1 28 23 29 24 30 25 31 26 32
REMARK SMILES IDX 27 33 28 34 29 35 30 36 91 37 31 38 90 39 32 40 33 41 34 42
REMARK SMILES IDX 84 43 35 44 89 45 83 46 85 47 36 48 88 49 82 50 81 51 37 53
REMARK SMILES IDX 69 54 49 55 68 56 50 57 53 58 67 59 86 60 51 61 52 62 66 64
REMARK SMILES IDX 87 65 54 66 38 67 39 68 47 69 40 70 42 71 48 72 41 73 43 74
REMARK SMILES IDX 44 75 45 76 46 77 70 78 71 79 79 80 72 81 74 82 80 83 73 84
REMARK SMILES IDX 75 85 76 86 77 87 78 88 55 89 56 90 64 91 57 92 59 93 65 94
REMARK SMILES IDX 58 95 60 96 61 97 62 98 63 99
REMARK H PARENT 85 52 53 63
REMARK Flexibility Score: inf
ROOT
ATOM      1  C   UNL     1       3.224  -3.972  12.777  1.00  0.00     0.202 C 
ENDROOT
BRANCH   1   2
ATOM      2  C   UNL     1       2.155  -3.605  11.748  1.00  0.00     0.261 C 
BRANCH   2   3
ATOM      3  O   UNL     1       2.320  -4.305  10.508  1.00  0.00    -0.460 OA
BRANCH   3   4
ATOM      4  C   UNL     1       2.772  -3.540   9.487  1.00  0.00     0.338 C 
ATOM      5  O   UNL     1       2.993  -2.340   9.505  1.00  0.00    -0.246 OA
BRANCH   4   6
ATOM      6  C   UNL     1       3.110  -4.386   8.325  1.00  0.00     0.060 A 
ATOM      7  C   UNL     1       3.577  -5.635   5.898  1.00  0.00     0.067 A 
ATOM      8  C   UNL     1       4.482  -4.669   6.345  1.00  0.00     0.029 A 
ATOM      9  C   UNL     1       2.541  -6.088   6.729  1.00  0.00     0.029 A 
ATOM     10  C   UNL     1       4.224  -4.023   7.552  1.00  0.00     0.018 A 
ATOM     11  C   UNL     1       2.310  -5.467   7.953  1.00  0.00     0.018 A 
BRANCH   7  12
ATOM     12  N   UNL     1       3.603  -6.025   4.541  1.00  0.00    -0.216 N 
ATOM     13  C   UNL     1       3.087  -6.433   2.465  1.00  0.00     0.205 A 
ATOM     14  N   UNL     1       4.450  -6.459   2.590  1.00  0.00    -0.117 NA
ATOM     15  C   UNL     1       2.522  -6.053   3.671  1.00  0.00     0.081 A 
ATOM     16  N   UNL     1       4.754  -6.117   3.835  1.00  0.00    -0.061 NA
ATOM     17  C   UNL     1       1.161  -5.557   4.004  1.00  0.00     0.070 C 
BRANCH  13  18
ATOM     18  S   UNL     1       2.301  -6.580   0.934  1.00  0.00     0.227 S 
ATOM     19  O   UNL     1       1.070  -7.296   1.226  1.00  0.00    -0.217 OA
ATOM     20  O   UNL     1       3.290  -7.072   0.002  1.00  0.00    -0.217 OA
BRANCH  18  21
ATOM     21  C   UNL     1       1.842  -4.946   0.414  1.00  0.00     0.073 A 
ATOM     22  C   UNL     1       0.966  -2.403  -0.397  1.00  0.00    -0.048 A 
ATOM     23  C   UNL     1       0.499  -3.563  -1.039  1.00  0.00     0.005 A 
ATOM     24  C   UNL     1       1.890  -2.542   0.647  1.00  0.00     0.005 A 
ATOM     25  C   UNL     1       0.924  -4.829  -0.631  1.00  0.00     0.021 A 
ATOM     26  C   UNL     1       2.336  -3.804   1.048  1.00  0.00     0.021 A 
BRANCH  22  27
ATOM     27  C   UNL     1       0.468  -1.062  -0.888  1.00  0.00     0.032 C 
ATOM     28  C   UNL     1       0.844   0.154  -0.050  1.00  0.00     0.009 C 
ENDBRANCH  22  27
ENDBRANCH  18  21
ENDBRANCH  13  18
ENDBRANCH   7  12
ENDBRANCH   4   6
ENDBRANCH   3   4
ENDBRANCH   2   3
ENDBRANCH   1   2
BRANCH   1  29
ATOM     29  O   UNL     1       4.588  -3.671  12.482  1.00  0.00    -0.374 OA
BRANCH  29  30
ATOM     30  C   UNL     1       5.272  -4.376  11.451  1.00  0.00     0.202 C 
BRANCH  30  31
ATOM     31  C   UNL     1       5.572  -5.854  11.639  1.00  0.00     0.261 C 
BRANCH  31  32
ATOM     32  O   UNL     1       4.399  -6.614  11.866  1.00  0.00    -0.460 OA
BRANCH  32  33
ATOM     33  C   UNL     1       4.229  -6.962  13.162  1.00  0.00     0.338 C 
ATOM     34  O   UNL     1       4.741  -6.443  14.138  1.00  0.00    -0.246 OA
BRANCH  33  35
ATOM     35  C   UNL     1       3.451  -8.200  13.207  1.00  0.00     0.060 A 
ATOM     36  C   UNL     1       3.305  -8.772  14.470  1.00  0.00     0.016 A 
ATOM     37  C   UNL     1       3.226  -8.914  12.020  1.00  0.00     0.016 A 
ATOM     38  C   UNL     1       3.189 -10.137  14.541  1.00  0.00     0.010 A 
ATOM     39  C   UNL     1       3.128 -10.278  12.093  1.00  0.00     0.010 A 
ATOM     40  C   UNL     1       3.209 -10.869  13.349  1.00  0.00    -0.014 A 
BRANCH  40  41
ATOM     41  C   UNL     1       3.180 -12.305  13.451  1.00  0.00     0.031 A 
ATOM     42  C   UNL     1       1.845 -12.782  13.864  1.00  0.00     0.074 A 
ATOM     43  C   UNL     1       4.238 -13.068  13.124  1.00  0.00     0.049 A 
ATOM     44  N   UNL     1       1.521 -13.279  15.010  1.00  0.00    -0.248 NA
ATOM     45  C   UNL     1       0.697 -12.438  13.009  1.00  0.00     0.031 C 
ATOM     46  C   UNL     1       5.481 -12.660  12.463  1.00  0.00     0.029 A 
ATOM     47  N   UNL     1       4.355 -14.419  13.183  1.00  0.00    -0.354 N 
ATOM     48  C   UNL     1       0.166 -13.566  14.899  1.00  0.00     0.074 A 
ATOM     49  C   UNL     1      -0.323 -12.796  13.788  1.00  0.00     0.031 C 
ATOM     50  C   UNL     1       6.077 -13.757  11.940  1.00  0.00     0.029 A 
ATOM     51  C   UNL     1       5.320 -14.936  12.326  1.00  0.00     0.049 A 
ATOM     52  H   UNL     1       3.807 -14.980  13.778  1.00  0.00     0.167 HD
ATOM     53  C   UNL     1      -0.356 -14.661  15.511  1.00  0.00     0.034 A 
ATOM     54  C   UNL     1       5.389 -16.219  11.884  1.00  0.00     0.034 A 
ATOM     55  C   UNL     1       0.519 -15.144  16.551  1.00  0.00     0.049 A 
ATOM     56  C   UNL     1       4.592 -17.049  12.823  1.00  0.00     0.074 A 
ATOM     57  C   UNL     1       1.088 -14.578  17.675  1.00  0.00     0.029 A 
ATOM     58  N   UNL     1       1.268 -16.263  16.268  1.00  0.00    -0.354 N 
ATOM     59  N   UNL     1       4.929 -17.238  14.069  1.00  0.00    -0.248 NA
ATOM     60  C   UNL     1       3.183 -17.253  12.518  1.00  0.00     0.031 C 
ATOM     61  C   UNL     1       2.415 -15.097  17.714  1.00  0.00     0.029 A 
ATOM     62  C   UNL     1       2.553 -16.014  16.671  1.00  0.00     0.049 A 
ATOM     63  H   UNL     1       0.939 -17.092  15.852  1.00  0.00     0.167 HD
ATOM     64  C   UNL     1       3.737 -17.101  14.769  1.00  0.00     0.074 A 
ATOM     65  C   UNL     1       2.684 -17.211  13.758  1.00  0.00     0.031 C 
ATOM     66  C   UNL     1       3.716 -16.596  16.038  1.00  0.00     0.034 A 
BRANCH  53  67
ATOM     67  C   UNL     1      -1.426 -15.532  14.898  1.00  0.00     0.023 A 
ATOM     68  C   UNL     1      -1.956 -16.557  15.709  1.00  0.00     0.012 A 
ATOM     69  C   UNL     1      -1.732 -15.586  13.516  1.00  0.00     0.148 A 
ATOM     70  C   UNL     1      -2.698 -17.610  15.165  1.00  0.00     0.002 A 
ATOM     71  C   UNL     1      -2.541 -16.586  12.994  1.00  0.00     0.091 A 
ATOM     72  F   UNL     1      -1.137 -14.757  12.657  1.00  0.00    -0.205 F 
ATOM     73  C   UNL     1      -2.998 -17.621  13.808  1.00  0.00     0.022 A 
BRANCH  71  74
ATOM     74  S   UNL     1      -2.991 -16.614  11.254  1.00  0.00     0.127 S 
ATOM     75  O   UNL     1      -2.192 -17.734  10.764  1.00  0.00    -0.237 OA
ATOM     76  O   UNL     1      -4.431 -16.860  11.325  1.00  0.00    -0.237 OA
ATOM     77  O   UNL     1      -2.637 -15.299  10.732  1.00  0.00    -0.744 OA
ENDBRANCH  71  74
ENDBRANCH  53  67
BRANCH  54  78
ATOM     78  C   UNL     1       5.798 -16.721  10.546  1.00  0.00     0.023 A 
ATOM     79  C   UNL     1       6.069 -18.093  10.361  1.00  0.00     0.012 A 
ATOM     80  C   UNL     1       5.658 -15.918   9.391  1.00  0.00     0.148 A 
ATOM     81  C   UNL     1       6.171 -18.646   9.076  1.00  0.00     0.002 A 
ATOM     82  C   UNL     1       5.773 -16.468   8.118  1.00  0.00     0.091 A 
ATOM     83  F   UNL     1       5.311 -14.633   9.532  1.00  0.00    -0.205 F 
ATOM     84  C   UNL     1       6.018 -17.835   7.954  1.00  0.00     0.022 A 
BRANCH  82  85
ATOM     85  S   UNL     1       5.561 -15.473   6.635  1.00  0.00     0.127 S 
ATOM     86  O   UNL     1       6.700 -15.896   5.819  1.00  0.00    -0.237 OA
ATOM     87  O   UNL     1       4.259 -15.923   6.153  1.00  0.00    -0.237 OA
ATOM     88  O   UNL     1       5.627 -14.085   7.076  1.00  0.00    -0.744 OA
ENDBRANCH  82  85
ENDBRANCH  54  78
BRANCH  66  89
ATOM     89  C   UNL     1       5.030 -16.397  16.755  1.00  0.00     0.023 A 
ATOM     90  C   UNL     1       6.024 -15.505  16.296  1.00  0.00     0.012 A 
ATOM     91  C   UNL     1       5.179 -16.980  18.023  1.00  0.00     0.148 A 
ATOM     92  C   UNL     1       7.147 -15.219  17.078  1.00  0.00     0.002 A 
ATOM     93  C   UNL     1       6.271 -16.657  18.818  1.00  0.00     0.091 A 
ATOM     94  F   UNL     1       4.223 -17.822  18.447  1.00  0.00    -0.205 F 
ATOM     95  C   UNL     1       7.263 -15.784  18.346  1.00  0.00     0.022 A 
BRANCH  93  96
ATOM     96  S   UNL     1       6.405 -17.250  20.505  1.00  0.00     0.127 S 
ATOM     97  O   UNL     1       7.441 -18.273  20.386  1.00  0.00    -0.237 OA
ATOM     98  O   UNL     1       6.812 -16.046  21.230  1.00  0.00    -0.237 OA
ATOM     99  O   UNL     1       5.079 -17.740  20.865  1.00  0.00    -0.744 OA
ENDBRANCH  93  96
ENDBRANCH  66  89
ENDBRANCH  40  41
ENDBRANCH  33  35
ENDBRANCH  32  33
ENDBRANCH  31  32
ENDBRANCH  30  31
ENDBRANCH  29  30
ENDBRANCH   1  29
TORSDOF 21
