REMARK SMILES O=C(CCC(=O)OCCOCCOC(=O)c1ccc(-c2c3nc(c(-c4cccc(S(=O)(=O)[O-])c4F)c4ccc([nH]4)c(-c4cccc(S(=O)(=O)[O-])c4F)c4nc(c(-c5cccc(S(=O)(=O)[O-])c5F)c5ccc2[nH]5)C=C4)C=C3)cc1)/[NH+]=C1\S[C@H]2CS(=O)(=O)C[C@@H]2N1c1ccc2c(c1)OCO2
REMARK SMILES IDX 10 1 9 2 8 3 7 4 5 5 6 6 4 7 3 8 2 9 1 10 79 11 80 12 81 14
REMARK SMILES IDX 89 15 82 16 88 17 83 18 87 19 84 20 85 21 86 22 90 23 91 24
REMARK SMILES IDX 95 25 92 26 94 27 93 28 96 29 98 30 97 31 11 32 12 33 13 34
REMARK SMILES IDX 14 35 15 36 16 37 17 38 78 39 18 40 77 41 19 42 20 43 21 44
REMARK SMILES IDX 71 45 22 46 76 47 70 48 72 49 23 50 75 51 69 52 68 53 24 55
REMARK SMILES IDX 56 56 36 57 55 58 37 59 40 60 54 61 73 62 38 63 39 64 53 66
REMARK SMILES IDX 74 67 41 68 25 69 26 70 34 71 27 72 29 73 35 74 28 75 30 76
REMARK SMILES IDX 31 77 32 78 33 79 57 80 58 81 66 82 59 83 61 84 67 85 60 86
REMARK SMILES IDX 62 87 63 88 64 89 65 90 42 91 43 92 51 93 44 94 46 95 52 96
REMARK SMILES IDX 45 97 47 98 48 99 49 100 50 101
REMARK H PARENT 79 13 72 54 40 65
REMARK Flexibility Score: inf
ROOT
ATOM      1  O   UNL     1       5.505   1.608  -0.687  1.00  0.00    -0.374 OA
ENDROOT
BRANCH   1   2
ATOM      2  C   UNL     1       6.097   1.220   0.538  1.00  0.00     0.202 C 
BRANCH   2   3
ATOM      3  C   UNL     1       6.016   2.151   1.779  1.00  0.00     0.261 C 
BRANCH   3   4
ATOM      4  O   UNL     1       4.665   2.217   2.246  1.00  0.00    -0.463 OA
BRANCH   4   5
ATOM      5  C   UNL     1       3.882   2.856   1.357  1.00  0.00     0.306 C 
ATOM      6  O   UNL     1       4.103   3.986   0.941  1.00  0.00    -0.252 OA
BRANCH   5   7
ATOM      7  C   UNL     1       2.753   1.978   0.904  1.00  0.00     0.135 C 
BRANCH   7   8
ATOM      8  C   UNL     1       2.985   0.459   0.872  1.00  0.00     0.139 C 
BRANCH   8   9
ATOM      9  C   UNL     1       3.279  -0.525   2.042  1.00  0.00     0.308 C 
ATOM     10  O   UNL     1       2.285  -1.131   2.455  1.00  0.00    -0.247 OA
ATOM     11  N   UNL     1       4.517  -0.786   2.662  1.00  0.00    -0.204 N 
ATOM     12  C   UNL     1       5.541  -1.460   2.219  1.00  0.00     0.319 C 
ATOM     13  H   UNL     1       4.625  -0.402   3.562  1.00  0.00     0.316 HD
ATOM     14  S   UNL     1       5.921  -1.792   0.518  1.00  0.00    -0.029 SA
ATOM     15  N   UNL     1       6.635  -2.011   2.932  1.00  0.00    -0.216 N 
ATOM     16  C   UNL     1       7.633  -2.119   0.704  1.00  0.00     0.120 C 
ATOM     17  C   UNL     1       7.886  -1.783   2.167  1.00  0.00     0.212 C 
ATOM     18  C   UNL     1       8.716  -1.401  -0.063  1.00  0.00     0.156 C 
ATOM     19  C   UNL     1       9.206  -2.481   2.400  1.00  0.00     0.188 C 
ATOM     20  S   UNL     1      10.139  -1.854   0.950  1.00  0.00     0.155 S 
ATOM     21  O   UNL     1      10.815  -2.959   0.291  1.00  0.00    -0.229 OA
ATOM     22  O   UNL     1      10.819  -0.640   1.323  1.00  0.00    -0.229 OA
BRANCH  15  23
ATOM     23  C   UNL     1       6.433  -3.321   3.449  1.00  0.00     0.132 A 
ATOM     24  C   UNL     1       5.988  -3.477   4.778  1.00  0.00     0.056 A 
ATOM     25  C   UNL     1       6.515  -4.474   2.639  1.00  0.00     0.102 A 
ATOM     26  C   UNL     1       5.648  -4.741   5.291  1.00  0.00     0.055 A 
ATOM     27  C   UNL     1       6.144  -5.692   3.153  1.00  0.00     0.170 A 
ATOM     28  C   UNL     1       5.723  -5.826   4.447  1.00  0.00     0.166 A 
ATOM     29  O   UNL     1       6.056  -6.848   2.442  1.00  0.00    -0.453 OA
ATOM     30  O   UNL     1       5.338  -7.101   4.717  1.00  0.00    -0.454 OA
ATOM     31  C   UNL     1       5.310  -7.651   3.383  1.00  0.00     0.468 C 
ENDBRANCH  15  23
ENDBRANCH   8   9
ENDBRANCH   7   8
ENDBRANCH   5   7
ENDBRANCH   4   5
ENDBRANCH   3   4
ENDBRANCH   2   3
ENDBRANCH   1   2
BRANCH   1  32
ATOM     32  C   UNL     1       5.105   0.716  -1.775  1.00  0.00     0.202 C 
BRANCH  32  33
ATOM     33  C   UNL     1       4.679  -0.867  -1.961  1.00  0.00     0.261 C 
BRANCH  33  34
ATOM     34  O   UNL     1       3.646  -1.559  -1.112  1.00  0.00    -0.460 OA
BRANCH  34  35
ATOM     35  C   UNL     1       3.577  -2.958  -1.147  1.00  0.00     0.338 C 
ATOM     36  O   UNL     1       4.206  -3.625  -1.963  1.00  0.00    -0.246 OA
BRANCH  35  37
ATOM     37  C   UNL     1       2.803  -3.683  -0.015  1.00  0.00     0.060 A 
ATOM     38  C   UNL     1       3.334  -3.779   1.272  1.00  0.00     0.016 A 
ATOM     39  C   UNL     1       1.720  -4.540  -0.228  1.00  0.00     0.016 A 
ATOM     40  C   UNL     1       2.841  -4.600   2.314  1.00  0.00     0.010 A 
ATOM     41  C   UNL     1       1.198  -5.384   0.827  1.00  0.00     0.010 A 
ATOM     42  C   UNL     1       1.772  -5.457   2.121  1.00  0.00    -0.014 A 
BRANCH  42  43
ATOM     43  C   UNL     1       1.474  -6.533   3.167  1.00  0.00     0.031 A 
ATOM     44  C   UNL     1       1.585  -7.997   2.761  1.00  0.00     0.074 A 
ATOM     45  C   UNL     1       1.300  -6.314   4.501  1.00  0.00     0.049 A 
ATOM     46  N   UNL     1       1.310  -9.085   3.441  1.00  0.00    -0.248 NA
ATOM     47  C   UNL     1       2.160  -8.265   1.432  1.00  0.00     0.031 C 
ATOM     48  C   UNL     1       1.355  -5.018   5.181  1.00  0.00     0.029 A 
ATOM     49  N   UNL     1       1.041  -7.200   5.543  1.00  0.00    -0.354 N 
ATOM     50  C   UNL     1       1.633 -10.155   2.610  1.00  0.00     0.074 A 
ATOM     51  C   UNL     1       2.150  -9.588   1.385  1.00  0.00     0.031 C 
ATOM     52  C   UNL     1       1.122  -5.189   6.497  1.00  0.00     0.029 A 
ATOM     53  C   UNL     1       0.810  -6.592   6.766  1.00  0.00     0.049 A 
ATOM     54  H   UNL     1       1.023  -8.177   5.421  1.00  0.00     0.167 HD
ATOM     55  C   UNL     1       1.521 -11.489   2.823  1.00  0.00     0.034 A 
ATOM     56  C   UNL     1       0.341  -7.073   7.946  1.00  0.00     0.034 A 
ATOM     57  C   UNL     1       1.001 -12.103   4.013  1.00  0.00     0.049 A 
ATOM     58  C   UNL     1       0.004  -8.544   8.091  1.00  0.00     0.074 A 
ATOM     59  C   UNL     1       0.724 -13.443   4.236  1.00  0.00     0.029 A 
ATOM     60  N   UNL     1       0.675 -11.432   5.176  1.00  0.00    -0.354 N 
ATOM     61  N   UNL     1       0.226  -9.531   7.258  1.00  0.00    -0.248 NA
ATOM     62  C   UNL     1      -0.645  -8.971   9.346  1.00  0.00     0.031 C 
ATOM     63  C   UNL     1       0.187 -13.575   5.520  1.00  0.00     0.029 A 
ATOM     64  C   UNL     1       0.189 -12.327   6.116  1.00  0.00     0.049 A 
ATOM     65  H   UNL     1       0.774 -10.463   5.316  1.00  0.00     0.167 HD
ATOM     66  C   UNL     1      -0.214 -10.686   7.903  1.00  0.00     0.074 A 
ATOM     67  C   UNL     1      -0.695 -10.288   9.205  1.00  0.00     0.031 C 
ATOM     68  C   UNL     1      -0.230 -11.961   7.442  1.00  0.00     0.034 A 
BRANCH  55  69
ATOM     69  C   UNL     1       1.911 -12.396   1.689  1.00  0.00     0.023 A 
ATOM     70  C   UNL     1       3.267 -12.671   1.427  1.00  0.00     0.012 A 
ATOM     71  C   UNL     1       0.911 -13.004   0.905  1.00  0.00     0.148 A 
ATOM     72  C   UNL     1       3.622 -13.520   0.379  1.00  0.00     0.002 A 
ATOM     73  C   UNL     1       1.271 -13.880  -0.108  1.00  0.00     0.091 A 
ATOM     74  F   UNL     1      -0.370 -12.710   1.168  1.00  0.00    -0.205 F 
ATOM     75  C   UNL     1       2.626 -14.131  -0.381  1.00  0.00     0.022 A 
BRANCH  73  76
ATOM     76  S   UNL     1       0.061 -14.758  -1.100  1.00  0.00     0.127 S 
ATOM     77  O   UNL     1       0.309 -14.200  -2.429  1.00  0.00    -0.237 OA
ATOM     78  O   UNL     1       0.481 -16.149  -0.933  1.00  0.00    -0.237 OA
ATOM     79  O   UNL     1      -1.240 -14.438  -0.530  1.00  0.00    -0.744 OA
ENDBRANCH  73  76
ENDBRANCH  55  69
BRANCH  56  80
ATOM     80  C   UNL     1       0.038  -6.154   9.101  1.00  0.00     0.023 A 
ATOM     81  C   UNL     1       0.644  -6.349  10.362  1.00  0.00     0.012 A 
ATOM     82  C   UNL     1      -0.946  -5.152   8.980  1.00  0.00     0.148 A 
ATOM     83  C   UNL     1       0.244  -5.601  11.476  1.00  0.00     0.002 A 
ATOM     84  C   UNL     1      -1.284  -4.360  10.073  1.00  0.00     0.091 A 
ATOM     85  F   UNL     1      -1.567  -5.011   7.800  1.00  0.00    -0.205 F 
ATOM     86  C   UNL     1      -0.710  -4.599  11.329  1.00  0.00     0.022 A 
BRANCH  84  87
ATOM     87  S   UNL     1      -2.408  -2.966   9.931  1.00  0.00     0.127 S 
ATOM     88  O   UNL     1      -3.594  -3.465  10.622  1.00  0.00    -0.237 OA
ATOM     89  O   UNL     1      -1.676  -1.916  10.642  1.00  0.00    -0.237 OA
ATOM     90  O   UNL     1      -2.557  -2.729   8.502  1.00  0.00    -0.744 OA
ENDBRANCH  84  87
ENDBRANCH  56  80
BRANCH  68  91
ATOM     91  C   UNL     1      -0.700 -13.058   8.367  1.00  0.00     0.023 A 
ATOM     92  C   UNL     1      -2.057 -13.159   8.733  1.00  0.00     0.012 A 
ATOM     93  C   UNL     1       0.208 -14.036   8.825  1.00  0.00     0.148 A 
ATOM     94  C   UNL     1      -2.493 -14.185   9.574  1.00  0.00     0.002 A 
ATOM     95  C   UNL     1      -0.242 -15.086   9.617  1.00  0.00     0.091 A 
ATOM     96  F   UNL     1       1.500 -13.919   8.483  1.00  0.00    -0.205 F 
ATOM     97  C   UNL     1      -1.589 -15.154  10.006  1.00  0.00     0.022 A 
BRANCH  95  98
ATOM     98  S   UNL     1       0.833 -16.430  10.132  1.00  0.00     0.127 S 
ATOM     99  O   UNL     1       1.034 -16.125  11.548  1.00  0.00    -0.237 OA
ATOM    100  O   UNL     1       0.004 -17.608   9.874  1.00  0.00    -0.237 OA
ATOM    101  O   UNL     1       2.022 -16.334   9.296  1.00  0.00    -0.744 OA
ENDBRANCH  95  98
ENDBRANCH  68  91
ENDBRANCH  42  43
ENDBRANCH  35  37
ENDBRANCH  34  35
ENDBRANCH  33  34
ENDBRANCH  32  33
ENDBRANCH   1  32
TORSDOF 20
