REMARK SMILES CC(C)[NH2+][C@]1(C(=O)OCCOCCOC(=O)c2ccc(-c3c4nc(c(-c5cccc(S(=O)(=O)[O-])c5F)c5ccc([nH]5)c(-c5cccc(S(=O)(=O)[O-])c5F)c5nc(c(-c6cccc(S(=O)(=O)[O-])c6F)c6ccc3[nH]6)C=C5)C=C4)cc2)CC[C@H]([NH+]2CCC(C)(C)CC2)C1
REMARK SMILES IDX 12 1 11 2 10 3 9 4 8 5 6 6 7 7 5 8 80 9 91 10 81 11 82 12
REMARK SMILES IDX 4 13 2 16 1 17 3 18 83 19 84 20 90 21 85 23 89 24 86 25
REMARK SMILES IDX 87 26 88 27 13 28 14 29 15 30 16 31 17 32 18 33 79 34 19 35
REMARK SMILES IDX 78 36 20 37 21 38 22 39 72 40 23 41 77 42 71 43 73 44 24 45
REMARK SMILES IDX 76 46 70 47 69 48 25 50 57 51 37 52 56 53 38 54 41 55 55 56
REMARK SMILES IDX 74 57 39 58 40 59 54 61 75 62 42 63 26 64 27 65 35 66 28 67
REMARK SMILES IDX 30 68 36 69 29 70 31 71 32 72 33 73 34 74 58 75 59 76 67 77
REMARK SMILES IDX 60 78 62 79 68 80 61 81 63 82 64 83 65 84 66 85 43 86 44 87
REMARK SMILES IDX 52 88 45 89 47 90 53 91 46 92 48 93 49 94 50 95 51 96
REMARK H PARENT 4 14 4 15 83 22 73 49 41 60
REMARK Flexibility Score: inf
ROOT
ATOM      1  C   UNL     1      -0.795  -0.610  -1.323  1.00  0.00     0.202 C 
ENDROOT
BRANCH   1   2
ATOM      2  O   UNL     1       0.606  -0.861  -1.200  1.00  0.00    -0.374 OA
BRANCH   2   3
ATOM      3  C   UNL     1       1.095  -0.932   0.142  1.00  0.00     0.202 C 
BRANCH   3   4
ATOM      4  C   UNL     1       1.627   0.385   0.709  1.00  0.00     0.261 C 
BRANCH   4   5
ATOM      5  O   UNL     1       0.547   1.276   1.026  1.00  0.00    -0.459 OA
BRANCH   5   6
ATOM      6  C   UNL     1       0.168   2.115   0.031  1.00  0.00     0.368 C 
ATOM      7  O   UNL     1       0.761   2.214  -1.042  1.00  0.00    -0.245 OA
BRANCH   6   8
ATOM      8  C   UNL     1      -1.049   2.993   0.389  1.00  0.00     0.200 C 
ATOM      9  C   UNL     1      -0.412   4.381   0.652  1.00  0.00     0.087 C 
ATOM     10  C   UNL     1      -1.925   3.272  -0.854  1.00  0.00     0.146 C 
ATOM     11  C   UNL     1      -1.431   5.421   0.232  1.00  0.00     0.072 C 
ATOM     12  C   UNL     1      -2.314   4.765  -0.844  1.00  0.00     0.191 C 
BRANCH   8  13
ATOM     13  N   UNL     1      -1.808   2.605   1.599  1.00  0.00    -0.330 N 
ATOM     14  H   UNL     1      -1.181   2.774   2.386  1.00  0.00     0.347 HD
ATOM     15  H   UNL     1      -2.658   3.156   1.479  1.00  0.00     0.347 HD
BRANCH  13  16
ATOM     16  C   UNL     1      -2.372   1.271   1.822  1.00  0.00     0.176 C 
ATOM     17  C   UNL     1      -3.023   1.294   3.218  1.00  0.00     0.075 C 
ATOM     18  C   UNL     1      -3.437   0.759   0.849  1.00  0.00     0.075 C 
ENDBRANCH  13  16
ENDBRANCH   8  13
BRANCH  12  19
ATOM     19  N   UNL     1      -3.765   5.062  -0.727  1.00  0.00    -0.332 N 
ATOM     20  C   UNL     1      -4.010   6.509  -0.844  1.00  0.00     0.263 C 
ATOM     21  C   UNL     1      -4.375   4.447   0.457  1.00  0.00     0.263 C 
ATOM     22  H   UNL     1      -4.243   4.621  -1.513  1.00  0.00     0.348 HD
ATOM     23  C   UNL     1      -5.444   6.945  -0.521  1.00  0.00     0.068 C 
ATOM     24  C   UNL     1      -5.809   4.868   0.747  1.00  0.00     0.068 C 
ATOM     25  C   UNL     1      -5.939   6.394   0.829  1.00  0.00    -0.025 C 
ATOM     26  C   UNL     1      -7.412   6.762   1.051  1.00  0.00     0.011 C 
ATOM     27  C   UNL     1      -5.124   6.966   2.008  1.00  0.00     0.011 C 
ENDBRANCH  12  19
ENDBRANCH   6   8
ENDBRANCH   5   6
ENDBRANCH   4   5
ENDBRANCH   3   4
ENDBRANCH   2   3
ENDBRANCH   1   2
BRANCH   1  28
ATOM     28  C   UNL     1      -1.677  -1.863  -1.289  1.00  0.00     0.261 C 
BRANCH  28  29
ATOM     29  O   UNL     1      -1.706  -2.435   0.033  1.00  0.00    -0.460 OA
BRANCH  29  30
ATOM     30  C   UNL     1      -0.898  -3.508   0.201  1.00  0.00     0.338 C 
ATOM     31  O   UNL     1      -0.279  -4.105  -0.670  1.00  0.00    -0.246 OA
BRANCH  30  32
ATOM     32  C   UNL     1      -0.684  -3.759   1.639  1.00  0.00     0.060 A 
ATOM     33  C   UNL     1       0.639  -3.929   2.066  1.00  0.00     0.016 A 
ATOM     34  C   UNL     1      -1.740  -3.870   2.547  1.00  0.00     0.016 A 
ATOM     35  C   UNL     1       0.910  -4.266   3.388  1.00  0.00     0.010 A 
ATOM     36  C   UNL     1      -1.465  -4.219   3.876  1.00  0.00     0.010 A 
ATOM     37  C   UNL     1      -0.142  -4.458   4.291  1.00  0.00    -0.014 A 
BRANCH  37  38
ATOM     38  C   UNL     1       0.152  -5.041   5.623  1.00  0.00     0.031 A 
ATOM     39  C   UNL     1      -0.129  -6.500   5.864  1.00  0.00     0.074 A 
ATOM     40  C   UNL     1       0.703  -4.291   6.594  1.00  0.00     0.049 A 
ATOM     41  N   UNL     1       0.078  -7.216   6.938  1.00  0.00    -0.248 NA
ATOM     42  C   UNL     1      -0.720  -7.253   4.745  1.00  0.00     0.031 C 
ATOM     43  C   UNL     1       1.027  -2.870   6.481  1.00  0.00     0.029 A 
ATOM     44  N   UNL     1       1.072  -4.622   7.874  1.00  0.00    -0.354 N 
ATOM     45  C   UNL     1      -0.381  -8.493   6.638  1.00  0.00     0.074 A 
ATOM     46  C   UNL     1      -0.890  -8.452   5.285  1.00  0.00     0.031 C 
ATOM     47  C   UNL     1       1.528  -2.444   7.654  1.00  0.00     0.029 A 
ATOM     48  C   UNL     1       1.537  -3.554   8.604  1.00  0.00     0.049 A 
ATOM     49  H   UNL     1       1.010  -5.536   8.234  1.00  0.00     0.167 HD
ATOM     50  C   UNL     1      -0.366  -9.604   7.413  1.00  0.00     0.034 A 
ATOM     51  C   UNL     1       1.908  -3.477   9.898  1.00  0.00     0.034 A 
ATOM     52  C   UNL     1       0.159  -9.649   8.751  1.00  0.00     0.049 A 
ATOM     53  C   UNL     1       1.894  -4.724  10.744  1.00  0.00     0.074 A 
ATOM     54  C   UNL     1       0.267 -10.741   9.596  1.00  0.00     0.029 A 
ATOM     55  N   UNL     1       0.647  -8.556   9.449  1.00  0.00    -0.354 N 
ATOM     56  N   UNL     1       1.573  -5.949  10.407  1.00  0.00    -0.248 NA
ATOM     57  C   UNL     1       2.327  -4.582  12.142  1.00  0.00     0.031 C 
ATOM     58  C   UNL     1       0.787 -10.299  10.817  1.00  0.00     0.029 A 
ATOM     59  C   UNL     1       1.040  -8.941  10.720  1.00  0.00     0.049 A 
ATOM     60  H   UNL     1       0.707  -7.640   9.093  1.00  0.00     0.167 HD
ATOM     61  C   UNL     1       1.796  -6.729  11.538  1.00  0.00     0.074 A 
ATOM     62  C   UNL     1       2.305  -5.840  12.562  1.00  0.00     0.031 C 
ATOM     63  C   UNL     1       1.586  -8.056  11.718  1.00  0.00     0.034 A 
BRANCH  50  64
ATOM     64  C   UNL     1      -0.922 -10.875   6.825  1.00  0.00     0.023 A 
ATOM     65  C   UNL     1      -0.203 -11.558   5.824  1.00  0.00     0.012 A 
ATOM     66  C   UNL     1      -2.124 -11.426   7.310  1.00  0.00     0.148 A 
ATOM     67  C   UNL     1      -0.686 -12.754   5.292  1.00  0.00     0.002 A 
ATOM     68  C   UNL     1      -2.577 -12.641   6.809  1.00  0.00     0.091 A 
ATOM     69  F   UNL     1      -2.805 -10.750   8.247  1.00  0.00    -0.205 F 
ATOM     70  C   UNL     1      -1.866 -13.300   5.792  1.00  0.00     0.022 A 
BRANCH  68  71
ATOM     71  S   UNL     1      -4.041 -13.466   7.442  1.00  0.00     0.127 S 
ATOM     72  O   UNL     1      -4.963 -13.336   6.314  1.00  0.00    -0.237 OA
ATOM     73  O   UNL     1      -3.551 -14.824   7.675  1.00  0.00    -0.237 OA
ATOM     74  O   UNL     1      -4.423 -12.741   8.646  1.00  0.00    -0.744 OA
ENDBRANCH  68  71
ENDBRANCH  50  64
BRANCH  51  75
ATOM     75  C   UNL     1       2.347  -2.173  10.470  1.00  0.00     0.023 A 
ATOM     76  C   UNL     1       3.691  -1.992  10.851  1.00  0.00     0.012 A 
ATOM     77  C   UNL     1       1.439  -1.109  10.629  1.00  0.00     0.148 A 
ATOM     78  C   UNL     1       4.114  -0.786  11.410  1.00  0.00     0.002 A 
ATOM     79  C   UNL     1       1.880   0.109  11.132  1.00  0.00     0.091 A 
ATOM     80  F   UNL     1       0.160  -1.307  10.278  1.00  0.00    -0.205 F 
ATOM     81  C   UNL     1       3.213   0.267  11.541  1.00  0.00     0.022 A 
BRANCH  79  82
ATOM     82  S   UNL     1       0.820   1.557  11.213  1.00  0.00     0.127 S 
ATOM     83  O   UNL     1       0.636   1.713  12.654  1.00  0.00    -0.237 OA
ATOM     84  O   UNL     1       1.658   2.578  10.584  1.00  0.00    -0.237 OA
ATOM     85  O   UNL     1      -0.376   1.213  10.456  1.00  0.00    -0.744 OA
ENDBRANCH  79  82
ENDBRANCH  51  75
BRANCH  63  86
ATOM     86  C   UNL     1       1.934  -8.643  13.063  1.00  0.00     0.023 A 
ATOM     87  C   UNL     1       1.145  -8.337  14.190  1.00  0.00     0.012 A 
ATOM     88  C   UNL     1       3.010  -9.544  13.199  1.00  0.00     0.148 A 
ATOM     89  C   UNL     1       1.446  -8.883  15.438  1.00  0.00     0.002 A 
ATOM     90  C   UNL     1       3.271 -10.125  14.435  1.00  0.00     0.091 A 
ATOM     91  F   UNL     1       3.760  -9.812  12.121  1.00  0.00    -0.205 F 
ATOM     92  C   UNL     1       2.501  -9.784  15.558  1.00  0.00     0.022 A 
BRANCH  90  93
ATOM     93  S   UNL     1       4.548 -11.369  14.663  1.00  0.00     0.127 S 
ATOM     94  O   UNL     1       5.563 -10.621  15.402  1.00  0.00    -0.237 OA
ATOM     95  O   UNL     1       3.851 -12.389  15.448  1.00  0.00    -0.237 OA
ATOM     96  O   UNL     1       4.935 -11.796  13.326  1.00  0.00    -0.744 OA
ENDBRANCH  90  93
ENDBRANCH  63  86
ENDBRANCH  37  38
ENDBRANCH  30  32
ENDBRANCH  29  30
ENDBRANCH  28  29
ENDBRANCH   1  28
TORSDOF 20
