REMARK SMILES CCOC(=O)c1cccc(Nc2c(-c3ccc(C(=O)OCCOCCOC(=O)c4ccc(-c5c6nc(c(-c7cccc(S(=O)(=O)[O-])c7F)c7ccc([nH]7)c(-c7cccc(S(=O)(=O)[O-])c7F)c7nc(c(-c8cccc(S(=O)(=O)[O-])c8F)c8ccc5[nH]8)C=C7)C=C6)cc4)cc3)nc3cnccn23)c1
REMARK SMILES IDX 21 1 20 2 18 3 19 4 17 5 14 6 15 7 93 8 16 9 92 10 13 11
REMARK SMILES IDX 12 12 100 13 94 14 95 15 99 16 96 17 98 18 97 19 11 20 10 22
REMARK SMILES IDX 6 23 7 24 101 25 8 26 9 27 4 28 5 29 3 30 2 31 1 32 22 33
REMARK SMILES IDX 23 34 24 35 25 36 26 37 27 38 28 39 29 40 30 41 91 42 31 43
REMARK SMILES IDX 90 44 32 45 33 46 34 47 84 48 35 49 89 50 83 51 85 52 36 53
REMARK SMILES IDX 88 54 82 55 81 56 37 58 69 59 49 60 68 61 50 62 53 63 67 64
REMARK SMILES IDX 86 65 51 66 52 67 66 69 87 70 54 71 38 72 39 73 47 74 40 75
REMARK SMILES IDX 42 76 48 77 41 78 43 79 44 80 45 81 46 82 70 83 71 84 79 85
REMARK SMILES IDX 72 86 74 87 80 88 73 89 75 90 76 91 77 92 78 93 55 94 56 95
REMARK SMILES IDX 64 96 57 97 59 98 65 99 58 100 60 101 61 102 62 103 63 104
REMARK H PARENT 11 21 85 57 53 68
REMARK Flexibility Score: inf
ROOT
ATOM      1  C   UNL     1       4.940   2.262 -13.823  1.00  0.00     0.261 C 
ENDROOT
BRANCH   1   2
ATOM      2  O   UNL     1       4.498   1.044 -13.199  1.00  0.00    -0.460 OA
BRANCH   2   3
ATOM      3  C   UNL     1       5.372   0.493 -12.324  1.00  0.00     0.338 C 
ATOM      4  O   UNL     1       6.519   0.855 -12.108  1.00  0.00    -0.246 OA
BRANCH   3   5
ATOM      5  C   UNL     1       4.702  -0.552 -11.513  1.00  0.00     0.060 A 
ATOM      6  C   UNL     1       3.647  -2.606  -9.922  1.00  0.00     0.004 A 
ATOM      7  C   UNL     1       4.654  -1.776  -9.418  1.00  0.00     0.011 A 
ATOM      8  C   UNL     1       3.135  -2.369 -11.207  1.00  0.00     0.011 A 
ATOM      9  C   UNL     1       5.184  -0.760 -10.213  1.00  0.00     0.016 A 
ATOM     10  C   UNL     1       3.649  -1.334 -11.999  1.00  0.00     0.016 A 
BRANCH   6  11
ATOM     11  C   UNL     1       3.271  -3.808  -9.204  1.00  0.00     0.114 A 
ATOM     12  C   UNL     1       2.865  -3.909  -7.875  1.00  0.00     0.143 A 
ATOM     13  N   UNL     1       2.735  -5.275  -7.673  1.00  0.00    -0.283 N 
ATOM     14  N   UNL     1       3.445  -5.045  -9.784  1.00  0.00    -0.225 NA
ATOM     15  C   UNL     1       3.145  -5.890  -8.830  1.00  0.00     0.157 A 
ATOM     16  C   UNL     1       2.303  -6.057  -6.612  1.00  0.00     0.115 A 
ATOM     17  C   UNL     1       3.194  -7.324  -8.876  1.00  0.00     0.158 A 
ATOM     18  C   UNL     1       2.362  -7.395  -6.733  1.00  0.00     0.129 A 
ATOM     19  N   UNL     1       2.828  -8.057  -7.857  1.00  0.00    -0.259 NA
BRANCH  12  20
ATOM     20  N   UNL     1       2.572  -2.960  -6.940  1.00  0.00    -0.339 N 
ATOM     21  H   UNL     1       1.922  -2.270  -7.206  1.00  0.00     0.168 HD
BRANCH  20  22
ATOM     22  C   UNL     1       3.097  -2.854  -5.628  1.00  0.00     0.040 A 
ATOM     23  C   UNL     1       3.062  -1.763  -3.449  1.00  0.00     0.062 A 
ATOM     24  C   UNL     1       4.113  -2.571  -3.007  1.00  0.00     0.016 A 
ATOM     25  C   UNL     1       2.542  -1.914  -4.743  1.00  0.00     0.041 A 
ATOM     26  C   UNL     1       4.639  -3.536  -3.858  1.00  0.00     0.003 A 
ATOM     27  C   UNL     1       4.139  -3.669  -5.157  1.00  0.00     0.026 A 
BRANCH  23  28
ATOM     28  C   UNL     1       2.590  -0.699  -2.545  1.00  0.00     0.338 C 
ATOM     29  O   UNL     1       3.349   0.054  -1.953  1.00  0.00    -0.246 OA
BRANCH  28  30
ATOM     30  O   UNL     1       1.243  -0.754  -2.425  1.00  0.00    -0.462 OA
BRANCH  30  31
ATOM     31  C   UNL     1       0.671   0.213  -1.529  1.00  0.00     0.230 C 
ATOM     32  C   UNL     1       0.881  -0.173  -0.073  1.00  0.00     0.049 C 
ENDBRANCH  30  31
ENDBRANCH  28  30
ENDBRANCH  23  28
ENDBRANCH  20  22
ENDBRANCH  12  20
ENDBRANCH   6  11
ENDBRANCH   3   5
ENDBRANCH   2   3
ENDBRANCH   1   2
BRANCH   1  33
ATOM     33  C   UNL     1       4.155   3.463 -13.290  1.00  0.00     0.202 C 
BRANCH  33  34
ATOM     34  O   UNL     1       4.369   3.768 -11.909  1.00  0.00    -0.374 OA
BRANCH  34  35
ATOM     35  C   UNL     1       3.581   3.035 -10.969  1.00  0.00     0.202 C 
BRANCH  35  36
ATOM     36  C   UNL     1       2.168   3.578 -10.729  1.00  0.00     0.261 C 
BRANCH  36  37
ATOM     37  O   UNL     1       1.326   3.373 -11.877  1.00  0.00    -0.460 OA
BRANCH  37  38
ATOM     38  C   UNL     1       1.007   4.497 -12.560  1.00  0.00     0.338 C 
ATOM     39  O   UNL     1       1.268   5.649 -12.244  1.00  0.00    -0.246 OA
BRANCH  38  40
ATOM     40  C   UNL     1       0.431   4.143 -13.873  1.00  0.00     0.060 A 
ATOM     41  C   UNL     1       0.938   4.806 -14.998  1.00  0.00     0.016 A 
ATOM     42  C   UNL     1      -0.615   3.226 -14.003  1.00  0.00     0.016 A 
ATOM     43  C   UNL     1       0.364   4.596 -16.250  1.00  0.00     0.010 A 
ATOM     44  C   UNL     1      -1.193   3.021 -15.260  1.00  0.00     0.010 A 
ATOM     45  C   UNL     1      -0.731   3.733 -16.381  1.00  0.00    -0.014 A 
BRANCH  45  46
ATOM     46  C   UNL     1      -1.477   3.686 -17.662  1.00  0.00     0.031 A 
ATOM     47  C   UNL     1      -2.747   4.481 -17.796  1.00  0.00     0.074 A 
ATOM     48  C   UNL     1      -1.025   2.953 -18.695  1.00  0.00     0.049 A 
ATOM     49  N   UNL     1      -3.554   4.584 -18.820  1.00  0.00    -0.248 NA
ATOM     50  C   UNL     1      -3.163   5.263 -16.620  1.00  0.00     0.031 C 
ATOM     51  C   UNL     1       0.194   2.147 -18.688  1.00  0.00     0.029 A 
ATOM     52  N   UNL     1      -1.553   2.758 -19.946  1.00  0.00    -0.354 N 
ATOM     53  C   UNL     1      -4.582   5.425 -18.408  1.00  0.00     0.074 A 
ATOM     54  C   UNL     1      -4.306   5.789 -17.035  1.00  0.00     0.031 C 
ATOM     55  C   UNL     1       0.311   1.525 -19.874  1.00  0.00     0.029 A 
ATOM     56  C   UNL     1      -0.832   1.876 -20.715  1.00  0.00     0.049 A 
ATOM     57  H   UNL     1      -2.370   3.207 -20.263  1.00  0.00     0.167 HD
ATOM     58  C   UNL     1      -5.646   5.874 -19.115  1.00  0.00     0.034 A 
ATOM     59  C   UNL     1      -1.075   1.399 -21.953  1.00  0.00     0.034 A 
ATOM     60  C   UNL     1      -5.911   5.526 -20.484  1.00  0.00     0.049 A 
ATOM     61  C   UNL     1      -2.286   1.886 -22.706  1.00  0.00     0.074 A 
ATOM     62  C   UNL     1      -6.942   5.959 -21.299  1.00  0.00     0.029 A 
ATOM     63  N   UNL     1      -5.143   4.654 -21.241  1.00  0.00    -0.354 N 
ATOM     64  N   UNL     1      -3.182   2.774 -22.346  1.00  0.00    -0.248 NA
ATOM     65  C   UNL     1      -2.501   1.330 -24.050  1.00  0.00     0.031 C 
ATOM     66  C   UNL     1      -6.807   5.334 -22.543  1.00  0.00     0.029 A 
ATOM     67  C   UNL     1      -5.682   4.526 -22.509  1.00  0.00     0.049 A 
ATOM     68  H   UNL     1      -4.333   4.194 -20.922  1.00  0.00     0.167 HD
ATOM     69  C   UNL     1      -4.043   2.909 -23.429  1.00  0.00     0.074 A 
ATOM     70  C   UNL     1      -3.552   2.025 -24.466  1.00  0.00     0.031 C 
ATOM     71  C   UNL     1      -5.149   3.685 -23.551  1.00  0.00     0.034 A 
BRANCH  58  72
ATOM     72  C   UNL     1      -6.585   6.825 -18.422  1.00  0.00     0.023 A 
ATOM     73  C   UNL     1      -6.180   8.157 -18.199  1.00  0.00     0.012 A 
ATOM     74  C   UNL     1      -7.875   6.419 -18.028  1.00  0.00     0.148 A 
ATOM     75  C   UNL     1      -7.031   9.062 -17.565  1.00  0.00     0.002 A 
ATOM     76  C   UNL     1      -8.732   7.338 -17.432  1.00  0.00     0.091 A 
ATOM     77  F   UNL     1      -8.232   5.142 -18.224  1.00  0.00    -0.205 F 
ATOM     78  C   UNL     1      -8.308   8.655 -17.191  1.00  0.00     0.022 A 
BRANCH  76  79
ATOM     79  S   UNL     1     -10.419   6.923 -16.977  1.00  0.00     0.127 S 
ATOM     80  O   UNL     1     -10.309   6.783 -15.526  1.00  0.00    -0.237 OA
ATOM     81  O   UNL     1     -11.161   8.105 -17.421  1.00  0.00    -0.237 OA
ATOM     82  O   UNL     1     -10.738   5.703 -17.706  1.00  0.00    -0.744 OA
ENDBRANCH  76  79
ENDBRANCH  58  72
BRANCH  59  83
ATOM     83  C   UNL     1      -0.121   0.443 -22.581  1.00  0.00     0.023 A 
ATOM     84  C   UNL     1       0.670   0.868 -23.665  1.00  0.00     0.012 A 
ATOM     85  C   UNL     1       0.025  -0.872 -22.098  1.00  0.00     0.148 A 
ATOM     86  C   UNL     1       1.571  -0.007 -24.274  1.00  0.00     0.002 A 
ATOM     87  C   UNL     1       0.961  -1.722 -22.675  1.00  0.00     0.091 A 
ATOM     88  F   UNL     1      -0.752  -1.264 -21.077  1.00  0.00    -0.205 F 
ATOM     89  C   UNL     1       1.725  -1.296 -23.773  1.00  0.00     0.022 A 
BRANCH  87  90
ATOM     90  S   UNL     1       1.313  -3.356 -22.015  1.00  0.00     0.127 S 
ATOM     91  O   UNL     1       0.732  -4.222 -23.037  1.00  0.00    -0.237 OA
ATOM     92  O   UNL     1       2.776  -3.353 -21.968  1.00  0.00    -0.237 OA
ATOM     93  O   UNL     1       0.672  -3.397 -20.708  1.00  0.00    -0.744 OA
ENDBRANCH  87  90
ENDBRANCH  59  83
BRANCH  71  94
ATOM     94  C   UNL     1      -5.895   3.642 -24.860  1.00  0.00     0.023 A 
ATOM     95  C   UNL     1      -6.681   2.518 -25.178  1.00  0.00     0.012 A 
ATOM     96  C   UNL     1      -5.881   4.747 -25.734  1.00  0.00     0.148 A 
ATOM     97  C   UNL     1      -7.419   2.481 -26.361  1.00  0.00     0.002 A 
ATOM     98  C   UNL     1      -6.655   4.721 -26.889  1.00  0.00     0.091 A 
ATOM     99  F   UNL     1      -5.112   5.800 -25.424  1.00  0.00    -0.205 F 
ATOM    100  C   UNL     1      -7.416   3.586 -27.209  1.00  0.00     0.022 A 
BRANCH  98 101
ATOM    101  S   UNL     1      -6.783   6.135 -27.991  1.00  0.00     0.127 S 
ATOM    102  O   UNL     1      -5.955   5.711 -29.118  1.00  0.00    -0.237 OA
ATOM    103  O   UNL     1      -8.218   6.184 -28.272  1.00  0.00    -0.237 OA
ATOM    104  O   UNL     1      -6.280   7.275 -27.236  1.00  0.00    -0.744 OA
ENDBRANCH  98 101
ENDBRANCH  71  94
ENDBRANCH  45  46
ENDBRANCH  38  40
ENDBRANCH  37  38
ENDBRANCH  36  37
ENDBRANCH  35  36
ENDBRANCH  34  35
ENDBRANCH  33  34
ENDBRANCH   1  33
TORSDOF 23
