REMARK SMILES CC[C@@](O)(C(=O)OCCOCCOC(=O)c1ccc(-c2c3nc(c(-c4cccc(S(=O)(=O)[O-])c4F)c4ccc([nH]4)c(-c4cccc(S(=O)(=O)[O-])c4F)c4nc(c(-c5cccc(S(=O)(=O)[O-])c5F)c5ccc2[nH]5)C=C4)C=C3)cc1)[C@H](C)c1cc(F)c(C)cc1F
REMARK SMILES IDX 11 1 10 2 9 3 8 4 7 5 5 6 6 7 3 8 2 9 1 10 4 11 79 13 80 14
REMARK SMILES IDX 81 15 82 16 88 17 83 18 87 19 89 20 84 21 85 22 86 23 12 24
REMARK SMILES IDX 13 25 14 26 15 27 16 28 17 29 78 30 18 31 77 32 19 33 20 34
REMARK SMILES IDX 21 35 71 36 22 37 76 38 70 39 72 40 23 41 75 42 69 43 68 44
REMARK SMILES IDX 24 46 56 47 36 48 55 49 37 50 40 51 54 52 73 53 38 54 39 55
REMARK SMILES IDX 53 57 74 58 41 59 25 60 26 61 34 62 27 63 29 64 35 65 28 66
REMARK SMILES IDX 30 67 31 68 32 69 33 70 57 71 58 72 66 73 59 74 61 75 67 76
REMARK SMILES IDX 60 77 62 78 63 79 64 80 65 81 42 82 43 83 51 84 44 85 46 86
REMARK SMILES IDX 52 87 45 88 47 89 48 90 49 91 50 92
REMARK H PARENT 4 12 72 45 40 56
REMARK Flexibility Score: inf
ROOT
ATOM      1  C   UNL     1       1.477   0.029   1.819  1.00  0.00     0.202 C 
ENDROOT
BRANCH   1   2
ATOM      2  O   UNL     1       2.566  -0.726   2.341  1.00  0.00    -0.374 OA
BRANCH   2   3
ATOM      3  C   UNL     1       3.454  -0.087   3.254  1.00  0.00     0.202 C 
BRANCH   3   4
ATOM      4  C   UNL     1       4.334   1.051   2.726  1.00  0.00     0.261 C 
BRANCH   4   5
ATOM      5  O   UNL     1       3.608   1.937   1.866  1.00  0.00    -0.461 OA
BRANCH   5   6
ATOM      6  C   UNL     1       4.264   2.337   0.738  1.00  0.00     0.338 C 
ATOM      7  O   UNL     1       5.437   2.062   0.511  1.00  0.00    -0.249 OA
BRANCH   6   8
ATOM      8  C   UNL     1       3.337   3.167  -0.213  1.00  0.00     0.168 C 
BRANCH   8   9
ATOM      9  C   UNL     1       2.356   4.012   0.655  1.00  0.00     0.044 C 
ATOM     10  C   UNL     1       1.849   5.311   0.034  1.00  0.00     0.007 C 
ENDBRANCH   8   9
BRANCH   8  11
ATOM     11  O   UNL     1       4.241   4.112  -0.842  1.00  0.00    -0.378 OA
ATOM     12  H   UNL     1       4.667   4.655  -0.160  1.00  0.00     0.212 HD
ENDBRANCH   8  11
BRANCH   8  13
ATOM     13  C   UNL     1       2.665   2.300  -1.386  1.00  0.00     0.062 C 
ATOM     14  C   UNL     1       1.121   2.365  -1.423  1.00  0.00     0.016 C 
BRANCH  13  15
ATOM     15  C   UNL     1       3.152   0.850  -1.543  1.00  0.00    -0.003 A 
ATOM     16  C   UNL     1       2.316  -0.267  -1.380  1.00  0.00     0.046 A 
ATOM     17  C   UNL     1       4.484   0.586  -1.889  1.00  0.00     0.127 A 
ATOM     18  C   UNL     1       2.826  -1.566  -1.422  1.00  0.00     0.126 A 
ATOM     19  C   UNL     1       5.004  -0.713  -1.909  1.00  0.00     0.046 A 
ATOM     20  F   UNL     1       5.296   1.600  -2.215  1.00  0.00    -0.207 F 
ATOM     21  F   UNL     1       1.983  -2.592  -1.237  1.00  0.00    -0.207 F 
ATOM     22  C   UNL     1       4.179  -1.806  -1.632  1.00  0.00    -0.012 A 
ATOM     23  C   UNL     1       4.708  -3.205  -1.580  1.00  0.00     0.047 C 
ENDBRANCH  13  15
ENDBRANCH   8  13
ENDBRANCH   6   8
ENDBRANCH   5   6
ENDBRANCH   4   5
ENDBRANCH   3   4
ENDBRANCH   2   3
ENDBRANCH   1   2
BRANCH   1  24
ATOM     24  C   UNL     1       0.359   0.492   2.755  1.00  0.00     0.261 C 
BRANCH  24  25
ATOM     25  O   UNL     1       0.817   1.322   3.828  1.00  0.00    -0.460 OA
BRANCH  25  26
ATOM     26  C   UNL     1       0.687   0.757   5.052  1.00  0.00     0.338 C 
ATOM     27  O   UNL     1       0.191  -0.331   5.315  1.00  0.00    -0.246 OA
BRANCH  26  28
ATOM     28  C   UNL     1       1.401   1.555   6.057  1.00  0.00     0.060 A 
ATOM     29  C   UNL     1       2.370   0.900   6.828  1.00  0.00     0.016 A 
ATOM     30  C   UNL     1       1.065   2.887   6.306  1.00  0.00     0.016 A 
ATOM     31  C   UNL     1       2.966   1.558   7.897  1.00  0.00     0.010 A 
ATOM     32  C   UNL     1       1.658   3.543   7.388  1.00  0.00     0.010 A 
ATOM     33  C   UNL     1       2.576   2.865   8.210  1.00  0.00    -0.014 A 
BRANCH  33  34
ATOM     34  C   UNL     1       3.012   3.458   9.494  1.00  0.00     0.031 A 
ATOM     35  C   UNL     1       2.065   3.434  10.661  1.00  0.00     0.074 A 
ATOM     36  C   UNL     1       4.239   3.989   9.618  1.00  0.00     0.049 A 
ATOM     37  N   UNL     1       2.234   3.893  11.873  1.00  0.00    -0.248 NA
ATOM     38  C   UNL     1       0.749   2.811  10.432  1.00  0.00     0.031 C 
ATOM     39  C   UNL     1       5.240   4.058   8.554  1.00  0.00     0.029 A 
ATOM     40  N   UNL     1       4.844   4.591  10.691  1.00  0.00    -0.354 N 
ATOM     41  C   UNL     1       1.042   3.642  12.542  1.00  0.00     0.074 A 
ATOM     42  C   UNL     1       0.152   3.001  11.600  1.00  0.00     0.031 C 
ATOM     43  C   UNL     1       6.328   4.692   9.022  1.00  0.00     0.029 A 
ATOM     44  C   UNL     1       6.091   5.091  10.408  1.00  0.00     0.049 A 
ATOM     45  H   UNL     1       4.424   4.658  11.579  1.00  0.00     0.167 HD
ATOM     46  C   UNL     1       0.724   3.909  13.830  1.00  0.00     0.034 A 
ATOM     47  C   UNL     1       6.936   5.805  11.177  1.00  0.00     0.034 A 
ATOM     48  C   UNL     1       1.622   4.527  14.767  1.00  0.00     0.049 A 
ATOM     49  C   UNL     1       6.550   6.105  12.602  1.00  0.00     0.074 A 
ATOM     50  C   UNL     1       1.417   4.794  16.108  1.00  0.00     0.029 A 
ATOM     51  N   UNL     1       2.893   4.987  14.456  1.00  0.00    -0.354 N 
ATOM     52  N   UNL     1       5.469   5.754  13.256  1.00  0.00    -0.248 NA
ATOM     53  C   UNL     1       7.514   6.871  13.404  1.00  0.00     0.031 C 
ATOM     54  C   UNL     1       2.555   5.440  16.602  1.00  0.00     0.029 A 
ATOM     55  C   UNL     1       3.480   5.550  15.575  1.00  0.00     0.049 A 
ATOM     56  H   UNL     1       3.316   4.922  13.569  1.00  0.00     0.167 HD
ATOM     57  C   UNL     1       5.638   6.224  14.554  1.00  0.00     0.074 A 
ATOM     58  C   UNL     1       6.935   6.869  14.597  1.00  0.00     0.031 C 
ATOM     59  C   UNL     1       4.793   6.141  15.612  1.00  0.00     0.034 A 
BRANCH  46  60
ATOM     60  C   UNL     1      -0.648   3.514  14.307  1.00  0.00     0.023 A 
ATOM     61  C   UNL     1      -0.950   2.153  14.518  1.00  0.00     0.012 A 
ATOM     62  C   UNL     1      -1.623   4.490  14.591  1.00  0.00     0.148 A 
ATOM     63  C   UNL     1      -2.210   1.767  14.974  1.00  0.00     0.002 A 
ATOM     64  C   UNL     1      -2.862   4.101  15.086  1.00  0.00     0.091 A 
ATOM     65  F   UNL     1      -1.326   5.776  14.359  1.00  0.00    -0.205 F 
ATOM     66  C   UNL     1      -3.161   2.741  15.268  1.00  0.00     0.022 A 
BRANCH  64  67
ATOM     67  S   UNL     1      -4.127   5.285  15.562  1.00  0.00     0.127 S 
ATOM     68  O   UNL     1      -5.107   5.116  14.490  1.00  0.00    -0.237 OA
ATOM     69  O   UNL     1      -4.554   4.773  16.865  1.00  0.00    -0.237 OA
ATOM     70  O   UNL     1      -3.466   6.581  15.607  1.00  0.00    -0.744 OA
ENDBRANCH  64  67
ENDBRANCH  46  60
BRANCH  47  71
ATOM     71  C   UNL     1       8.246   6.250  10.625  1.00  0.00     0.023 A 
ATOM     72  C   UNL     1       9.436   5.671  11.106  1.00  0.00     0.012 A 
ATOM     73  C   UNL     1       8.316   7.224   9.610  1.00  0.00     0.148 A 
ATOM     74  C   UNL     1      10.674   6.072  10.604  1.00  0.00     0.002 A 
ATOM     75  C   UNL     1       9.549   7.580   9.077  1.00  0.00     0.091 A 
ATOM     76  F   UNL     1       7.173   7.775   9.178  1.00  0.00    -0.205 F 
ATOM     77  C   UNL     1      10.731   7.018   9.583  1.00  0.00     0.022 A 
BRANCH  75  78
ATOM     78  S   UNL     1       9.707   8.695   7.677  1.00  0.00     0.127 S 
ATOM     79  O   UNL     1      10.283   9.882   8.304  1.00  0.00    -0.237 OA
ATOM     80  O   UNL     1      10.618   7.955   6.803  1.00  0.00    -0.237 OA
ATOM     81  O   UNL     1       8.359   8.850   7.146  1.00  0.00    -0.744 OA
ENDBRANCH  75  78
ENDBRANCH  47  71
BRANCH  59  82
ATOM     82  C   UNL     1       5.251   6.732  16.920  1.00  0.00     0.023 A 
ATOM     83  C   UNL     1       5.295   8.131  17.080  1.00  0.00     0.012 A 
ATOM     84  C   UNL     1       5.559   5.900  18.015  1.00  0.00     0.148 A 
ATOM     85  C   UNL     1       5.668   8.693  18.300  1.00  0.00     0.002 A 
ATOM     86  C   UNL     1       5.882   6.467  19.242  1.00  0.00     0.091 A 
ATOM     87  F   UNL     1       5.528   4.571  17.838  1.00  0.00    -0.205 F 
ATOM     88  C   UNL     1       5.950   7.862  19.383  1.00  0.00     0.022 A 
BRANCH  86  89
ATOM     89  S   UNL     1       6.163   5.477  20.715  1.00  0.00     0.127 S 
ATOM     90  O   UNL     1       7.612   5.581  20.872  1.00  0.00    -0.237 OA
ATOM     91  O   UNL     1       5.386   6.196  21.725  1.00  0.00    -0.237 OA
ATOM     92  O   UNL     1       5.660   4.145  20.404  1.00  0.00    -0.744 OA
ENDBRANCH  86  89
ENDBRANCH  59  82
ENDBRANCH  33  34
ENDBRANCH  26  28
ENDBRANCH  25  26
ENDBRANCH  24  25
ENDBRANCH   1  24
TORSDOF 21
