REMARK SMILES C[C@@]1(Oc2c[nH]c3ccc(Br)c(Cl)c23)O[C@@H](C(=O)OCCOCCOC(=O)c2ccc(-c3c4nc(c(-c5cccc(S(=O)(=O)[O-])c5F)c5ccc([nH]5)c(-c5cccc(S(=O)(=O)[O-])c5F)c5nc(c(-c6cccc(S(=O)(=O)[O-])c6F)c6ccc3[nH]6)C=C5)C=C4)cc2)[C@@](C)(O)[C@@](C)(O)[C@@]1(C)O
REMARK SMILES IDX 23 1 22 2 21 3 20 4 19 5 17 6 18 7 16 8 1 9 2 10 15 11 97 12
REMARK SMILES IDX 94 13 98 14 91 15 95 16 92 17 3 18 4 19 5 20 14 21 6 22 7 23
REMARK SMILES IDX 12 24 8 26 10 27 13 28 9 29 11 30 99 31 96 33 93 35 24 37
REMARK SMILES IDX 25 38 26 39 27 40 28 41 29 42 90 43 30 44 89 45 31 46 32 47
REMARK SMILES IDX 33 48 83 49 34 50 88 51 82 52 84 53 35 54 87 55 81 56 80 57
REMARK SMILES IDX 36 59 68 60 48 61 67 62 49 63 52 64 66 65 85 66 50 67 51 68
REMARK SMILES IDX 65 70 86 71 53 72 37 73 38 74 46 75 39 76 41 77 47 78 40 79
REMARK SMILES IDX 42 80 43 81 44 82 45 83 69 84 70 85 78 86 71 87 73 88 79 89
REMARK SMILES IDX 72 90 74 91 75 92 76 93 77 94 54 95 55 96 63 97 56 98 58 99
REMARK SMILES IDX 64 100 57 101 59 102 60 103 61 104 62 105
REMARK H PARENT 6 25 99 32 96 34 93 36 84 58 52 69
REMARK Flexibility Score: inf
ROOT
ATOM      1  C   UNL     1       3.416   1.671  -4.413  1.00  0.00     0.202 C 
ENDROOT
BRANCH   1   2
ATOM      2  O   UNL     1       4.456   0.809  -3.959  1.00  0.00    -0.374 OA
BRANCH   2   3
ATOM      3  C   UNL     1       4.110  -0.182  -2.986  1.00  0.00     0.202 C 
BRANCH   3   4
ATOM      4  C   UNL     1       3.962   0.341  -1.566  1.00  0.00     0.261 C 
BRANCH   4   5
ATOM      5  O   UNL     1       2.689   0.992  -1.422  1.00  0.00    -0.461 OA
BRANCH   5   6
ATOM      6  C   UNL     1       2.658   2.319  -1.201  1.00  0.00     0.338 C 
ATOM      7  O   UNL     1       3.651   3.040  -1.165  1.00  0.00    -0.249 OA
BRANCH   6   8
ATOM      8  C   UNL     1       1.241   2.846  -0.926  1.00  0.00     0.266 C 
ATOM      9  C   UNL     1       1.166   0.230   0.855  1.00  0.00     0.094 C 
ATOM     10  C   UNL     1       0.172   1.409   0.772  1.00  0.00     0.240 C 
ATOM     11  O   UNL     1       0.820   2.635   0.406  1.00  0.00    -0.320 OA
ATOM     12  C   UNL     1      -1.061   1.086  -0.201  1.00  0.00     0.158 C 
ATOM     13  C   UNL     1      -0.640   1.279  -1.713  1.00  0.00     0.128 C 
ATOM     14  C   UNL     1      -2.341   1.901   0.072  1.00  0.00     0.053 C 
ATOM     15  C   UNL     1       0.100   2.644  -1.958  1.00  0.00     0.130 C 
ATOM     16  C   UNL     1      -1.819   1.048  -2.688  1.00  0.00     0.049 C 
ATOM     17  C   UNL     1      -0.824   3.884  -1.889  1.00  0.00     0.049 C 
BRANCH  10  18
ATOM     18  O   UNL     1      -0.257   1.446   2.186  1.00  0.00    -0.457 OA
BRANCH  18  19
ATOM     19  C   UNL     1      -0.360   2.677   2.740  1.00  0.00     0.150 A 
ATOM     20  C   UNL     1       0.644   3.606   2.889  1.00  0.00     0.130 A 
ATOM     21  C   UNL     1      -1.580   3.260   3.170  1.00  0.00     0.061 A 
ATOM     22  N   UNL     1       0.033   4.806   3.148  1.00  0.00    -0.358 N 
ATOM     23  C   UNL     1      -1.336   4.636   3.190  1.00  0.00     0.051 A 
ATOM     24  C   UNL     1      -2.906   2.801   3.314  1.00  0.00     0.068 A 
ATOM     25  H   UNL     1       0.502   5.662   3.285  1.00  0.00     0.166 HD
ATOM     26  C   UNL     1      -2.372   5.574   3.199  1.00  0.00     0.028 A 
ATOM     27  C   UNL     1      -3.955   3.715   3.241  1.00  0.00     0.037 A 
ATOM     28  Cl  UNL     1      -3.094   1.099   3.440  1.00  0.00    -0.082 Cl
ATOM     29  C   UNL     1      -3.685   5.083   3.161  1.00  0.00     0.019 A 
ATOM     30  Br  UNL     1      -5.762   3.150   3.116  1.00  0.00    -0.049 Br
ENDBRANCH  18  19
ENDBRANCH  10  18
BRANCH  12  31
ATOM     31  O   UNL     1      -1.473  -0.287   0.011  1.00  0.00    -0.380 OA
ATOM     32  H   UNL     1      -0.719  -0.878  -0.141  1.00  0.00     0.211 HD
ENDBRANCH  12  31
BRANCH  13  33
ATOM     33  O   UNL     1       0.297   0.242  -2.079  1.00  0.00    -0.384 OA
ATOM     34  H   UNL     1       1.084   0.303  -1.516  1.00  0.00     0.211 HD
ENDBRANCH  13  33
BRANCH  15  35
ATOM     35  O   UNL     1       0.620   2.626  -3.302  1.00  0.00    -0.384 OA
ATOM     36  H   UNL     1       1.211   1.865  -3.410  1.00  0.00     0.211 HD
ENDBRANCH  15  35
ENDBRANCH   6   8
ENDBRANCH   5   6
ENDBRANCH   4   5
ENDBRANCH   3   4
ENDBRANCH   2   3
ENDBRANCH   1   2
BRANCH   1  37
ATOM     37  C   UNL     1       2.510   1.111  -5.499  1.00  0.00     0.261 C 
BRANCH  37  38
ATOM     38  O   UNL     1       1.674   0.090  -4.971  1.00  0.00    -0.460 OA
BRANCH  38  39
ATOM     39  C   UNL     1       2.123  -1.171  -5.186  1.00  0.00     0.338 C 
ATOM     40  O   UNL     1       3.216  -1.503  -5.592  1.00  0.00    -0.246 OA
BRANCH  39  41
ATOM     41  C   UNL     1       0.998  -2.095  -4.994  1.00  0.00     0.060 A 
ATOM     42  C   UNL     1       1.229  -3.402  -5.409  1.00  0.00     0.016 A 
ATOM     43  C   UNL     1      -0.293  -1.573  -4.840  1.00  0.00     0.016 A 
ATOM     44  C   UNL     1       0.178  -4.067  -5.985  1.00  0.00     0.010 A 
ATOM     45  C   UNL     1      -1.341  -2.230  -5.420  1.00  0.00     0.010 A 
ATOM     46  C   UNL     1      -1.056  -3.410  -6.084  1.00  0.00    -0.014 A 
BRANCH  46  47
ATOM     47  C   UNL     1      -2.094  -4.061  -6.834  1.00  0.00     0.031 A 
ATOM     48  C   UNL     1      -2.661  -5.189  -6.078  1.00  0.00     0.074 A 
ATOM     49  C   UNL     1      -2.472  -3.657  -8.059  1.00  0.00     0.049 A 
ATOM     50  N   UNL     1      -2.382  -6.437  -6.247  1.00  0.00    -0.248 NA
ATOM     51  C   UNL     1      -3.408  -4.888  -4.848  1.00  0.00     0.031 C 
ATOM     52  C   UNL     1      -2.161  -2.412  -8.766  1.00  0.00     0.029 A 
ATOM     53  N   UNL     1      -3.334  -4.275  -8.901  1.00  0.00    -0.354 N 
ATOM     54  C   UNL     1      -3.139  -7.098  -5.295  1.00  0.00     0.074 A 
ATOM     55  C   UNL     1      -3.557  -6.110  -4.334  1.00  0.00     0.031 C 
ATOM     56  C   UNL     1      -3.022  -2.269  -9.803  1.00  0.00     0.029 A 
ATOM     57  C   UNL     1      -3.838  -3.466  -9.911  1.00  0.00     0.049 A 
ATOM     58  H   UNL     1      -3.583  -5.223  -8.805  1.00  0.00     0.167 HD
ATOM     59  C   UNL     1      -3.615  -8.346  -5.534  1.00  0.00     0.034 A 
ATOM     60  C   UNL     1      -4.910  -3.766 -10.689  1.00  0.00     0.034 A 
ATOM     61  C   UNL     1      -2.941  -8.979  -6.636  1.00  0.00     0.049 A 
ATOM     62  C   UNL     1      -5.060  -5.246 -10.638  1.00  0.00     0.074 A 
ATOM     63  C   UNL     1      -1.631  -9.328  -6.900  1.00  0.00     0.029 A 
ATOM     64  N   UNL     1      -3.579  -8.938  -7.852  1.00  0.00    -0.354 N 
ATOM     65  N   UNL     1      -4.177  -6.076 -11.120  1.00  0.00    -0.248 NA
ATOM     66  C   UNL     1      -5.967  -5.800  -9.644  1.00  0.00     0.031 C 
ATOM     67  C   UNL     1      -1.441  -9.029  -8.280  1.00  0.00     0.029 A 
ATOM     68  C   UNL     1      -2.656  -8.574  -8.797  1.00  0.00     0.049 A 
ATOM     69  H   UNL     1      -4.530  -9.136  -8.016  1.00  0.00     0.167 HD
ATOM     70  C   UNL     1      -4.119  -7.100 -10.183  1.00  0.00     0.074 A 
ATOM     71  C   UNL     1      -5.305  -6.921  -9.346  1.00  0.00     0.031 C 
ATOM     72  C   UNL     1      -2.973  -7.813  -9.986  1.00  0.00     0.034 A 
BRANCH  59  73
ATOM     73  C   UNL     1      -4.950  -8.811  -5.033  1.00  0.00     0.023 A 
ATOM     74  C   UNL     1      -5.215 -10.192  -5.049  1.00  0.00     0.012 A 
ATOM     75  C   UNL     1      -6.037  -7.938  -4.793  1.00  0.00     0.148 A 
ATOM     76  C   UNL     1      -6.507 -10.681  -4.834  1.00  0.00     0.002 A 
ATOM     77  C   UNL     1      -7.299  -8.430  -4.498  1.00  0.00     0.091 A 
ATOM     78  F   UNL     1      -5.893  -6.623  -4.990  1.00  0.00    -0.205 F 
ATOM     79  C   UNL     1      -7.545  -9.803  -4.539  1.00  0.00     0.022 A 
BRANCH  77  80
ATOM     80  S   UNL     1      -8.659  -7.333  -4.085  1.00  0.00     0.127 S 
ATOM     81  O   UNL     1      -9.470  -7.406  -5.298  1.00  0.00    -0.237 OA
ATOM     82  O   UNL     1      -9.232  -7.998  -2.914  1.00  0.00    -0.237 OA
ATOM     83  O   UNL     1      -8.046  -6.043  -3.798  1.00  0.00    -0.744 OA
ENDBRANCH  77  80
ENDBRANCH  59  73
BRANCH  60  84
ATOM     84  C   UNL     1      -6.024  -2.896 -11.155  1.00  0.00     0.023 A 
ATOM     85  C   UNL     1      -6.973  -3.434 -12.055  1.00  0.00     0.012 A 
ATOM     86  C   UNL     1      -6.352  -1.686 -10.504  1.00  0.00     0.148 A 
ATOM     87  C   UNL     1      -8.226  -2.836 -12.238  1.00  0.00     0.002 A 
ATOM     88  C   UNL     1      -7.596  -1.088 -10.698  1.00  0.00     0.091 A 
ATOM     89  F   UNL     1      -5.490  -1.168  -9.621  1.00  0.00    -0.205 F 
ATOM     90  C   UNL     1      -8.544  -1.671 -11.548  1.00  0.00     0.022 A 
BRANCH  88  91
ATOM     91  S   UNL     1      -8.077   0.417  -9.837  1.00  0.00     0.127 S 
ATOM     92  O   UNL     1      -8.673   1.209 -10.915  1.00  0.00    -0.237 OA
ATOM     93  O   UNL     1      -9.028  -0.086  -8.851  1.00  0.00    -0.237 OA
ATOM     94  O   UNL     1      -6.844   0.979  -9.300  1.00  0.00    -0.744 OA
ENDBRANCH  88  91
ENDBRANCH  60  84
BRANCH  72  95
ATOM     95  C   UNL     1      -1.845  -7.628 -10.967  1.00  0.00     0.023 A 
ATOM     96  C   UNL     1      -1.074  -6.447 -11.025  1.00  0.00     0.012 A 
ATOM     97  C   UNL     1      -1.429  -8.752 -11.696  1.00  0.00     0.148 A 
ATOM     98  C   UNL     1       0.094  -6.396 -11.794  1.00  0.00     0.002 A 
ATOM     99  C   UNL     1      -0.251  -8.710 -12.429  1.00  0.00     0.091 A 
ATOM    100  F   UNL     1      -2.174  -9.865 -11.615  1.00  0.00    -0.205 F 
ATOM    101  C   UNL     1       0.513  -7.533 -12.484  1.00  0.00     0.022 A 
BRANCH  99 102
ATOM    102  S   UNL     1       0.398 -10.165 -13.253  1.00  0.00     0.127 S 
ATOM    103  O   UNL     1       0.290  -9.792 -14.662  1.00  0.00    -0.237 OA
ATOM    104  O   UNL     1       1.767 -10.226 -12.739  1.00  0.00    -0.237 OA
ATOM    105  O   UNL     1      -0.447 -11.278 -12.841  1.00  0.00    -0.744 OA
ENDBRANCH  99 102
ENDBRANCH  72  95
ENDBRANCH  46  47
ENDBRANCH  39  41
ENDBRANCH  38  39
ENDBRANCH  37  38
ENDBRANCH   1  37
TORSDOF 22
