REMARK SMILES CCn1cc(C)c(C(=O)OCCOCCOC(=O)c2ccc(-c3c4nc(c(-c5cccc(S(=O)(=O)[O-])c5F)c5ccc([nH]5)c(-c5cccc(S(=O)(=O)[O-])c5F)c5nc(c(-c6cccc(S(=O)(=O)[O-])c6F)c6ccc3[nH]6)C=C5)C=C4)cc2)c1CC(=O)N1CCc2ccccc21
REMARK SMILES IDX 13 1 12 2 11 3 10 4 8 5 9 6 7 7 3 8 4 9 82 10 5 11 6 12 2 13
REMARK SMILES IDX 1 14 83 15 84 16 85 17 86 18 87 19 94 20 88 21 89 22 93 23
REMARK SMILES IDX 90 24 92 25 91 26 14 27 15 28 16 29 17 30 18 31 19 32 20 33
REMARK SMILES IDX 81 34 21 35 80 36 22 37 23 38 24 39 74 40 25 41 79 42 73 43
REMARK SMILES IDX 75 44 26 45 78 46 72 47 71 48 27 50 59 51 39 52 58 53 40 54
REMARK SMILES IDX 43 55 57 56 76 57 41 58 42 59 56 61 77 62 44 63 28 64 29 65
REMARK SMILES IDX 37 66 30 67 32 68 38 69 31 70 33 71 34 72 35 73 36 74 60 75
REMARK SMILES IDX 61 76 69 77 62 78 64 79 70 80 63 81 65 82 66 83 67 84 68 85
REMARK SMILES IDX 45 86 46 87 54 88 47 89 49 90 55 91 48 92 50 93 51 94 52 95
REMARK SMILES IDX 53 96
REMARK H PARENT 75 49 43 60
REMARK Flexibility Score: inf
ROOT
ATOM      1  O   UNL     1       1.905  -3.627  -7.519  1.00  0.00    -0.374 OA
ENDROOT
BRANCH   1   2
ATOM      2  C   UNL     1       2.064  -4.689  -6.585  1.00  0.00     0.202 C 
BRANCH   2   3
ATOM      3  C   UNL     1       2.724  -4.418  -5.226  1.00  0.00     0.261 C 
BRANCH   3   4
ATOM      4  O   UNL     1       2.047  -3.446  -4.409  1.00  0.00    -0.460 OA
BRANCH   4   5
ATOM      5  C   UNL     1       2.664  -2.235  -4.338  1.00  0.00     0.340 C 
ATOM      6  O   UNL     1       3.781  -2.020  -4.801  1.00  0.00    -0.246 OA
BRANCH   5   7
ATOM      7  C   UNL     1       1.860  -1.151  -3.760  1.00  0.00     0.084 A 
ATOM      8  N   UNL     1       0.768   0.170  -2.334  1.00  0.00    -0.350 N 
ATOM      9  C   UNL     1       1.180   0.970  -3.368  1.00  0.00     0.090 A 
ATOM     10  C   UNL     1       0.970  -1.159  -2.679  1.00  0.00     0.042 A 
ATOM     11  C   UNL     1       1.837   0.191  -4.288  1.00  0.00    -0.019 A 
ATOM     12  C   UNL     1       2.381   0.667  -5.589  1.00  0.00     0.047 C 
BRANCH   8  13
ATOM     13  C   UNL     1       0.231   0.728  -1.098  1.00  0.00     0.118 C 
ATOM     14  C   UNL     1       1.065   0.400   0.131  1.00  0.00     0.027 C 
ENDBRANCH   8  13
BRANCH  10  15
ATOM     15  C   UNL     1       0.330  -2.304  -1.932  1.00  0.00     0.155 C 
BRANCH  15  16
ATOM     16  C   UNL     1      -1.192  -2.178  -1.995  1.00  0.00     0.232 C 
ATOM     17  O   UNL     1      -1.815  -1.714  -1.035  1.00  0.00    -0.274 OA
BRANCH  16  18
ATOM     18  N   UNL     1      -1.814  -2.480  -3.181  1.00  0.00    -0.311 N 
ATOM     19  C   UNL     1      -3.063  -1.795  -3.620  1.00  0.00     0.130 C 
ATOM     20  C   UNL     1      -1.669  -3.663  -3.919  1.00  0.00     0.047 A 
ATOM     21  C   UNL     1      -3.520  -2.262  -5.047  1.00  0.00     0.059 C 
ATOM     22  C   UNL     1      -2.889  -3.592  -5.244  1.00  0.00    -0.022 A 
ATOM     23  C   UNL     1      -0.697  -5.177  -3.685  1.00  0.00     0.026 A 
ATOM     24  C   UNL     1      -3.178  -4.995  -6.357  1.00  0.00     0.006 A 
ATOM     25  C   UNL     1      -0.984  -6.622  -4.749  1.00  0.00     0.002 A 
ATOM     26  C   UNL     1      -2.219  -6.561  -6.097  1.00  0.00     0.000 A 
ENDBRANCH  16  18
ENDBRANCH  15  16
ENDBRANCH  10  15
ENDBRANCH   5   7
ENDBRANCH   4   5
ENDBRANCH   3   4
ENDBRANCH   2   3
ENDBRANCH   1   2
BRANCH   1  27
ATOM     27  C   UNL     1       1.082  -2.518  -7.180  1.00  0.00     0.202 C 
BRANCH  27  28
ATOM     28  C   UNL     1      -0.340  -2.747  -6.696  1.00  0.00     0.261 C 
BRANCH  28  29
ATOM     29  O   UNL     1      -0.402  -3.596  -5.532  1.00  0.00    -0.460 OA
BRANCH  29  30
ATOM     30  C   UNL     1      -1.267  -4.797  -5.660  1.00  0.00     0.338 C 
ATOM     31  O   UNL     1      -0.905  -5.162  -6.816  1.00  0.00    -0.246 OA
BRANCH  30  32
ATOM     32  C   UNL     1      -2.771  -5.516  -4.286  1.00  0.00     0.060 A 
ATOM     33  C   UNL     1      -3.915  -6.425  -4.516  1.00  0.00     0.016 A 
ATOM     34  C   UNL     1      -3.163  -5.116  -2.946  1.00  0.00     0.016 A 
ATOM     35  C   UNL     1      -5.233  -5.985  -4.377  1.00  0.00     0.010 A 
ATOM     36  C   UNL     1      -4.439  -4.575  -2.736  1.00  0.00     0.010 A 
ATOM     37  C   UNL     1      -5.446  -4.840  -3.646  1.00  0.00    -0.014 A 
BRANCH  37  38
ATOM     38  C   UNL     1      -6.812  -4.395  -3.405  1.00  0.00     0.031 A 
ATOM     39  C   UNL     1      -7.392  -5.345  -2.425  1.00  0.00     0.074 A 
ATOM     40  C   UNL     1      -7.478  -3.314  -3.865  1.00  0.00     0.049 A 
ATOM     41  N   UNL     1      -8.049  -6.420  -2.729  1.00  0.00    -0.248 NA
ATOM     42  C   UNL     1      -6.835  -5.343  -1.062  1.00  0.00     0.031 C 
ATOM     43  C   UNL     1      -7.062  -2.182  -4.686  1.00  0.00     0.029 A 
ATOM     44  N   UNL     1      -8.754  -2.954  -3.560  1.00  0.00    -0.354 N 
ATOM     45  C   UNL     1      -8.176  -7.075  -1.514  1.00  0.00     0.074 A 
ATOM     46  C   UNL     1      -7.102  -6.597  -0.694  1.00  0.00     0.031 C 
ATOM     47  C   UNL     1      -7.902  -1.135  -4.502  1.00  0.00     0.029 A 
ATOM     48  C   UNL     1      -9.035  -1.603  -3.733  1.00  0.00     0.049 A 
ATOM     49  H   UNL     1      -9.426  -3.600  -3.241  1.00  0.00     0.167 HD
ATOM     50  C   UNL     1      -9.371  -7.590  -1.126  1.00  0.00     0.034 A 
ATOM     51  C   UNL     1     -10.115  -0.927  -3.265  1.00  0.00     0.034 A 
ATOM     52  C   UNL     1     -10.264  -7.728  -2.252  1.00  0.00     0.049 A 
ATOM     53  C   UNL     1     -11.147  -1.941  -2.950  1.00  0.00     0.074 A 
ATOM     54  C   UNL     1     -10.205  -8.379  -3.469  1.00  0.00     0.029 A 
ATOM     55  N   UNL     1     -11.230  -6.758  -2.385  1.00  0.00    -0.354 N 
ATOM     56  N   UNL     1     -11.731  -2.665  -3.865  1.00  0.00    -0.248 NA
ATOM     57  C   UNL     1     -11.153  -2.497  -1.607  1.00  0.00     0.031 C 
ATOM     58  C   UNL     1     -10.809  -7.482  -4.400  1.00  0.00     0.029 A 
ATOM     59  C   UNL     1     -11.273  -6.368  -3.697  1.00  0.00     0.049 A 
ATOM     60  H   UNL     1     -11.794  -6.404  -1.660  1.00  0.00     0.167 HD
ATOM     61  C   UNL     1     -11.748  -3.946  -3.326  1.00  0.00     0.074 A 
ATOM     62  C   UNL     1     -11.463  -3.763  -1.901  1.00  0.00     0.031 C 
ATOM     63  C   UNL     1     -11.680  -5.048  -4.129  1.00  0.00     0.034 A 
BRANCH  50  64
ATOM     64  C   UNL     1      -9.870  -7.535   0.303  1.00  0.00     0.023 A 
ATOM     65  C   UNL     1     -11.047  -8.249   0.590  1.00  0.00     0.012 A 
ATOM     66  C   UNL     1      -9.409  -6.644   1.307  1.00  0.00     0.148 A 
ATOM     67  C   UNL     1     -11.746  -8.051   1.786  1.00  0.00     0.002 A 
ATOM     68  C   UNL     1     -10.053  -6.516   2.526  1.00  0.00     0.091 A 
ATOM     69  F   UNL     1      -8.423  -5.784   1.064  1.00  0.00    -0.205 F 
ATOM     70  C   UNL     1     -11.246  -7.193   2.760  1.00  0.00     0.022 A 
BRANCH  68  71
ATOM     71  S   UNL     1      -9.405  -5.437   3.813  1.00  0.00     0.127 S 
ATOM     72  O   UNL     1     -10.365  -4.339   3.780  1.00  0.00    -0.237 OA
ATOM     73  O   UNL     1      -9.485  -6.302   4.990  1.00  0.00    -0.237 OA
ATOM     74  O   UNL     1      -8.043  -5.109   3.410  1.00  0.00    -0.744 OA
ENDBRANCH  68  71
ENDBRANCH  50  64
BRANCH  51  75
ATOM     75  C   UNL     1     -10.223   0.473  -2.786  1.00  0.00     0.023 A 
ATOM     76  C   UNL     1     -11.487   1.092  -2.694  1.00  0.00     0.012 A 
ATOM     77  C   UNL     1      -9.131   1.096  -2.141  1.00  0.00     0.148 A 
ATOM     78  C   UNL     1     -11.664   2.271  -1.956  1.00  0.00     0.002 A 
ATOM     79  C   UNL     1      -9.311   2.268  -1.409  1.00  0.00     0.091 A 
ATOM     80  F   UNL     1      -7.938   0.489  -2.170  1.00  0.00    -0.205 F 
ATOM     81  C   UNL     1     -10.580   2.853  -1.305  1.00  0.00     0.022 A 
BRANCH  79  82
ATOM     82  S   UNL     1      -7.968   3.060  -0.513  1.00  0.00     0.127 S 
ATOM     83  O   UNL     1      -8.048   4.436  -1.005  1.00  0.00    -0.237 OA
ATOM     84  O   UNL     1      -8.384   2.882   0.876  1.00  0.00    -0.237 OA
ATOM     85  O   UNL     1      -6.756   2.352  -0.904  1.00  0.00    -0.744 OA
ENDBRANCH  79  82
ENDBRANCH  51  75
BRANCH  63  86
ATOM     86  C   UNL     1     -11.844  -4.852  -5.617  1.00  0.00     0.023 A 
ATOM     87  C   UNL     1     -10.918  -4.139  -6.410  1.00  0.00     0.012 A 
ATOM     88  C   UNL     1     -12.882  -5.552  -6.251  1.00  0.00     0.148 A 
ATOM     89  C   UNL     1     -11.041  -4.115  -7.804  1.00  0.00     0.002 A 
ATOM     90  C   UNL     1     -12.974  -5.564  -7.636  1.00  0.00     0.091 A 
ATOM     91  F   UNL     1     -13.750  -6.225  -5.480  1.00  0.00    -0.205 F 
ATOM     92  C   UNL     1     -12.061  -4.840  -8.418  1.00  0.00     0.022 A 
BRANCH  90  93
ATOM     93  S   UNL     1     -14.190  -6.576  -8.479  1.00  0.00     0.127 S 
ATOM     94  O   UNL     1     -15.141  -5.574  -8.956  1.00  0.00    -0.237 OA
ATOM     95  O   UNL     1     -13.393  -7.213  -9.529  1.00  0.00    -0.237 OA
ATOM     96  O   UNL     1     -14.705  -7.504  -7.479  1.00  0.00    -0.744 OA
ENDBRANCH  90  93
ENDBRANCH  63  86
ENDBRANCH  37  38
ENDBRANCH  30  32
ENDBRANCH  29  30
ENDBRANCH  28  29
ENDBRANCH  27  28
ENDBRANCH   1  27
TORSDOF 21
