REMARK SMILES O=C(OCCOCCOC(=O)[C@@H]1[C@@H](C(=O)Nc2cccc(C(F)(F)F)c2)[C@@H]2C=C[C@H]1O2)c1ccc(-c2c3nc(c(-c4cccc(S(=O)(=O)[O-])c4F)c4ccc([nH]4)c(-c4cccc(S(=O)(=O)[O-])c4F)c4nc(c(-c5cccc(S(=O)(=O)[O-])c5F)c5ccc2[nH]5)C=C4)C=C3)cc1
REMARK SMILES IDX 6 1 5 2 4 3 3 4 2 5 1 6 32 7 33 8 94 9 34 10 93 11 35 12
REMARK SMILES IDX 36 13 37 14 87 15 38 16 92 17 86 18 88 19 39 20 91 21 85 22
REMARK SMILES IDX 84 23 40 25 72 26 52 27 71 28 53 29 56 30 70 31 89 32 54 33
REMARK SMILES IDX 55 34 69 36 90 37 57 38 41 39 42 40 50 41 43 42 45 43 51 44
REMARK SMILES IDX 44 45 46 46 47 47 48 48 49 49 73 50 74 51 82 52 75 53 77 54
REMARK SMILES IDX 83 55 76 56 78 57 79 58 80 59 81 60 58 61 59 62 67 63 60 64
REMARK SMILES IDX 62 65 68 66 61 67 63 68 64 69 65 70 66 71 7 72 8 73 9 74
REMARK SMILES IDX 10 75 11 76 12 77 13 78 30 79 27 80 29 81 31 82 28 83 14 84
REMARK SMILES IDX 15 85 16 86 17 88 18 89 26 90 19 91 21 92 20 93 22 94 23 95
REMARK SMILES IDX 24 96 25 97
REMARK H PARENT 88 24 56 35 16 87
REMARK Flexibility Score: inf
ROOT
ATOM      1  O   UNL     1       4.137  -1.291  -1.043  1.00  0.00    -0.374 OA
ENDROOT
BRANCH   1   2
ATOM      2  C   UNL     1       4.617  -1.204   0.302  1.00  0.00     0.202 C 
BRANCH   2   3
ATOM      3  C   UNL     1       4.291   0.023   1.157  1.00  0.00     0.261 C 
BRANCH   3   4
ATOM      4  O   UNL     1       2.879   0.254   1.199  1.00  0.00    -0.460 OA
BRANCH   4   5
ATOM      5  C   UNL     1       2.180   1.114   0.422  1.00  0.00     0.338 C 
ATOM      6  O   UNL     1       0.964   1.195   0.582  1.00  0.00    -0.246 OA
BRANCH   5   7
ATOM      7  C   UNL     1       2.819   1.942  -0.645  1.00  0.00     0.060 A 
ATOM      8  C   UNL     1       4.001   1.609  -1.316  1.00  0.00     0.016 A 
ATOM      9  C   UNL     1       2.123   3.082  -1.066  1.00  0.00     0.016 A 
ATOM     10  C   UNL     1       4.503   2.362  -2.349  1.00  0.00     0.010 A 
ATOM     11  C   UNL     1       2.622   3.864  -2.106  1.00  0.00     0.010 A 
ATOM     12  C   UNL     1       3.819   3.498  -2.730  1.00  0.00    -0.014 A 
BRANCH  12  13
ATOM     13  C   UNL     1       4.513   4.377  -3.662  1.00  0.00     0.031 A 
ATOM     14  C   UNL     1       5.252   5.528  -3.076  1.00  0.00     0.074 A 
ATOM     15  C   UNL     1       4.561   4.048  -4.960  1.00  0.00     0.049 A 
ATOM     16  N   UNL     1       5.832   6.522  -3.678  1.00  0.00    -0.248 NA
ATOM     17  C   UNL     1       5.357   5.559  -1.604  1.00  0.00     0.031 C 
ATOM     18  C   UNL     1       3.990   2.832  -5.545  1.00  0.00     0.029 A 
ATOM     19  N   UNL     1       5.104   4.715  -6.019  1.00  0.00    -0.354 N 
ATOM     20  C   UNL     1       6.297   7.341  -2.661  1.00  0.00     0.074 A 
ATOM     21  C   UNL     1       5.974   6.710  -1.404  1.00  0.00     0.031 C 
ATOM     22  C   UNL     1       4.166   2.868  -6.875  1.00  0.00     0.029 A 
ATOM     23  C   UNL     1       4.791   4.137  -7.224  1.00  0.00     0.049 A 
ATOM     24  H   UNL     1       5.659   5.523  -5.929  1.00  0.00     0.167 HD
ATOM     25  C   UNL     1       6.910   8.537  -2.791  1.00  0.00     0.034 A 
ATOM     26  C   UNL     1       4.929   4.637  -8.464  1.00  0.00     0.034 A 
ATOM     27  C   UNL     1       7.187   9.115  -4.074  1.00  0.00     0.049 A 
ATOM     28  C   UNL     1       5.552   5.999  -8.589  1.00  0.00     0.074 A 
ATOM     29  C   UNL     1       7.770  10.329  -4.369  1.00  0.00     0.029 A 
ATOM     30  N   UNL     1       6.872   8.506  -5.285  1.00  0.00    -0.354 N 
ATOM     31  N   UNL     1       5.982   6.795  -7.636  1.00  0.00    -0.248 NA
ATOM     32  C   UNL     1       5.725   6.532  -9.943  1.00  0.00     0.031 C 
ATOM     33  C   UNL     1       7.767  10.472  -5.761  1.00  0.00     0.029 A 
ATOM     34  C   UNL     1       7.235   9.323  -6.334  1.00  0.00     0.049 A 
ATOM     35  H   UNL     1       6.452   7.620  -5.378  1.00  0.00     0.167 HD
ATOM     36  C   UNL     1       6.514   7.906  -8.271  1.00  0.00     0.074 A 
ATOM     37  C   UNL     1       6.348   7.678  -9.697  1.00  0.00     0.031 C 
ATOM     38  C   UNL     1       7.086   9.014  -7.737  1.00  0.00     0.034 A 
BRANCH  25  39
ATOM     39  C   UNL     1       7.207   9.290  -1.526  1.00  0.00     0.023 A 
ATOM     40  C   UNL     1       8.188   8.827  -0.625  1.00  0.00     0.012 A 
ATOM     41  C   UNL     1       6.450  10.431  -1.195  1.00  0.00     0.148 A 
ATOM     42  C   UNL     1       8.370   9.453   0.609  1.00  0.00     0.002 A 
ATOM     43  C   UNL     1       6.673  11.079   0.013  1.00  0.00     0.091 A 
ATOM     44  F   UNL     1       5.494  10.833  -2.044  1.00  0.00    -0.205 F 
ATOM     45  C   UNL     1       7.618  10.582   0.924  1.00  0.00     0.022 A 
BRANCH  43  46
ATOM     46  S   UNL     1       5.799  12.577   0.476  1.00  0.00     0.127 S 
ATOM     47  O   UNL     1       4.922  12.091   1.540  1.00  0.00    -0.237 OA
ATOM     48  O   UNL     1       6.890  13.438   0.931  1.00  0.00    -0.237 OA
ATOM     49  O   UNL     1       5.125  13.039  -0.729  1.00  0.00    -0.744 OA
ENDBRANCH  43  46
ENDBRANCH  25  39
BRANCH  26  50
ATOM     50  C   UNL     1       4.439   3.856  -9.631  1.00  0.00     0.023 A 
ATOM     51  C   UNL     1       5.358   3.291 -10.533  1.00  0.00     0.012 A 
ATOM     52  C   UNL     1       3.062   3.596  -9.799  1.00  0.00     0.148 A 
ATOM     53  C   UNL     1       4.915   2.493 -11.590  1.00  0.00     0.002 A 
ATOM     54  C   UNL     1       2.632   2.759 -10.821  1.00  0.00     0.091 A 
ATOM     55  F   UNL     1       2.202   4.147  -8.931  1.00  0.00    -0.205 F 
ATOM     56  C   UNL     1       3.556   2.217 -11.727  1.00  0.00     0.022 A 
BRANCH  54  57
ATOM     57  S   UNL     1       0.919   2.244 -10.997  1.00  0.00     0.127 S 
ATOM     58  O   UNL     1       0.552   2.860 -12.270  1.00  0.00    -0.237 OA
ATOM     59  O   UNL     1       1.046   0.787 -11.031  1.00  0.00    -0.237 OA
ATOM     60  O   UNL     1       0.225   2.763  -9.826  1.00  0.00    -0.744 OA
ENDBRANCH  54  57
ENDBRANCH  26  50
BRANCH  38  61
ATOM     61  C   UNL     1       7.640  10.032  -8.691  1.00  0.00     0.023 A 
ATOM     62  C   UNL     1       6.776  10.909  -9.370  1.00  0.00     0.012 A 
ATOM     63  C   UNL     1       9.034  10.204  -8.783  1.00  0.00     0.148 A 
ATOM     64  C   UNL     1       7.298  11.946 -10.140  1.00  0.00     0.002 A 
ATOM     65  C   UNL     1       9.544  11.272  -9.502  1.00  0.00     0.091 A 
ATOM     66  F   UNL     1       9.828   9.338  -8.137  1.00  0.00    -0.205 F 
ATOM     67  C   UNL     1       8.678  12.139 -10.191  1.00  0.00     0.022 A 
BRANCH  65  68
ATOM     68  S   UNL     1      11.294  11.668  -9.518  1.00  0.00     0.127 S 
ATOM     69  O   UNL     1      11.648  11.392 -10.909  1.00  0.00    -0.237 OA
ATOM     70  O   UNL     1      11.291  13.086  -9.157  1.00  0.00    -0.237 OA
ATOM     71  O   UNL     1      11.917  10.793  -8.534  1.00  0.00    -0.744 OA
ENDBRANCH  65  68
ENDBRANCH  38  61
ENDBRANCH  12  13
ENDBRANCH   5   7
ENDBRANCH   4   5
ENDBRANCH   3   4
ENDBRANCH   2   3
ENDBRANCH   1   2
BRANCH   1  72
ATOM     72  C   UNL     1       2.737  -1.496  -1.274  1.00  0.00     0.202 C 
BRANCH  72  73
ATOM     73  C   UNL     1       2.551  -2.541  -2.378  1.00  0.00     0.261 C 
BRANCH  73  74
ATOM     74  O   UNL     1       2.890  -3.810  -1.814  1.00  0.00    -0.463 OA
BRANCH  74  75
ATOM     75  C   UNL     1       4.224  -4.026  -1.731  1.00  0.00     0.312 C 
ATOM     76  O   UNL     1       5.005  -3.868  -2.655  1.00  0.00    -0.252 OA
BRANCH  75  77
ATOM     77  C   UNL     1       4.637  -4.471  -0.353  1.00  0.00     0.147 C 
ATOM     78  C   UNL     1       5.119  -5.948  -0.386  1.00  0.00     0.129 C 
ATOM     79  C   UNL     1       3.568  -4.487   0.764  1.00  0.00     0.157 C 
ATOM     80  C   UNL     1       4.240  -6.526   0.742  1.00  0.00     0.155 C 
ATOM     81  C   UNL     1       2.363  -5.293   0.416  1.00  0.00     0.004 C 
ATOM     82  O   UNL     1       4.208  -5.415   1.670  1.00  0.00    -0.365 OA
ATOM     83  C   UNL     1       2.791  -6.555   0.333  1.00  0.00     0.004 C 
BRANCH  78  84
ATOM     84  C   UNL     1       6.641  -5.983  -0.169  1.00  0.00     0.231 C 
ATOM     85  O   UNL     1       7.353  -5.002  -0.404  1.00  0.00    -0.274 OA
ATOM     86  N   UNL     1       7.292  -7.098   0.281  1.00  0.00    -0.326 N 
ATOM     87  H   UNL     1       8.266  -7.015   0.391  1.00  0.00     0.169 HD
BRANCH  86  88
ATOM     88  C   UNL     1       6.744  -8.336   0.604  1.00  0.00     0.041 A 
ATOM     89  C   UNL     1       7.022  -8.849   1.870  1.00  0.00     0.026 A 
ATOM     90  C   UNL     1       5.793  -8.942  -0.218  1.00  0.00     0.039 A 
ATOM     91  C   UNL     1       6.231  -9.878   2.376  1.00  0.00     0.003 A 
ATOM     92  C   UNL     1       4.952  -9.932   0.305  1.00  0.00     0.058 A 
ATOM     93  C   UNL     1       5.184 -10.397   1.609  1.00  0.00     0.013 A 
BRANCH  92  94
ATOM     94  C   UNL     1       3.738 -10.377  -0.471  1.00  0.00     0.416 C 
ATOM     95  F   UNL     1       3.818 -11.667  -0.889  1.00  0.00    -0.166 F 
ATOM     96  F   UNL     1       2.597 -10.284   0.268  1.00  0.00    -0.166 F 
ATOM     97  F   UNL     1       3.509  -9.626  -1.585  1.00  0.00    -0.166 F 
ENDBRANCH  92  94
ENDBRANCH  86  88
ENDBRANCH  78  84
ENDBRANCH  75  77
ENDBRANCH  74  75
ENDBRANCH  73  74
ENDBRANCH  72  73
ENDBRANCH   1  72
TORSDOF 20
