REMARK SMILES CCc1cc(C(=O)N[C@@H]2C=C[C@H](C(=O)OCCOCCOC(=O)c3ccc(-c4c5nc(c(-c6cccc(S(=O)(=O)[O-])c6F)c6ccc([nH]6)c(-c6cccc(S(=O)(=O)[O-])c6F)c6nc(c(-c7cccc(S(=O)(=O)[O-])c7F)c7ccc4[nH]7)C=C6)C=C5)cc3)C2)n(C)n1
REMARK SMILES IDX 18 1 17 2 16 3 15 4 13 5 14 6 12 7 9 8 10 9 87 10 11 11 8 12
REMARK SMILES IDX 6 13 7 14 5 16 3 17 4 18 90 19 88 20 89 21 2 22 1 23 19 24
REMARK SMILES IDX 20 25 21 26 22 27 23 28 24 29 25 30 86 31 26 32 85 33 27 34
REMARK SMILES IDX 28 35 29 36 79 37 30 38 84 39 78 40 80 41 31 42 83 43 77 44
REMARK SMILES IDX 76 45 32 47 64 48 44 49 63 50 45 51 48 52 62 53 81 54 46 55
REMARK SMILES IDX 47 56 61 58 82 59 49 60 33 61 34 62 42 63 35 64 37 65 43 66
REMARK SMILES IDX 36 67 38 68 39 69 40 70 41 71 65 72 66 73 74 74 67 75 69 76
REMARK SMILES IDX 75 77 68 78 70 79 71 80 72 81 73 82 50 83 51 84 59 85 52 86
REMARK SMILES IDX 54 87 60 88 53 89 55 90 56 91 57 92 58 93
REMARK H PARENT 8 15 80 46 48 57
REMARK Flexibility Score: inf
ROOT
ATOM      1  O   UNL     1       4.582   0.649  -6.118  1.00  0.00    -0.374 OA
ENDROOT
BRANCH   1   2
ATOM      2  C   UNL     1       4.249   1.652  -7.074  1.00  0.00     0.202 C 
BRANCH   2   3
ATOM      3  C   UNL     1       3.257   2.741  -6.666  1.00  0.00     0.261 C 
BRANCH   3   4
ATOM      4  O   UNL     1       3.789   3.665  -5.705  1.00  0.00    -0.463 OA
BRANCH   4   5
ATOM      5  C   UNL     1       3.285   3.578  -4.447  1.00  0.00     0.312 C 
ATOM      6  O   UNL     1       2.558   2.674  -4.050  1.00  0.00    -0.252 OA
BRANCH   5   7
ATOM      7  C   UNL     1       3.799   4.660  -3.510  1.00  0.00     0.124 C 
ATOM      8  C   UNL     1       2.202   6.469  -3.674  1.00  0.00     0.106 C 
ATOM      9  C   UNL     1       3.510   6.828  -4.325  1.00  0.00    -0.006 C 
ATOM     10  C   UNL     1       2.651   5.349  -2.772  1.00  0.00     0.048 C 
ATOM     11  C   UNL     1       4.404   5.836  -4.212  1.00  0.00    -0.014 C 
BRANCH   8  12
ATOM     12  N   UNL     1       1.222   6.213  -4.715  1.00  0.00    -0.344 N 
ATOM     13  C   UNL     1       0.259   5.375  -5.193  1.00  0.00     0.270 C 
ATOM     14  O   UNL     1      -0.368   5.938  -6.105  1.00  0.00    -0.268 OA
ATOM     15  H   UNL     1       1.276   6.969  -5.344  1.00  0.00     0.164 HD
BRANCH  13  16
ATOM     16  C   UNL     1      -0.036   3.969  -4.954  1.00  0.00     0.126 A 
ATOM     17  C   UNL     1      -0.759   1.911  -5.566  1.00  0.00     0.063 A 
ATOM     18  C   UNL     1      -0.287   3.134  -6.055  1.00  0.00     0.059 A 
ATOM     19  N   UNL     1      -0.959   1.998  -4.258  1.00  0.00    -0.178 NA
ATOM     20  N   UNL     1      -0.324   3.135  -3.887  1.00  0.00    -0.263 N 
ATOM     21  C   UNL     1      -0.040   3.149  -2.477  1.00  0.00     0.174 C 
BRANCH  17  22
ATOM     22  C   UNL     1      -1.051   0.641  -6.282  1.00  0.00     0.055 C 
ATOM     23  C   UNL     1      -0.615  -0.582  -5.476  1.00  0.00     0.011 C 
ENDBRANCH  17  22
ENDBRANCH  13  16
ENDBRANCH   8  12
ENDBRANCH   5   7
ENDBRANCH   4   5
ENDBRANCH   3   4
ENDBRANCH   2   3
ENDBRANCH   1   2
BRANCH   1  24
ATOM     24  C   UNL     1       5.251   1.023  -4.920  1.00  0.00     0.202 C 
BRANCH  24  25
ATOM     25  C   UNL     1       6.683   1.561  -5.009  1.00  0.00     0.261 C 
BRANCH  25  26
ATOM     26  O   UNL     1       6.825   2.710  -5.859  1.00  0.00    -0.460 OA
BRANCH  26  27
ATOM     27  C   UNL     1       7.524   2.476  -6.993  1.00  0.00     0.338 C 
ATOM     28  O   UNL     1       8.057   1.415  -7.323  1.00  0.00    -0.246 OA
BRANCH  27  29
ATOM     29  C   UNL     1       7.449   3.619  -7.913  1.00  0.00     0.060 A 
ATOM     30  C   UNL     1       7.005   3.367  -9.218  1.00  0.00     0.016 A 
ATOM     31  C   UNL     1       7.920   4.883  -7.553  1.00  0.00     0.016 A 
ATOM     32  C   UNL     1       7.091   4.361 -10.187  1.00  0.00     0.010 A 
ATOM     33  C   UNL     1       8.013   5.879  -8.532  1.00  0.00     0.010 A 
ATOM     34  C   UNL     1       7.643   5.606  -9.861  1.00  0.00    -0.014 A 
BRANCH  34  35
ATOM     35  C   UNL     1       7.973   6.552 -10.954  1.00  0.00     0.031 A 
ATOM     36  C   UNL     1       9.391   6.625 -11.453  1.00  0.00     0.074 A 
ATOM     37  C   UNL     1       7.016   7.310 -11.516  1.00  0.00     0.049 A 
ATOM     38  N   UNL     1       9.892   7.352 -12.417  1.00  0.00    -0.248 NA
ATOM     39  C   UNL     1      10.376   5.765 -10.776  1.00  0.00     0.031 C 
ATOM     40  C   UNL     1       5.609   7.325 -11.117  1.00  0.00     0.029 A 
ATOM     41  N   UNL     1       7.089   8.225 -12.536  1.00  0.00    -0.354 N 
ATOM     42  C   UNL     1      11.250   7.057 -12.449  1.00  0.00     0.074 A 
ATOM     43  C   UNL     1      11.499   6.097 -11.396  1.00  0.00     0.031 C 
ATOM     44  C   UNL     1       4.954   8.225 -11.870  1.00  0.00     0.029 A 
ATOM     45  C   UNL     1       5.896   8.856 -12.793  1.00  0.00     0.049 A 
ATOM     46  H   UNL     1       7.916   8.411 -13.035  1.00  0.00     0.167 HD
ATOM     47  C   UNL     1      12.200   7.526 -13.292  1.00  0.00     0.034 A 
ATOM     48  C   UNL     1       5.601   9.837 -13.669  1.00  0.00     0.034 A 
ATOM     49  C   UNL     1      11.945   8.462 -14.354  1.00  0.00     0.049 A 
ATOM     50  C   UNL     1       6.678  10.344 -14.593  1.00  0.00     0.074 A 
ATOM     51  C   UNL     1      12.832   8.965 -15.289  1.00  0.00     0.029 A 
ATOM     52  N   UNL     1      10.714   9.043 -14.616  1.00  0.00    -0.354 N 
ATOM     53  N   UNL     1       7.929   9.963 -14.693  1.00  0.00    -0.248 NA
ATOM     54  C   UNL     1       6.291  11.388 -15.554  1.00  0.00     0.031 C 
ATOM     55  C   UNL     1      12.140   9.866 -16.106  1.00  0.00     0.029 A 
ATOM     56  C   UNL     1      10.817   9.905 -15.694  1.00  0.00     0.049 A 
ATOM     57  H   UNL     1       9.888   8.868 -14.111  1.00  0.00     0.167 HD
ATOM     58  C   UNL     1       8.467  10.690 -15.749  1.00  0.00     0.074 A 
ATOM     59  C   UNL     1       7.400  11.521 -16.269  1.00  0.00     0.031 C 
ATOM     60  C   UNL     1       9.732  10.682 -16.237  1.00  0.00     0.034 A 
BRANCH  47  61
ATOM     61  C   UNL     1      13.604   7.008 -13.120  1.00  0.00     0.023 A 
ATOM     62  C   UNL     1      13.912   5.691 -13.517  1.00  0.00     0.012 A 
ATOM     63  C   UNL     1      14.626   7.836 -12.618  1.00  0.00     0.148 A 
ATOM     64  C   UNL     1      15.209   5.196 -13.389  1.00  0.00     0.002 A 
ATOM     65  C   UNL     1      15.925   7.349 -12.532  1.00  0.00     0.091 A 
ATOM     66  F   UNL     1      14.308   9.076 -12.222  1.00  0.00    -0.205 F 
ATOM     67  C   UNL     1      16.217   6.027 -12.907  1.00  0.00     0.022 A 
BRANCH  65  68
ATOM     68  S   UNL     1      17.305   8.366 -11.992  1.00  0.00     0.127 S 
ATOM     69  O   UNL     1      17.580   7.811 -10.668  1.00  0.00    -0.237 OA
ATOM     70  O   UNL     1      18.322   8.068 -13.001  1.00  0.00    -0.237 OA
ATOM     71  O   UNL     1      16.820   9.739 -12.008  1.00  0.00    -0.744 OA
ENDBRANCH  65  68
ENDBRANCH  47  61
BRANCH  48  72
ATOM     72  C   UNL     1       4.213  10.370 -13.747  1.00  0.00     0.023 A 
ATOM     73  C   UNL     1       3.423  10.094 -14.880  1.00  0.00     0.012 A 
ATOM     74  C   UNL     1       3.664  11.129 -12.695  1.00  0.00     0.148 A 
ATOM     75  C   UNL     1       2.122  10.589 -14.976  1.00  0.00     0.002 A 
ATOM     76  C   UNL     1       2.350  11.574 -12.774  1.00  0.00     0.091 A 
ATOM     77  F   UNL     1       4.439  11.397 -11.634  1.00  0.00    -0.205 F 
ATOM     78  C   UNL     1       1.582  11.319 -13.920  1.00  0.00     0.022 A 
BRANCH  76  79
ATOM     79  S   UNL     1       1.540  12.413 -11.408  1.00  0.00     0.127 S 
ATOM     80  O   UNL     1       1.484  13.790 -11.893  1.00  0.00    -0.237 OA
ATOM     81  O   UNL     1       0.249  11.727 -11.352  1.00  0.00    -0.237 OA
ATOM     82  O   UNL     1       2.390  12.182 -10.248  1.00  0.00    -0.744 OA
ENDBRANCH  76  79
ENDBRANCH  48  72
BRANCH  60  83
ATOM     83  C   UNL     1      10.033  11.567 -17.419  1.00  0.00     0.023 A 
ATOM     84  C   UNL     1      10.119  12.963 -17.246  1.00  0.00     0.012 A 
ATOM     85  C   UNL     1      10.304  11.010 -18.684  1.00  0.00     0.148 A 
ATOM     86  C   UNL     1      10.435  13.792 -18.321  1.00  0.00     0.002 A 
ATOM     87  C   UNL     1      10.665  11.838 -19.740  1.00  0.00     0.091 A 
ATOM     88  F   UNL     1      10.199   9.681 -18.835  1.00  0.00    -0.205 F 
ATOM     89  C   UNL     1      10.720  13.230 -19.564  1.00  0.00     0.022 A 
BRANCH  87  90
ATOM     90  S   UNL     1      11.142  11.190 -21.347  1.00  0.00     0.127 S 
ATOM     91  O   UNL     1       9.950  11.467 -22.146  1.00  0.00    -0.237 OA
ATOM     92  O   UNL     1      12.306  12.011 -21.683  1.00  0.00    -0.237 OA
ATOM     93  O   UNL     1      11.443   9.781 -21.133  1.00  0.00    -0.744 OA
ENDBRANCH  87  90
ENDBRANCH  60  83
ENDBRANCH  34  35
ENDBRANCH  27  29
ENDBRANCH  26  27
ENDBRANCH  25  26
ENDBRANCH  24  25
ENDBRANCH   1  24
TORSDOF 20
