REMARK SMILES Cc1ccccc1CNc1ccc(C(=O)OCCOCCOC(=O)c2ccc(-c3c4nc(c(-c5cccc(S(=O)(=O)[O-])c5F)c5ccc([nH]5)c(-c5cccc(S(=O)(=O)[O-])c5F)c5nc(c(-c6cccc(S(=O)(=O)[O-])c6F)c6ccc3[nH]6)C=C5)C=C4)cc2)c(F)c1F
REMARK SMILES IDX 19 1 18 2 17 3 16 4 14 5 15 6 13 7 10 8 11 9 90 10 12 11
REMARK SMILES IDX 88 12 91 13 89 14 9 15 8 17 7 18 1 19 2 20 3 21 4 22 6 23
REMARK SMILES IDX 5 24 20 25 21 26 22 27 23 28 24 29 25 30 26 31 87 32 27 33
REMARK SMILES IDX 86 34 28 35 29 36 30 37 80 38 31 39 85 40 79 41 81 42 32 43
REMARK SMILES IDX 84 44 78 45 77 46 33 48 65 49 45 50 64 51 46 52 49 53 63 54
REMARK SMILES IDX 82 55 47 56 48 57 62 59 83 60 50 61 34 62 35 63 43 64 36 65
REMARK SMILES IDX 38 66 44 67 37 68 39 69 40 70 41 71 42 72 66 73 67 74 75 75
REMARK SMILES IDX 68 76 70 77 76 78 69 79 71 80 72 81 73 82 74 83 51 84 52 85
REMARK SMILES IDX 60 86 53 87 55 88 61 89 54 90 56 91 57 92 58 93 59 94
REMARK H PARENT 9 16 81 47 49 58
REMARK Flexibility Score: inf
ROOT
ATOM      1  O   UNL     1      -0.789   9.707  -2.593  1.00  0.00    -0.374 OA
ENDROOT
BRANCH   1   2
ATOM      2  C   UNL     1       0.177  10.280  -1.734  1.00  0.00     0.202 C 
BRANCH   2   3
ATOM      3  C   UNL     1      -0.359   9.995  -0.373  1.00  0.00     0.261 C 
BRANCH   3   4
ATOM      4  O   UNL     1      -0.382   8.566  -0.157  1.00  0.00    -0.460 OA
BRANCH   4   5
ATOM      5  C   UNL     1      -1.333   7.776  -0.749  1.00  0.00     0.341 C 
ATOM      6  O   UNL     1      -2.413   8.068  -1.175  1.00  0.00    -0.246 OA
BRANCH   5   7
ATOM      7  C   UNL     1      -0.723   6.449  -0.898  1.00  0.00     0.099 A 
ATOM      8  C   UNL     1       0.580   4.034  -1.300  1.00  0.00     0.074 A 
ATOM      9  C   UNL     1       1.107   4.972  -0.410  1.00  0.00     0.030 A 
ATOM     10  C   UNL     1      -0.581   4.342  -2.024  1.00  0.00     0.182 A 
ATOM     11  C   UNL     1       0.433   6.148  -0.170  1.00  0.00     0.021 A 
ATOM     12  C   UNL     1      -1.233   5.549  -1.830  1.00  0.00     0.175 A 
ATOM     13  F   UNL     1      -1.085   3.437  -2.879  1.00  0.00    -0.201 F 
ATOM     14  F   UNL     1      -2.335   5.810  -2.548  1.00  0.00    -0.203 F 
BRANCH   8  15
ATOM     15  N   UNL     1       1.107   2.739  -1.295  1.00  0.00    -0.379 N 
ATOM     16  H   UNL     1       1.410   2.271  -2.106  1.00  0.00     0.161 HD
BRANCH  15  17
ATOM     17  C   UNL     1       1.159   2.159   0.041  1.00  0.00     0.149 C 
BRANCH  17  18
ATOM     18  C   UNL     1       0.416   0.856   0.038  1.00  0.00    -0.026 A 
ATOM     19  C   UNL     1       2.554  -0.546  -0.065  1.00  0.00     0.044 C 
ATOM     20  C   UNL     1       1.059  -0.389  -0.015  1.00  0.00    -0.046 A 
ATOM     21  C   UNL     1       0.268  -1.547  -0.014  1.00  0.00     0.004 A 
ATOM     22  C   UNL     1      -1.127  -1.472   0.010  1.00  0.00     0.000 A 
ATOM     23  C   UNL     1      -0.995   0.920   0.048  1.00  0.00     0.006 A 
ATOM     24  C   UNL     1      -1.762  -0.237   0.033  1.00  0.00     0.000 A 
ENDBRANCH  17  18
ENDBRANCH  15  17
ENDBRANCH   8  15
ENDBRANCH   5   7
ENDBRANCH   4   5
ENDBRANCH   3   4
ENDBRANCH   2   3
ENDBRANCH   1   2
BRANCH   1  25
ATOM     25  C   UNL     1      -0.462   9.603  -3.952  1.00  0.00     0.202 C 
BRANCH  25  26
ATOM     26  C   UNL     1      -0.241  10.982  -4.563  1.00  0.00     0.261 C 
BRANCH  26  27
ATOM     27  O   UNL     1      -1.474  11.733  -4.486  1.00  0.00    -0.460 OA
BRANCH  27  28
ATOM     28  C   UNL     1      -1.540  12.648  -3.473  1.00  0.00     0.338 C 
ATOM     29  O   UNL     1      -0.710  13.525  -3.299  1.00  0.00    -0.246 OA
BRANCH  28  30
ATOM     30  C   UNL     1      -2.615  12.274  -2.499  1.00  0.00     0.060 A 
ATOM     31  C   UNL     1      -2.660  12.881  -1.230  1.00  0.00     0.016 A 
ATOM     32  C   UNL     1      -3.367  11.126  -2.731  1.00  0.00     0.016 A 
ATOM     33  C   UNL     1      -3.289  12.235  -0.151  1.00  0.00     0.010 A 
ATOM     34  C   UNL     1      -3.922  10.462  -1.652  1.00  0.00     0.010 A 
ATOM     35  C   UNL     1      -3.822  10.968  -0.341  1.00  0.00    -0.014 A 
BRANCH  35  36
ATOM     36  C   UNL     1      -4.308  10.062   0.710  1.00  0.00     0.031 A 
ATOM     37  C   UNL     1      -5.757   9.779   0.710  1.00  0.00     0.074 A 
ATOM     38  C   UNL     1      -3.483   9.243   1.417  1.00  0.00     0.049 A 
ATOM     39  N   UNL     1      -6.339   9.022   1.572  1.00  0.00    -0.248 NA
ATOM     40  C   UNL     1      -6.694  10.381  -0.242  1.00  0.00     0.031 C 
ATOM     41  C   UNL     1      -3.748   7.849   1.798  1.00  0.00     0.029 A 
ATOM     42  N   UNL     1      -2.173   9.428   1.866  1.00  0.00    -0.354 N 
ATOM     43  C   UNL     1      -7.579   8.731   1.061  1.00  0.00     0.074 A 
ATOM     44  C   UNL     1      -7.824   9.737   0.065  1.00  0.00     0.031 C 
ATOM     45  C   UNL     1      -2.745   7.381   2.561  1.00  0.00     0.029 A 
ATOM     46  C   UNL     1      -1.873   8.498   2.868  1.00  0.00     0.049 A 
ATOM     47  H   UNL     1      -1.552  10.113   1.527  1.00  0.00     0.167 HD
ATOM     48  C   UNL     1      -8.160   7.558   1.423  1.00  0.00     0.034 A 
ATOM     49  C   UNL     1      -1.404   8.894   4.084  1.00  0.00     0.034 A 
ATOM     50  C   UNL     1      -7.406   6.918   2.525  1.00  0.00     0.049 A 
ATOM     51  C   UNL     1      -2.445   8.581   5.126  1.00  0.00     0.074 A 
ATOM     52  C   UNL     1      -6.601   5.795   2.603  1.00  0.00     0.029 A 
ATOM     53  N   UNL     1      -7.178   7.636   3.706  1.00  0.00    -0.354 N 
ATOM     54  N   UNL     1      -3.592   8.048   4.809  1.00  0.00    -0.248 NA
ATOM     55  C   UNL     1      -2.325   8.786   6.563  1.00  0.00     0.031 C 
ATOM     56  C   UNL     1      -5.805   5.909   3.784  1.00  0.00     0.029 A 
ATOM     57  C   UNL     1      -6.159   7.068   4.462  1.00  0.00     0.049 A 
ATOM     58  H   UNL     1      -7.678   8.442   3.968  1.00  0.00     0.167 HD
ATOM     59  C   UNL     1      -4.409   7.982   5.881  1.00  0.00     0.074 A 
ATOM     60  C   UNL     1      -3.542   8.383   6.981  1.00  0.00     0.031 C 
ATOM     61  C   UNL     1      -5.733   7.675   5.733  1.00  0.00     0.034 A 
BRANCH  48  62
ATOM     62  C   UNL     1      -9.304   6.886   0.676  1.00  0.00     0.023 A 
ATOM     63  C   UNL     1      -9.857   5.732   1.270  1.00  0.00     0.012 A 
ATOM     64  C   UNL     1      -9.840   7.244  -0.594  1.00  0.00     0.148 A 
ATOM     65  C   UNL     1     -10.879   4.990   0.664  1.00  0.00     0.002 A 
ATOM     66  C   UNL     1     -10.915   6.550  -1.161  1.00  0.00     0.091 A 
ATOM     67  F   UNL     1      -9.261   8.197  -1.328  1.00  0.00    -0.205 F 
ATOM     68  C   UNL     1     -11.426   5.411  -0.540  1.00  0.00     0.022 A 
BRANCH  66  69
ATOM     69  S   UNL     1     -11.726   7.075  -2.688  1.00  0.00     0.127 S 
ATOM     70  O   UNL     1     -11.407   5.979  -3.602  1.00  0.00    -0.237 OA
ATOM     71  O   UNL     1     -13.132   7.139  -2.288  1.00  0.00    -0.237 OA
ATOM     72  O   UNL     1     -11.145   8.364  -3.041  1.00  0.00    -0.744 OA
ENDBRANCH  66  69
ENDBRANCH  48  62
BRANCH  49  73
ATOM     73  C   UNL     1      -0.489  10.078   3.975  1.00  0.00     0.023 A 
ATOM     74  C   UNL     1       0.792   9.834   3.410  1.00  0.00     0.012 A 
ATOM     75  C   UNL     1      -1.007  11.386   3.915  1.00  0.00     0.148 A 
ATOM     76  C   UNL     1       1.475  10.826   2.696  1.00  0.00     0.002 A 
ATOM     77  C   UNL     1      -0.352  12.350   3.145  1.00  0.00     0.091 A 
ATOM     78  F   UNL     1      -2.166  11.641   4.533  1.00  0.00    -0.205 F 
ATOM     79  C   UNL     1       0.875  12.068   2.520  1.00  0.00     0.022 A 
BRANCH  77  80
ATOM     80  S   UNL     1      -1.132  13.915   2.719  1.00  0.00     0.127 S 
ATOM     81  O   UNL     1      -0.437  14.845   3.605  1.00  0.00    -0.237 OA
ATOM     82  O   UNL     1      -0.792  14.053   1.302  1.00  0.00    -0.237 OA
ATOM     83  O   UNL     1      -2.551  13.728   2.981  1.00  0.00    -0.744 OA
ENDBRANCH  77  80
ENDBRANCH  49  73
BRANCH  61  84
ATOM     84  C   UNL     1      -6.738   7.942   6.819  1.00  0.00     0.023 A 
ATOM     85  C   UNL     1      -6.513   8.918   7.811  1.00  0.00     0.012 A 
ATOM     86  C   UNL     1      -8.008   7.326   6.795  1.00  0.00     0.148 A 
ATOM     87  C   UNL     1      -7.454   9.192   8.802  1.00  0.00     0.002 A 
ATOM     88  C   UNL     1      -8.991   7.703   7.699  1.00  0.00     0.091 A 
ATOM     89  F   UNL     1      -8.268   6.360   5.903  1.00  0.00    -0.205 F 
ATOM     90  C   UNL     1      -8.704   8.596   8.735  1.00  0.00     0.022 A 
BRANCH  88  91
ATOM     91  S   UNL     1     -10.697   7.194   7.474  1.00  0.00     0.127 S 
ATOM     92  O   UNL     1     -10.799   6.069   8.401  1.00  0.00    -0.237 OA
ATOM     93  O   UNL     1     -11.432   8.393   7.883  1.00  0.00    -0.237 OA
ATOM     94  O   UNL     1     -10.821   6.873   6.059  1.00  0.00    -0.744 OA
ENDBRANCH  88  91
ENDBRANCH  61  84
ENDBRANCH  35  36
ENDBRANCH  28  30
ENDBRANCH  27  28
ENDBRANCH  26  27
ENDBRANCH  25  26
ENDBRANCH   1  25
TORSDOF 20
