REMARK SMILES C[C@@H](C(=O)OCCOCCOC(=O)c1ccc(-c2c3nc(c(-c4cccc(S(=O)(=O)[O-])c4F)c4ccc([nH]4)c(-c4cccc(S(=O)(=O)[O-])c4F)c4nc(c(-c5cccc(S(=O)(=O)[O-])c5F)c5ccc2[nH]5)C=C4)C=C3)cc1)c1ccc(-c2cccc(OC(=O)Nc3ccccc3)c2)c(F)c1
REMARK SMILES IDX 7 1 6 2 5 3 3 4 4 5 2 6 1 7 77 8 78 9 99 10 79 11 97 12
REMARK SMILES IDX 80 13 98 14 81 15 82 16 96 17 83 18 85 19 84 20 86 21 87 22
REMARK SMILES IDX 88 23 89 24 90 26 91 27 95 28 92 29 94 30 93 31 8 32 9 33
REMARK SMILES IDX 10 34 11 35 12 36 13 37 14 38 15 39 76 40 16 41 75 42 17 43
REMARK SMILES IDX 18 44 19 45 69 46 20 47 74 48 68 49 70 50 21 51 73 52 67 53
REMARK SMILES IDX 66 54 22 56 54 57 34 58 53 59 35 60 38 61 52 62 71 63 36 64
REMARK SMILES IDX 37 65 51 67 72 68 39 69 23 70 24 71 32 72 25 73 27 74 33 75
REMARK SMILES IDX 26 76 28 77 29 78 30 79 31 80 55 81 56 82 64 83 57 84 59 85
REMARK SMILES IDX 65 86 58 87 60 88 61 89 62 90 63 91 40 92 41 93 49 94 42 95
REMARK SMILES IDX 44 96 50 97 43 98 45 99 46 100 47 101 48 102
REMARK H PARENT 89 25 70 55 38 66
REMARK Flexibility Score: inf
ROOT
ATOM      1  C   UNL     1       2.361   1.886   4.141  1.00  0.00     0.202 C 
ENDROOT
BRANCH   1   2
ATOM      2  C   UNL     1       2.294   0.356   4.085  1.00  0.00     0.261 C 
BRANCH   2   3
ATOM      3  O   UNL     1       2.024  -0.093   2.743  1.00  0.00    -0.463 OA
BRANCH   3   4
ATOM      4  C   UNL     1       0.987  -0.962   2.602  1.00  0.00     0.313 C 
ATOM      5  O   UNL     1       0.391  -1.479   3.541  1.00  0.00    -0.252 OA
BRANCH   4   6
ATOM      6  C   UNL     1       0.613  -1.211   1.132  1.00  0.00     0.126 C 
ATOM      7  C   UNL     1       1.392  -0.383   0.106  1.00  0.00     0.025 C 
BRANCH   6   8
ATOM      8  C   UNL     1      -0.901  -1.093   0.960  1.00  0.00    -0.031 A 
ATOM      9  C   UNL     1      -1.558   0.136   0.799  1.00  0.00     0.005 A 
ATOM     10  C   UNL     1      -1.687  -2.243   1.101  1.00  0.00     0.044 A 
ATOM     11  C   UNL     1      -2.958   0.222   0.854  1.00  0.00     0.012 A 
ATOM     12  C   UNL     1      -3.076  -2.153   1.138  1.00  0.00     0.131 A 
ATOM     13  C   UNL     1      -3.745  -0.922   1.056  1.00  0.00     0.018 A 
ATOM     14  F   UNL     1      -3.772  -3.290   1.294  1.00  0.00    -0.206 F 
BRANCH  13  15
ATOM     15  C   UNL     1      -5.201  -0.825   1.269  1.00  0.00    -0.012 A 
ATOM     16  C   UNL     1      -6.037  -0.087   0.415  1.00  0.00     0.009 A 
ATOM     17  C   UNL     1      -5.786  -1.465   2.378  1.00  0.00     0.056 A 
ATOM     18  C   UNL     1      -7.413  -0.005   0.654  1.00  0.00     0.004 A 
ATOM     19  C   UNL     1      -7.153  -1.374   2.621  1.00  0.00     0.133 A 
ATOM     20  C   UNL     1      -7.973  -0.651   1.755  1.00  0.00     0.047 A 
BRANCH  19  21
ATOM     21  O   UNL     1      -7.810  -1.980   3.720  1.00  0.00    -0.410 OA
BRANCH  21  22
ATOM     22  C   UNL     1      -7.192  -2.521   4.848  1.00  0.00     0.417 C 
ATOM     23  O   UNL     1      -5.982  -2.614   5.030  1.00  0.00    -0.224 OA
ATOM     24  N   UNL     1      -8.045  -2.868   5.864  1.00  0.00    -0.291 N 
ATOM     25  H   UNL     1      -7.600  -3.109   6.708  1.00  0.00     0.173 HD
BRANCH  24  26
ATOM     26  C   UNL     1      -9.444  -2.937   5.902  1.00  0.00     0.044 A 
ATOM     27  C   UNL     1     -10.046  -2.893   7.165  1.00  0.00     0.026 A 
ATOM     28  C   UNL     1     -10.248  -3.082   4.770  1.00  0.00     0.026 A 
ATOM     29  C   UNL     1     -11.435  -2.941   7.292  1.00  0.00     0.002 A 
ATOM     30  C   UNL     1     -11.639  -3.151   4.899  1.00  0.00     0.002 A 
ATOM     31  C   UNL     1     -12.232  -3.069   6.158  1.00  0.00     0.000 A 
ENDBRANCH  24  26
ENDBRANCH  21  22
ENDBRANCH  19  21
ENDBRANCH  13  15
ENDBRANCH   6   8
ENDBRANCH   4   6
ENDBRANCH   3   4
ENDBRANCH   2   3
ENDBRANCH   1   2
BRANCH   1  32
ATOM     32  O   UNL     1       1.127   2.585   3.950  1.00  0.00    -0.374 OA
BRANCH  32  33
ATOM     33  C   UNL     1       0.579   2.585   2.635  1.00  0.00     0.202 C 
BRANCH  33  34
ATOM     34  C   UNL     1       1.181   3.575   1.630  1.00  0.00     0.261 C 
BRANCH  34  35
ATOM     35  O   UNL     1       2.585   3.362   1.419  1.00  0.00    -0.460 OA
BRANCH  35  36
ATOM     36  C   UNL     1       3.380   4.317   1.965  1.00  0.00     0.338 C 
ATOM     37  O   UNL     1       3.023   5.352   2.502  1.00  0.00    -0.246 OA
BRANCH  36  38
ATOM     38  C   UNL     1       4.780   3.856   1.993  1.00  0.00     0.060 A 
ATOM     39  C   UNL     1       5.439   3.893   3.229  1.00  0.00     0.016 A 
ATOM     40  C   UNL     1       5.458   3.464   0.837  1.00  0.00     0.016 A 
ATOM     41  C   UNL     1       6.795   3.592   3.305  1.00  0.00     0.010 A 
ATOM     42  C   UNL     1       6.824   3.170   0.915  1.00  0.00     0.010 A 
ATOM     43  C   UNL     1       7.506   3.273   2.142  1.00  0.00    -0.014 A 
BRANCH  43  44
ATOM     44  C   UNL     1       8.986   3.200   2.195  1.00  0.00     0.031 A 
ATOM     45  C   UNL     1       9.790   4.385   1.735  1.00  0.00     0.074 A 
ATOM     46  C   UNL     1       9.603   2.103   2.670  1.00  0.00     0.049 A 
ATOM     47  N   UNL     1      11.088   4.542   1.703  1.00  0.00    -0.248 NA
ATOM     48  C   UNL     1       9.032   5.548   1.244  1.00  0.00     0.031 C 
ATOM     49  C   UNL     1       8.930   0.898   3.151  1.00  0.00     0.029 A 
ATOM     50  N   UNL     1      10.939   1.823   2.807  1.00  0.00    -0.354 N 
ATOM     51  C   UNL     1      11.303   5.804   1.165  1.00  0.00     0.074 A 
ATOM     52  C   UNL     1      10.004   6.369   0.873  1.00  0.00     0.031 C 
ATOM     53  C   UNL     1       9.860  -0.005   3.511  1.00  0.00     0.029 A 
ATOM     54  C   UNL     1      11.189   0.551   3.265  1.00  0.00     0.049 A 
ATOM     55  H   UNL     1      11.650   2.470   2.597  1.00  0.00     0.167 HD
ATOM     56  C   UNL     1      12.477   6.444   0.947  1.00  0.00     0.034 A 
ATOM     57  C   UNL     1      12.358  -0.094   3.450  1.00  0.00     0.034 A 
ATOM     58  C   UNL     1      13.766   5.891   1.262  1.00  0.00     0.049 A 
ATOM     59  C   UNL     1      13.650   0.634   3.180  1.00  0.00     0.074 A 
ATOM     60  C   UNL     1      15.010   6.482   1.131  1.00  0.00     0.029 A 
ATOM     61  N   UNL     1      13.979   4.614   1.758  1.00  0.00    -0.354 N 
ATOM     62  N   UNL     1      13.835   1.873   2.792  1.00  0.00    -0.248 NA
ATOM     63  C   UNL     1      14.895  -0.115   3.407  1.00  0.00     0.031 C 
ATOM     64  C   UNL     1      15.979   5.551   1.522  1.00  0.00     0.029 A 
ATOM     65  C   UNL     1      15.335   4.391   1.923  1.00  0.00     0.049 A 
ATOM     66  H   UNL     1      13.271   3.962   1.962  1.00  0.00     0.167 HD
ATOM     67  C   UNL     1      15.213   2.063   2.764  1.00  0.00     0.074 A 
ATOM     68  C   UNL     1      15.815   0.817   3.193  1.00  0.00     0.031 C 
ATOM     69  C   UNL     1      15.918   3.164   2.404  1.00  0.00     0.034 A 
BRANCH  56  70
ATOM     70  C   UNL     1      12.421   7.829   0.360  1.00  0.00     0.023 A 
ATOM     71  C   UNL     1      11.995   8.910   1.158  1.00  0.00     0.012 A 
ATOM     72  C   UNL     1      12.845   8.069  -0.962  1.00  0.00     0.148 A 
ATOM     73  C   UNL     1      11.964  10.204   0.641  1.00  0.00     0.002 A 
ATOM     74  C   UNL     1      12.851   9.368  -1.456  1.00  0.00     0.091 A 
ATOM     75  F   UNL     1      13.222   7.024  -1.712  1.00  0.00    -0.205 F 
ATOM     76  C   UNL     1      12.402  10.435  -0.661  1.00  0.00     0.022 A 
BRANCH  74  77
ATOM     77  S   UNL     1      13.466   9.776  -3.094  1.00  0.00     0.127 S 
ATOM     78  O   UNL     1      12.229  10.104  -3.800  1.00  0.00    -0.237 OA
ATOM     79  O   UNL     1      14.335  10.921  -2.821  1.00  0.00    -0.237 OA
ATOM     80  O   UNL     1      14.161   8.587  -3.569  1.00  0.00    -0.744 OA
ENDBRANCH  74  77
ENDBRANCH  56  70
BRANCH  57  81
ATOM     81  C   UNL     1      12.364  -1.498   3.950  1.00  0.00     0.023 A 
ATOM     82  C   UNL     1      12.848  -1.773   5.244  1.00  0.00     0.012 A 
ATOM     83  C   UNL     1      11.880  -2.557   3.158  1.00  0.00     0.148 A 
ATOM     84  C   UNL     1      12.877  -3.082   5.728  1.00  0.00     0.002 A 
ATOM     85  C   UNL     1      11.860  -3.850   3.667  1.00  0.00     0.091 A 
ATOM     86  F   UNL     1      11.442  -2.277   1.922  1.00  0.00    -0.205 F 
ATOM     87  C   UNL     1      12.374  -4.118   4.945  1.00  0.00     0.022 A 
BRANCH  85  88
ATOM     88  S   UNL     1      11.114  -5.221   2.779  1.00  0.00     0.127 S 
ATOM     89  O   UNL     1      12.287  -5.997   2.385  1.00  0.00    -0.237 OA
ATOM     90  O   UNL     1      10.287  -5.839   3.816  1.00  0.00    -0.237 OA
ATOM     91  O   UNL     1      10.357  -4.617   1.690  1.00  0.00    -0.744 OA
ENDBRANCH  85  88
ENDBRANCH  57  81
BRANCH  69  92
ATOM     92  C   UNL     1      17.421   3.095   2.489  1.00  0.00     0.023 A 
ATOM     93  C   UNL     1      18.142   2.339   1.544  1.00  0.00     0.012 A 
ATOM     94  C   UNL     1      18.121   3.845   3.455  1.00  0.00     0.148 A 
ATOM     95  C   UNL     1      19.536   2.304   1.580  1.00  0.00     0.002 A 
ATOM     96  C   UNL     1      19.511   3.845   3.453  1.00  0.00     0.091 A 
ATOM     97  F   UNL     1      17.416   4.545   4.356  1.00  0.00    -0.205 F 
ATOM     98  C   UNL     1      20.219   3.066   2.525  1.00  0.00     0.022 A 
BRANCH  96  99
ATOM     99  S   UNL     1      20.474   4.872   4.569  1.00  0.00     0.127 S 
ATOM    100  O   UNL     1      20.995   3.882   5.511  1.00  0.00    -0.237 OA
ATOM    101  O   UNL     1      21.477   5.449   3.674  1.00  0.00    -0.237 OA
ATOM    102  O   UNL     1      19.540   5.839   5.131  1.00  0.00    -0.744 OA
ENDBRANCH  96  99
ENDBRANCH  69  92
ENDBRANCH  43  44
ENDBRANCH  36  38
ENDBRANCH  35  36
ENDBRANCH  34  35
ENDBRANCH  33  34
ENDBRANCH  32  33
ENDBRANCH   1  32
TORSDOF 22
