REMARK SMILES Cc1ccccc1CCNc1ccc(C(=O)OCCOCCOC(=O)c2ccc(-c3c4nc(c(-c5cccc(S(=O)(=O)[O-])c5F)c5ccc([nH]5)c(-c5cccc(S(=O)(=O)[O-])c5F)c5nc(c(-c6cccc(S(=O)(=O)[O-])c6F)c6ccc3[nH]6)C=C5)C=C4)cc2)cc1N
REMARK SMILES IDX 19 1 18 2 17 3 15 4 16 5 14 6 11 7 12 8 90 9 13 10 89 11
REMARK SMILES IDX 10 12 9 14 8 15 7 16 1 17 2 18 3 19 4 20 6 21 5 22 91 23
REMARK SMILES IDX 20 26 21 27 22 28 23 29 24 30 25 31 26 32 27 33 88 34 28 35
REMARK SMILES IDX 87 36 29 37 30 38 31 39 81 40 32 41 86 42 80 43 82 44 33 45
REMARK SMILES IDX 85 46 79 47 78 48 34 50 66 51 46 52 65 53 47 54 50 55 64 56
REMARK SMILES IDX 83 57 48 58 49 59 63 61 84 62 51 63 35 64 36 65 44 66 37 67
REMARK SMILES IDX 39 68 45 69 38 70 40 71 41 72 42 73 43 74 67 75 68 76 76 77
REMARK SMILES IDX 69 78 71 79 77 80 70 81 72 82 73 83 74 84 75 85 52 86 53 87
REMARK SMILES IDX 61 88 54 89 56 90 62 91 55 92 57 93 58 94 59 95 60 96
REMARK H PARENT 10 13 91 24 91 25 82 49 50 60
REMARK Flexibility Score: inf
ROOT
ATOM      1  C   UNL     1      -3.508   9.529  -3.856  1.00  0.00     0.202 C 
ENDROOT
BRANCH   1   2
ATOM      2  C   UNL     1      -2.200  10.027  -3.319  1.00  0.00     0.261 C 
BRANCH   2   3
ATOM      3  O   UNL     1      -1.534   8.989  -2.566  1.00  0.00    -0.460 OA
BRANCH   3   4
ATOM      4  C   UNL     1      -2.033   8.499  -1.392  1.00  0.00     0.338 C 
ATOM      5  O   UNL     1      -2.816   8.971  -0.606  1.00  0.00    -0.246 OA
BRANCH   4   6
ATOM      6  C   UNL     1      -1.596   7.104  -1.297  1.00  0.00     0.062 A 
ATOM      7  C   UNL     1      -1.112   4.387  -1.442  1.00  0.00     0.057 A 
ATOM      8  C   UNL     1      -0.367   5.289  -2.214  1.00  0.00     0.029 A 
ATOM      9  C   UNL     1      -2.102   4.864  -0.550  1.00  0.00     0.056 A 
ATOM     10  C   UNL     1      -0.578   6.643  -2.120  1.00  0.00     0.018 A 
ATOM     11  C   UNL     1      -2.345   6.233  -0.500  1.00  0.00     0.043 A 
BRANCH   7  12
ATOM     12  N   UNL     1      -0.739   3.047  -1.504  1.00  0.00    -0.383 N 
ATOM     13  H   UNL     1      -1.388   2.340  -1.724  1.00  0.00     0.160 HD
BRANCH  12  14
ATOM     14  C   UNL     1       0.667   2.741  -1.228  1.00  0.00     0.117 C 
BRANCH  14  15
ATOM     15  C   UNL     1       0.862   2.239   0.209  1.00  0.00     0.057 C 
BRANCH  15  16
ATOM     16  C   UNL     1       0.327   0.829   0.331  1.00  0.00    -0.043 A 
ATOM     17  C   UNL     1       2.589  -0.307  -0.088  1.00  0.00     0.044 C 
ATOM     18  C   UNL     1       1.093  -0.317   0.063  1.00  0.00    -0.048 A 
ATOM     19  C   UNL     1       0.435  -1.556  -0.035  1.00  0.00     0.004 A 
ATOM     20  C   UNL     1      -0.951  -1.657   0.103  1.00  0.00     0.000 A 
ATOM     21  C   UNL     1      -1.051   0.687   0.570  1.00  0.00     0.004 A 
ATOM     22  C   UNL     1      -1.697  -0.532   0.416  1.00  0.00     0.000 A 
ENDBRANCH  15  16
ENDBRANCH  14  15
ENDBRANCH  12  14
ENDBRANCH   7  12
BRANCH   9  23
ATOM     23  N   UNL     1      -2.950   4.021   0.166  1.00  0.00    -0.397 N 
ATOM     24  H   UNL     1      -2.804   3.047   0.150  1.00  0.00     0.156 HD
ATOM     25  H   UNL     1      -3.694   4.399   0.687  1.00  0.00     0.156 HD
ENDBRANCH   9  23
ENDBRANCH   4   6
ENDBRANCH   3   4
ENDBRANCH   2   3
ENDBRANCH   1   2
BRANCH   1  26
ATOM     26  O   UNL     1      -4.282   9.205  -2.721  1.00  0.00    -0.374 OA
BRANCH  26  27
ATOM     27  C   UNL     1      -5.377   8.346  -2.903  1.00  0.00     0.202 C 
BRANCH  27  28
ATOM     28  C   UNL     1      -6.420   9.001  -3.801  1.00  0.00     0.261 C 
BRANCH  28  29
ATOM     29  O   UNL     1      -6.952  10.179  -3.151  1.00  0.00    -0.460 OA
BRANCH  29  30
ATOM     30  C   UNL     1      -6.345  11.358  -3.490  1.00  0.00     0.338 C 
ATOM     31  O   UNL     1      -6.292  11.786  -4.632  1.00  0.00    -0.246 OA
BRANCH  30  32
ATOM     32  C   UNL     1      -5.575  11.908  -2.329  1.00  0.00     0.060 A 
ATOM     33  C   UNL     1      -4.597  12.898  -2.536  1.00  0.00     0.016 A 
ATOM     34  C   UNL     1      -5.590  11.208  -1.127  1.00  0.00     0.016 A 
ATOM     35  C   UNL     1      -3.517  13.028  -1.645  1.00  0.00     0.010 A 
ATOM     36  C   UNL     1      -4.471  11.270  -0.317  1.00  0.00     0.010 A 
ATOM     37  C   UNL     1      -3.386  12.125  -0.605  1.00  0.00    -0.014 A 
BRANCH  37  38
ATOM     38  C   UNL     1      -2.235  11.992   0.306  1.00  0.00     0.031 A 
ATOM     39  C   UNL     1      -2.522  12.297   1.726  1.00  0.00     0.074 A 
ATOM     40  C   UNL     1      -1.110  11.282   0.013  1.00  0.00     0.049 A 
ATOM     41  N   UNL     1      -1.695  12.101   2.689  1.00  0.00    -0.248 NA
ATOM     42  C   UNL     1      -3.784  12.888   2.178  1.00  0.00     0.031 C 
ATOM     43  C   UNL     1      -0.427  10.339   0.913  1.00  0.00     0.029 A 
ATOM     44  N   UNL     1      -0.370  11.155  -1.163  1.00  0.00    -0.354 N 
ATOM     45  C   UNL     1      -2.418  12.155   3.852  1.00  0.00     0.074 A 
ATOM     46  C   UNL     1      -3.653  12.802   3.504  1.00  0.00     0.031 C 
ATOM     47  C   UNL     1       0.699   9.881   0.341  1.00  0.00     0.029 A 
ATOM     48  C   UNL     1       0.903  10.644  -0.871  1.00  0.00     0.049 A 
ATOM     49  H   UNL     1      -0.693  11.388  -2.064  1.00  0.00     0.167 HD
ATOM     50  C   UNL     1      -1.928  11.491   4.931  1.00  0.00     0.034 A 
ATOM     51  C   UNL     1       2.031  11.303  -1.254  1.00  0.00     0.034 A 
ATOM     52  C   UNL     1      -0.532  11.069   4.688  1.00  0.00     0.049 A 
ATOM     53  C   UNL     1       2.769  11.782  -0.032  1.00  0.00     0.074 A 
ATOM     54  C   UNL     1       0.081   9.850   4.460  1.00  0.00     0.029 A 
ATOM     55  N   UNL     1       0.412  12.043   4.346  1.00  0.00    -0.354 N 
ATOM     56  N   UNL     1       2.279  11.654   1.170  1.00  0.00    -0.248 NA
ATOM     57  C   UNL     1       4.097  12.379  -0.011  1.00  0.00     0.031 C 
ATOM     58  C   UNL     1       1.367  10.107   3.892  1.00  0.00     0.029 A 
ATOM     59  C   UNL     1       1.567  11.479   3.824  1.00  0.00     0.049 A 
ATOM     60  H   UNL     1       0.274  13.011   4.462  1.00  0.00     0.167 HD
ATOM     61  C   UNL     1       3.097  12.204   2.096  1.00  0.00     0.074 A 
ATOM     62  C   UNL     1       4.260  12.597   1.310  1.00  0.00     0.031 C 
ATOM     63  C   UNL     1       2.697  12.323   3.400  1.00  0.00     0.034 A 
BRANCH  50  64
ATOM     64  C   UNL     1      -2.738  11.089   6.152  1.00  0.00     0.023 A 
ATOM     65  C   UNL     1      -2.028  10.494   7.215  1.00  0.00     0.012 A 
ATOM     66  C   UNL     1      -4.148  11.172   6.318  1.00  0.00     0.148 A 
ATOM     67  C   UNL     1      -2.661  10.027   8.374  1.00  0.00     0.002 A 
ATOM     68  C   UNL     1      -4.772  10.777   7.507  1.00  0.00     0.091 A 
ATOM     69  F   UNL     1      -4.929  11.540   5.299  1.00  0.00    -0.205 F 
ATOM     70  C   UNL     1      -4.030  10.190   8.533  1.00  0.00     0.022 A 
BRANCH  68  71
ATOM     71  S   UNL     1      -6.537  11.009   7.812  1.00  0.00     0.127 S 
ATOM     72  O   UNL     1      -7.027   9.631   7.856  1.00  0.00    -0.237 OA
ATOM     73  O   UNL     1      -6.544  11.695   9.105  1.00  0.00    -0.237 OA
ATOM     74  O   UNL     1      -7.044  11.811   6.705  1.00  0.00    -0.744 OA
ENDBRANCH  68  71
ENDBRANCH  50  64
BRANCH  51  75
ATOM     75  C   UNL     1       1.856  11.959  -2.590  1.00  0.00     0.023 A 
ATOM     76  C   UNL     1       1.815  11.077  -3.704  1.00  0.00     0.012 A 
ATOM     77  C   UNL     1       1.192  13.197  -2.689  1.00  0.00     0.148 A 
ATOM     78  C   UNL     1       1.003  11.347  -4.810  1.00  0.00     0.002 A 
ATOM     79  C   UNL     1       0.347  13.436  -3.775  1.00  0.00     0.091 A 
ATOM     80  F   UNL     1       1.308  14.064  -1.675  1.00  0.00    -0.205 F 
ATOM     81  C   UNL     1       0.229  12.501  -4.818  1.00  0.00     0.022 A 
BRANCH  79  82
ATOM     82  S   UNL     1      -0.793  14.828  -3.809  1.00  0.00     0.127 S 
ATOM     83  O   UNL     1      -0.120  15.739  -4.730  1.00  0.00    -0.237 OA
ATOM     84  O   UNL     1      -2.012  14.216  -4.342  1.00  0.00    -0.237 OA
ATOM     85  O   UNL     1      -0.900  15.281  -2.431  1.00  0.00    -0.744 OA
ENDBRANCH  79  82
ENDBRANCH  51  75
BRANCH  63  86
ATOM     86  C   UNL     1       3.355  13.258   4.392  1.00  0.00     0.023 A 
ATOM     87  C   UNL     1       4.240  14.275   3.985  1.00  0.00     0.012 A 
ATOM     88  C   UNL     1       2.996  13.245   5.763  1.00  0.00     0.148 A 
ATOM     89  C   UNL     1       4.819  15.167   4.889  1.00  0.00     0.002 A 
ATOM     90  C   UNL     1       3.465  14.222   6.633  1.00  0.00     0.091 A 
ATOM     91  F   UNL     1       2.211  12.274   6.246  1.00  0.00    -0.205 F 
ATOM     92  C   UNL     1       4.413  15.155   6.212  1.00  0.00     0.022 A 
BRANCH  90  93
ATOM     93  S   UNL     1       2.764  14.429   8.274  1.00  0.00     0.127 S 
ATOM     94  O   UNL     1       3.785  13.808   9.114  1.00  0.00    -0.237 OA
ATOM     95  O   UNL     1       2.682  15.887   8.389  1.00  0.00    -0.237 OA
ATOM     96  O   UNL     1       1.472  13.759   8.235  1.00  0.00    -0.744 OA
ENDBRANCH  90  93
ENDBRANCH  63  86
ENDBRANCH  37  38
ENDBRANCH  30  32
ENDBRANCH  29  30
ENDBRANCH  28  29
ENDBRANCH  27  28
ENDBRANCH  26  27
ENDBRANCH   1  26
TORSDOF 22
