REMARK SMILES O=C(Nc1ccc(N2CC[NH+](CC(=O)N3CCOCC3)CC2)c(C(=O)OCCOCCOC(=O)c2ccc(-c3c4nc(c(-c5cccc(S(=O)(=O)[O-])c5F)c5ccc([nH]5)c(-c5cccc(S(=O)(=O)[O-])c5F)c5nc(c(-c6cccc(S(=O)(=O)[O-])c6F)c6ccc3[nH]6)C=C5)C=C4)cc2)c1)c1cccc(Cl)c1
REMARK SMILES IDX 29 1 28 2 27 3 26 4 24 5 25 6 23 7 4 8 5 9 98 10 6 11 7 12
REMARK SMILES IDX 3 13 1 14 2 15 99 17 100 18 105 19 101 20 103 21 102 22
REMARK SMILES IDX 104 23 8 24 9 25 22 26 10 27 21 28 11 29 12 31 13 32 14 33
REMARK SMILES IDX 15 34 16 35 20 36 17 37 19 38 18 39 30 40 31 41 32 42 33 43
REMARK SMILES IDX 34 44 35 45 36 46 97 47 37 48 96 49 38 50 39 51 40 52 90 53
REMARK SMILES IDX 41 54 95 55 89 56 91 57 42 58 94 59 88 60 87 61 43 63 75 64
REMARK SMILES IDX 55 65 74 66 56 67 59 68 73 69 92 70 57 71 58 72 72 74 93 75
REMARK SMILES IDX 60 76 44 77 45 78 53 79 46 80 48 81 54 82 47 83 49 84 50 85
REMARK SMILES IDX 51 86 52 87 76 88 77 89 85 90 78 91 80 92 86 93 79 94 81 95
REMARK SMILES IDX 82 96 83 97 84 98 61 99 62 100 70 101 63 102 65 103 71 104
REMARK SMILES IDX 64 105 66 106 67 107 68 108 69 109
REMARK H PARENT 3 16 11 30 91 62 59 73
REMARK Flexibility Score: inf
ROOT
ATOM      1  O   UNL     1       8.398  -2.446   3.556  1.00  0.00    -0.374 OA
ENDROOT
BRANCH   1   2
ATOM      2  C   UNL     1       7.556  -1.579   4.334  1.00  0.00     0.202 C 
BRANCH   2   3
ATOM      3  C   UNL     1       7.384  -0.177   3.742  1.00  0.00     0.261 C 
BRANCH   3   4
ATOM      4  O   UNL     1       6.589  -0.289   2.553  1.00  0.00    -0.460 OA
BRANCH   4   5
ATOM      5  C   UNL     1       6.937   0.530   1.532  1.00  0.00     0.340 C 
ATOM      6  O   UNL     1       7.680   1.492   1.603  1.00  0.00    -0.246 OA
BRANCH   5   7
ATOM      7  C   UNL     1       6.369  -0.044   0.280  1.00  0.00     0.085 A 
ATOM      8  C   UNL     1       4.342  -0.621  -0.894  1.00  0.00     0.042 A 
ATOM      9  C   UNL     1       5.076  -0.783  -2.066  1.00  0.00     0.028 A 
ATOM     10  C   UNL     1       5.019  -0.393   0.295  1.00  0.00     0.044 A 
ATOM     11  C   UNL     1       6.464  -0.559  -2.062  1.00  0.00     0.029 A 
ATOM     12  C   UNL     1       7.142  -0.166  -0.896  1.00  0.00     0.052 A 
BRANCH   8  13
ATOM     13  N   UNL     1       2.938  -0.580  -0.961  1.00  0.00    -0.322 N 
ATOM     14  O   UNL     1       0.847  -0.016  -0.275  1.00  0.00    -0.269 OA
ATOM     15  C   UNL     1       2.058   0.151  -0.169  1.00  0.00     0.255 C 
ATOM     16  H   UNL     1       2.524  -1.140  -1.657  1.00  0.00     0.170 HD
BRANCH  15  17
ATOM     17  C   UNL     1       2.582   1.189   0.763  1.00  0.00     0.041 A 
ATOM     18  C   UNL     1       3.495   2.158   0.309  1.00  0.00     0.014 A 
ATOM     19  C   UNL     1       2.299   1.070   2.126  1.00  0.00     0.034 A 
ATOM     20  C   UNL     1       4.218   2.918   1.229  1.00  0.00     0.002 A 
ATOM     21  C   UNL     1       3.020   1.844   3.035  1.00  0.00     0.041 A 
ATOM     22  C   UNL     1       3.990   2.748   2.595  1.00  0.00     0.020 A 
ATOM     23  Cl  UNL     1       2.798   1.607   4.724  1.00  0.00    -0.084 Cl
ENDBRANCH  15  17
ENDBRANCH   8  13
BRANCH  12  24
ATOM     24  N   UNL     1       8.528  -0.027  -0.862  1.00  0.00    -0.360 N 
ATOM     25  C   UNL     1       9.355   0.324  -2.026  1.00  0.00     0.178 C 
ATOM     26  C   UNL     1       9.173  -0.957   0.062  1.00  0.00     0.178 C 
ATOM     27  C   UNL     1      10.831   0.628  -1.605  1.00  0.00     0.284 C 
ATOM     28  C   UNL     1      10.524  -0.439   0.536  1.00  0.00     0.284 C 
ATOM     29  N   UNL     1      11.457  -0.219  -0.566  1.00  0.00    -0.324 N 
ATOM     30  H   UNL     1      12.246   0.332  -0.227  1.00  0.00     0.348 HD
BRANCH  29  31
ATOM     31  C   UNL     1      12.190  -1.418  -0.999  1.00  0.00     0.363 C 
BRANCH  31  32
ATOM     32  C   UNL     1      11.474  -2.418  -1.918  1.00  0.00     0.277 C 
ATOM     33  O   UNL     1      11.285  -2.135  -3.106  1.00  0.00    -0.268 OA
ATOM     34  N   UNL     1      11.167  -3.689  -1.424  1.00  0.00    -0.333 N 
ATOM     35  C   UNL     1      10.693  -3.964  -0.063  1.00  0.00     0.148 C 
ATOM     36  C   UNL     1      10.806  -4.727  -2.393  1.00  0.00     0.148 C 
ATOM     37  C   UNL     1      10.885  -5.412   0.392  1.00  0.00     0.181 C 
ATOM     38  C   UNL     1      11.070  -6.130  -1.839  1.00  0.00     0.181 C 
ATOM     39  O   UNL     1      10.390  -6.328  -0.593  1.00  0.00    -0.378 OA
ENDBRANCH  31  32
ENDBRANCH  29  31
ENDBRANCH  12  24
ENDBRANCH   5   7
ENDBRANCH   4   5
ENDBRANCH   3   4
ENDBRANCH   2   3
ENDBRANCH   1   2
BRANCH   1  40
ATOM     40  C   UNL     1       7.771  -3.087   2.443  1.00  0.00     0.202 C 
BRANCH  40  41
ATOM     41  C   UNL     1       7.193  -4.476   2.699  1.00  0.00     0.261 C 
BRANCH  41  42
ATOM     42  O   UNL     1       6.113  -4.400   3.626  1.00  0.00    -0.460 OA
BRANCH  42  43
ATOM     43  C   UNL     1       6.469  -4.679   4.904  1.00  0.00     0.338 C 
ATOM     44  O   UNL     1       7.522  -5.141   5.291  1.00  0.00    -0.246 OA
BRANCH  43  45
ATOM     45  C   UNL     1       5.433  -4.131   5.798  1.00  0.00     0.060 A 
ATOM     46  C   UNL     1       5.875  -3.486   6.959  1.00  0.00     0.016 A 
ATOM     47  C   UNL     1       4.071  -4.225   5.500  1.00  0.00     0.016 A 
ATOM     48  C   UNL     1       4.949  -2.984   7.863  1.00  0.00     0.010 A 
ATOM     49  C   UNL     1       3.142  -3.725   6.408  1.00  0.00     0.010 A 
ATOM     50  C   UNL     1       3.582  -3.145   7.610  1.00  0.00    -0.014 A 
BRANCH  50  51
ATOM     51  C   UNL     1       2.617  -2.877   8.693  1.00  0.00     0.031 A 
ATOM     52  C   UNL     1       2.137  -4.037   9.515  1.00  0.00     0.074 A 
ATOM     53  C   UNL     1       2.193  -1.625   8.932  1.00  0.00     0.049 A 
ATOM     54  N   UNL     1       1.302  -4.050  10.517  1.00  0.00    -0.248 NA
ATOM     55  C   UNL     1       2.667  -5.365   9.155  1.00  0.00     0.031 C 
ATOM     56  C   UNL     1       2.601  -0.438   8.182  1.00  0.00     0.029 A 
ATOM     57  N   UNL     1       1.309  -1.152   9.863  1.00  0.00    -0.354 N 
ATOM     58  C   UNL     1       1.183  -5.383  10.890  1.00  0.00     0.074 A 
ATOM     59  C   UNL     1       2.022  -6.154  10.001  1.00  0.00     0.031 C 
ATOM     60  C   UNL     1       1.945   0.629   8.668  1.00  0.00     0.029 A 
ATOM     61  C   UNL     1       1.064   0.195   9.749  1.00  0.00     0.049 A 
ATOM     62  H   UNL     1       0.889  -1.721  10.548  1.00  0.00     0.167 HD
ATOM     63  C   UNL     1       0.452  -5.913  11.897  1.00  0.00     0.034 A 
ATOM     64  C   UNL     1       0.211   0.978  10.438  1.00  0.00     0.034 A 
ATOM     65  C   UNL     1      -0.362  -5.130  12.783  1.00  0.00     0.049 A 
ATOM     66  C   UNL     1      -0.598   0.360  11.550  1.00  0.00     0.074 A 
ATOM     67  C   UNL     1      -1.105  -5.552  13.870  1.00  0.00     0.029 A 
ATOM     68  N   UNL     1      -0.552  -3.760  12.672  1.00  0.00    -0.354 N 
ATOM     69  N   UNL     1      -0.600  -0.880  11.980  1.00  0.00    -0.248 NA
ATOM     70  C   UNL     1      -1.495   1.254  12.294  1.00  0.00     0.031 C 
ATOM     71  C   UNL     1      -1.765  -4.439  14.401  1.00  0.00     0.029 A 
ATOM     72  C   UNL     1      -1.411  -3.320  13.662  1.00  0.00     0.049 A 
ATOM     73  H   UNL     1      -0.136  -3.186  11.989  1.00  0.00     0.167 HD
ATOM     74  C   UNL     1      -1.468  -0.908  13.065  1.00  0.00     0.074 A 
ATOM     75  C   UNL     1      -1.958   0.446  13.238  1.00  0.00     0.031 C 
ATOM     76  C   UNL     1      -1.839  -1.956  13.842  1.00  0.00     0.034 A 
BRANCH  63  77
ATOM     77  C   UNL     1       0.521  -7.402  12.100  1.00  0.00     0.023 A 
ATOM     78  C   UNL     1       1.690  -7.982  12.635  1.00  0.00     0.012 A 
ATOM     79  C   UNL     1      -0.581  -8.224  11.793  1.00  0.00     0.148 A 
ATOM     80  C   UNL     1       1.772  -9.360  12.834  1.00  0.00     0.002 A 
ATOM     81  C   UNL     1      -0.507  -9.591  12.034  1.00  0.00     0.091 A 
ATOM     82  F   UNL     1      -1.671  -7.658  11.257  1.00  0.00    -0.205 F 
ATOM     83  C   UNL     1       0.671 -10.162  12.544  1.00  0.00     0.022 A 
BRANCH  81  84
ATOM     84  S   UNL     1      -1.894 -10.698  11.760  1.00  0.00     0.127 S 
ATOM     85  O   UNL     1      -1.445 -11.449  10.588  1.00  0.00    -0.237 OA
ATOM     86  O   UNL     1      -1.924 -11.468  13.003  1.00  0.00    -0.237 OA
ATOM     87  O   UNL     1      -3.054  -9.843  11.547  1.00  0.00    -0.744 OA
ENDBRANCH  81  84
ENDBRANCH  63  77
BRANCH  64  88
ATOM     88  C   UNL     1       0.119   2.432  10.129  1.00  0.00     0.023 A 
ATOM     89  C   UNL     1       0.605   3.370  11.061  1.00  0.00     0.012 A 
ATOM     90  C   UNL     1      -0.421   2.890   8.911  1.00  0.00     0.148 A 
ATOM     91  C   UNL     1       0.529   4.738  10.798  1.00  0.00     0.002 A 
ATOM     92  C   UNL     1      -0.447   4.252   8.634  1.00  0.00     0.091 A 
ATOM     93  F   UNL     1      -0.893   1.983   8.045  1.00  0.00    -0.205 F 
ATOM     94  C   UNL     1       0.013   5.178   9.582  1.00  0.00     0.022 A 
BRANCH  92  95
ATOM     95  S   UNL     1      -0.985   4.905   7.049  1.00  0.00     0.127 S 
ATOM     96  O   UNL     1      -2.249   5.544   7.404  1.00  0.00    -0.237 OA
ATOM     97  O   UNL     1       0.101   5.830   6.719  1.00  0.00    -0.237 OA
ATOM     98  O   UNL     1      -1.085   3.754   6.163  1.00  0.00    -0.744 OA
ENDBRANCH  92  95
ENDBRANCH  64  88
BRANCH  76  99
ATOM     99  C   UNL     1      -2.796  -1.680  14.971  1.00  0.00     0.023 A 
ATOM    100  C   UNL     1      -4.153  -1.424  14.692  1.00  0.00     0.012 A 
ATOM    101  C   UNL     1      -2.366  -1.760  16.310  1.00  0.00     0.148 A 
ATOM    102  C   UNL     1      -5.061  -1.219  15.729  1.00  0.00     0.002 A 
ATOM    103  C   UNL     1      -3.287  -1.605  17.339  1.00  0.00     0.091 A 
ATOM    104  F   UNL     1      -1.067  -1.988  16.553  1.00  0.00    -0.205 F 
ATOM    105  C   UNL     1      -4.632  -1.323  17.050  1.00  0.00     0.022 A 
BRANCH 103 106
ATOM    106  S   UNL     1      -2.842  -1.823  19.065  1.00  0.00     0.127 S 
ATOM    107  O   UNL     1      -2.836  -0.443  19.548  1.00  0.00    -0.237 OA
ATOM    108  O   UNL     1      -3.945  -2.641  19.571  1.00  0.00    -0.237 OA
ATOM    109  O   UNL     1      -1.548  -2.492  19.064  1.00  0.00    -0.744 OA
ENDBRANCH 103 106
ENDBRANCH  76  99
ENDBRANCH  50  51
ENDBRANCH  43  45
ENDBRANCH  42  43
ENDBRANCH  41  42
ENDBRANCH  40  41
ENDBRANCH   1  40
TORSDOF 22
