REMARK SMILES COc1ccc(C2=NN(C(=O)CCC(=O)OCCOCCOC(=O)c3ccc(-c4c5nc(c(-c6cccc(S(=O)(=O)[O-])c6F)c6ccc([nH]6)c(-c6cccc(S(=O)(=O)[O-])c6F)c6nc(c(-c7cccc(S(=O)(=O)[O-])c7F)c7ccc4[nH]7)C=C6)C=C5)cc3)[C@@H](c3ccc(Cl)cc3Cl)C2)cc1
REMARK SMILES IDX 18 1 17 2 16 3 14 4 15 5 13 6 12 7 10 8 11 9 9 10 7 11 8 12
REMARK SMILES IDX 97 13 88 14 6 15 3 16 4 17 99 18 5 19 98 20 2 21 1 22 89 23
REMARK SMILES IDX 90 24 95 25 91 26 94 27 96 28 92 29 93 30 19 31 20 32 21 33
REMARK SMILES IDX 22 34 23 35 24 36 25 37 26 38 87 39 27 40 86 41 28 42 29 43
REMARK SMILES IDX 30 44 80 45 31 46 85 47 79 48 81 49 32 50 84 51 78 52 77 53
REMARK SMILES IDX 33 55 65 56 45 57 64 58 46 59 49 60 63 61 82 62 47 63 48 64
REMARK SMILES IDX 62 66 83 67 50 68 34 69 35 70 43 71 36 72 38 73 44 74 37 75
REMARK SMILES IDX 39 76 40 77 41 78 42 79 66 80 67 81 75 82 68 83 70 84 76 85
REMARK SMILES IDX 69 86 71 87 72 88 73 89 74 90 51 91 52 92 60 93 53 94 55 95
REMARK SMILES IDX 61 96 54 97 56 98 57 99 58 100 59 101
REMARK H PARENT 81 54 49 65
REMARK Flexibility Score: inf
ROOT
ATOM      1  C   UNL     1       5.794   2.579  10.129  1.00  0.00     0.202 C 
ENDROOT
BRANCH   1   2
ATOM      2  C   UNL     1       6.150   1.376   9.223  1.00  0.00     0.261 C 
BRANCH   2   3
ATOM      3  O   UNL     1       5.189   0.348   9.359  1.00  0.00    -0.463 OA
BRANCH   3   4
ATOM      4  C   UNL     1       5.361  -0.590  10.290  1.00  0.00     0.306 C 
ATOM      5  O   UNL     1       6.386  -0.773  10.919  1.00  0.00    -0.252 OA
BRANCH   4   6
ATOM      6  C   UNL     1       4.051  -1.259  10.596  1.00  0.00     0.132 C 
BRANCH   6   7
ATOM      7  C   UNL     1       2.807  -1.102   9.714  1.00  0.00     0.114 C 
BRANCH   7   8
ATOM      8  C   UNL     1       2.236   0.089   8.877  1.00  0.00     0.243 C 
ATOM      9  O   UNL     1       1.028  -0.024   8.600  1.00  0.00    -0.273 OA
BRANCH   8  10
ATOM     10  N   UNL     1       3.061   1.067   8.297  1.00  0.00    -0.225 N 
ATOM     11  C   UNL     1       3.569   1.333   6.178  1.00  0.00     0.071 C 
ATOM     12  N   UNL     1       3.500   0.453   7.112  1.00  0.00    -0.174 NA
ATOM     13  C   UNL     1       3.477   2.776   6.521  1.00  0.00     0.091 C 
ATOM     14  C   UNL     1       3.043   2.734   7.990  1.00  0.00     0.149 C 
BRANCH  11  15
ATOM     15  C   UNL     1       3.675   0.992   4.776  1.00  0.00    -0.002 A 
ATOM     16  C   UNL     1       3.571   1.093   2.023  1.00  0.00     0.118 A 
ATOM     17  C   UNL     1       2.422   0.802   2.753  1.00  0.00     0.047 A 
ATOM     18  C   UNL     1       4.785   1.294   2.688  1.00  0.00     0.047 A 
ATOM     19  C   UNL     1       2.477   0.712   4.136  1.00  0.00     0.014 A 
ATOM     20  C   UNL     1       4.844   1.253   4.077  1.00  0.00     0.014 A 
BRANCH  16  21
ATOM     21  O   UNL     1       3.608   1.247   0.666  1.00  0.00    -0.497 OA
ATOM     22  C   UNL     1       2.525   0.646  -0.042  1.00  0.00     0.278 C 
ENDBRANCH  16  21
ENDBRANCH  11  15
BRANCH  14  23
ATOM     23  C   UNL     1       2.908   4.288   8.777  1.00  0.00    -0.004 A 
ATOM     24  C   UNL     1       3.855   5.194   8.197  1.00  0.00     0.009 A 
ATOM     25  C   UNL     1       2.275   4.912   9.936  1.00  0.00     0.047 A 
ATOM     26  C   UNL     1       4.243   6.441   8.740  1.00  0.00     0.021 A 
ATOM     27  C   UNL     1       2.725   6.148  10.496  1.00  0.00     0.041 A 
ATOM     28  Cl  UNL     1       0.897   4.613  10.948  1.00  0.00    -0.084 Cl
ATOM     29  C   UNL     1       3.708   6.895   9.918  1.00  0.00     0.042 A 
ATOM     30  Cl  UNL     1       4.210   8.360  10.654  1.00  0.00    -0.084 Cl
ENDBRANCH  14  23
ENDBRANCH   8  10
ENDBRANCH   7   8
ENDBRANCH   6   7
ENDBRANCH   4   6
ENDBRANCH   3   4
ENDBRANCH   2   3
ENDBRANCH   1   2
BRANCH   1  31
ATOM     31  O   UNL     1       4.396   2.899  10.314  1.00  0.00    -0.374 OA
BRANCH  31  32
ATOM     32  C   UNL     1       3.520   2.216  11.211  1.00  0.00     0.202 C 
BRANCH  32  33
ATOM     33  C   UNL     1       1.876   1.984  10.901  1.00  0.00     0.261 C 
BRANCH  33  34
ATOM     34  O   UNL     1       1.191   2.215   9.493  1.00  0.00    -0.460 OA
BRANCH  34  35
ATOM     35  C   UNL     1       0.019   2.667   8.896  1.00  0.00     0.338 C 
ATOM     36  O   UNL     1      -0.873   3.311   9.434  1.00  0.00    -0.246 OA
BRANCH  35  37
ATOM     37  C   UNL     1      -0.226   2.351   7.411  1.00  0.00     0.060 A 
ATOM     38  C   UNL     1       0.282   3.098   6.337  1.00  0.00     0.016 A 
ATOM     39  C   UNL     1      -1.257   1.457   7.081  1.00  0.00     0.016 A 
ATOM     40  C   UNL     1      -0.090   2.834   4.980  1.00  0.00     0.010 A 
ATOM     41  C   UNL     1      -1.688   1.246   5.740  1.00  0.00     0.010 A 
ATOM     42  C   UNL     1      -1.087   1.897   4.653  1.00  0.00    -0.014 A 
BRANCH  42  43
ATOM     43  C   UNL     1      -1.487   1.605   3.217  1.00  0.00     0.031 A 
ATOM     44  C   UNL     1      -2.137   2.661   2.345  1.00  0.00     0.074 A 
ATOM     45  C   UNL     1      -1.232   0.401   2.648  1.00  0.00     0.049 A 
ATOM     46  N   UNL     1      -2.576   2.560   1.112  1.00  0.00    -0.248 NA
ATOM     47  C   UNL     1      -2.349   3.988   2.939  1.00  0.00     0.031 C 
ATOM     48  C   UNL     1      -0.589  -0.718   3.329  1.00  0.00     0.029 A 
ATOM     49  N   UNL     1      -1.379  -0.062   1.351  1.00  0.00    -0.354 N 
ATOM     50  C   UNL     1      -3.259   3.745   0.849  1.00  0.00     0.074 A 
ATOM     51  C   UNL     1      -3.028   4.612   1.985  1.00  0.00     0.031 C 
ATOM     52  C   UNL     1      -0.231  -1.645   2.425  1.00  0.00     0.029 A 
ATOM     53  C   UNL     1      -0.723  -1.259   1.106  1.00  0.00     0.049 A 
ATOM     54  H   UNL     1      -1.902   0.414   0.666  1.00  0.00     0.167 HD
ATOM     55  C   UNL     1      -4.090   4.040  -0.185  1.00  0.00     0.034 A 
ATOM     56  C   UNL     1      -0.526  -1.945  -0.046  1.00  0.00     0.034 A 
ATOM     57  C   UNL     1      -4.319   3.175  -1.313  1.00  0.00     0.049 A 
ATOM     58  C   UNL     1      -1.291  -1.507  -1.274  1.00  0.00     0.074 A 
ATOM     59  C   UNL     1      -5.247   3.299  -2.333  1.00  0.00     0.029 A 
ATOM     60  N   UNL     1      -3.598   2.020  -1.574  1.00  0.00    -0.354 N 
ATOM     61  N   UNL     1      -1.980  -0.411  -1.471  1.00  0.00    -0.248 NA
ATOM     62  C   UNL     1      -1.303  -2.435  -2.420  1.00  0.00     0.031 C 
ATOM     63  C   UNL     1      -5.099   2.208  -3.199  1.00  0.00     0.029 A 
ATOM     64  C   UNL     1      -4.053   1.426  -2.738  1.00  0.00     0.049 A 
ATOM     65  H   UNL     1      -2.868   1.673  -1.012  1.00  0.00     0.167 HD
ATOM     66  C   UNL     1      -2.562  -0.548  -2.728  1.00  0.00     0.074 A 
ATOM     67  C   UNL     1      -2.051  -1.777  -3.297  1.00  0.00     0.031 C 
ATOM     68  C   UNL     1      -3.502   0.229  -3.318  1.00  0.00     0.034 A 
BRANCH  55  69
ATOM     69  C   UNL     1      -4.939   5.279  -0.044  1.00  0.00     0.023 A 
ATOM     70  C   UNL     1      -4.400   6.563  -0.245  1.00  0.00     0.012 A 
ATOM     71  C   UNL     1      -6.294   5.150   0.335  1.00  0.00     0.148 A 
ATOM     72  C   UNL     1      -5.180   7.700  -0.015  1.00  0.00     0.002 A 
ATOM     73  C   UNL     1      -7.073   6.284   0.526  1.00  0.00     0.091 A 
ATOM     74  F   UNL     1      -6.788   3.918   0.523  1.00  0.00    -0.205 F 
ATOM     75  C   UNL     1      -6.513   7.561   0.370  1.00  0.00     0.022 A 
BRANCH  73  76
ATOM     76  S   UNL     1      -8.811   6.205   0.975  1.00  0.00     0.127 S 
ATOM     77  O   UNL     1      -8.792   6.760   2.327  1.00  0.00    -0.237 OA
ATOM     78  O   UNL     1      -9.425   7.071  -0.031  1.00  0.00    -0.237 OA
ATOM     79  O   UNL     1      -9.190   4.801   0.884  1.00  0.00    -0.744 OA
ENDBRANCH  73  76
ENDBRANCH  55  69
BRANCH  56  80
ATOM     80  C   UNL     1       0.457  -3.081  -0.150  1.00  0.00     0.023 A 
ATOM     81  C   UNL     1       1.492  -2.991  -1.110  1.00  0.00     0.012 A 
ATOM     82  C   UNL     1       0.414  -4.228   0.661  1.00  0.00     0.148 A 
ATOM     83  C   UNL     1       2.441  -4.008  -1.262  1.00  0.00     0.002 A 
ATOM     84  C   UNL     1       1.419  -5.192   0.574  1.00  0.00     0.091 A 
ATOM     85  F   UNL     1      -0.617  -4.385   1.505  1.00  0.00    -0.205 F 
ATOM     86  C   UNL     1       2.420  -5.098  -0.401  1.00  0.00     0.022 A 
BRANCH  84  87
ATOM     87  S   UNL     1       1.553  -6.499   1.801  1.00  0.00     0.127 S 
ATOM     88  O   UNL     1       0.805  -7.584   1.177  1.00  0.00    -0.237 OA
ATOM     89  O   UNL     1       2.999  -6.713   1.882  1.00  0.00    -0.237 OA
ATOM     90  O   UNL     1       0.973  -5.920   3.009  1.00  0.00    -0.744 OA
ENDBRANCH  84  87
ENDBRANCH  56  80
BRANCH  68  91
ATOM     91  C   UNL     1      -4.083  -0.238  -4.627  1.00  0.00     0.023 A 
ATOM     92  C   UNL     1      -4.992  -1.317  -4.631  1.00  0.00     0.012 A 
ATOM     93  C   UNL     1      -3.825   0.453  -5.825  1.00  0.00     0.148 A 
ATOM     94  C   UNL     1      -5.623  -1.710  -5.810  1.00  0.00     0.002 A 
ATOM     95  C   UNL     1      -4.489   0.082  -6.989  1.00  0.00     0.091 A 
ATOM     96  F   UNL     1      -2.941   1.461  -5.802  1.00  0.00    -0.205 F 
ATOM     97  C   UNL     1      -5.382  -1.003  -6.985  1.00  0.00     0.022 A 
BRANCH  95  98
ATOM     98  S   UNL     1      -4.312   0.988  -8.530  1.00  0.00     0.127 S 
ATOM     99  O   UNL     1      -3.555   0.041  -9.346  1.00  0.00    -0.237 OA
ATOM    100  O   UNL     1      -5.703   1.174  -8.941  1.00  0.00    -0.237 OA
ATOM    101  O   UNL     1      -3.610   2.220  -8.192  1.00  0.00    -0.744 OA
ENDBRANCH  95  98
ENDBRANCH  68  91
ENDBRANCH  42  43
ENDBRANCH  35  37
ENDBRANCH  34  35
ENDBRANCH  33  34
ENDBRANCH  32  33
ENDBRANCH  31  32
ENDBRANCH   1  31
TORSDOF 23
