REMARK SMILES C[C@H](NC(=O)N1CC[C@@H](C(=O)OCCOCCOC(=O)c2ccc(-c3c4nc(c(-c5cccc(S(=O)(=O)[O-])c5F)c5ccc([nH]5)c(-c5cccc(S(=O)(=O)[O-])c5F)c5nc(c(-c6cccc(S(=O)(=O)[O-])c6F)c6ccc3[nH]6)C=C5)C=C4)cc2)[C@H]1C)c1ccc(Cl)cc1
REMARK SMILES IDX 15 1 14 2 13 3 12 4 10 5 11 6 9 7 6 8 7 9 84 10 8 11 85 12
REMARK SMILES IDX 4 13 3 14 5 16 2 17 1 18 86 19 87 20 92 21 88 22 91 23 89 24
REMARK SMILES IDX 90 25 16 26 17 27 18 28 19 29 20 30 21 31 22 32 83 33 23 34
REMARK SMILES IDX 82 35 24 36 25 37 26 38 76 39 27 40 81 41 75 42 77 43 28 44
REMARK SMILES IDX 80 45 74 46 73 47 29 49 61 50 41 51 60 52 42 53 45 54 59 55
REMARK SMILES IDX 78 56 43 57 44 58 58 60 79 61 46 62 30 63 31 64 39 65 32 66
REMARK SMILES IDX 34 67 40 68 33 69 35 70 36 71 37 72 38 73 62 74 63 75 71 76
REMARK SMILES IDX 64 77 66 78 72 79 65 80 67 81 68 82 69 83 70 84 47 85 48 86
REMARK SMILES IDX 56 87 49 88 51 89 57 90 50 91 52 92 53 93 54 94 55 95
REMARK H PARENT 3 15 77 48 45 59
REMARK Flexibility Score: inf
ROOT
ATOM      1  O   UNL     1       4.677   1.562   6.495  1.00  0.00    -0.374 OA
ENDROOT
BRANCH   1   2
ATOM      2  C   UNL     1       3.515   2.323   6.842  1.00  0.00     0.202 C 
BRANCH   2   3
ATOM      3  C   UNL     1       3.529   3.763   6.303  1.00  0.00     0.261 C 
BRANCH   3   4
ATOM      4  O   UNL     1       2.990   3.814   4.964  1.00  0.00    -0.463 OA
BRANCH   4   5
ATOM      5  C   UNL     1       3.864   3.732   3.936  1.00  0.00     0.311 C 
ATOM      6  O   UNL     1       5.079   3.852   4.045  1.00  0.00    -0.252 OA
BRANCH   5   7
ATOM      7  C   UNL     1       3.195   3.410   2.615  1.00  0.00     0.123 C 
ATOM      8  N   UNL     1       1.604   2.428   1.174  1.00  0.00    -0.321 N 
ATOM      9  C   UNL     1       1.726   3.857   0.847  1.00  0.00     0.122 C 
ATOM     10  C   UNL     1       2.247   2.183   2.485  1.00  0.00     0.098 C 
ATOM     11  C   UNL     1       2.338   4.536   2.064  1.00  0.00     0.039 C 
ATOM     12  C   UNL     1       1.195   2.121   3.590  1.00  0.00     0.032 C 
BRANCH   8  13
ATOM     13  C   UNL     1       1.526   1.579   0.116  1.00  0.00     0.318 C 
ATOM     14  N   UNL     1       1.081   0.322   0.145  1.00  0.00    -0.331 N 
ATOM     15  H   UNL     1       1.434  -0.146  -0.646  1.00  0.00     0.165 HD
ATOM     16  O   UNL     1       1.859   1.954  -1.017  1.00  0.00    -0.249 OA
BRANCH  14  17
ATOM     17  C   UNL     1       0.266  -0.624   0.909  1.00  0.00     0.111 C 
ATOM     18  C   UNL     1       0.667  -0.961   2.335  1.00  0.00     0.036 C 
BRANCH  17  19
ATOM     19  C   UNL     1      -1.242  -0.443   0.814  1.00  0.00    -0.026 A 
ATOM     20  C   UNL     1      -1.859   0.815   0.834  1.00  0.00     0.007 A 
ATOM     21  C   UNL     1      -2.062  -1.591   0.867  1.00  0.00     0.007 A 
ATOM     22  C   UNL     1      -3.252   0.920   0.951  1.00  0.00     0.021 A 
ATOM     23  C   UNL     1      -3.448  -1.485   0.991  1.00  0.00     0.021 A 
ATOM     24  C   UNL     1      -4.037  -0.227   1.046  1.00  0.00     0.041 A 
ATOM     25  Cl  UNL     1      -5.739  -0.096   1.259  1.00  0.00    -0.084 Cl
ENDBRANCH  17  19
ENDBRANCH  14  17
ENDBRANCH   8  13
ENDBRANCH   5   7
ENDBRANCH   4   5
ENDBRANCH   3   4
ENDBRANCH   2   3
ENDBRANCH   1   2
BRANCH   1  26
ATOM     26  C   UNL     1       4.628   0.867   5.250  1.00  0.00     0.202 C 
BRANCH  26  27
ATOM     27  C   UNL     1       4.124  -0.574   5.344  1.00  0.00     0.261 C 
BRANCH  27  28
ATOM     28  O   UNL     1       2.724  -0.607   5.675  1.00  0.00    -0.460 OA
BRANCH  28  29
ATOM     29  C   UNL     1       2.459  -0.913   6.965  1.00  0.00     0.338 C 
ATOM     30  O   UNL     1       3.274  -1.232   7.826  1.00  0.00    -0.246 OA
BRANCH  29  31
ATOM     31  C   UNL     1       1.035  -0.685   7.271  1.00  0.00     0.060 A 
ATOM     32  C   UNL     1       0.734  -0.070   8.492  1.00  0.00     0.016 A 
ATOM     33  C   UNL     1       0.008  -1.118   6.426  1.00  0.00     0.016 A 
ATOM     34  C   UNL     1      -0.591   0.067   8.897  1.00  0.00     0.010 A 
ATOM     35  C   UNL     1      -1.323  -0.976   6.835  1.00  0.00     0.010 A 
ATOM     36  C   UNL     1      -1.628  -0.416   8.088  1.00  0.00    -0.014 A 
BRANCH  36  37
ATOM     37  C   UNL     1      -3.016  -0.426   8.611  1.00  0.00     0.031 A 
ATOM     38  C   UNL     1      -3.599  -1.708   9.143  1.00  0.00     0.074 A 
ATOM     39  C   UNL     1      -3.746   0.704   8.634  1.00  0.00     0.049 A 
ATOM     40  N   UNL     1      -4.777  -1.924   9.668  1.00  0.00    -0.248 NA
ATOM     41  C   UNL     1      -2.741  -2.903   9.076  1.00  0.00     0.031 C 
ATOM     42  C   UNL     1      -3.299   2.007   8.145  1.00  0.00     0.029 A 
ATOM     43  N   UNL     1      -5.027   0.929   9.073  1.00  0.00    -0.354 N 
ATOM     44  C   UNL     1      -4.813  -3.279   9.974  1.00  0.00     0.074 A 
ATOM     45  C   UNL     1      -3.544  -3.839   9.562  1.00  0.00     0.031 C 
ATOM     46  C   UNL     1      -4.299   2.893   8.290  1.00  0.00     0.029 A 
ATOM     47  C   UNL     1      -5.460   2.217   8.865  1.00  0.00     0.049 A 
ATOM     48  H   UNL     1      -5.582   0.235   9.495  1.00  0.00     0.167 HD
ATOM     49  C   UNL     1      -5.803  -3.990  10.565  1.00  0.00     0.034 A 
ATOM     50  C   UNL     1      -6.661   2.784   9.100  1.00  0.00     0.034 A 
ATOM     51  C   UNL     1      -7.055  -3.431  10.999  1.00  0.00     0.049 A 
ATOM     52  C   UNL     1      -7.753   1.965   9.740  1.00  0.00     0.074 A 
ATOM     53  C   UNL     1      -8.095  -4.062  11.659  1.00  0.00     0.029 A 
ATOM     54  N   UNL     1      -7.444  -2.115  10.807  1.00  0.00    -0.354 N 
ATOM     55  N   UNL     1      -7.719   0.721  10.152  1.00  0.00    -0.248 NA
ATOM     56  C   UNL     1      -9.038   2.639   9.979  1.00  0.00     0.031 C 
ATOM     57  C   UNL     1      -9.122  -3.132  11.848  1.00  0.00     0.029 A 
ATOM     58  C   UNL     1      -8.713  -1.916  11.323  1.00  0.00     0.049 A 
ATOM     59  H   UNL     1      -6.898  -1.423  10.369  1.00  0.00     0.167 HD
ATOM     60  C   UNL     1      -8.961   0.474  10.728  1.00  0.00     0.074 A 
ATOM     61  C   UNL     1      -9.718   1.705  10.631  1.00  0.00     0.031 C 
ATOM     62  C   UNL     1      -9.437  -0.672  11.274  1.00  0.00     0.034 A 
BRANCH  49  63
ATOM     63  C   UNL     1      -5.557  -5.453  10.815  1.00  0.00     0.023 A 
ATOM     64  C   UNL     1      -4.692  -5.843  11.858  1.00  0.00     0.012 A 
ATOM     65  C   UNL     1      -6.226  -6.440  10.065  1.00  0.00     0.148 A 
ATOM     66  C   UNL     1      -4.476  -7.192  12.134  1.00  0.00     0.002 A 
ATOM     67  C   UNL     1      -6.035  -7.782  10.371  1.00  0.00     0.091 A 
ATOM     68  F   UNL     1      -7.025  -6.049   9.062  1.00  0.00    -0.205 F 
ATOM     69  C   UNL     1      -5.154  -8.160  11.398  1.00  0.00     0.022 A 
BRANCH  67  70
ATOM     70  S   UNL     1      -6.917  -9.100   9.526  1.00  0.00     0.127 S 
ATOM     71  O   UNL     1      -5.863  -9.668   8.686  1.00  0.00    -0.237 OA
ATOM     72  O   UNL     1      -7.338  -9.954  10.637  1.00  0.00    -0.237 OA
ATOM     73  O   UNL     1      -8.009  -8.454   8.812  1.00  0.00    -0.744 OA
ENDBRANCH  67  70
ENDBRANCH  49  63
BRANCH  50  74
ATOM     74  C   UNL     1      -6.882   4.219   8.767  1.00  0.00     0.023 A 
ATOM     75  C   UNL     1      -7.042   5.156   9.806  1.00  0.00     0.012 A 
ATOM     76  C   UNL     1      -6.913   4.662   7.431  1.00  0.00     0.148 A 
ATOM     77  C   UNL     1      -7.258   6.505   9.518  1.00  0.00     0.002 A 
ATOM     78  C   UNL     1      -7.072   6.014   7.153  1.00  0.00     0.091 A 
ATOM     79  F   UNL     1      -6.779   3.752   6.456  1.00  0.00    -0.205 F 
ATOM     80  C   UNL     1      -7.262   6.935   8.194  1.00  0.00     0.022 A 
BRANCH  78  81
ATOM     81  S   UNL     1      -6.954   6.671   5.485  1.00  0.00     0.127 S 
ATOM     82  O   UNL     1      -8.348   6.987   5.187  1.00  0.00    -0.237 OA
ATOM     83  O   UNL     1      -6.085   7.833   5.677  1.00  0.00    -0.237 OA
ATOM     84  O   UNL     1      -6.357   5.607   4.689  1.00  0.00    -0.744 OA
ENDBRANCH  78  81
ENDBRANCH  50  74
BRANCH  62  85
ATOM     85  C   UNL     1     -10.834  -0.655  11.841  1.00  0.00     0.023 A 
ATOM     86  C   UNL     1     -11.940  -0.637  10.969  1.00  0.00     0.012 A 
ATOM     87  C   UNL     1     -11.050  -0.744  13.231  1.00  0.00     0.148 A 
ATOM     88  C   UNL     1     -13.240  -0.679  11.472  1.00  0.00     0.002 A 
ATOM     89  C   UNL     1     -12.348  -0.831  13.722  1.00  0.00     0.091 A 
ATOM     90  F   UNL     1      -9.986  -0.741  14.046  1.00  0.00    -0.205 F 
ATOM     91  C   UNL     1     -13.444  -0.788  12.846  1.00  0.00     0.022 A 
BRANCH  89  92
ATOM     92  S   UNL     1     -12.701  -1.067  15.468  1.00  0.00     0.127 S 
ATOM     93  O   UNL     1     -13.184   0.257  15.857  1.00  0.00    -0.237 OA
ATOM     94  O   UNL     1     -13.731  -2.107  15.441  1.00  0.00    -0.237 OA
ATOM     95  O   UNL     1     -11.444  -1.481  16.078  1.00  0.00    -0.744 OA
ENDBRANCH  89  92
ENDBRANCH  62  85
ENDBRANCH  36  37
ENDBRANCH  29  31
ENDBRANCH  28  29
ENDBRANCH  27  28
ENDBRANCH  26  27
ENDBRANCH   1  26
TORSDOF 20
