REMARK SMILES O=C(C[N@H+]1CCC[C@H](CBr)C1)OCCOCCOC(=O)c1ccc(-c2c3nc(c(-c4cccc(S(=O)(=O)[O-])c4F)c4ccc([nH]4)c(-c4cccc(S(=O)(=O)[O-])c4F)c4nc(c(-c5cccc(S(=O)(=O)[O-])c5F)c5ccc2[nH]5)C=C4)C=C3)cc1
REMARK SMILES IDX 16 1 15 2 14 3 13 4 12 5 2 6 1 7 3 8 4 9 5 10 11 11 6 13
REMARK SMILES IDX 8 14 7 15 9 16 10 17 17 18 18 19 19 20 20 21 21 22 22 23
REMARK SMILES IDX 83 24 23 25 82 26 24 27 25 28 26 29 76 30 27 31 81 32 75 33
REMARK SMILES IDX 77 34 28 35 80 36 74 37 73 38 29 40 61 41 41 42 60 43 42 44
REMARK SMILES IDX 45 45 59 46 78 47 43 48 44 49 58 51 79 52 46 53 30 54 31 55
REMARK SMILES IDX 39 56 32 57 34 58 40 59 33 60 35 61 36 62 37 63 38 64 62 65
REMARK SMILES IDX 63 66 71 67 64 68 66 69 72 70 65 71 67 72 68 73 69 74 70 75
REMARK SMILES IDX 47 76 48 77 56 78 49 79 51 80 57 81 50 82 52 83 53 84 54 85
REMARK SMILES IDX 55 86
REMARK H PARENT 4 12 77 39 45 50
REMARK Flexibility Score: inf
ROOT
ATOM      1  C   UNL     1       2.816  -2.100   1.355  1.00  0.00     0.202 C 
ENDROOT
BRANCH   1   2
ATOM      2  O   UNL     1       4.022  -1.852   0.626  1.00  0.00    -0.374 OA
BRANCH   2   3
ATOM      3  C   UNL     1       4.723  -0.642   0.882  1.00  0.00     0.202 C 
BRANCH   3   4
ATOM      4  C   UNL     1       4.171   0.656   0.296  1.00  0.00     0.261 C 
BRANCH   4   5
ATOM      5  O   UNL     1       2.752   0.828   0.408  1.00  0.00    -0.459 OA
BRANCH   5   6
ATOM      6  C   UNL     1       1.860   0.483  -0.549  1.00  0.00     0.361 C 
ATOM      7  O   UNL     1       0.673   0.786  -0.412  1.00  0.00    -0.245 OA
BRANCH   6   8
ATOM      8  C   UNL     1       2.293  -0.376  -1.732  1.00  0.00     0.386 C 
BRANCH   8   9
ATOM      9  N   UNL     1       3.354   0.201  -2.586  1.00  0.00    -0.325 N 
ATOM     10  C   UNL     1       3.607  -0.708  -3.715  1.00  0.00     0.262 C 
ATOM     11  C   UNL     1       3.027   1.562  -3.034  1.00  0.00     0.267 C 
ATOM     12  H   UNL     1       4.208   0.291  -2.036  1.00  0.00     0.348 HD
ATOM     13  C   UNL     1       4.690  -0.186  -4.658  1.00  0.00     0.062 C 
ATOM     14  C   UNL     1       4.174   2.164  -3.868  1.00  0.00     0.055 C 
ATOM     15  C   UNL     1       4.414   1.253  -5.082  1.00  0.00     0.016 C 
BRANCH  14  16
ATOM     16  C   UNL     1       5.422   2.372  -2.999  1.00  0.00     0.090 C 
ATOM     17  Br  UNL     1       6.770   3.427  -3.935  1.00  0.00    -0.092 Br
ENDBRANCH  14  16
ENDBRANCH   8   9
ENDBRANCH   6   8
ENDBRANCH   5   6
ENDBRANCH   4   5
ENDBRANCH   3   4
ENDBRANCH   2   3
ENDBRANCH   1   2
BRANCH   1  18
ATOM     18  C   UNL     1       2.921  -2.366   2.859  1.00  0.00     0.261 C 
BRANCH  18  19
ATOM     19  O   UNL     1       3.263  -1.177   3.588  1.00  0.00    -0.460 OA
BRANCH  19  20
ATOM     20  C   UNL     1       4.488  -1.197   4.154  1.00  0.00     0.338 C 
ATOM     21  O   UNL     1       5.287  -2.131   4.149  1.00  0.00    -0.246 OA
BRANCH  20  22
ATOM     22  C   UNL     1       4.857   0.149   4.619  1.00  0.00     0.060 A 
ATOM     23  C   UNL     1       6.135   0.616   4.280  1.00  0.00     0.016 A 
ATOM     24  C   UNL     1       4.021   0.890   5.456  1.00  0.00     0.016 A 
ATOM     25  C   UNL     1       6.629   1.770   4.873  1.00  0.00     0.010 A 
ATOM     26  C   UNL     1       4.521   2.048   6.056  1.00  0.00     0.010 A 
ATOM     27  C   UNL     1       5.850   2.442   5.822  1.00  0.00    -0.014 A 
BRANCH  27  28
ATOM     28  C   UNL     1       6.529   3.375   6.748  1.00  0.00     0.031 A 
ATOM     29  C   UNL     1       6.941   2.855   8.101  1.00  0.00     0.074 A 
ATOM     30  C   UNL     1       6.825   4.630   6.372  1.00  0.00     0.049 A 
ATOM     31  N   UNL     1       7.586   3.461   9.061  1.00  0.00    -0.248 NA
ATOM     32  C   UNL     1       6.574   1.462   8.414  1.00  0.00     0.031 C 
ATOM     33  C   UNL     1       6.485   5.228   5.082  1.00  0.00     0.029 A 
ATOM     34  N   UNL     1       7.473   5.629   7.050  1.00  0.00    -0.354 N 
ATOM     35  C   UNL     1       7.671   2.540  10.099  1.00  0.00     0.074 A 
ATOM     36  C   UNL     1       7.000   1.339   9.661  1.00  0.00     0.031 C 
ATOM     37  C   UNL     1       6.915   6.502   5.067  1.00  0.00     0.029 A 
ATOM     38  C   UNL     1       7.544   6.809   6.350  1.00  0.00     0.049 A 
ATOM     39  H   UNL     1       7.850   5.512   7.951  1.00  0.00     0.167 HD
ATOM     40  C   UNL     1       8.270   2.677  11.305  1.00  0.00     0.034 A 
ATOM     41  C   UNL     1       8.056   8.001   6.715  1.00  0.00     0.034 A 
ATOM     42  C   UNL     1       8.961   3.866  11.720  1.00  0.00     0.049 A 
ATOM     43  C   UNL     1       8.721   8.125   8.061  1.00  0.00     0.074 A 
ATOM     44  C   UNL     1       9.643   4.099  12.900  1.00  0.00     0.029 A 
ATOM     45  N   UNL     1       9.051   5.027  10.967  1.00  0.00    -0.354 N 
ATOM     46  N   UNL     1       8.891   7.211   8.988  1.00  0.00    -0.248 NA
ATOM     47  C   UNL     1       9.303   9.432   8.394  1.00  0.00     0.031 C 
ATOM     48  C   UNL     1      10.123   5.413  12.871  1.00  0.00     0.029 A 
ATOM     49  C   UNL     1       9.771   5.984  11.658  1.00  0.00     0.049 A 
ATOM     50  H   UNL     1       8.660   5.151  10.072  1.00  0.00     0.167 HD
ATOM     51  C   UNL     1       9.641   7.818   9.990  1.00  0.00     0.074 A 
ATOM     52  C   UNL     1       9.902   9.173   9.549  1.00  0.00     0.031 C 
ATOM     53  C   UNL     1      10.069   7.306  11.171  1.00  0.00     0.034 A 
BRANCH  40  54
ATOM     54  C   UNL     1       8.214   1.506  12.252  1.00  0.00     0.023 A 
ATOM     55  C   UNL     1       8.976   0.349  11.988  1.00  0.00     0.012 A 
ATOM     56  C   UNL     1       7.434   1.567  13.423  1.00  0.00     0.148 A 
ATOM     57  C   UNL     1       8.936  -0.741  12.856  1.00  0.00     0.002 A 
ATOM     58  C   UNL     1       7.435   0.494  14.307  1.00  0.00     0.091 A 
ATOM     59  F   UNL     1       6.694   2.663  13.643  1.00  0.00    -0.205 F 
ATOM     60  C   UNL     1       8.175  -0.664  14.020  1.00  0.00     0.022 A 
BRANCH  58  61
ATOM     61  S   UNL     1       6.551   0.529  15.870  1.00  0.00     0.127 S 
ATOM     62  O   UNL     1       5.465  -0.416  15.616  1.00  0.00    -0.237 OA
ATOM     63  O   UNL     1       7.566   0.052  16.809  1.00  0.00    -0.237 OA
ATOM     64  O   UNL     1       6.142   1.912  16.070  1.00  0.00    -0.744 OA
ENDBRANCH  58  61
ENDBRANCH  40  54
BRANCH  41  65
ATOM     65  C   UNL     1       8.013   9.151   5.769  1.00  0.00     0.023 A 
ATOM     66  C   UNL     1       9.208   9.627   5.197  1.00  0.00     0.012 A 
ATOM     67  C   UNL     1       6.793   9.763   5.421  1.00  0.00     0.148 A 
ATOM     68  C   UNL     1       9.194  10.713   4.321  1.00  0.00     0.002 A 
ATOM     69  C   UNL     1       6.780  10.809   4.505  1.00  0.00     0.091 A 
ATOM     70  F   UNL     1       5.668   9.304   5.987  1.00  0.00    -0.205 F 
ATOM     71  C   UNL     1       7.981  11.297   3.967  1.00  0.00     0.022 A 
BRANCH  69  72
ATOM     72  S   UNL     1       5.255  11.537   3.898  1.00  0.00     0.127 S 
ATOM     73  O   UNL     1       5.286  12.858   4.521  1.00  0.00    -0.237 OA
ATOM     74  O   UNL     1       5.474  11.533   2.451  1.00  0.00    -0.237 OA
ATOM     75  O   UNL     1       4.190  10.651   4.346  1.00  0.00    -0.744 OA
ENDBRANCH  69  72
ENDBRANCH  41  65
BRANCH  53  76
ATOM     76  C   UNL     1      10.917   8.191  12.047  1.00  0.00     0.023 A 
ATOM     77  C   UNL     1      10.337   9.283  12.722  1.00  0.00     0.012 A 
ATOM     78  C   UNL     1      12.279   7.896  12.251  1.00  0.00     0.148 A 
ATOM     79  C   UNL     1      11.111  10.093  13.552  1.00  0.00     0.002 A 
ATOM     80  C   UNL     1      13.031   8.675  13.121  1.00  0.00     0.091 A 
ATOM     81  F   UNL     1      12.819   6.864  11.585  1.00  0.00    -0.205 F 
ATOM     82  C   UNL     1      12.453   9.783  13.761  1.00  0.00     0.022 A 
BRANCH  80  83
ATOM     83  S   UNL     1      14.736   8.281  13.525  1.00  0.00     0.127 S 
ATOM     84  O   UNL     1      15.467   9.265  12.729  1.00  0.00    -0.237 OA
ATOM     85  O   UNL     1      14.777   8.513  14.970  1.00  0.00    -0.237 OA
ATOM     86  O   UNL     1      14.925   6.889  13.135  1.00  0.00    -0.744 OA
ENDBRANCH  80  83
ENDBRANCH  53  76
ENDBRANCH  27  28
ENDBRANCH  20  22
ENDBRANCH  19  20
ENDBRANCH  18  19
ENDBRANCH   1  18
TORSDOF 19
