REMARK SMILES CC1(C)COCCN1C(=O)N1CCO[C@@H](CC(=O)OCCOCCOC(=O)c2ccc(-c3c4nc(c(-c5cccc(S(=O)(=O)[O-])c5F)c5ccc([nH]5)c(-c5cccc(S(=O)(=O)[O-])c5F)c5nc(c(-c6cccc(S(=O)(=O)[O-])c6F)c6ccc3[nH]6)C=C5)C=C4)cc2)C1
REMARK SMILES IDX 22 1 21 2 20 3 19 4 17 5 18 6 16 7 15 8 11 9 12 10 91 11
REMARK SMILES IDX 13 12 14 13 9 14 10 15 8 16 1 17 2 18 3 19 4 20 5 21 7 22
REMARK SMILES IDX 6 23 23 24 24 25 25 26 26 27 27 28 28 29 29 30 90 31 30 32
REMARK SMILES IDX 89 33 31 34 32 35 33 36 83 37 34 38 88 39 82 40 84 41 35 42
REMARK SMILES IDX 87 43 81 44 80 45 36 47 68 48 48 49 67 50 49 51 52 52 66 53
REMARK SMILES IDX 85 54 50 55 51 56 65 58 86 59 53 60 37 61 38 62 46 63 39 64
REMARK SMILES IDX 41 65 47 66 40 67 42 68 43 69 44 70 45 71 69 72 70 73 78 74
REMARK SMILES IDX 71 75 73 76 79 77 72 78 74 79 75 80 76 81 77 82 54 83 55 84
REMARK SMILES IDX 63 85 56 86 58 87 64 88 57 89 59 90 60 91 61 92 62 93
REMARK H PARENT 84 46 52 57
REMARK Flexibility Score: inf
ROOT
ATOM      1  O   UNL     1      -5.180   0.974  -1.809  1.00  0.00    -0.374 OA
ENDROOT
BRANCH   1   2
ATOM      2  C   UNL     1      -4.209   1.956  -1.457  1.00  0.00     0.202 C 
BRANCH   2   3
ATOM      3  C   UNL     1      -2.824   1.446  -1.054  1.00  0.00     0.261 C 
BRANCH   3   4
ATOM      4  O   UNL     1      -2.203   0.703  -2.120  1.00  0.00    -0.463 OA
BRANCH   4   5
ATOM      5  C   UNL     1      -1.652  -0.485  -1.769  1.00  0.00     0.308 C 
ATOM      6  O   UNL     1      -1.575  -0.907  -0.621  1.00  0.00    -0.252 OA
BRANCH   5   7
ATOM      7  C   UNL     1      -1.248  -1.318  -2.958  1.00  0.00     0.156 C 
BRANCH   7   8
ATOM      8  C   UNL     1      -0.632  -0.609  -4.166  1.00  0.00     0.149 C 
ATOM      9  N   UNL     1       1.585   0.244  -3.389  1.00  0.00    -0.320 N 
ATOM     10  C   UNL     1       2.248  -0.742  -4.235  1.00  0.00     0.150 C 
ATOM     11  C   UNL     1       0.276   0.609  -3.916  1.00  0.00     0.154 C 
ATOM     12  C   UNL     1       1.352  -1.956  -4.472  1.00  0.00     0.182 C 
ATOM     13  O   UNL     1       0.058  -1.588  -4.989  1.00  0.00    -0.374 OA
BRANCH   9  14
ATOM     14  C   UNL     1       2.379   1.312  -3.020  1.00  0.00     0.320 C 
ATOM     15  O   UNL     1       2.752   2.104  -3.883  1.00  0.00    -0.248 OA
BRANCH  14  16
ATOM     16  N   UNL     1       2.650   1.467  -1.665  1.00  0.00    -0.315 N 
ATOM     17  C   UNL     1       3.034   0.687   0.706  1.00  0.00     0.037 C 
ATOM     18  C   UNL     1       2.052   0.736  -0.497  1.00  0.00     0.062 C 
ATOM     19  C   UNL     1       1.698  -0.736  -0.745  1.00  0.00     0.037 C 
ATOM     20  C   UNL     1       0.810   1.568  -0.088  1.00  0.00     0.188 C 
ATOM     21  O   UNL     1       1.179   2.913   0.286  1.00  0.00    -0.377 OA
ATOM     22  C   UNL     1       3.085   2.827  -1.305  1.00  0.00     0.150 C 
ATOM     23  C   UNL     1       1.864   3.606  -0.782  1.00  0.00     0.182 C 
ENDBRANCH  14  16
ENDBRANCH   9  14
ENDBRANCH   7   8
ENDBRANCH   5   7
ENDBRANCH   4   5
ENDBRANCH   3   4
ENDBRANCH   2   3
ENDBRANCH   1   2
BRANCH   1  24
ATOM     24  C   UNL     1      -4.900   0.103  -2.901  1.00  0.00     0.202 C 
BRANCH  24  25
ATOM     25  C   UNL     1      -4.754   0.709  -4.306  1.00  0.00     0.261 C 
BRANCH  25  26
ATOM     26  O   UNL     1      -3.691   1.671  -4.453  1.00  0.00    -0.460 OA
BRANCH  26  27
ATOM     27  C   UNL     1      -4.122   2.943  -4.658  1.00  0.00     0.338 C 
ATOM     28  O   UNL     1      -5.279   3.328  -4.656  1.00  0.00    -0.246 OA
BRANCH  27  29
ATOM     29  C   UNL     1      -3.001   3.895  -4.784  1.00  0.00     0.060 A 
ATOM     30  C   UNL     1      -2.979   4.995  -3.915  1.00  0.00     0.016 A 
ATOM     31  C   UNL     1      -2.139   3.841  -5.880  1.00  0.00     0.016 A 
ATOM     32  C   UNL     1      -2.158   6.089  -4.191  1.00  0.00     0.010 A 
ATOM     33  C   UNL     1      -1.320   4.942  -6.158  1.00  0.00     0.010 A 
ATOM     34  C   UNL     1      -1.373   6.094  -5.351  1.00  0.00    -0.014 A 
BRANCH  34  35
ATOM     35  C   UNL     1      -0.779   7.366  -5.838  1.00  0.00     0.031 A 
ATOM     36  C   UNL     1      -1.505   8.139  -6.912  1.00  0.00     0.074 A 
ATOM     37  C   UNL     1       0.387   7.827  -5.352  1.00  0.00     0.049 A 
ATOM     38  N   UNL     1      -1.137   9.220  -7.549  1.00  0.00    -0.248 NA
ATOM     39  C   UNL     1      -2.821   7.619  -7.323  1.00  0.00     0.031 C 
ATOM     40  C   UNL     1       1.175   7.188  -4.302  1.00  0.00     0.029 A 
ATOM     41  N   UNL     1       1.123   8.931  -5.706  1.00  0.00    -0.354 N 
ATOM     42  C   UNL     1      -2.153   9.488  -8.460  1.00  0.00     0.074 A 
ATOM     43  C   UNL     1      -3.155   8.458  -8.293  1.00  0.00     0.031 C 
ATOM     44  C   UNL     1       2.307   7.892  -4.120  1.00  0.00     0.029 A 
ATOM     45  C   UNL     1       2.333   9.013  -5.059  1.00  0.00     0.049 A 
ATOM     46  H   UNL     1       0.815   9.599  -6.360  1.00  0.00     0.167 HD
ATOM     47  C   UNL     1      -2.252  10.505  -9.348  1.00  0.00     0.034 A 
ATOM     48  C   UNL     1       3.355   9.878  -5.225  1.00  0.00     0.034 A 
ATOM     49  C   UNL     1      -1.276  11.550  -9.493  1.00  0.00     0.049 A 
ATOM     50  C   UNL     1       3.229  10.992  -6.233  1.00  0.00     0.074 A 
ATOM     51  C   UNL     1      -1.306  12.643 -10.341  1.00  0.00     0.029 A 
ATOM     52  N   UNL     1      -0.095  11.632  -8.774  1.00  0.00    -0.354 N 
ATOM     53  N   UNL     1       2.218  11.290  -7.013  1.00  0.00    -0.248 NA
ATOM     54  C   UNL     1       4.373  11.908  -6.364  1.00  0.00     0.031 C 
ATOM     55  C   UNL     1      -0.136  13.383 -10.140  1.00  0.00     0.029 A 
ATOM     56  C   UNL     1       0.614  12.756  -9.158  1.00  0.00     0.049 A 
ATOM     57  H   UNL     1       0.197  10.986  -8.090  1.00  0.00     0.167 HD
ATOM     58  C   UNL     1       2.586  12.448  -7.692  1.00  0.00     0.074 A 
ATOM     59  C   UNL     1       3.910  12.803  -7.227  1.00  0.00     0.031 C 
ATOM     60  C   UNL     1       1.895  13.144  -8.627  1.00  0.00     0.034 A 
BRANCH  47  61
ATOM     61  C   UNL     1      -3.482  10.563 -10.214  1.00  0.00     0.023 A 
ATOM     62  C   UNL     1      -4.699  11.006  -9.658  1.00  0.00     0.012 A 
ATOM     63  C   UNL     1      -3.420  10.245 -11.584  1.00  0.00     0.148 A 
ATOM     64  C   UNL     1      -5.842  11.109 -10.449  1.00  0.00     0.002 A 
ATOM     65  C   UNL     1      -4.556  10.386 -12.374  1.00  0.00     0.091 A 
ATOM     66  F   UNL     1      -2.259   9.802 -12.088  1.00  0.00    -0.205 F 
ATOM     67  C   UNL     1      -5.768  10.810 -11.807  1.00  0.00     0.022 A 
BRANCH  65  68
ATOM     68  S   UNL     1      -4.536  10.091 -14.146  1.00  0.00     0.127 S 
ATOM     69  O   UNL     1      -5.194   8.789 -14.236  1.00  0.00    -0.237 OA
ATOM     70  O   UNL     1      -5.328  11.210 -14.659  1.00  0.00    -0.237 OA
ATOM     71  O   UNL     1      -3.134  10.116 -14.538  1.00  0.00    -0.744 OA
ENDBRANCH  65  68
ENDBRANCH  47  61
BRANCH  48  72
ATOM     72  C   UNL     1       4.580   9.749  -4.384  1.00  0.00     0.023 A 
ATOM     73  C   UNL     1       4.845  10.721  -3.400  1.00  0.00     0.012 A 
ATOM     74  C   UNL     1       5.467   8.666  -4.539  1.00  0.00     0.148 A 
ATOM     75  C   UNL     1       5.985  10.630  -2.600  1.00  0.00     0.002 A 
ATOM     76  C   UNL     1       6.573   8.554  -3.704  1.00  0.00     0.091 A 
ATOM     77  F   UNL     1       5.208   7.764  -5.495  1.00  0.00    -0.205 F 
ATOM     78  C   UNL     1       6.842   9.543  -2.744  1.00  0.00     0.022 A 
BRANCH  76  79
ATOM     79  S   UNL     1       7.665   7.128  -3.733  1.00  0.00     0.127 S 
ATOM     80  O   UNL     1       8.883   7.695  -4.304  1.00  0.00    -0.237 OA
ATOM     81  O   UNL     1       7.751   6.786  -2.312  1.00  0.00    -0.237 OA
ATOM     82  O   UNL     1       6.986   6.131  -4.549  1.00  0.00    -0.744 OA
ENDBRANCH  76  79
ENDBRANCH  48  72
BRANCH  60  83
ATOM     83  C   UNL     1       2.516  14.398  -9.185  1.00  0.00     0.023 A 
ATOM     84  C   UNL     1       3.546  14.302 -10.140  1.00  0.00     0.012 A 
ATOM     85  C   UNL     1       1.998  15.665  -8.848  1.00  0.00     0.148 A 
ATOM     86  C   UNL     1       4.063  15.449 -10.741  1.00  0.00     0.002 A 
ATOM     87  C   UNL     1       2.490  16.801  -9.482  1.00  0.00     0.091 A 
ATOM     88  F   UNL     1       1.029  15.735  -7.924  1.00  0.00    -0.205 F 
ATOM     89  C   UNL     1       3.526  16.695 -10.423  1.00  0.00     0.022 A 
BRANCH  87  90
ATOM     90  S   UNL     1       1.795  18.435  -9.202  1.00  0.00     0.127 S 
ATOM     91  O   UNL     1       2.834  19.064  -8.388  1.00  0.00    -0.237 OA
ATOM     92  O   UNL     1       1.682  18.963 -10.562  1.00  0.00    -0.237 OA
ATOM     93  O   UNL     1       0.520  18.218  -8.531  1.00  0.00    -0.744 OA
ENDBRANCH  87  90
ENDBRANCH  60  83
ENDBRANCH  34  35
ENDBRANCH  27  29
ENDBRANCH  26  27
ENDBRANCH  25  26
ENDBRANCH  24  25
ENDBRANCH   1  24
TORSDOF 20
