REMARK SMILES C=CCn1c(=S)[nH]c2cc(C(=O)OCCOCCOC(=O)c3ccc(-c4c5nc(c(-c6cccc(S(=O)(=O)[O-])c6F)c6ccc([nH]6)c(-c6cccc(S(=O)(=O)[O-])c6F)c6nc(c(-c7cccc(S(=O)(=O)[O-])c7F)c7ccc4[nH]7)C=C6)C=C5)cc3)ccc2c1=O
REMARK SMILES IDX 17 1 16 2 15 3 14 4 13 5 11 6 12 7 10 8 4 9 5 10 88 11 6 12
REMARK SMILES IDX 7 13 87 14 89 15 8 16 86 18 9 19 85 20 3 21 2 22 1 23 18 24
REMARK SMILES IDX 19 25 20 26 21 27 22 28 23 29 84 30 24 31 83 32 25 33 26 34
REMARK SMILES IDX 27 35 77 36 28 37 82 38 76 39 78 40 29 41 81 42 75 43 74 44
REMARK SMILES IDX 30 46 62 47 42 48 61 49 43 50 46 51 60 52 79 53 44 54 45 55
REMARK SMILES IDX 59 57 80 58 47 59 31 60 32 61 40 62 33 63 35 64 41 65 34 66
REMARK SMILES IDX 36 67 37 68 38 69 39 70 63 71 64 72 72 73 65 74 67 75 73 76
REMARK SMILES IDX 66 77 68 78 69 79 70 80 71 81 48 82 49 83 57 84 50 85 52 86
REMARK SMILES IDX 58 87 51 88 53 89 54 90 55 91 56 92
REMARK H PARENT 7 17 78 45 46 56
REMARK Flexibility Score: inf
ROOT
ATOM      1  C   UNL     1      -5.601   2.563   7.821  1.00  0.00     0.202 C 
ENDROOT
BRANCH   1   2
ATOM      2  O   UNL     1      -5.288   2.694   9.207  1.00  0.00    -0.374 OA
BRANCH   2   3
ATOM      3  C   UNL     1      -4.867   3.974   9.675  1.00  0.00     0.202 C 
BRANCH   3   4
ATOM      4  C   UNL     1      -3.407   4.371   9.431  1.00  0.00     0.261 C 
BRANCH   4   5
ATOM      5  O   UNL     1      -3.071   4.373   8.035  1.00  0.00    -0.460 OA
BRANCH   5   6
ATOM      6  C   UNL     1      -2.338   3.306   7.640  1.00  0.00     0.338 C 
ATOM      7  O   UNL     1      -1.884   2.418   8.344  1.00  0.00    -0.246 OA
BRANCH   6   8
ATOM      8  C   UNL     1      -2.288   3.230   6.165  1.00  0.00     0.062 A 
ATOM      9  N   UNL     1      -1.637   1.325   1.555  1.00  0.00    -0.281 N 
ATOM     10  C   UNL     1      -1.968   0.240   2.366  1.00  0.00     0.180 A 
ATOM     11  C   UNL     1      -1.693   2.661   1.991  1.00  0.00     0.262 A 
ATOM     12  S   UNL     1      -2.063  -1.378   1.925  1.00  0.00    -0.040 S 
ATOM     13  N   UNL     1      -2.231   0.514   3.680  1.00  0.00    -0.332 N 
ATOM     14  C   UNL     1      -1.988   2.894   3.417  1.00  0.00     0.064 A 
ATOM     15  O   UNL     1      -1.480   3.632   1.269  1.00  0.00    -0.269 OA
ATOM     16  C   UNL     1      -2.195   1.790   4.231  1.00  0.00     0.054 A 
ATOM     17  H   UNL     1      -2.460  -0.239   4.272  1.00  0.00     0.169 HD
ATOM     18  C   UNL     1      -2.002   4.185   3.965  1.00  0.00     0.017 A 
ATOM     19  C   UNL     1      -2.344   1.948   5.603  1.00  0.00     0.042 A 
ATOM     20  C   UNL     1      -2.160   4.357   5.346  1.00  0.00     0.016 A 
BRANCH   9  21
ATOM     21  C   UNL     1      -1.159   1.137   0.183  1.00  0.00     0.155 C 
BRANCH  21  22
ATOM     22  C   UNL     1       0.346   1.054   0.215  1.00  0.00    -0.013 C 
ATOM     23  C   UNL     1       1.068  -0.024  -0.122  1.00  0.00     0.006 C 
ENDBRANCH  21  22
ENDBRANCH   9  21
ENDBRANCH   6   8
ENDBRANCH   5   6
ENDBRANCH   4   5
ENDBRANCH   3   4
ENDBRANCH   2   3
ENDBRANCH   1   2
BRANCH   1  24
ATOM     24  C   UNL     1      -6.919   3.169   7.321  1.00  0.00     0.261 C 
BRANCH  24  25
ATOM     25  O   UNL     1      -6.914   4.605   7.370  1.00  0.00    -0.460 OA
BRANCH  25  26
ATOM     26  C   UNL     1      -7.707   5.151   8.327  1.00  0.00     0.338 C 
ATOM     27  O   UNL     1      -8.453   4.557   9.089  1.00  0.00    -0.246 OA
BRANCH  26  28
ATOM     28  C   UNL     1      -7.373   6.582   8.464  1.00  0.00     0.060 A 
ATOM     29  C   UNL     1      -7.380   7.438   7.362  1.00  0.00     0.016 A 
ATOM     30  C   UNL     1      -7.053   7.067   9.740  1.00  0.00     0.016 A 
ATOM     31  C   UNL     1      -7.083   8.790   7.546  1.00  0.00     0.010 A 
ATOM     32  C   UNL     1      -6.755   8.418   9.920  1.00  0.00     0.010 A 
ATOM     33  C   UNL     1      -6.782   9.293   8.826  1.00  0.00    -0.014 A 
BRANCH  33  34
ATOM     34  C   UNL     1      -6.621  10.754   9.031  1.00  0.00     0.031 A 
ATOM     35  C   UNL     1      -5.282  11.369   9.313  1.00  0.00     0.074 A 
ATOM     36  C   UNL     1      -7.721  11.530   8.984  1.00  0.00     0.049 A 
ATOM     37  N   UNL     1      -4.976  12.635   9.434  1.00  0.00    -0.248 NA
ATOM     38  C   UNL     1      -4.142  10.456   9.486  1.00  0.00     0.031 C 
ATOM     39  C   UNL     1      -9.087  11.039   8.786  1.00  0.00     0.029 A 
ATOM     40  N   UNL     1      -7.868  12.889   9.099  1.00  0.00    -0.354 N 
ATOM     41  C   UNL     1      -3.614  12.676   9.700  1.00  0.00     0.074 A 
ATOM     42  C   UNL     1      -3.153  11.304   9.745  1.00  0.00     0.031 C 
ATOM     43  C   UNL     1      -9.930  12.083   8.771  1.00  0.00     0.029 A 
ATOM     44  C   UNL     1      -9.170  13.312   8.978  1.00  0.00     0.049 A 
ATOM     45  H   UNL     1      -7.114  13.502   9.254  1.00  0.00     0.167 HD
ATOM     46  C   UNL     1      -2.820  13.760   9.868  1.00  0.00     0.034 A 
ATOM     47  C   UNL     1      -9.698  14.551   9.021  1.00  0.00     0.034 A 
ATOM     48  C   UNL     1      -3.279  15.123   9.811  1.00  0.00     0.049 A 
ATOM     49  C   UNL     1      -8.793  15.735   9.196  1.00  0.00     0.074 A 
ATOM     50  C   UNL     1      -2.529  16.283   9.905  1.00  0.00     0.029 A 
ATOM     51  N   UNL     1      -4.600  15.513   9.661  1.00  0.00    -0.354 N 
ATOM     52  N   UNL     1      -7.488  15.759   9.310  1.00  0.00    -0.248 NA
ATOM     53  C   UNL     1      -9.425  17.062   9.221  1.00  0.00     0.031 C 
ATOM     54  C   UNL     1      -3.398  17.374   9.834  1.00  0.00     0.029 A 
ATOM     55  C   UNL     1      -4.687  16.894   9.669  1.00  0.00     0.049 A 
ATOM     56  H   UNL     1      -5.363  14.899   9.562  1.00  0.00     0.167 HD
ATOM     57  C   UNL     1      -7.139  17.101   9.396  1.00  0.00     0.074 A 
ATOM     58  C   UNL     1      -8.369  17.862   9.310  1.00  0.00     0.031 C 
ATOM     59  C   UNL     1      -5.908  17.647   9.544  1.00  0.00     0.034 A 
BRANCH  46  60
ATOM     60  C   UNL     1      -1.347  13.539  10.070  1.00  0.00     0.023 A 
ATOM     61  C   UNL     1      -0.542  13.234   8.954  1.00  0.00     0.012 A 
ATOM     62  C   UNL     1      -0.743  13.761  11.323  1.00  0.00     0.148 A 
ATOM     63  C   UNL     1       0.843  13.150   9.082  1.00  0.00     0.002 A 
ATOM     64  C   UNL     1       0.641  13.702  11.437  1.00  0.00     0.091 A 
ATOM     65  F   UNL     1      -1.531  14.044  12.369  1.00  0.00    -0.205 F 
ATOM     66  C   UNL     1       1.435  13.395  10.318  1.00  0.00     0.022 A 
BRANCH  64  67
ATOM     67  S   UNL     1       1.510  14.049  12.970  1.00  0.00     0.127 S 
ATOM     68  O   UNL     1       2.127  12.753  13.256  1.00  0.00    -0.237 OA
ATOM     69  O   UNL     1       2.447  15.094  12.562  1.00  0.00    -0.237 OA
ATOM     70  O   UNL     1       0.494  14.471  13.924  1.00  0.00    -0.744 OA
ENDBRANCH  64  67
ENDBRANCH  46  60
BRANCH  47  71
ATOM     71  C   UNL     1     -11.161  14.721   8.818  1.00  0.00     0.023 A 
ATOM     72  C   UNL     1     -11.636  15.196   7.582  1.00  0.00     0.012 A 
ATOM     73  C   UNL     1     -12.081  14.340   9.814  1.00  0.00     0.148 A 
ATOM     74  C   UNL     1     -13.006  15.297   7.341  1.00  0.00     0.002 A 
ATOM     75  C   UNL     1     -13.443  14.409   9.556  1.00  0.00     0.091 A 
ATOM     76  F   UNL     1     -11.598  13.888  10.980  1.00  0.00    -0.205 F 
ATOM     77  C   UNL     1     -13.908  14.895   8.323  1.00  0.00     0.022 A 
BRANCH  75  78
ATOM     78  S   UNL     1     -14.682  13.829  10.719  1.00  0.00     0.127 S 
ATOM     79  O   UNL     1     -15.423  15.056  11.001  1.00  0.00    -0.237 OA
ATOM     80  O   UNL     1     -15.404  12.842   9.916  1.00  0.00    -0.237 OA
ATOM     81  O   UNL     1     -13.942  13.274  11.844  1.00  0.00    -0.744 OA
ENDBRANCH  75  78
ENDBRANCH  47  71
BRANCH  59  82
ATOM     82  C   UNL     1      -5.799  19.146   9.608  1.00  0.00     0.023 A 
ATOM     83  C   UNL     1      -6.132  19.816  10.800  1.00  0.00     0.012 A 
ATOM     84  C   UNL     1      -5.245  19.869   8.533  1.00  0.00     0.148 A 
ATOM     85  C   UNL     1      -5.921  21.189  10.920  1.00  0.00     0.002 A 
ATOM     86  C   UNL     1      -5.006  21.231   8.672  1.00  0.00     0.091 A 
ATOM     87  F   UNL     1      -4.944  19.207   7.407  1.00  0.00    -0.205 F 
ATOM     88  C   UNL     1      -5.348  21.893   9.863  1.00  0.00     0.022 A 
BRANCH  86  89
ATOM     89  S   UNL     1      -4.209  22.211   7.394  1.00  0.00     0.127 S 
ATOM     90  O   UNL     1      -5.285  23.122   7.004  1.00  0.00    -0.237 OA
ATOM     91  O   UNL     1      -3.112  22.841   8.129  1.00  0.00    -0.237 OA
ATOM     92  O   UNL     1      -3.792  21.271   6.363  1.00  0.00    -0.744 OA
ENDBRANCH  86  89
ENDBRANCH  59  82
ENDBRANCH  33  34
ENDBRANCH  26  28
ENDBRANCH  25  26
ENDBRANCH  24  25
ENDBRANCH   1  24
TORSDOF 19
