REMARK SMILES O=C(OCCOCCOC(=O)[C@@]1([NH2+]C2CC2)CCC[C@H]1CCn1ccnc1)c1ccc(-c2c3nc(c(-c4cccc(S(=O)(=O)[O-])c4F)c4ccc([nH]4)c(-c4cccc(S(=O)(=O)[O-])c4F)c4nc(c(-c5cccc(S(=O)(=O)[O-])c5F)c5ccc2[nH]5)C=C4)C=C3)cc1
REMARK SMILES IDX 6 1 5 2 4 3 3 4 2 5 1 6 28 7 29 8 90 9 30 10 89 11 31 12
REMARK SMILES IDX 32 13 33 14 83 15 34 16 88 17 82 18 84 19 35 20 87 21 81 22
REMARK SMILES IDX 80 23 36 25 68 26 48 27 67 28 49 29 52 30 66 31 85 32 50 33
REMARK SMILES IDX 51 34 65 36 86 37 53 38 37 39 38 40 46 41 39 42 41 43 47 44
REMARK SMILES IDX 40 45 42 46 43 47 44 48 45 49 69 50 70 51 78 52 71 53 73 54
REMARK SMILES IDX 79 55 72 56 74 57 75 58 76 59 77 60 54 61 55 62 63 63 56 64
REMARK SMILES IDX 58 65 64 66 57 67 59 68 60 69 61 70 62 71 7 72 8 73 9 74
REMARK SMILES IDX 10 75 11 76 12 77 17 78 20 79 18 80 19 81 13 82 14 85 15 86
REMARK SMILES IDX 16 87 21 88 22 89 23 90 24 91 27 92 25 93 26 94
REMARK H PARENT 84 24 52 35 13 83 13 84
REMARK Flexibility Score: inf
ROOT
ATOM      1  O   UNL     1       4.274   1.469   0.476  1.00  0.00    -0.374 OA
ENDROOT
BRANCH   1   2
ATOM      2  C   UNL     1       5.013   0.377  -0.052  1.00  0.00     0.202 C 
BRANCH   2   3
ATOM      3  C   UNL     1       4.370  -1.027  -0.090  1.00  0.00     0.261 C 
BRANCH   3   4
ATOM      4  O   UNL     1       3.042  -1.063  -0.610  1.00  0.00    -0.460 OA
BRANCH   4   5
ATOM      5  C   UNL     1       1.891  -0.797   0.039  1.00  0.00     0.338 C 
ATOM      6  O   UNL     1       0.856  -0.725  -0.623  1.00  0.00    -0.246 OA
BRANCH   5   7
ATOM      7  C   UNL     1       1.824  -0.591   1.514  1.00  0.00     0.060 A 
ATOM      8  C   UNL     1       2.913  -0.591   2.386  1.00  0.00     0.016 A 
ATOM      9  C   UNL     1       0.538  -0.413   2.048  1.00  0.00     0.016 A 
ATOM     10  C   UNL     1       2.728  -0.746   3.732  1.00  0.00     0.010 A 
ATOM     11  C   UNL     1       0.344  -0.448   3.414  1.00  0.00     0.010 A 
ATOM     12  C   UNL     1       1.435  -0.734   4.222  1.00  0.00    -0.014 A 
BRANCH  12  13
ATOM     13  C   UNL     1       1.320  -0.979   5.637  1.00  0.00     0.031 A 
ATOM     14  C   UNL     1       2.038   0.025   6.463  1.00  0.00     0.074 A 
ATOM     15  C   UNL     1       0.639  -2.053   6.068  1.00  0.00     0.049 A 
ATOM     16  N   UNL     1       3.063  -0.161   7.230  1.00  0.00    -0.248 NA
ATOM     17  C   UNL     1       1.726   1.441   6.211  1.00  0.00     0.031 C 
ATOM     18  C   UNL     1      -0.244  -2.926   5.289  1.00  0.00     0.029 A 
ATOM     19  N   UNL     1       0.458  -2.482   7.338  1.00  0.00    -0.354 N 
ATOM     20  C   UNL     1       3.361   1.098   7.750  1.00  0.00     0.074 A 
ATOM     21  C   UNL     1       2.682   2.046   6.914  1.00  0.00     0.031 C 
ATOM     22  C   UNL     1      -1.095  -3.542   6.137  1.00  0.00     0.029 A 
ATOM     23  C   UNL     1      -0.717  -3.204   7.497  1.00  0.00     0.049 A 
ATOM     24  H   UNL     1       1.090  -2.302   8.071  1.00  0.00     0.167 HD
ATOM     25  C   UNL     1       3.880   1.230   9.002  1.00  0.00     0.034 A 
ATOM     26  C   UNL     1      -1.393  -3.364   8.659  1.00  0.00     0.034 A 
ATOM     27  C   UNL     1       4.516   0.004   9.422  1.00  0.00     0.049 A 
ATOM     28  C   UNL     1      -0.450  -3.053   9.763  1.00  0.00     0.074 A 
ATOM     29  C   UNL     1       5.562  -0.764   8.952  1.00  0.00     0.029 A 
ATOM     30  N   UNL     1       3.808  -0.803  10.281  1.00  0.00    -0.354 N 
ATOM     31  N   UNL     1       0.606  -3.773  10.029  1.00  0.00    -0.248 NA
ATOM     32  C   UNL     1      -0.416  -1.688  10.267  1.00  0.00     0.031 C 
ATOM     33  C   UNL     1       5.166  -2.113   9.191  1.00  0.00     0.029 A 
ATOM     34  C   UNL     1       3.934  -2.093   9.849  1.00  0.00     0.049 A 
ATOM     35  H   UNL     1       3.298  -0.503  11.068  1.00  0.00     0.167 HD
ATOM     36  C   UNL     1       1.599  -2.842  10.315  1.00  0.00     0.074 A 
ATOM     37  C   UNL     1       0.885  -1.588  10.556  1.00  0.00     0.031 C 
ATOM     38  C   UNL     1       2.910  -3.100  10.030  1.00  0.00     0.034 A 
BRANCH  25  39
ATOM     39  C   UNL     1       3.397   2.260  10.015  1.00  0.00     0.023 A 
ATOM     40  C   UNL     1       3.960   2.180  11.310  1.00  0.00     0.012 A 
ATOM     41  C   UNL     1       2.234   3.056   9.883  1.00  0.00     0.148 A 
ATOM     42  C   UNL     1       3.322   2.731  12.427  1.00  0.00     0.002 A 
ATOM     43  C   UNL     1       1.625   3.638  10.989  1.00  0.00     0.091 A 
ATOM     44  F   UNL     1       1.633   3.199   8.705  1.00  0.00    -0.205 F 
ATOM     45  C   UNL     1       2.143   3.445  12.268  1.00  0.00     0.022 A 
BRANCH  43  46
ATOM     46  S   UNL     1       0.104   4.588  10.826  1.00  0.00     0.127 S 
ATOM     47  O   UNL     1      -0.863   3.686  11.459  1.00  0.00    -0.237 OA
ATOM     48  O   UNL     1       0.426   5.789  11.605  1.00  0.00    -0.237 OA
ATOM     49  O   UNL     1      -0.080   4.824   9.411  1.00  0.00    -0.744 OA
ENDBRANCH  43  46
ENDBRANCH  25  39
BRANCH  26  50
ATOM     50  C   UNL     1      -2.861  -3.416   8.849  1.00  0.00     0.023 A 
ATOM     51  C   UNL     1      -3.385  -3.969  10.030  1.00  0.00     0.012 A 
ATOM     52  C   UNL     1      -3.741  -2.709   7.994  1.00  0.00     0.148 A 
ATOM     53  C   UNL     1      -4.737  -3.810  10.360  1.00  0.00     0.002 A 
ATOM     54  C   UNL     1      -5.086  -2.569   8.317  1.00  0.00     0.091 A 
ATOM     55  F   UNL     1      -3.244  -2.095   6.912  1.00  0.00    -0.205 F 
ATOM     56  C   UNL     1      -5.586  -3.108   9.507  1.00  0.00     0.022 A 
BRANCH  54  57
ATOM     57  S   UNL     1      -6.235  -1.669   7.264  1.00  0.00     0.127 S 
ATOM     58  O   UNL     1      -7.358  -2.604   7.176  1.00  0.00    -0.237 OA
ATOM     59  O   UNL     1      -6.497  -0.471   8.057  1.00  0.00    -0.237 OA
ATOM     60  O   UNL     1      -5.536  -1.455   6.004  1.00  0.00    -0.744 OA
ENDBRANCH  54  57
ENDBRANCH  26  50
BRANCH  38  61
ATOM     61  C   UNL     1       3.287  -4.501   9.621  1.00  0.00     0.023 A 
ATOM     62  C   UNL     1       2.825  -5.088   8.424  1.00  0.00     0.012 A 
ATOM     63  C   UNL     1       4.280  -5.161  10.362  1.00  0.00     0.148 A 
ATOM     64  C   UNL     1       3.328  -6.317   7.989  1.00  0.00     0.002 A 
ATOM     65  C   UNL     1       4.812  -6.358   9.902  1.00  0.00     0.091 A 
ATOM     66  F   UNL     1       4.715  -4.584  11.492  1.00  0.00    -0.205 F 
ATOM     67  C   UNL     1       4.332  -6.946   8.721  1.00  0.00     0.022 A 
BRANCH  65  68
ATOM     68  S   UNL     1       6.198  -7.141  10.727  1.00  0.00     0.127 S 
ATOM     69  O   UNL     1       5.552  -8.249  11.426  1.00  0.00    -0.237 OA
ATOM     70  O   UNL     1       7.050  -7.538   9.605  1.00  0.00    -0.237 OA
ATOM     71  O   UNL     1       6.785  -6.115  11.581  1.00  0.00    -0.744 OA
ENDBRANCH  65  68
ENDBRANCH  38  61
ENDBRANCH  12  13
ENDBRANCH   5   7
ENDBRANCH   4   5
ENDBRANCH   3   4
ENDBRANCH   2   3
ENDBRANCH   1   2
BRANCH   1  72
ATOM     72  C   UNL     1       3.171   2.010  -0.242  1.00  0.00     0.202 C 
BRANCH  72  73
ATOM     73  C   UNL     1       3.190   2.110  -1.768  1.00  0.00     0.261 C 
BRANCH  73  74
ATOM     74  O   UNL     1       3.566   0.903  -2.465  1.00  0.00    -0.459 OA
BRANCH  74  75
ATOM     75  C   UNL     1       4.602   1.020  -3.347  1.00  0.00     0.368 C 
ATOM     76  O   UNL     1       5.216   2.067  -3.529  1.00  0.00    -0.245 OA
BRANCH  75  77
ATOM     77  C   UNL     1       4.852  -0.271  -4.159  1.00  0.00     0.197 C 
ATOM     78  C   UNL     1       4.348  -1.615  -3.614  1.00  0.00     0.081 C 
ATOM     79  C   UNL     1       4.058  -0.205  -5.514  1.00  0.00     0.064 C 
ATOM     80  C   UNL     1       4.356  -2.558  -4.817  1.00  0.00     0.008 C 
ATOM     81  C   UNL     1       4.143  -1.668  -6.041  1.00  0.00     0.011 C 
BRANCH  77  82
ATOM     82  N   UNL     1       6.304  -0.390  -4.506  1.00  0.00    -0.329 N 
ATOM     83  H   UNL     1       6.483   0.314  -5.222  1.00  0.00     0.347 HD
ATOM     84  H   UNL     1       6.382  -1.379  -4.743  1.00  0.00     0.347 HD
BRANCH  82  85
ATOM     85  C   UNL     1       7.366  -0.236  -3.511  1.00  0.00     0.183 C 
ATOM     86  C   UNL     1       7.387  -0.754  -2.108  1.00  0.00     0.071 C 
ATOM     87  C   UNL     1       8.152  -1.485  -3.153  1.00  0.00     0.071 C 
ENDBRANCH  82  85
ENDBRANCH  77  82
BRANCH  79  88
ATOM     88  C   UNL     1       2.546   0.168  -5.509  1.00  0.00     0.032 C 
BRANCH  88  89
ATOM     89  C   UNL     1       2.058   1.587  -5.195  1.00  0.00     0.123 C 
BRANCH  89  90
ATOM     90  N   UNL     1       2.663   2.730  -5.833  1.00  0.00    -0.337 N 
ATOM     91  C   UNL     1       2.554   4.015  -5.362  1.00  0.00     0.107 A 
ATOM     92  C   UNL     1       3.322   2.793  -7.024  1.00  0.00     0.199 A 
ATOM     93  C   UNL     1       3.203   4.794  -6.288  1.00  0.00     0.130 A 
ATOM     94  N   UNL     1       3.667   4.027  -7.324  1.00  0.00    -0.245 NA
ENDBRANCH  89  90
ENDBRANCH  88  89
ENDBRANCH  79  88
ENDBRANCH  75  77
ENDBRANCH  74  75
ENDBRANCH  73  74
ENDBRANCH  72  73
ENDBRANCH   1  72
TORSDOF 22
