REMARK SMILES Cc1nc(CCC(F)(F)F)[nH]c(=O)c1CCC(=O)OCCOCCOC(=O)c1ccc(-c2c3nc(c(-c4cccc(S(=O)(=O)[O-])c4F)c4ccc([nH]4)c(-c4cccc(S(=O)(=O)[O-])c4F)c4nc(c(-c5cccc(S(=O)(=O)[O-])c5F)c5ccc2[nH]5)C=C4)C=C3)cc1
REMARK SMILES IDX 21 1 20 2 19 3 17 4 18 5 16 6 15 7 14 8 1 9 2 10 3 11 4 12
REMARK SMILES IDX 12 13 11 14 13 15 5 17 6 18 7 19 8 20 9 21 10 22 22 23 23 24
REMARK SMILES IDX 24 25 25 26 26 27 27 28 28 29 29 30 90 31 30 32 89 33 31 34
REMARK SMILES IDX 32 35 33 36 83 37 34 38 88 39 82 40 84 41 35 42 87 43 81 44
REMARK SMILES IDX 80 45 36 47 68 48 48 49 67 50 49 51 52 52 66 53 85 54 50 55
REMARK SMILES IDX 51 56 65 58 86 59 53 60 37 61 38 62 46 63 39 64 41 65 47 66
REMARK SMILES IDX 40 67 42 68 43 69 44 70 45 71 69 72 70 73 78 74 71 75 73 76
REMARK SMILES IDX 79 77 72 78 74 79 75 80 76 81 77 82 54 83 55 84 63 85 56 86
REMARK SMILES IDX 58 87 64 88 57 89 59 90 60 91 61 92 62 93
REMARK H PARENT 11 16 84 46 52 57
REMARK Flexibility Score: inf
ROOT
ATOM      1  C   UNL     1       4.529  -1.482  -0.905  1.00  0.00     0.202 C 
ENDROOT
BRANCH   1   2
ATOM      2  C   UNL     1       3.814  -1.568  -2.262  1.00  0.00     0.261 C 
BRANCH   2   3
ATOM      3  O   UNL     1       2.380  -1.650  -2.139  1.00  0.00    -0.463 OA
BRANCH   3   4
ATOM      4  C   UNL     1       1.812  -2.876  -2.179  1.00  0.00     0.306 C 
ATOM      5  O   UNL     1       2.404  -3.923  -2.411  1.00  0.00    -0.252 OA
BRANCH   4   6
ATOM      6  C   UNL     1       0.318  -2.809  -1.939  1.00  0.00     0.128 C 
BRANCH   6   7
ATOM      7  C   UNL     1      -0.124  -2.369  -0.534  1.00  0.00     0.055 C 
BRANCH   7   8
ATOM      8  C   UNL     1      -0.482  -0.907  -0.413  1.00  0.00     0.039 A 
ATOM      9  C   UNL     1      -2.943  -1.255  -0.184  1.00  0.00     0.067 C 
ATOM     10  C   UNL     1      -1.719  -0.386  -0.284  1.00  0.00     0.048 A 
ATOM     11  N   UNL     1      -1.991   0.965  -0.256  1.00  0.00    -0.240 NA
ATOM     12  C   UNL     1      -1.009   1.782  -0.459  1.00  0.00     0.109 A 
ATOM     13  C   UNL     1       0.619   0.079  -0.329  1.00  0.00     0.254 A 
ATOM     14  N   UNL     1       0.281   1.367  -0.580  1.00  0.00    -0.310 N 
ATOM     15  O   UNL     1       1.751  -0.236   0.012  1.00  0.00    -0.269 OA
ATOM     16  H   UNL     1       0.976   2.009  -0.852  1.00  0.00     0.171 HD
BRANCH  12  17
ATOM     17  C   UNL     1      -1.241   3.272  -0.550  1.00  0.00     0.084 C 
BRANCH  17  18
ATOM     18  C   UNL     1      -0.985   4.026   0.754  1.00  0.00     0.123 C 
BRANCH  18  19
ATOM     19  C   UNL     1       0.376   3.755   1.335  1.00  0.00     0.389 C 
ATOM     20  F   UNL     1       1.311   3.670   0.363  1.00  0.00    -0.171 F 
ATOM     21  F   UNL     1       0.749   4.711   2.206  1.00  0.00    -0.171 F 
ATOM     22  F   UNL     1       0.392   2.577   2.001  1.00  0.00    -0.171 F 
ENDBRANCH  18  19
ENDBRANCH  17  18
ENDBRANCH  12  17
ENDBRANCH   7   8
ENDBRANCH   6   7
ENDBRANCH   4   6
ENDBRANCH   3   4
ENDBRANCH   2   3
ENDBRANCH   1   2
BRANCH   1  23
ATOM     23  O   UNL     1       4.624  -2.721  -0.195  1.00  0.00    -0.374 OA
BRANCH  23  24
ATOM     24  C   UNL     1       3.519  -2.999   0.664  1.00  0.00     0.202 C 
BRANCH  24  25
ATOM     25  C   UNL     1       3.674  -2.517   2.112  1.00  0.00     0.261 C 
BRANCH  25  26
ATOM     26  O   UNL     1       3.587  -1.085   2.219  1.00  0.00    -0.460 OA
BRANCH  26  27
ATOM     27  C   UNL     1       4.772  -0.424   2.212  1.00  0.00     0.338 C 
ATOM     28  O   UNL     1       5.881  -0.911   2.255  1.00  0.00    -0.246 OA
BRANCH  27  29
ATOM     29  C   UNL     1       4.529   1.021   1.985  1.00  0.00     0.060 A 
ATOM     30  C   UNL     1       5.315   1.686   1.035  1.00  0.00     0.016 A 
ATOM     31  C   UNL     1       3.569   1.727   2.703  1.00  0.00     0.016 A 
ATOM     32  C   UNL     1       5.151   3.060   0.809  1.00  0.00     0.010 A 
ATOM     33  C   UNL     1       3.412   3.099   2.471  1.00  0.00     0.010 A 
ATOM     34  C   UNL     1       4.198   3.794   1.528  1.00  0.00    -0.014 A 
BRANCH  34  35
ATOM     35  C   UNL     1       4.047   5.278   1.351  1.00  0.00     0.031 A 
ATOM     36  C   UNL     1       4.214   6.200   2.541  1.00  0.00     0.074 A 
ATOM     37  C   UNL     1       3.690   5.828   0.169  1.00  0.00     0.049 A 
ATOM     38  N   UNL     1       4.047   7.498   2.617  1.00  0.00    -0.248 NA
ATOM     39  C   UNL     1       4.591   5.574   3.818  1.00  0.00     0.031 C 
ATOM     40  C   UNL     1       3.426   5.098  -1.072  1.00  0.00     0.029 A 
ATOM     41  N   UNL     1       3.445   7.142  -0.171  1.00  0.00    -0.354 N 
ATOM     42  C   UNL     1       4.251   7.831   3.951  1.00  0.00     0.074 A 
ATOM     43  C   UNL     1       4.494   6.592   4.658  1.00  0.00     0.031 C 
ATOM     44  C   UNL     1       3.029   5.964  -2.021  1.00  0.00     0.029 A 
ATOM     45  C   UNL     1       3.003   7.315  -1.464  1.00  0.00     0.049 A 
ATOM     46  H   UNL     1       3.574   7.891   0.456  1.00  0.00     0.167 HD
ATOM     47  C   UNL     1       4.290   9.051   4.542  1.00  0.00     0.034 A 
ATOM     48  C   UNL     1       2.617   8.423  -2.131  1.00  0.00     0.034 A 
ATOM     49  C   UNL     1       4.133  10.300   3.851  1.00  0.00     0.049 A 
ATOM     50  C   UNL     1       2.692   9.776  -1.466  1.00  0.00     0.074 A 
ATOM     51  C   UNL     1       4.286  11.583   4.350  1.00  0.00     0.029 A 
ATOM     52  N   UNL     1       3.788  10.431   2.518  1.00  0.00    -0.354 N 
ATOM     53  N   UNL     1       3.068  10.078  -0.249  1.00  0.00    -0.248 NA
ATOM     54  C   UNL     1       2.341  10.948  -2.287  1.00  0.00     0.031 C 
ATOM     55  C   UNL     1       4.010  12.491   3.323  1.00  0.00     0.029 A 
ATOM     56  C   UNL     1       3.717  11.772   2.177  1.00  0.00     0.049 A 
ATOM     57  H   UNL     1       3.617   9.682   1.902  1.00  0.00     0.167 HD
ATOM     58  C   UNL     1       3.064  11.469  -0.181  1.00  0.00     0.074 A 
ATOM     59  C   UNL     1       2.645  11.953  -1.477  1.00  0.00     0.031 C 
ATOM     60  C   UNL     1       3.381  12.267   0.868  1.00  0.00     0.034 A 
BRANCH  47  61
ATOM     61  C   UNL     1       4.596   9.097   6.018  1.00  0.00     0.023 A 
ATOM     62  C   UNL     1       5.886   8.747   6.470  1.00  0.00     0.012 A 
ATOM     63  C   UNL     1       3.632   9.528   6.949  1.00  0.00     0.148 A 
ATOM     64  C   UNL     1       6.195   8.770   7.828  1.00  0.00     0.002 A 
ATOM     65  C   UNL     1       3.964   9.601   8.297  1.00  0.00     0.091 A 
ATOM     66  F   UNL     1       2.408   9.848   6.504  1.00  0.00    -0.205 F 
ATOM     67  C   UNL     1       5.238   9.206   8.739  1.00  0.00     0.022 A 
BRANCH  65  68
ATOM     68  S   UNL     1       2.837  10.239   9.541  1.00  0.00     0.127 S 
ATOM     69  O   UNL     1       2.490   9.023  10.276  1.00  0.00    -0.237 OA
ATOM     70  O   UNL     1       3.688  11.174  10.276  1.00  0.00    -0.237 OA
ATOM     71  O   UNL     1       1.742  10.861   8.810  1.00  0.00    -0.744 OA
ENDBRANCH  65  68
ENDBRANCH  47  61
BRANCH  48  72
ATOM     72  C   UNL     1       2.180   8.329  -3.554  1.00  0.00     0.023 A 
ATOM     73  C   UNL     1       3.011   8.845  -4.569  1.00  0.00     0.012 A 
ATOM     74  C   UNL     1       0.941   7.760  -3.904  1.00  0.00     0.148 A 
ATOM     75  C   UNL     1       2.596   8.839  -5.901  1.00  0.00     0.002 A 
ATOM     76  C   UNL     1       0.555   7.713  -5.239  1.00  0.00     0.091 A 
ATOM     77  F   UNL     1       0.166   7.276  -2.923  1.00  0.00    -0.205 F 
ATOM     78  C   UNL     1       1.371   8.270  -6.237  1.00  0.00     0.022 A 
BRANCH  76  79
ATOM     79  S   UNL     1      -0.954   6.905  -5.780  1.00  0.00     0.127 S 
ATOM     80  O   UNL     1      -1.739   8.033  -6.275  1.00  0.00    -0.237 OA
ATOM     81  O   UNL     1      -0.453   6.000  -6.815  1.00  0.00    -0.237 OA
ATOM     82  O   UNL     1      -1.486   6.235  -4.601  1.00  0.00    -0.744 OA
ENDBRANCH  76  79
ENDBRANCH  48  72
BRANCH  60  83
ATOM     83  C   UNL     1       3.381  13.762   0.665  1.00  0.00     0.023 A 
ATOM     84  C   UNL     1       2.166  14.463   0.534  1.00  0.00     0.012 A 
ATOM     85  C   UNL     1       4.592  14.484   0.709  1.00  0.00     0.148 A 
ATOM     86  C   UNL     1       2.159  15.854   0.426  1.00  0.00     0.002 A 
ATOM     87  C   UNL     1       4.573  15.873   0.652  1.00  0.00     0.091 A 
ATOM     88  F   UNL     1       5.740  13.799   0.815  1.00  0.00    -0.205 F 
ATOM     89  C   UNL     1       3.358  16.559   0.499  1.00  0.00     0.022 A 
BRANCH  87  90
ATOM     90  S   UNL     1       6.058  16.868   0.842  1.00  0.00     0.127 S 
ATOM     91  O   UNL     1       6.237  17.396  -0.510  1.00  0.00    -0.237 OA
ATOM     92  O   UNL     1       5.641  17.860   1.833  1.00  0.00    -0.237 OA
ATOM     93  O   UNL     1       7.098  15.957   1.298  1.00  0.00    -0.744 OA
ENDBRANCH  87  90
ENDBRANCH  60  83
ENDBRANCH  34  35
ENDBRANCH  27  29
ENDBRANCH  26  27
ENDBRANCH  25  26
ENDBRANCH  24  25
ENDBRANCH  23  24
ENDBRANCH   1  23
TORSDOF 22
