REMARK SMILES CN(C)S(=O)(=O)c1cccc(-c2cc(Cl)cc(C(=O)OCCOCCOC(=O)c3ccc(-c4c5nc(c(-c6cccc(S(=O)(=O)[O-])c6F)c6ccc([nH]6)c(-c6cccc(S(=O)(=O)[O-])c6F)c6nc(c(-c7cccc(S(=O)(=O)[O-])c7F)c7ccc4[nH]7)C=C6)C=C5)cc3)c2)c1
REMARK SMILES IDX 23 1 22 2 21 3 20 4 18 5 19 6 17 7 12 8 13 9 92 10 14 11
REMARK SMILES IDX 15 12 16 13 11 14 7 15 8 16 93 17 9 18 10 19 4 20 5 21 6 22
REMARK SMILES IDX 2 23 1 24 3 25 24 26 25 27 26 28 27 29 28 30 29 31 30 32
REMARK SMILES IDX 91 33 31 34 90 35 32 36 33 37 34 38 84 39 35 40 89 41 83 42
REMARK SMILES IDX 85 43 36 44 88 45 82 46 81 47 37 49 69 50 49 51 68 52 50 53
REMARK SMILES IDX 53 54 67 55 86 56 51 57 52 58 66 60 87 61 54 62 38 63 39 64
REMARK SMILES IDX 47 65 40 66 42 67 48 68 41 69 43 70 44 71 45 72 46 73 70 74
REMARK SMILES IDX 71 75 79 76 72 77 74 78 80 79 73 80 75 81 76 82 77 83 78 84
REMARK SMILES IDX 55 85 56 86 64 87 57 88 59 89 65 90 58 91 60 92 61 93 62 94
REMARK SMILES IDX 63 95
REMARK H PARENT 85 48 53 59
REMARK Flexibility Score: inf
ROOT
ATOM      1  O   UNL     1      -8.186   5.973   1.217  1.00  0.00    -0.374 OA
ENDROOT
BRANCH   1   2
ATOM      2  C   UNL     1      -7.761   4.791   1.905  1.00  0.00     0.202 C 
BRANCH   2   3
ATOM      3  C   UNL     1      -7.322   3.650   0.980  1.00  0.00     0.261 C 
BRANCH   3   4
ATOM      4  O   UNL     1      -6.077   3.992   0.344  1.00  0.00    -0.460 OA
BRANCH   4   5
ATOM      5  C   UNL     1      -6.122   4.157  -0.998  1.00  0.00     0.338 C 
ATOM      6  O   UNL     1      -7.035   3.860  -1.748  1.00  0.00    -0.246 OA
BRANCH   5   7
ATOM      7  C   UNL     1      -4.939   4.938  -1.438  1.00  0.00     0.062 A 
ATOM      8  C   UNL     1      -2.599   5.633  -1.216  1.00  0.00    -0.016 A 
ATOM      9  C   UNL     1      -2.795   6.479  -2.323  1.00  0.00     0.029 A 
ATOM     10  C   UNL     1      -3.707   4.885  -0.768  1.00  0.00     0.024 A 
ATOM     11  C   UNL     1      -4.031   6.554  -2.968  1.00  0.00     0.042 A 
ATOM     12  Cl  UNL     1      -4.229   7.610  -4.312  1.00  0.00    -0.084 Cl
ATOM     13  C   UNL     1      -5.099   5.777  -2.542  1.00  0.00     0.036 A 
BRANCH   8  14
ATOM     14  C   UNL     1      -1.258   5.480  -0.603  1.00  0.00    -0.017 A 
ATOM     15  C   UNL     1       0.474   4.022   0.329  1.00  0.00     0.083 A 
ATOM     16  C   UNL     1       1.362   5.099   0.397  1.00  0.00     0.022 A 
ATOM     17  C   UNL     1      -0.823   4.222  -0.146  1.00  0.00     0.030 A 
ATOM     18  C   UNL     1       0.942   6.366  -0.003  1.00  0.00     0.002 A 
ATOM     19  C   UNL     1      -0.353   6.552  -0.499  1.00  0.00     0.009 A 
BRANCH  15  20
ATOM     20  S   UNL     1       1.002   2.434   0.948  1.00  0.00     0.242 S 
ATOM     21  O   UNL     1       0.245   2.194   2.160  1.00  0.00    -0.207 OA
ATOM     22  O   UNL     1       2.448   2.466   0.955  1.00  0.00    -0.207 OA
BRANCH  20  23
ATOM     23  N   UNL     1       0.540   1.252  -0.223  1.00  0.00    -0.204 NA
ATOM     24  C   UNL     1       1.298  -0.018  -0.029  1.00  0.00     0.124 C 
ATOM     25  C   UNL     1      -0.911   0.953  -0.335  1.00  0.00     0.124 C 
ENDBRANCH  20  23
ENDBRANCH  15  20
ENDBRANCH   8  14
ENDBRANCH   5   7
ENDBRANCH   4   5
ENDBRANCH   3   4
ENDBRANCH   2   3
ENDBRANCH   1   2
BRANCH   1  26
ATOM     26  C   UNL     1      -7.152   6.881   0.833  1.00  0.00     0.202 C 
BRANCH  26  27
ATOM     27  C   UNL     1      -6.755   7.903   1.902  1.00  0.00     0.261 C 
BRANCH  27  28
ATOM     28  O   UNL     1      -6.136   7.259   3.028  1.00  0.00    -0.460 OA
BRANCH  28  29
ATOM     29  C   UNL     1      -6.907   7.212   4.141  1.00  0.00     0.338 C 
ATOM     30  O   UNL     1      -7.988   7.754   4.305  1.00  0.00    -0.246 OA
BRANCH  29  31
ATOM     31  C   UNL     1      -6.338   6.266   5.122  1.00  0.00     0.060 A 
ATOM     32  C   UNL     1      -7.236   5.405   5.764  1.00  0.00     0.016 A 
ATOM     33  C   UNL     1      -4.981   6.253   5.462  1.00  0.00     0.016 A 
ATOM     34  C   UNL     1      -6.795   4.581   6.796  1.00  0.00     0.010 A 
ATOM     35  C   UNL     1      -4.540   5.423   6.500  1.00  0.00     0.010 A 
ATOM     36  C   UNL     1      -5.455   4.617   7.202  1.00  0.00    -0.014 A 
BRANCH  36  37
ATOM     37  C   UNL     1      -5.069   3.909   8.446  1.00  0.00     0.031 A 
ATOM     38  C   UNL     1      -4.963   4.685   9.732  1.00  0.00     0.074 A 
ATOM     39  C   UNL     1      -4.870   2.579   8.444  1.00  0.00     0.049 A 
ATOM     40  N   UNL     1      -4.774   4.245  10.949  1.00  0.00    -0.248 NA
ATOM     41  C   UNL     1      -5.090   6.149   9.635  1.00  0.00     0.031 C 
ATOM     42  C   UNL     1      -4.924   1.720   7.263  1.00  0.00     0.029 A 
ATOM     43  N   UNL     1      -4.581   1.719   9.474  1.00  0.00    -0.354 N 
ATOM     44  C   UNL     1      -4.743   5.373  11.760  1.00  0.00     0.074 A 
ATOM     45  C   UNL     1      -4.912   6.521  10.895  1.00  0.00     0.031 C 
ATOM     46  C   UNL     1      -4.673   0.452   7.635  1.00  0.00     0.029 A 
ATOM     47  C   UNL     1      -4.440   0.411   9.077  1.00  0.00     0.049 A 
ATOM     48  H   UNL     1      -4.484   2.012  10.409  1.00  0.00     0.167 HD
ATOM     49  C   UNL     1      -4.611   5.448  13.105  1.00  0.00     0.034 A 
ATOM     50  C   UNL     1      -4.167  -0.695   9.798  1.00  0.00     0.034 A 
ATOM     51  C   UNL     1      -4.473   4.307  13.969  1.00  0.00     0.049 A 
ATOM     52  C   UNL     1      -4.035  -0.583  11.296  1.00  0.00     0.074 A 
ATOM     53  C   UNL     1      -4.402   4.277  15.351  1.00  0.00     0.029 A 
ATOM     54  N   UNL     1      -4.372   2.995  13.534  1.00  0.00    -0.354 N 
ATOM     55  N   UNL     1      -4.176   0.471  12.063  1.00  0.00    -0.248 NA
ATOM     56  C   UNL     1      -3.750  -1.825  12.031  1.00  0.00     0.031 C 
ATOM     57  C   UNL     1      -4.242   2.945  15.751  1.00  0.00     0.029 A 
ATOM     58  C   UNL     1      -4.228   2.146  14.618  1.00  0.00     0.049 A 
ATOM     59  H   UNL     1      -4.400   2.709  12.593  1.00  0.00     0.167 HD
ATOM     60  C   UNL     1      -4.038   0.014  13.370  1.00  0.00     0.074 A 
ATOM     61  C   UNL     1      -3.821  -1.416  13.291  1.00  0.00     0.031 C 
ATOM     62  C   UNL     1      -4.073   0.717  14.530  1.00  0.00     0.034 A 
BRANCH  49  63
ATOM     63  C   UNL     1      -4.654   6.816  13.734  1.00  0.00     0.023 A 
ATOM     64  C   UNL     1      -5.888   7.489  13.844  1.00  0.00     0.012 A 
ATOM     65  C   UNL     1      -3.492   7.411  14.259  1.00  0.00     0.148 A 
ATOM     66  C   UNL     1      -5.960   8.746  14.443  1.00  0.00     0.002 A 
ATOM     67  C   UNL     1      -3.577   8.648  14.888  1.00  0.00     0.091 A 
ATOM     68  F   UNL     1      -2.323   6.769  14.119  1.00  0.00    -0.205 F 
ATOM     69  C   UNL     1      -4.808   9.320  14.973  1.00  0.00     0.022 A 
BRANCH  67  70
ATOM     70  S   UNL     1      -2.158   9.432  15.661  1.00  0.00     0.127 S 
ATOM     71  O   UNL     1      -1.815  10.458  14.678  1.00  0.00    -0.237 OA
ATOM     72  O   UNL     1      -2.726   9.949  16.907  1.00  0.00    -0.237 OA
ATOM     73  O   UNL     1      -1.171   8.376  15.842  1.00  0.00    -0.744 OA
ENDBRANCH  67  70
ENDBRANCH  49  63
BRANCH  50  74
ATOM     74  C   UNL     1      -4.088  -2.021   9.123  1.00  0.00     0.023 A 
ATOM     75  C   UNL     1      -5.103  -2.971   9.351  1.00  0.00     0.012 A 
ATOM     76  C   UNL     1      -3.034  -2.339   8.245  1.00  0.00     0.148 A 
ATOM     77  C   UNL     1      -5.056  -4.223   8.738  1.00  0.00     0.002 A 
ATOM     78  C   UNL     1      -3.021  -3.569   7.596  1.00  0.00     0.091 A 
ATOM     79  F   UNL     1      -2.067  -1.430   8.057  1.00  0.00    -0.205 F 
ATOM     80  C   UNL     1      -4.022  -4.519   7.853  1.00  0.00     0.022 A 
BRANCH  78  81
ATOM     81  S   UNL     1      -1.800  -3.984   6.345  1.00  0.00     0.127 S 
ATOM     82  O   UNL     1      -0.961  -4.947   7.053  1.00  0.00    -0.237 OA
ATOM     83  O   UNL     1      -2.632  -4.553   5.284  1.00  0.00    -0.237 OA
ATOM     84  O   UNL     1      -1.162  -2.724   5.990  1.00  0.00    -0.744 OA
ENDBRANCH  78  81
ENDBRANCH  50  74
BRANCH  62  85
ATOM     85  C   UNL     1      -3.903  -0.049  15.817  1.00  0.00     0.023 A 
ATOM     86  C   UNL     1      -2.632  -0.547  16.169  1.00  0.00     0.012 A 
ATOM     87  C   UNL     1      -4.981  -0.219  16.707  1.00  0.00     0.148 A 
ATOM     88  C   UNL     1      -2.446  -1.231  17.370  1.00  0.00     0.002 A 
ATOM     89  C   UNL     1      -4.778  -0.863  17.923  1.00  0.00     0.091 A 
ATOM     90  F   UNL     1      -6.189   0.241  16.349  1.00  0.00    -0.205 F 
ATOM     91  C   UNL     1      -3.514  -1.379  18.251  1.00  0.00     0.022 A 
BRANCH  89  92
ATOM     92  S   UNL     1      -6.084  -1.007  19.148  1.00  0.00     0.127 S 
ATOM     93  O   UNL     1      -6.580  -2.360  18.901  1.00  0.00    -0.237 OA
ATOM     94  O   UNL     1      -5.358  -0.846  20.409  1.00  0.00    -0.237 OA
ATOM     95  O   UNL     1      -7.016   0.074  18.855  1.00  0.00    -0.744 OA
ENDBRANCH  89  92
ENDBRANCH  62  85
ENDBRANCH  36  37
ENDBRANCH  29  31
ENDBRANCH  28  29
ENDBRANCH  27  28
ENDBRANCH  26  27
ENDBRANCH   1  26
TORSDOF 20
