REMARK SMILES Cc1ccc(C[N@H+]2CCC[C@@H](C(=O)OCCOCCOC(=O)c3ccc(-c4c5nc(c(-c6cccc(S(=O)(=O)[O-])c6F)c6ccc([nH]6)c(-c6cccc(S(=O)(=O)[O-])c6F)c6nc(c(-c7cccc(S(=O)(=O)[O-])c7F)c7ccc4[nH]7)C=C6)C=C5)cc3)C2)o1
REMARK SMILES IDX 18 1 17 2 16 3 15 4 14 5 12 6 13 7 11 8 7 9 8 10 86 11 9 13
REMARK SMILES IDX 10 14 6 15 5 16 1 17 2 18 3 19 87 20 4 21 19 22 20 23 21 24
REMARK SMILES IDX 22 25 23 26 24 27 85 28 25 29 84 30 26 31 27 32 28 33 78 34
REMARK SMILES IDX 29 35 83 36 77 37 79 38 30 39 82 40 76 41 75 42 31 44 63 45
REMARK SMILES IDX 43 46 62 47 44 48 47 49 61 50 80 51 45 52 46 53 60 55 81 56
REMARK SMILES IDX 48 57 32 58 33 59 41 60 34 61 36 62 42 63 35 64 37 65 38 66
REMARK SMILES IDX 39 67 40 68 64 69 65 70 73 71 66 72 68 73 74 74 67 75 69 76
REMARK SMILES IDX 70 77 71 78 72 79 49 80 50 81 58 82 51 83 53 84 59 85 52 86
REMARK SMILES IDX 54 87 55 88 56 89 57 90
REMARK H PARENT 7 12 79 43 47 54
REMARK Flexibility Score: inf
ROOT
ATOM      1  C   UNL     1       2.088   4.436   4.237  1.00  0.00     0.202 C 
ENDROOT
BRANCH   1   2
ATOM      2  O   UNL     1       3.103   5.005   3.414  1.00  0.00    -0.374 OA
BRANCH   2   3
ATOM      3  C   UNL     1       2.865   6.310   2.891  1.00  0.00     0.202 C 
BRANCH   3   4
ATOM      4  C   UNL     1       1.855   6.473   1.747  1.00  0.00     0.261 C 
BRANCH   4   5
ATOM      5  O   UNL     1       0.548   5.942   2.032  1.00  0.00    -0.463 OA
BRANCH   5   6
ATOM      6  C   UNL     1       0.287   4.764   1.401  1.00  0.00     0.314 C 
ATOM      7  O   UNL     1       1.102   4.176   0.697  1.00  0.00    -0.252 OA
BRANCH   6   8
ATOM      8  C   UNL     1      -1.121   4.247   1.686  1.00  0.00     0.154 C 
ATOM      9  N   UNL     1      -2.563   2.309   0.884  1.00  0.00    -0.328 N 
ATOM     10  C   UNL     1      -2.622   1.765   2.244  1.00  0.00     0.262 C 
ATOM     11  C   UNL     1      -1.348   3.112   0.679  1.00  0.00     0.278 C 
ATOM     12  H   UNL     1      -3.375   2.918   0.784  1.00  0.00     0.348 HD
ATOM     13  C   UNL     1      -2.547   2.889   3.280  1.00  0.00     0.062 C 
ATOM     14  C   UNL     1      -1.270   3.711   3.114  1.00  0.00     0.027 C 
BRANCH   9  15
ATOM     15  C   UNL     1      -2.671   1.255  -0.157  1.00  0.00     0.338 C 
BRANCH  15  16
ATOM     16  C   UNL     1      -1.606   0.196  -0.153  1.00  0.00     0.158 A 
ATOM     17  C   UNL     1       1.942  -0.170  -0.241  1.00  0.00     0.087 C 
ATOM     18  C   UNL     1       0.495  -0.462  -0.204  1.00  0.00     0.101 A 
ATOM     19  C   UNL     1      -0.259  -1.592   0.018  1.00  0.00     0.046 A 
ATOM     20  O   UNL     1      -0.325   0.604  -0.390  1.00  0.00    -0.460 OA
ATOM     21  C   UNL     1      -1.614  -1.169   0.047  1.00  0.00     0.052 A 
ENDBRANCH  15  16
ENDBRANCH   9  15
ENDBRANCH   6   8
ENDBRANCH   5   6
ENDBRANCH   4   5
ENDBRANCH   3   4
ENDBRANCH   2   3
ENDBRANCH   1   2
BRANCH   1  22
ATOM     22  C   UNL     1       1.913   4.995   5.654  1.00  0.00     0.261 C 
BRANCH  22  23
ATOM     23  O   UNL     1       1.461   6.359   5.644  1.00  0.00    -0.460 OA
BRANCH  23  24
ATOM     24  C   UNL     1       2.354   7.253   6.130  1.00  0.00     0.338 C 
ATOM     25  O   UNL     1       3.427   7.005   6.666  1.00  0.00    -0.246 OA
BRANCH  24  26
ATOM     26  C   UNL     1       1.965   8.620   5.741  1.00  0.00     0.060 A 
ATOM     27  C   UNL     1       2.922   9.391   5.067  1.00  0.00     0.016 A 
ATOM     28  C   UNL     1       0.723   9.162   6.077  1.00  0.00     0.016 A 
ATOM     29  C   UNL     1       2.667  10.728   4.784  1.00  0.00     0.010 A 
ATOM     30  C   UNL     1       0.473  10.510   5.802  1.00  0.00     0.010 A 
ATOM     31  C   UNL     1       1.461  11.307   5.196  1.00  0.00    -0.014 A 
BRANCH  31  32
ATOM     32  C   UNL     1       1.316  12.781   5.144  1.00  0.00     0.031 A 
ATOM     33  C   UNL     1       1.565  13.576   6.396  1.00  0.00     0.074 A 
ATOM     34  C   UNL     1       0.994  13.403   3.997  1.00  0.00     0.049 A 
ATOM     35  N   UNL     1       1.518  14.869   6.579  1.00  0.00    -0.248 NA
ATOM     36  C   UNL     1       1.916  12.809   7.604  1.00  0.00     0.031 C 
ATOM     37  C   UNL     1       0.739  12.739   2.720  1.00  0.00     0.029 A 
ATOM     38  N   UNL     1       0.813  14.736   3.729  1.00  0.00    -0.354 N 
ATOM     39  C   UNL     1       1.803  15.071   7.924  1.00  0.00     0.074 A 
ATOM     40  C   UNL     1       2.010  13.767   8.515  1.00  0.00     0.031 C 
ATOM     41  C   UNL     1       0.412  13.668   1.806  1.00  0.00     0.029 A 
ATOM     42  C   UNL     1       0.418  14.987   2.438  1.00  0.00     0.049 A 
ATOM     43  H   UNL     1       0.953  15.444   4.398  1.00  0.00     0.167 HD
ATOM     44  C   UNL     1       1.901  16.238   8.604  1.00  0.00     0.034 A 
ATOM     45  C   UNL     1       0.086  16.148   1.839  1.00  0.00     0.034 A 
ATOM     46  C   UNL     1       1.717  17.533   8.009  1.00  0.00     0.049 A 
ATOM     47  C   UNL     1       0.179  17.431   2.623  1.00  0.00     0.074 A 
ATOM     48  C   UNL     1       1.851  18.777   8.598  1.00  0.00     0.029 A 
ATOM     49  N   UNL     1       1.343  17.751   6.692  1.00  0.00    -0.354 N 
ATOM     50  N   UNL     1       0.575  17.618   3.859  1.00  0.00    -0.248 NA
ATOM     51  C   UNL     1      -0.191  18.668   1.919  1.00  0.00     0.031 C 
ATOM     52  C   UNL     1       1.531  19.748   7.642  1.00  0.00     0.029 A 
ATOM     53  C   UNL     1       1.223  19.109   6.452  1.00  0.00     0.049 A 
ATOM     54  H   UNL     1       1.185  17.044   6.026  1.00  0.00     0.167 HD
ATOM     55  C   UNL     1       0.536  18.992   4.071  1.00  0.00     0.074 A 
ATOM     56  C   UNL     1       0.094  19.592   2.829  1.00  0.00     0.031 C 
ATOM     57  C   UNL     1       0.828  19.694   5.195  1.00  0.00     0.034 A 
BRANCH  44  58
ATOM     58  C   UNL     1       2.244  16.161  10.068  1.00  0.00     0.023 A 
ATOM     59  C   UNL     1       3.554  15.816  10.462  1.00  0.00     0.012 A 
ATOM     60  C   UNL     1       1.282  16.458  11.052  1.00  0.00     0.148 A 
ATOM     61  C   UNL     1       3.891  15.735  11.812  1.00  0.00     0.002 A 
ATOM     62  C   UNL     1       1.637  16.416  12.396  1.00  0.00     0.091 A 
ATOM     63  F   UNL     1       0.035  16.754  10.660  1.00  0.00    -0.205 F 
ATOM     64  C   UNL     1       2.936  16.044  12.778  1.00  0.00     0.022 A 
BRANCH  62  65
ATOM     65  S   UNL     1       0.494  16.867  13.706  1.00  0.00     0.127 S 
ATOM     66  O   UNL     1       0.132  15.558  14.247  1.00  0.00    -0.237 OA
ATOM     67  O   UNL     1       1.336  17.678  14.587  1.00  0.00    -0.237 OA
ATOM     68  O   UNL     1      -0.584  17.601  13.058  1.00  0.00    -0.744 OA
ENDBRANCH  62  65
ENDBRANCH  44  58
BRANCH  45  69
ATOM     69  C   UNL     1      -0.318  16.152   0.406  1.00  0.00     0.023 A 
ATOM     70  C   UNL     1       0.543  16.713  -0.556  1.00  0.00     0.012 A 
ATOM     71  C   UNL     1      -1.531  15.571  -0.013  1.00  0.00     0.148 A 
ATOM     72  C   UNL     1       0.196  16.714  -1.907  1.00  0.00     0.002 A 
ATOM     73  C   UNL     1      -1.847  15.528  -1.365  1.00  0.00     0.091 A 
ATOM     74  F   UNL     1      -2.344  15.057   0.921  1.00  0.00    -0.205 F 
ATOM     75  C   UNL     1      -0.993  16.112  -2.313  1.00  0.00     0.022 A 
BRANCH  73  76
ATOM     76  S   UNL     1      -3.292  14.664  -1.992  1.00  0.00     0.127 S 
ATOM     77  O   UNL     1      -4.115  15.770  -2.477  1.00  0.00    -0.237 OA
ATOM     78  O   UNL     1      -2.709  13.824  -3.039  1.00  0.00    -0.237 OA
ATOM     79  O   UNL     1      -3.833  13.925  -0.860  1.00  0.00    -0.744 OA
ENDBRANCH  73  76
ENDBRANCH  45  69
BRANCH  57  80
ATOM     80  C   UNL     1       0.707  21.195   5.136  1.00  0.00     0.023 A 
ATOM     81  C   UNL     1      -0.568  21.793   5.112  1.00  0.00     0.012 A 
ATOM     82  C   UNL     1       1.853  22.013   5.186  1.00  0.00     0.148 A 
ATOM     83  C   UNL     1      -0.700  23.181   5.109  1.00  0.00     0.002 A 
ATOM     84  C   UNL     1       1.713  23.395   5.231  1.00  0.00     0.091 A 
ATOM     85  F   UNL     1       3.059  21.426   5.189  1.00  0.00    -0.205 F 
ATOM     86  C   UNL     1       0.438  23.981   5.181  1.00  0.00     0.022 A 
BRANCH  84  87
ATOM     87  S   UNL     1       3.118  24.498   5.421  1.00  0.00     0.127 S 
ATOM     88  O   UNL     1       3.239  25.062   4.077  1.00  0.00    -0.237 OA
ATOM     89  O   UNL     1       2.642  25.438   6.436  1.00  0.00    -0.237 OA
ATOM     90  O   UNL     1       4.229  23.660   5.850  1.00  0.00    -0.744 OA
ENDBRANCH  84  87
ENDBRANCH  57  80
ENDBRANCH  31  32
ENDBRANCH  24  26
ENDBRANCH  23  24
ENDBRANCH  22  23
ENDBRANCH   1  22
TORSDOF 19
