REMARK SMILES O=C(OCCOCCOC(=O)[C@H]1[C@@H](C(=O)Nc2cc(F)ccc2F)[C@@H]2C=C[C@H]1O2)c1ccc(-c2c3nc(c(-c4cccc(S(=O)(=O)[O-])c4F)c4ccc([nH]4)c(-c4cccc(S(=O)(=O)[O-])c4F)c4nc(c(-c5cccc(S(=O)(=O)[O-])c5F)c5ccc2[nH]5)C=C4)C=C3)cc1
REMARK SMILES IDX 5 1 4 2 3 3 2 4 1 5 30 6 31 7 92 8 32 9 91 10 33 11 34 12
REMARK SMILES IDX 35 13 85 14 36 15 90 16 84 17 86 18 37 19 89 20 83 21 82 22
REMARK SMILES IDX 38 24 70 25 50 26 69 27 51 28 54 29 68 30 87 31 52 32 53 33
REMARK SMILES IDX 67 35 88 36 55 37 39 38 40 39 48 40 41 41 43 42 49 43 42 44
REMARK SMILES IDX 44 45 45 46 46 47 47 48 71 49 72 50 80 51 73 52 75 53 81 54
REMARK SMILES IDX 74 55 76 56 77 57 78 58 79 59 56 60 57 61 65 62 58 63 60 64
REMARK SMILES IDX 66 65 59 66 61 67 62 68 63 69 64 70 6 71 7 72 8 73 9 74
REMARK SMILES IDX 10 75 11 76 12 77 13 78 28 79 25 80 27 81 29 82 26 83 14 84
REMARK SMILES IDX 15 85 16 86 17 88 18 89 23 90 19 91 22 92 24 93 20 94 21 95
REMARK H PARENT 86 23 54 34 16 87
REMARK Flexibility Score: inf
ROOT
ATOM      1  C   UNL     1       5.057  -1.864   0.984  1.00  0.00     0.202 C 
ENDROOT
BRANCH   1   2
ATOM      2  C   UNL     1       4.579  -1.747   2.432  1.00  0.00     0.261 C 
BRANCH   2   3
ATOM      3  O   UNL     1       4.400  -0.370   2.787  1.00  0.00    -0.460 OA
BRANCH   3   4
ATOM      4  C   UNL     1       5.394   0.489   3.127  1.00  0.00     0.338 C 
ATOM      5  O   UNL     1       5.187   1.698   3.052  1.00  0.00    -0.246 OA
BRANCH   4   6
ATOM      6  C   UNL     1       6.686   0.016   3.705  1.00  0.00     0.060 A 
ATOM      7  C   UNL     1       7.386  -1.113   3.276  1.00  0.00     0.016 A 
ATOM      8  C   UNL     1       7.259   0.804   4.714  1.00  0.00     0.016 A 
ATOM      9  C   UNL     1       8.580  -1.488   3.850  1.00  0.00     0.010 A 
ATOM     10  C   UNL     1       8.483   0.445   5.287  1.00  0.00     0.010 A 
ATOM     11  C   UNL     1       9.133  -0.716   4.856  1.00  0.00    -0.014 A 
BRANCH  11  12
ATOM     12  C   UNL     1      10.297  -1.290   5.538  1.00  0.00     0.031 A 
ATOM     13  C   UNL     1      10.074  -1.911   6.876  1.00  0.00     0.074 A 
ATOM     14  C   UNL     1      11.464  -1.419   4.884  1.00  0.00     0.049 A 
ATOM     15  N   UNL     1      10.944  -2.377   7.722  1.00  0.00    -0.248 NA
ATOM     16  C   UNL     1       8.671  -2.041   7.311  1.00  0.00     0.031 C 
ATOM     17  C   UNL     1      11.705  -1.022   3.493  1.00  0.00     0.029 A 
ATOM     18  N   UNL     1      12.660  -1.937   5.296  1.00  0.00    -0.354 N 
ATOM     19  C   UNL     1      10.206  -2.768   8.829  1.00  0.00     0.074 A 
ATOM     20  C   UNL     1       8.813  -2.537   8.529  1.00  0.00     0.031 C 
ATOM     21  C   UNL     1      12.979  -1.300   3.174  1.00  0.00     0.029 A 
ATOM     22  C   UNL     1      13.659  -1.799   4.362  1.00  0.00     0.049 A 
ATOM     23  H   UNL     1      12.792  -2.366   6.173  1.00  0.00     0.167 HD
ATOM     24  C   UNL     1      10.672  -3.246  10.003  1.00  0.00     0.034 A 
ATOM     25  C   UNL     1      14.985  -1.982   4.495  1.00  0.00     0.034 A 
ATOM     26  C   UNL     1      12.068  -3.473  10.247  1.00  0.00     0.049 A 
ATOM     27  C   UNL     1      15.494  -2.428   5.838  1.00  0.00     0.074 A 
ATOM     28  C   UNL     1      12.685  -3.898  11.406  1.00  0.00     0.029 A 
ATOM     29  N   UNL     1      13.067  -3.281   9.301  1.00  0.00    -0.354 N 
ATOM     30  N   UNL     1      14.812  -2.733   6.918  1.00  0.00    -0.248 NA
ATOM     31  C   UNL     1      16.948  -2.553   5.989  1.00  0.00     0.031 C 
ATOM     32  C   UNL     1      14.064  -3.926  11.171  1.00  0.00     0.029 A 
ATOM     33  C   UNL     1      14.300  -3.571   9.849  1.00  0.00     0.049 A 
ATOM     34  H   UNL     1      12.917  -2.983   8.375  1.00  0.00     0.167 HD
ATOM     35  C   UNL     1      15.748  -3.117   7.868  1.00  0.00     0.074 A 
ATOM     36  C   UNL     1      17.047  -3.019   7.227  1.00  0.00     0.031 C 
ATOM     37  C   UNL     1      15.562  -3.505   9.154  1.00  0.00     0.034 A 
BRANCH  24  38
ATOM     38  C   UNL     1       9.671  -3.447  11.104  1.00  0.00     0.023 A 
ATOM     39  C   UNL     1       8.731  -4.495  11.045  1.00  0.00     0.012 A 
ATOM     40  C   UNL     1       9.642  -2.551  12.191  1.00  0.00     0.148 A 
ATOM     41  C   UNL     1       7.748  -4.619  12.028  1.00  0.00     0.002 A 
ATOM     42  C   UNL     1       8.693  -2.711  13.191  1.00  0.00     0.091 A 
ATOM     43  F   UNL     1      10.520  -1.539  12.207  1.00  0.00    -0.205 F 
ATOM     44  C   UNL     1       7.734  -3.733  13.104  1.00  0.00     0.022 A 
BRANCH  42  45
ATOM     45  S   UNL     1       8.640  -1.662  14.646  1.00  0.00     0.127 S 
ATOM     46  O   UNL     1       7.393  -0.927  14.435  1.00  0.00    -0.237 OA
ATOM     47  O   UNL     1       8.593  -2.646  15.728  1.00  0.00    -0.237 OA
ATOM     48  O   UNL     1       9.852  -0.856  14.608  1.00  0.00    -0.744 OA
ENDBRANCH  42  45
ENDBRANCH  24  38
BRANCH  25  49
ATOM     49  C   UNL     1      15.904  -1.687   3.360  1.00  0.00     0.023 A 
ATOM     50  C   UNL     1      16.648  -2.725   2.768  1.00  0.00     0.012 A 
ATOM     51  C   UNL     1      16.030  -0.378   2.850  1.00  0.00     0.148 A 
ATOM     52  C   UNL     1      17.517  -2.461   1.708  1.00  0.00     0.002 A 
ATOM     53  C   UNL     1      16.852  -0.132   1.757  1.00  0.00     0.091 A 
ATOM     54  F   UNL     1      15.330   0.603   3.438  1.00  0.00    -0.205 F 
ATOM     55  C   UNL     1      17.611  -1.169   1.195  1.00  0.00     0.022 A 
BRANCH  53  56
ATOM     56  S   UNL     1      16.938   1.474   0.956  1.00  0.00     0.127 S 
ATOM     57  O   UNL     1      18.305   1.887   1.264  1.00  0.00    -0.237 OA
ATOM     58  O   UNL     1      16.700   1.124  -0.444  1.00  0.00    -0.237 OA
ATOM     59  O   UNL     1      15.886   2.277   1.564  1.00  0.00    -0.744 OA
ENDBRANCH  53  56
ENDBRANCH  25  49
BRANCH  37  60
ATOM     60  C   UNL     1      16.780  -3.916   9.932  1.00  0.00     0.023 A 
ATOM     61  C   UNL     1      17.692  -2.945  10.388  1.00  0.00     0.012 A 
ATOM     62  C   UNL     1      16.955  -5.265  10.295  1.00  0.00     0.148 A 
ATOM     63  C   UNL     1      18.780  -3.318  11.174  1.00  0.00     0.002 A 
ATOM     64  C   UNL     1      18.007  -5.620  11.126  1.00  0.00     0.091 A 
ATOM     65  F   UNL     1      16.081  -6.170   9.831  1.00  0.00    -0.205 F 
ATOM     66  C   UNL     1      18.928  -4.651  11.555  1.00  0.00     0.022 A 
BRANCH  64  67
ATOM     67  S   UNL     1      18.205  -7.288  11.759  1.00  0.00     0.127 S 
ATOM     68  O   UNL     1      19.394  -7.739  11.038  1.00  0.00    -0.237 OA
ATOM     69  O   UNL     1      18.409  -7.052  13.189  1.00  0.00    -0.237 OA
ATOM     70  O   UNL     1      16.973  -7.993  11.432  1.00  0.00    -0.744 OA
ENDBRANCH  64  67
ENDBRANCH  37  60
ENDBRANCH  11  12
ENDBRANCH   4   6
ENDBRANCH   3   4
ENDBRANCH   2   3
ENDBRANCH   1   2
BRANCH   1  71
ATOM     71  O   UNL     1       6.235  -1.123   0.671  1.00  0.00    -0.374 OA
BRANCH  71  72
ATOM     72  C   UNL     1       6.018   0.062  -0.092  1.00  0.00     0.202 C 
BRANCH  72  73
ATOM     73  C   UNL     1       6.080  -0.241  -1.586  1.00  0.00     0.261 C 
BRANCH  73  74
ATOM     74  O   UNL     1       5.173  -1.323  -1.909  1.00  0.00    -0.463 OA
BRANCH  74  75
ATOM     75  C   UNL     1       5.782  -2.516  -2.188  1.00  0.00     0.312 C 
ATOM     76  O   UNL     1       6.983  -2.638  -2.313  1.00  0.00    -0.252 OA
BRANCH  75  77
ATOM     77  C   UNL     1       4.756  -3.592  -2.475  1.00  0.00     0.147 C 
ATOM     78  C   UNL     1       5.277  -4.955  -3.020  1.00  0.00     0.129 C 
ATOM     79  C   UNL     1       3.903  -4.064  -1.286  1.00  0.00     0.157 C 
ATOM     80  C   UNL     1       4.569  -5.959  -2.118  1.00  0.00     0.155 C 
ATOM     81  C   UNL     1       2.665  -4.753  -1.779  1.00  0.00     0.004 C 
ATOM     82  O   UNL     1       4.615  -5.243  -0.859  1.00  0.00    -0.365 OA
ATOM     83  C   UNL     1       3.076  -5.909  -2.319  1.00  0.00     0.004 C 
BRANCH  78  84
ATOM     84  C   UNL     1       6.766  -5.224  -3.254  1.00  0.00     0.231 C 
ATOM     85  O   UNL     1       7.109  -5.394  -4.438  1.00  0.00    -0.274 OA
ATOM     86  N   UNL     1       7.784  -5.224  -2.355  1.00  0.00    -0.323 N 
ATOM     87  H   UNL     1       8.663  -5.338  -2.783  1.00  0.00     0.170 HD
BRANCH  86  88
ATOM     88  C   UNL     1       7.880  -5.102  -0.958  1.00  0.00     0.080 A 
ATOM     89  C   UNL     1       7.138  -5.849  -0.056  1.00  0.00     0.068 A 
ATOM     90  C   UNL     1       8.856  -4.228  -0.449  1.00  0.00     0.146 A 
ATOM     91  C   UNL     1       7.260  -5.607   1.313  1.00  0.00     0.125 A 
ATOM     92  C   UNL     1       8.983  -3.987   0.917  1.00  0.00     0.044 A 
ATOM     93  F   UNL     1       9.666  -3.573  -1.295  1.00  0.00    -0.205 F 
ATOM     94  F   UNL     1       6.493  -6.293   2.171  1.00  0.00    -0.207 F 
ATOM     95  C   UNL     1       8.159  -4.670   1.806  1.00  0.00     0.042 A 
ENDBRANCH  86  88
ENDBRANCH  78  84
ENDBRANCH  75  77
ENDBRANCH  74  75
ENDBRANCH  73  74
ENDBRANCH  72  73
ENDBRANCH  71  72
ENDBRANCH   1  71
TORSDOF 19
