REMARK SMILES O=C(OCCOCCOC(=O)c1ccc(-c2c3nc(c(-c4cccc(S(=O)(=O)[O-])c4F)c4ccc([nH]4)c(-c4cccc(S(=O)(=O)[O-])c4F)c4nc(c(-c5cccc(S(=O)(=O)[O-])c5F)c5ccc2[nH]5)C=C4)C=C3)cc1)C1=Cc2cc(Cl)cc(C#Cc3ccccc3)c2O[C@@H]1C(F)(F)F
REMARK SMILES IDX 7 1 6 2 5 3 4 4 3 5 2 6 1 7 75 8 76 9 93 10 77 11 92 12
REMARK SMILES IDX 78 13 91 14 79 15 82 16 80 17 81 18 94 19 95 20 96 21 97 22
REMARK SMILES IDX 83 23 84 24 85 25 86 26 90 27 87 28 89 29 88 30 8 31 9 32
REMARK SMILES IDX 10 33 11 34 12 35 13 36 74 37 14 38 73 39 15 40 16 41 17 42
REMARK SMILES IDX 67 43 18 44 72 45 66 46 68 47 19 48 71 49 65 50 64 51 20 53
REMARK SMILES IDX 52 54 32 55 51 56 33 57 36 58 50 59 69 60 34 61 35 62 49 64
REMARK SMILES IDX 70 65 37 66 21 67 22 68 30 69 23 70 25 71 31 72 24 73 26 74
REMARK SMILES IDX 27 75 28 76 29 77 53 78 54 79 62 80 55 81 57 82 63 83 56 84
REMARK SMILES IDX 58 85 59 86 60 87 61 88 38 89 39 90 47 91 40 92 42 93 48 94
REMARK SMILES IDX 41 95 43 96 44 97 45 98 46 99
REMARK H PARENT 68 52 36 63
REMARK Flexibility Score: inf
ROOT
ATOM      1  C   UNL     1       2.897   2.340  -1.992  1.00  0.00     0.202 C 
ENDROOT
BRANCH   1   2
ATOM      2  O   UNL     1       3.672   2.233  -0.791  1.00  0.00    -0.374 OA
BRANCH   2   3
ATOM      3  C   UNL     1       4.149   0.990   0.014  1.00  0.00     0.202 C 
BRANCH   3   4
ATOM      4  C   UNL     1       3.078  -0.760   0.749  1.00  0.00     0.261 C 
BRANCH   4   5
ATOM      5  O   UNL     1       2.203  -0.848   2.023  1.00  0.00    -0.460 OA
BRANCH   5   6
ATOM      6  C   UNL     1       2.521   0.064   2.944  1.00  0.00     0.338 C 
ATOM      7  O   UNL     1       2.031   0.298   4.018  1.00  0.00    -0.246 OA
BRANCH   6   8
ATOM      8  C   UNL     1       3.420   0.805   2.095  1.00  0.00     0.087 C 
ATOM      9  C   UNL     1       4.720   0.074   2.017  1.00  0.00     0.027 C 
ATOM     10  C   UNL     1       2.207   1.064   0.607  1.00  0.00     0.316 C 
ATOM     11  C   UNL     1       5.276  -0.798   0.517  1.00  0.00     0.020 A 
ATOM     12  O   UNL     1       2.761   0.112  -0.967  1.00  0.00    -0.474 OA
ATOM     13  C   UNL     1       6.405  -1.558   0.604  1.00  0.00     0.032 A 
ATOM     14  C   UNL     1       4.272  -0.899  -0.925  1.00  0.00     0.143 A 
ATOM     15  C   UNL     1       6.601  -2.390  -0.495  1.00  0.00     0.043 A 
ATOM     16  C   UNL     1       4.512  -1.788  -1.928  1.00  0.00     0.069 A 
ATOM     17  Cl  UNL     1       8.039  -3.365  -0.496  1.00  0.00    -0.084 Cl
ATOM     18  C   UNL     1       5.702  -2.511  -1.642  1.00  0.00     0.041 A 
BRANCH  10  19
ATOM     19  C   UNL     1       1.816   2.580   0.777  1.00  0.00     0.430 C 
ATOM     20  F   UNL     1       1.103   3.115  -0.229  1.00  0.00    -0.167 F 
ATOM     21  F   UNL     1       1.009   2.665   1.879  1.00  0.00    -0.167 F 
ATOM     22  F   UNL     1       2.857   3.398   1.072  1.00  0.00    -0.167 F 
ENDBRANCH  10  19
BRANCH  16  23
ATOM     23  C   UNL     1       3.745  -2.000  -3.125  1.00  0.00    -0.058 C 
ATOM     24  C   UNL     1       3.276  -2.181  -4.221  1.00  0.00    -0.062 C 
BRANCH  24  25
ATOM     25  C   UNL     1       3.000  -2.341  -5.636  1.00  0.00     0.025 A 
ATOM     26  C   UNL     1       2.706  -1.218  -6.421  1.00  0.00     0.017 A 
ATOM     27  C   UNL     1       3.279  -3.553  -6.282  1.00  0.00     0.017 A 
ATOM     28  C   UNL     1       2.794  -1.282  -7.821  1.00  0.00     0.001 A 
ATOM     29  C   UNL     1       3.377  -3.614  -7.679  1.00  0.00     0.001 A 
ATOM     30  C   UNL     1       3.155  -2.474  -8.448  1.00  0.00     0.000 A 
ENDBRANCH  24  25
ENDBRANCH  16  23
ENDBRANCH   6   8
ENDBRANCH   5   6
ENDBRANCH   4   5
ENDBRANCH   3   4
ENDBRANCH   2   3
ENDBRANCH   1   2
BRANCH   1  31
ATOM     31  C   UNL     1       3.451   2.107  -3.388  1.00  0.00     0.261 C 
BRANCH  31  32
ATOM     32  O   UNL     1       4.342   1.017  -3.539  1.00  0.00    -0.460 OA
BRANCH  32  33
ATOM     33  C   UNL     1       5.658   1.322  -3.654  1.00  0.00     0.338 C 
ATOM     34  O   UNL     1       6.221   2.345  -3.320  1.00  0.00    -0.246 OA
BRANCH  33  35
ATOM     35  C   UNL     1       6.266   0.168  -4.351  1.00  0.00     0.060 A 
ATOM     36  C   UNL     1       7.197  -0.668  -3.736  1.00  0.00     0.016 A 
ATOM     37  C   UNL     1       5.750  -0.175  -5.592  1.00  0.00     0.016 A 
ATOM     38  C   UNL     1       7.470  -1.944  -4.287  1.00  0.00     0.010 A 
ATOM     39  C   UNL     1       6.010  -1.443  -6.109  1.00  0.00     0.010 A 
ATOM     40  C   UNL     1       6.811  -2.386  -5.442  1.00  0.00    -0.014 A 
BRANCH  40  41
ATOM     41  C   UNL     1       6.976  -3.752  -6.064  1.00  0.00     0.031 A 
ATOM     42  C   UNL     1       7.501  -3.811  -7.477  1.00  0.00     0.074 A 
ATOM     43  C   UNL     1       6.514  -4.913  -5.532  1.00  0.00     0.049 A 
ATOM     44  N   UNL     1       7.573  -4.834  -8.287  1.00  0.00    -0.248 NA
ATOM     45  C   UNL     1       7.912  -2.533  -8.087  1.00  0.00     0.031 C 
ATOM     46  C   UNL     1       5.767  -5.046  -4.292  1.00  0.00     0.029 A 
ATOM     47  N   UNL     1       6.530  -6.216  -6.003  1.00  0.00    -0.354 N 
ATOM     48  C   UNL     1       7.968  -4.309  -9.507  1.00  0.00     0.074 A 
ATOM     49  C   UNL     1       8.031  -2.874  -9.358  1.00  0.00     0.031 C 
ATOM     50  C   UNL     1       5.444  -6.328  -4.058  1.00  0.00     0.029 A 
ATOM     51  C   UNL     1       5.892  -7.133  -5.184  1.00  0.00     0.049 A 
ATOM     52  H   UNL     1       6.961  -6.469  -6.852  1.00  0.00     0.167 HD
ATOM     53  C   UNL     1       8.316  -4.953 -10.642  1.00  0.00     0.034 A 
ATOM     54  C   UNL     1       5.646  -8.456  -5.324  1.00  0.00     0.034 A 
ATOM     55  C   UNL     1       8.356  -6.376 -10.789  1.00  0.00     0.049 A 
ATOM     56  C   UNL     1       6.117  -9.163  -6.573  1.00  0.00     0.074 A 
ATOM     57  C   UNL     1       8.870  -7.108 -11.844  1.00  0.00     0.029 A 
ATOM     58  N   UNL     1       7.855  -7.282  -9.873  1.00  0.00    -0.354 N 
ATOM     59  N   UNL     1       6.737  -8.668  -7.614  1.00  0.00    -0.248 NA
ATOM     60  C   UNL     1       5.883 -10.617  -6.657  1.00  0.00     0.031 C 
ATOM     61  C   UNL     1       8.640  -8.460 -11.587  1.00  0.00     0.029 A 
ATOM     62  C   UNL     1       8.026  -8.568 -10.351  1.00  0.00     0.049 A 
ATOM     63  H   UNL     1       7.440  -7.047  -9.012  1.00  0.00     0.167 HD
ATOM     64  C   UNL     1       7.007  -9.751  -8.446  1.00  0.00     0.074 A 
ATOM     65  C   UNL     1       6.508 -10.932  -7.782  1.00  0.00     0.031 C 
ATOM     66  C   UNL     1       7.600  -9.756  -9.663  1.00  0.00     0.034 A 
BRANCH  53  67
ATOM     67  C   UNL     1       8.774  -4.113 -11.798  1.00  0.00     0.023 A 
ATOM     68  C   UNL     1       9.999  -3.420 -11.712  1.00  0.00     0.012 A 
ATOM     69  C   UNL     1       8.027  -4.068 -12.987  1.00  0.00     0.148 A 
ATOM     70  C   UNL     1      10.456  -2.658 -12.783  1.00  0.00     0.002 A 
ATOM     71  C   UNL     1       8.520  -3.357 -14.071  1.00  0.00     0.091 A 
ATOM     72  F   UNL     1       6.857  -4.721 -13.033  1.00  0.00    -0.205 F 
ATOM     73  C   UNL     1       9.724  -2.640 -13.966  1.00  0.00     0.022 A 
BRANCH  71  74
ATOM     74  S   UNL     1       7.706  -3.346 -15.669  1.00  0.00     0.127 S 
ATOM     75  O   UNL     1       7.368  -1.931 -15.817  1.00  0.00    -0.237 OA
ATOM     76  O   UNL     1       8.773  -3.815 -16.553  1.00  0.00    -0.237 OA
ATOM     77  O   UNL     1       6.566  -4.244 -15.551  1.00  0.00    -0.744 OA
ENDBRANCH  71  74
ENDBRANCH  53  67
BRANCH  54  78
ATOM     78  C   UNL     1       4.952  -9.259  -4.261  1.00  0.00     0.023 A 
ATOM     79  C   UNL     1       5.675 -10.266  -3.585  1.00  0.00     0.012 A 
ATOM     80  C   UNL     1       3.578  -9.115  -3.986  1.00  0.00     0.148 A 
ATOM     81  C   UNL     1       5.034 -11.159  -2.722  1.00  0.00     0.002 A 
ATOM     82  C   UNL     1       2.956  -9.972  -3.079  1.00  0.00     0.091 A 
ATOM     83  F   UNL     1       2.898  -8.157  -4.631  1.00  0.00    -0.205 F 
ATOM     84  C   UNL     1       3.675 -11.011  -2.468  1.00  0.00     0.022 A 
BRANCH  82  85
ATOM     85  S   UNL     1       1.231  -9.805  -2.600  1.00  0.00     0.127 S 
ATOM     86  O   UNL     1       0.643 -11.015  -3.168  1.00  0.00    -0.237 OA
ATOM     87  O   UNL     1       1.326  -9.793  -1.140  1.00  0.00    -0.237 OA
ATOM     88  O   UNL     1       0.782  -8.550  -3.187  1.00  0.00    -0.744 OA
ENDBRANCH  82  85
ENDBRANCH  54  78
BRANCH  66  89
ATOM     89  C   UNL     1       7.818 -11.075 -10.355  1.00  0.00     0.023 A 
ATOM     90  C   UNL     1       6.726 -11.780 -10.895  1.00  0.00     0.012 A 
ATOM     91  C   UNL     1       9.127 -11.554 -10.569  1.00  0.00     0.148 A 
ATOM     92  C   UNL     1       6.931 -12.954 -11.620  1.00  0.00     0.002 A 
ATOM     93  C   UNL     1       9.327 -12.693 -11.338  1.00  0.00     0.091 A 
ATOM     94  F   UNL     1      10.151 -10.873 -10.036  1.00  0.00    -0.205 F 
ATOM     95  C   UNL     1       8.230 -13.401 -11.854  1.00  0.00     0.022 A 
BRANCH  93  96
ATOM     96  S   UNL     1      10.964 -13.284 -11.781  1.00  0.00     0.127 S 
ATOM     97  O   UNL     1      11.019 -14.563 -11.074  1.00  0.00    -0.237 OA
ATOM     98  O   UNL     1      10.868 -13.395 -13.236  1.00  0.00    -0.237 OA
ATOM     99  O   UNL     1      11.902 -12.276 -11.308  1.00  0.00    -0.744 OA
ENDBRANCH  93  96
ENDBRANCH  66  89
ENDBRANCH  40  41
ENDBRANCH  33  35
ENDBRANCH  32  33
ENDBRANCH  31  32
ENDBRANCH   1  31
TORSDOF 20
