REMARK SMILES O=C(CCN/C(=[NH+]\S(=O)(=O)c1ccccc1)c1ccccc1)OCCOCCOC(=O)c1ccc(-c2c3nc(c(-c4cccc(S(=O)(=O)[O-])c4F)c4ccc([nH]4)c(-c4cccc(S(=O)(=O)[O-])c4F)c4nc(c(-c5cccc(S(=O)(=O)[O-])c5F)c5ccc2[nH]5)C=C4)C=C3)cc1
REMARK SMILES IDX 25 1 24 2 23 3 2 4 1 5 3 6 4 7 5 8 6 9 7 11 17 13 18 14
REMARK SMILES IDX 22 15 19 16 21 17 20 18 8 19 9 20 10 21 11 22 12 23 16 24
REMARK SMILES IDX 13 25 15 26 14 27 26 28 27 29 28 30 29 31 30 32 31 33 32 34
REMARK SMILES IDX 33 35 94 36 34 37 93 38 35 39 36 40 37 41 87 42 38 43 92 44
REMARK SMILES IDX 86 45 88 46 39 47 91 48 85 49 84 50 40 52 72 53 52 54 71 55
REMARK SMILES IDX 53 56 56 57 70 58 89 59 54 60 55 61 69 63 90 64 57 65 41 66
REMARK SMILES IDX 42 67 50 68 43 69 45 70 51 71 44 72 46 73 47 74 48 75 49 76
REMARK SMILES IDX 73 77 74 78 82 79 75 80 77 81 83 82 76 83 78 84 79 85 80 86
REMARK SMILES IDX 81 87 58 88 59 89 67 90 60 91 62 92 68 93 61 94 63 95 64 96
REMARK SMILES IDX 65 97 66 98
REMARK H PARENT 5 10 7 12 88 51 56 62
REMARK Flexibility Score: inf
ROOT
ATOM      1  C   UNL     1       4.354   0.501   1.042  1.00  0.00     0.202 C 
ENDROOT
BRANCH   1   2
ATOM      2  C   UNL     1       3.392   0.935  -0.069  1.00  0.00     0.261 C 
BRANCH   2   3
ATOM      3  O   UNL     1       2.200   0.140  -0.211  1.00  0.00    -0.463 OA
BRANCH   3   4
ATOM      4  C   UNL     1       2.182  -1.037  -0.862  1.00  0.00     0.309 C 
ATOM      5  O   UNL     1       1.216  -1.357  -1.552  1.00  0.00    -0.252 OA
BRANCH   4   6
ATOM      6  C   UNL     1       3.292  -2.014  -0.607  1.00  0.00     0.168 C 
BRANCH   6   7
ATOM      7  C   UNL     1       4.113  -2.281  -1.852  1.00  0.00     0.245 C 
BRANCH   7   8
ATOM      8  N   UNL     1       5.186  -1.321  -2.069  1.00  0.00    -0.273 N 
ATOM      9  C   UNL     1       6.497  -1.288  -1.616  1.00  0.00     0.290 C 
ATOM     10  H   UNL     1       4.936  -0.558  -2.640  1.00  0.00     0.305 HD
ATOM     11  N   UNL     1       7.299  -0.266  -1.710  1.00  0.00    -0.162 N 
ATOM     12  H   UNL     1       8.239  -0.367  -1.435  1.00  0.00     0.327 HD
BRANCH   9  13
ATOM     13  C   UNL     1       7.119  -2.487  -0.949  1.00  0.00     0.064 A 
ATOM     14  C   UNL     1       7.939  -2.289   0.171  1.00  0.00     0.016 A 
ATOM     15  C   UNL     1       6.949  -3.781  -1.450  1.00  0.00     0.016 A 
ATOM     16  C   UNL     1       8.536  -3.379   0.810  1.00  0.00     0.001 A 
ATOM     17  C   UNL     1       7.518  -4.873  -0.790  1.00  0.00     0.001 A 
ATOM     18  C   UNL     1       8.309  -4.671   0.340  1.00  0.00     0.000 A 
ENDBRANCH   9  13
BRANCH  11  19
ATOM     19  S   UNL     1       6.790   1.167  -2.267  1.00  0.00     0.328 S 
ATOM     20  O   UNL     1       6.121   0.966  -3.539  1.00  0.00    -0.179 OA
ATOM     21  O   UNL     1       6.100   1.831  -1.176  1.00  0.00    -0.179 OA
BRANCH  19  22
ATOM     22  C   UNL     1       8.218   2.172  -2.582  1.00  0.00     0.109 A 
ATOM     23  C   UNL     1       9.504   1.632  -2.623  1.00  0.00     0.024 A 
ATOM     24  C   UNL     1       8.017   3.555  -2.700  1.00  0.00     0.024 A 
ATOM     25  C   UNL     1      10.594   2.492  -2.784  1.00  0.00     0.001 A 
ATOM     26  C   UNL     1       9.109   4.405  -2.855  1.00  0.00     0.001 A 
ATOM     27  C   UNL     1      10.397   3.873  -2.894  1.00  0.00     0.000 A 
ENDBRANCH  19  22
ENDBRANCH  11  19
ENDBRANCH   7   8
ENDBRANCH   6   7
ENDBRANCH   4   6
ENDBRANCH   3   4
ENDBRANCH   2   3
ENDBRANCH   1   2
BRANCH   1  28
ATOM     28  O   UNL     1       3.786  -0.196   2.152  1.00  0.00    -0.374 OA
BRANCH  28  29
ATOM     29  C   UNL     1       2.629   0.361   2.771  1.00  0.00     0.202 C 
BRANCH  29  30
ATOM     30  C   UNL     1       2.887   1.542   3.702  1.00  0.00     0.261 C 
BRANCH  30  31
ATOM     31  O   UNL     1       3.277   2.704   2.959  1.00  0.00    -0.460 OA
BRANCH  31  32
ATOM     32  C   UNL     1       4.579   3.063   3.088  1.00  0.00     0.338 C 
ATOM     33  O   UNL     1       5.425   2.527   3.775  1.00  0.00    -0.246 OA
BRANCH  32  34
ATOM     34  C   UNL     1       4.871   4.155   2.138  1.00  0.00     0.060 A 
ATOM     35  C   UNL     1       6.111   4.146   1.483  1.00  0.00     0.016 A 
ATOM     36  C   UNL     1       3.969   5.203   1.943  1.00  0.00     0.016 A 
ATOM     37  C   UNL     1       6.482   5.225   0.684  1.00  0.00     0.010 A 
ATOM     38  C   UNL     1       4.342   6.283   1.148  1.00  0.00     0.010 A 
ATOM     39  C   UNL     1       5.617   6.317   0.559  1.00  0.00    -0.014 A 
BRANCH  39  40
ATOM     40  C   UNL     1       6.100   7.597  -0.000  1.00  0.00     0.031 A 
ATOM     41  C   UNL     1       6.590   8.642   0.960  1.00  0.00     0.074 A 
ATOM     42  C   UNL     1       6.018   7.847  -1.317  1.00  0.00     0.049 A 
ATOM     43  N   UNL     1       6.928   9.883   0.733  1.00  0.00    -0.248 NA
ATOM     44  C   UNL     1       6.696   8.236   2.373  1.00  0.00     0.031 C 
ATOM     45  C   UNL     1       5.543   6.905  -2.327  1.00  0.00     0.029 A 
ATOM     46  N   UNL     1       6.287   8.994  -2.018  1.00  0.00    -0.354 N 
ATOM     47  C   UNL     1       7.249  10.417   1.975  1.00  0.00     0.074 A 
ATOM     48  C   UNL     1       7.065   9.367   2.953  1.00  0.00     0.031 C 
ATOM     49  C   UNL     1       5.511   7.527  -3.518  1.00  0.00     0.029 A 
ATOM     50  C   UNL     1       5.931   8.917  -3.343  1.00  0.00     0.049 A 
ATOM     51  H   UNL     1       6.695   9.793  -1.613  1.00  0.00     0.167 HD
ATOM     52  C   UNL     1       7.665  11.669   2.274  1.00  0.00     0.034 A 
ATOM     53  C   UNL     1       5.913   9.874  -4.291  1.00  0.00     0.034 A 
ATOM     54  C   UNL     1       7.846  12.703   1.294  1.00  0.00     0.049 A 
ATOM     55  C   UNL     1       6.372  11.265  -3.935  1.00  0.00     0.074 A 
ATOM     56  C   UNL     1       8.305  13.994   1.478  1.00  0.00     0.029 A 
ATOM     57  N   UNL     1       7.561  12.564  -0.056  1.00  0.00    -0.354 N 
ATOM     58  N   UNL     1       6.795  11.726  -2.782  1.00  0.00    -0.248 NA
ATOM     59  C   UNL     1       6.380  12.261  -5.016  1.00  0.00     0.031 C 
ATOM     60  C   UNL     1       8.278  14.643   0.239  1.00  0.00     0.029 A 
ATOM     61  C   UNL     1       7.827  13.747  -0.719  1.00  0.00     0.049 A 
ATOM     62  H   UNL     1       7.219  11.744  -0.479  1.00  0.00     0.167 HD
ATOM     63  C   UNL     1       7.157  13.050  -3.006  1.00  0.00     0.074 A 
ATOM     64  C   UNL     1       6.912  13.315  -4.410  1.00  0.00     0.031 C 
ATOM     65  C   UNL     1       7.638  13.967  -2.131  1.00  0.00     0.034 A 
BRANCH  52  66
ATOM     66  C   UNL     1       7.967  11.972   3.716  1.00  0.00     0.023 A 
ATOM     67  C   UNL     1       9.126  11.434   4.312  1.00  0.00     0.012 A 
ATOM     68  C   UNL     1       7.120  12.800   4.477  1.00  0.00     0.148 A 
ATOM     69  C   UNL     1       9.417  11.685   5.652  1.00  0.00     0.002 A 
ATOM     70  C   UNL     1       7.439  13.079   5.801  1.00  0.00     0.091 A 
ATOM     71  F   UNL     1       6.006  13.278   3.903  1.00  0.00    -0.205 F 
ATOM     72  C   UNL     1       8.580  12.514   6.393  1.00  0.00     0.022 A 
BRANCH  70  73
ATOM     73  S   UNL     1       6.456  14.192   6.812  1.00  0.00     0.127 S 
ATOM     74  O   UNL     1       5.735  13.253   7.670  1.00  0.00    -0.237 OA
ATOM     75  O   UNL     1       7.482  14.978   7.497  1.00  0.00    -0.237 OA
ATOM     76  O   UNL     1       5.635  14.954   5.881  1.00  0.00    -0.744 OA
ENDBRANCH  70  73
ENDBRANCH  52  66
BRANCH  53  77
ATOM     77  C   UNL     1       5.482   9.535  -5.676  1.00  0.00     0.023 A 
ATOM     78  C   UNL     1       6.442   9.485  -6.704  1.00  0.00     0.012 A 
ATOM     79  C   UNL     1       4.140   9.223  -5.971  1.00  0.00     0.148 A 
ATOM     80  C   UNL     1       6.072   9.151  -8.007  1.00  0.00     0.002 A 
ATOM     81  C   UNL     1       3.787   8.843  -7.261  1.00  0.00     0.091 A 
ATOM     82  F   UNL     1       3.240   9.289  -4.980  1.00  0.00    -0.205 F 
ATOM     83  C   UNL     1       4.748   8.820  -8.283  1.00  0.00     0.022 A 
BRANCH  81  84
ATOM     84  S   UNL     1       2.132   8.288  -7.687  1.00  0.00     0.127 S 
ATOM     85  O   UNL     1       1.665   9.373  -8.546  1.00  0.00    -0.237 OA
ATOM     86  O   UNL     1       2.408   7.028  -8.379  1.00  0.00    -0.237 OA
ATOM     87  O   UNL     1       1.428   8.138  -6.421  1.00  0.00    -0.744 OA
ENDBRANCH  81  84
ENDBRANCH  53  77
BRANCH  65  88
ATOM     88  C   UNL     1       7.989  15.332  -2.660  1.00  0.00     0.023 A 
ATOM     89  C   UNL     1       6.968  16.252  -2.962  1.00  0.00     0.012 A 
ATOM     90  C   UNL     1       9.337  15.736  -2.748  1.00  0.00     0.148 A 
ATOM     91  C   UNL     1       7.282  17.550  -3.362  1.00  0.00     0.002 A 
ATOM     92  C   UNL     1       9.641  17.044  -3.101  1.00  0.00     0.091 A 
ATOM     93  F   UNL     1      10.293  14.837  -2.473  1.00  0.00    -0.205 F 
ATOM     94  C   UNL     1       8.616  17.950  -3.418  1.00  0.00     0.022 A 
BRANCH  92  95
ATOM     95  S   UNL     1      11.325  17.672  -3.099  1.00  0.00     0.127 S 
ATOM     96  O   UNL     1      11.608  17.771  -4.530  1.00  0.00    -0.237 OA
ATOM     97  O   UNL     1      11.178  18.958  -2.416  1.00  0.00    -0.237 OA
ATOM     98  O   UNL     1      12.117  16.690  -2.371  1.00  0.00    -0.744 OA
ENDBRANCH  92  95
ENDBRANCH  65  88
ENDBRANCH  39  40
ENDBRANCH  32  34
ENDBRANCH  31  32
ENDBRANCH  30  31
ENDBRANCH  29  30
ENDBRANCH  28  29
ENDBRANCH   1  28
TORSDOF 22
