REMARK SMILES CC(=O)N[C@H](C(=O)NC1(CC(=O)OCCOCCOC(=O)c2ccc(-c3c4nc(c(-c5cccc(S(=O)(=O)[O-])c5F)c5ccc([nH]5)c(-c5cccc(S(=O)(=O)[O-])c5F)c5nc(c(-c6cccc(S(=O)(=O)[O-])c6F)c6ccc3[nH]6)C=C5)C=C4)cc2)CCC1)C(C)C
REMARK SMILES IDX 15 1 14 2 13 3 11 4 12 5 10 6 9 7 85 8 87 9 86 10 8 11 6 12
REMARK SMILES IDX 7 13 5 15 4 16 1 17 2 18 3 19 88 21 89 22 90 23 16 24 17 25
REMARK SMILES IDX 18 26 19 27 20 28 21 29 22 30 23 31 84 32 24 33 83 34 25 35
REMARK SMILES IDX 26 36 27 37 77 38 28 39 82 40 76 41 78 42 29 43 81 44 75 45
REMARK SMILES IDX 74 46 30 48 62 49 42 50 61 51 43 52 46 53 60 54 79 55 44 56
REMARK SMILES IDX 45 57 59 59 80 60 47 61 31 62 32 63 40 64 33 65 35 66 41 67
REMARK SMILES IDX 34 68 36 69 37 70 38 71 39 72 63 73 64 74 72 75 65 76 67 77
REMARK SMILES IDX 73 78 66 79 68 80 69 81 70 82 71 83 48 84 49 85 57 86 50 87
REMARK SMILES IDX 52 88 58 89 51 90 53 91 54 92 55 93 56 94
REMARK H PARENT 8 14 4 20 78 47 46 58
REMARK Flexibility Score: inf
ROOT
ATOM      1  C   UNL     1       0.543   1.104  -1.834  1.00  0.00     0.202 C 
ENDROOT
BRANCH   1   2
ATOM      2  C   UNL     1       2.019   1.563  -1.567  1.00  0.00     0.261 C 
BRANCH   2   3
ATOM      3  O   UNL     1       2.852   0.639  -0.840  1.00  0.00    -0.463 OA
BRANCH   3   4
ATOM      4  C   UNL     1       2.428   0.227   0.365  1.00  0.00     0.308 C 
ATOM      5  O   UNL     1       1.555   0.797   1.008  1.00  0.00    -0.252 OA
BRANCH   4   6
ATOM      6  C   UNL     1       3.198  -0.980   0.857  1.00  0.00     0.151 C 
BRANCH   6   7
ATOM      7  C   UNL     1       3.100  -2.342   0.116  1.00  0.00     0.051 C 
ATOM      8  C   UNL     1       3.250  -3.380   1.335  1.00  0.00     0.029 C 
ATOM      9  C   UNL     1       4.102  -3.413  -0.580  1.00  0.00     0.029 C 
ATOM     10  C   UNL     1       4.623  -3.803   0.778  1.00  0.00     0.005 C 
BRANCH   7  11
ATOM     11  N   UNL     1       1.834  -2.420  -0.689  1.00  0.00    -0.348 N 
ATOM     12  C   UNL     1       1.791  -2.507  -2.093  1.00  0.00     0.243 C 
ATOM     13  O   UNL     1       1.334  -3.590  -2.484  1.00  0.00    -0.273 OA
ATOM     14  H   UNL     1       0.978  -2.410  -0.202  1.00  0.00     0.164 HD
BRANCH  12  15
ATOM     15  C   UNL     1       2.504  -1.403  -3.083  1.00  0.00     0.173 C 
BRANCH  15  16
ATOM     16  N   UNL     1       3.770  -2.046  -3.463  1.00  0.00    -0.344 N 
ATOM     17  C   UNL     1       5.383  -0.742  -2.090  1.00  0.00     0.114 C 
ATOM     18  C   UNL     1       5.040  -1.600  -3.277  1.00  0.00     0.217 C 
ATOM     19  O   UNL     1       5.901  -1.943  -4.082  1.00  0.00    -0.275 OA
ATOM     20  H   UNL     1       3.687  -2.917  -3.914  1.00  0.00     0.164 HD
ENDBRANCH  15  16
BRANCH  15  21
ATOM     21  C   UNL     1       1.903  -0.818  -4.490  1.00  0.00     0.015 C 
ATOM     22  C   UNL     1       0.585  -0.039  -4.808  1.00  0.00     0.010 C 
ATOM     23  C   UNL     1       2.918   0.026  -5.281  1.00  0.00     0.010 C 
ENDBRANCH  15  21
ENDBRANCH  12  15
ENDBRANCH   7  11
ENDBRANCH   6   7
ENDBRANCH   4   6
ENDBRANCH   3   4
ENDBRANCH   2   3
ENDBRANCH   1   2
BRANCH   1  24
ATOM     24  O   UNL     1       0.376  -0.324  -1.994  1.00  0.00    -0.374 OA
BRANCH  24  25
ATOM     25  C   UNL     1      -0.965  -0.845  -2.151  1.00  0.00     0.202 C 
BRANCH  25  26
ATOM     26  C   UNL     1      -1.216  -2.104  -3.166  1.00  0.00     0.261 C 
BRANCH  26  27
ATOM     27  O   UNL     1      -0.130  -2.502  -4.075  1.00  0.00    -0.460 OA
BRANCH  27  28
ATOM     28  C   UNL     1      -0.273  -3.470  -5.045  1.00  0.00     0.338 C 
ATOM     29  O   UNL     1      -1.323  -4.007  -5.325  1.00  0.00    -0.246 OA
BRANCH  28  30
ATOM     30  C   UNL     1       1.007  -3.689  -5.874  1.00  0.00     0.060 A 
ATOM     31  C   UNL     1       1.172  -2.963  -7.068  1.00  0.00     0.016 A 
ATOM     32  C   UNL     1       2.059  -4.551  -5.513  1.00  0.00     0.016 A 
ATOM     33  C   UNL     1       2.340  -3.078  -7.865  1.00  0.00     0.010 A 
ATOM     34  C   UNL     1       3.224  -4.694  -6.340  1.00  0.00     0.010 A 
ATOM     35  C   UNL     1       3.371  -3.975  -7.546  1.00  0.00    -0.014 A 
BRANCH  35  36
ATOM     36  C   UNL     1       4.387  -4.321  -8.621  1.00  0.00     0.031 A 
ATOM     37  C   UNL     1       4.039  -5.457  -9.571  1.00  0.00     0.074 A 
ATOM     38  C   UNL     1       5.521  -3.626  -8.882  1.00  0.00     0.049 A 
ATOM     39  N   UNL     1       4.651  -5.874 -10.654  1.00  0.00    -0.248 NA
ATOM     40  C   UNL     1       2.813  -6.207  -9.256  1.00  0.00     0.031 C 
ATOM     41  C   UNL     1       6.020  -2.487  -8.116  1.00  0.00     0.029 A 
ATOM     42  N   UNL     1       6.467  -3.780  -9.886  1.00  0.00    -0.354 N 
ATOM     43  C   UNL     1       3.891  -6.936 -11.141  1.00  0.00     0.074 A 
ATOM     44  C   UNL     1       2.778  -7.102 -10.232  1.00  0.00     0.031 C 
ATOM     45  C   UNL     1       7.174  -2.054  -8.666  1.00  0.00     0.029 A 
ATOM     46  C   UNL     1       7.521  -2.889  -9.819  1.00  0.00     0.049 A 
ATOM     47  H   UNL     1       6.393  -4.467 -10.587  1.00  0.00     0.167 HD
ATOM     48  C   UNL     1       4.077  -7.705 -12.243  1.00  0.00     0.034 A 
ATOM     49  C   UNL     1       8.639  -2.760 -10.577  1.00  0.00     0.034 A 
ATOM     50  C   UNL     1       5.172  -7.573 -13.165  1.00  0.00     0.049 A 
ATOM     51  C   UNL     1       8.858  -3.667 -11.774  1.00  0.00     0.074 A 
ATOM     52  C   UNL     1       5.422  -8.309 -14.312  1.00  0.00     0.029 A 
ATOM     53  N   UNL     1       6.211  -6.667 -13.041  1.00  0.00    -0.354 N 
ATOM     54  N   UNL     1       8.070  -4.590 -12.270  1.00  0.00    -0.248 NA
ATOM     55  C   UNL     1      10.110  -3.491 -12.537  1.00  0.00     0.031 C 
ATOM     56  C   UNL     1       6.634  -7.875 -14.859  1.00  0.00     0.029 A 
ATOM     57  C   UNL     1       7.114  -6.836 -14.078  1.00  0.00     0.049 A 
ATOM     58  H   UNL     1       6.297  -6.001 -12.321  1.00  0.00     0.167 HD
ATOM     59  C   UNL     1       8.710  -5.076 -13.409  1.00  0.00     0.074 A 
ATOM     60  C   UNL     1       9.941  -4.331 -13.550  1.00  0.00     0.031 C 
ATOM     61  C   UNL     1       8.315  -6.061 -14.255  1.00  0.00     0.034 A 
BRANCH  48  62
ATOM     62  C   UNL     1       3.057  -8.783 -12.518  1.00  0.00     0.023 A 
ATOM     63  C   UNL     1       1.773  -8.434 -12.985  1.00  0.00     0.012 A 
ATOM     64  C   UNL     1       3.387 -10.144 -12.357  1.00  0.00     0.148 A 
ATOM     65  C   UNL     1       0.822  -9.419 -13.250  1.00  0.00     0.002 A 
ATOM     66  C   UNL     1       2.449 -11.121 -12.667  1.00  0.00     0.091 A 
ATOM     67  F   UNL     1       4.608 -10.455 -11.900  1.00  0.00    -0.205 F 
ATOM     68  C   UNL     1       1.163 -10.761 -13.100  1.00  0.00     0.022 A 
BRANCH  66  69
ATOM     69  S   UNL     1       2.813 -12.878 -12.581  1.00  0.00     0.127 S 
ATOM     70  O   UNL     1       1.970 -13.300 -11.463  1.00  0.00    -0.237 OA
ATOM     71  O   UNL     1       2.366 -13.349 -13.892  1.00  0.00    -0.237 OA
ATOM     72  O   UNL     1       4.247 -12.983 -12.352  1.00  0.00    -0.744 OA
ENDBRANCH  66  69
ENDBRANCH  48  62
BRANCH  49  73
ATOM     73  C   UNL     1       9.673  -1.721 -10.250  1.00  0.00     0.023 A 
ATOM     74  C   UNL     1       9.930  -0.662 -11.147  1.00  0.00     0.012 A 
ATOM     75  C   UNL     1      10.439  -1.805  -9.069  1.00  0.00     0.148 A 
ATOM     76  C   UNL     1      10.938   0.272 -10.888  1.00  0.00     0.002 A 
ATOM     77  C   UNL     1      11.400  -0.838  -8.788  1.00  0.00     0.091 A 
ATOM     78  F   UNL     1      10.223  -2.841  -8.247  1.00  0.00    -0.205 F 
ATOM     79  C   UNL     1      11.664   0.192  -9.703  1.00  0.00     0.022 A 
BRANCH  77  80
ATOM     80  S   UNL     1      12.307  -0.794  -7.236  1.00  0.00     0.127 S 
ATOM     81  O   UNL     1      13.666  -1.106  -7.672  1.00  0.00    -0.237 OA
ATOM     82  O   UNL     1      12.102   0.590  -6.807  1.00  0.00    -0.237 OA
ATOM     83  O   UNL     1      11.676  -1.790  -6.381  1.00  0.00    -0.744 OA
ENDBRANCH  77  80
ENDBRANCH  49  73
BRANCH  61  84
ATOM     84  C   UNL     1       9.187  -6.381 -15.447  1.00  0.00     0.023 A 
ATOM     85  C   UNL     1      10.422  -7.035 -15.267  1.00  0.00     0.012 A 
ATOM     86  C   UNL     1       8.739  -6.109 -16.757  1.00  0.00     0.148 A 
ATOM     87  C   UNL     1      11.210  -7.383 -16.366  1.00  0.00     0.002 A 
ATOM     88  C   UNL     1       9.505  -6.503 -17.848  1.00  0.00     0.091 A 
ATOM     89  F   UNL     1       7.568  -5.474 -16.912  1.00  0.00    -0.205 F 
ATOM     90  C   UNL     1      10.748  -7.127 -17.655  1.00  0.00     0.022 A 
BRANCH  88  91
ATOM     91  S   UNL     1       8.946  -6.304 -19.545  1.00  0.00     0.127 S 
ATOM     92  O   UNL     1       9.828  -5.242 -20.028  1.00  0.00    -0.237 OA
ATOM     93  O   UNL     1       9.213  -7.624 -20.117  1.00  0.00    -0.237 OA
ATOM     94  O   UNL     1       7.534  -5.954 -19.465  1.00  0.00    -0.744 OA
ENDBRANCH  88  91
ENDBRANCH  61  84
ENDBRANCH  35  36
ENDBRANCH  28  30
ENDBRANCH  27  28
ENDBRANCH  26  27
ENDBRANCH  25  26
ENDBRANCH  24  25
ENDBRANCH   1  24
TORSDOF 22
