REMARK SMILES C[C@@H](C(=O)OCCOCCOC(=O)c1ccc(-c2c3nc(c(-c4cccc(S(=O)(=O)[O-])c4F)c4ccc([nH]4)c(-c4cccc(S(=O)(=O)[O-])c4F)c4nc(c(-c5cccc(S(=O)(=O)[O-])c5F)c5ccc2[nH]5)C=C4)C=C3)cc1)[N@@H+]1CCc2n[nH]c(C(c3ccccc3)c3ccccc3)c2C1
REMARK SMILES IDX 8 1 7 2 6 3 5 4 3 5 4 6 2 7 1 8 77 9 78 10 98 11 79 13 97 14
REMARK SMILES IDX 80 15 83 16 81 17 82 18 84 20 85 21 86 22 90 23 87 24 89 25
REMARK SMILES IDX 88 26 91 27 92 28 96 29 93 30 95 31 94 32 9 33 10 34 11 35
REMARK SMILES IDX 12 36 13 37 14 38 15 39 76 40 16 41 75 42 17 43 18 44 19 45
REMARK SMILES IDX 69 46 20 47 74 48 68 49 70 50 21 51 73 52 67 53 66 54 22 56
REMARK SMILES IDX 54 57 34 58 53 59 35 60 38 61 52 62 71 63 36 64 37 65 51 67
REMARK SMILES IDX 72 68 39 69 23 70 24 71 32 72 25 73 27 74 33 75 26 76 28 77
REMARK SMILES IDX 29 78 30 79 31 80 55 81 56 82 64 83 57 84 59 85 65 86 58 87
REMARK SMILES IDX 60 88 61 89 62 90 63 91 40 92 41 93 49 94 42 95 44 96 50 97
REMARK SMILES IDX 43 98 45 99 46 100 47 101 48 102
REMARK H PARENT 77 12 82 19 70 55 38 66
REMARK Flexibility Score: inf
ROOT
ATOM      1  O   UNL     1       0.636  -4.821  -1.728  1.00  0.00    -0.374 OA
ENDROOT
BRANCH   1   2
ATOM      2  C   UNL     1      -0.017  -4.616  -3.019  1.00  0.00     0.202 C 
BRANCH   2   3
ATOM      3  C   UNL     1       0.630  -3.517  -4.128  1.00  0.00     0.261 C 
BRANCH   3   4
ATOM      4  O   UNL     1       1.097  -2.212  -3.631  1.00  0.00    -0.459 OA
BRANCH   4   5
ATOM      5  C   UNL     1       0.563  -1.016  -4.034  1.00  0.00     0.364 C 
ATOM      6  O   UNL     1       0.336  -0.752  -5.210  1.00  0.00    -0.245 OA
BRANCH   5   7
ATOM      7  C   UNL     1       0.170  -0.045  -2.830  1.00  0.00     0.292 C 
ATOM      8  C   UNL     1       1.325   0.822  -2.287  1.00  0.00     0.088 C 
BRANCH   7   9
ATOM      9  N   UNL     1      -0.753  -0.707  -1.834  1.00  0.00    -0.319 N 
ATOM     10  C   UNL     1      -0.886  -0.061  -0.511  1.00  0.00     0.269 C 
ATOM     11  C   UNL     1      -0.445  -2.141  -1.623  1.00  0.00     0.303 C 
ATOM     12  H   UNL     1      -1.652  -0.594  -2.302  1.00  0.00     0.349 HD
ATOM     13  C   UNL     1       0.066  -0.625   0.590  1.00  0.00     0.120 C 
ATOM     14  C   UNL     1       0.994  -2.268  -1.114  1.00  0.00     0.052 A 
ATOM     15  C   UNL     1       1.212  -1.362  -0.043  1.00  0.00     0.077 A 
ATOM     16  C   UNL     1       2.269  -2.958  -1.296  1.00  0.00     0.056 A 
ATOM     17  N   UNL     1       2.504  -1.125   0.114  1.00  0.00    -0.180 NA
ATOM     18  N   UNL     1       3.059  -1.880  -0.871  1.00  0.00    -0.281 N 
ATOM     19  H   UNL     1       3.944  -1.685  -1.255  1.00  0.00     0.190 HD
BRANCH  16  20
ATOM     20  C   UNL     1       3.073  -4.496  -1.761  1.00  0.00     0.098 C 
BRANCH  20  21
ATOM     21  C   UNL     1       3.307  -5.734  -0.687  1.00  0.00    -0.035 A 
ATOM     22  C   UNL     1       4.582  -6.016  -0.161  1.00  0.00     0.005 A 
ATOM     23  C   UNL     1       2.339  -6.684  -0.298  1.00  0.00     0.005 A 
ATOM     24  C   UNL     1       4.779  -6.884   0.932  1.00  0.00     0.000 A 
ATOM     25  C   UNL     1       2.517  -7.580   0.773  1.00  0.00     0.000 A 
ATOM     26  C   UNL     1       3.726  -7.627   1.440  1.00  0.00     0.000 A 
ENDBRANCH  20  21
BRANCH  20  27
ATOM     27  C   UNL     1       3.213  -5.073  -3.195  1.00  0.00    -0.035 A 
ATOM     28  C   UNL     1       2.824  -6.406  -3.479  1.00  0.00     0.005 A 
ATOM     29  C   UNL     1       4.037  -4.439  -4.137  1.00  0.00     0.005 A 
ATOM     30  C   UNL     1       3.291  -7.101  -4.595  1.00  0.00     0.000 A 
ATOM     31  C   UNL     1       4.482  -5.128  -5.275  1.00  0.00     0.000 A 
ATOM     32  C   UNL     1       4.130  -6.460  -5.491  1.00  0.00     0.000 A 
ENDBRANCH  20  27
ENDBRANCH  16  20
ENDBRANCH   7   9
ENDBRANCH   5   7
ENDBRANCH   4   5
ENDBRANCH   3   4
ENDBRANCH   2   3
ENDBRANCH   1   2
BRANCH   1  33
ATOM     33  C   UNL     1       0.018  -4.856  -0.398  1.00  0.00     0.202 C 
BRANCH  33  34
ATOM     34  C   UNL     1       0.898  -4.448   1.055  1.00  0.00     0.261 C 
BRANCH  34  35
ATOM     35  O   UNL     1       2.351  -4.050   1.085  1.00  0.00    -0.460 OA
BRANCH  35  36
ATOM     36  C   UNL     1       3.081  -3.624   2.196  1.00  0.00     0.338 C 
ATOM     37  O   UNL     1       2.596  -3.550   3.322  1.00  0.00    -0.246 OA
BRANCH  36  38
ATOM     38  C   UNL     1       4.605  -3.292   1.927  1.00  0.00     0.060 A 
ATOM     39  C   UNL     1       5.084  -3.275   0.634  1.00  0.00     0.016 A 
ATOM     40  C   UNL     1       5.625  -3.058   2.847  1.00  0.00     0.016 A 
ATOM     41  C   UNL     1       6.413  -3.186   0.174  1.00  0.00     0.010 A 
ATOM     42  C   UNL     1       7.015  -2.928   2.422  1.00  0.00     0.010 A 
ATOM     43  C   UNL     1       7.444  -3.057   1.071  1.00  0.00    -0.014 A 
BRANCH  43  44
ATOM     44  C   UNL     1       8.877  -3.295   0.604  1.00  0.00     0.031 A 
ATOM     45  C   UNL     1       9.707  -4.313   1.358  1.00  0.00     0.074 A 
ATOM     46  C   UNL     1       9.456  -2.807  -0.528  1.00  0.00     0.049 A 
ATOM     47  N   UNL     1      11.004  -4.482   1.396  1.00  0.00    -0.248 NA
ATOM     48  C   UNL     1       8.957  -5.278   2.176  1.00  0.00     0.031 C 
ATOM     49  C   UNL     1       8.815  -1.986  -1.557  1.00  0.00     0.029 A 
ATOM     50  N   UNL     1      10.752  -2.950  -1.015  1.00  0.00    -0.354 N 
ATOM     51  C   UNL     1      11.228  -5.460   2.359  1.00  0.00     0.074 A 
ATOM     52  C   UNL     1       9.931  -5.895   2.828  1.00  0.00     0.031 C 
ATOM     53  C   UNL     1       9.694  -1.719  -2.541  1.00  0.00     0.029 A 
ATOM     54  C   UNL     1      11.008  -2.234  -2.171  1.00  0.00     0.049 A 
ATOM     55  H   UNL     1      11.429  -3.512  -0.573  1.00  0.00     0.167 HD
ATOM     56  C   UNL     1      12.403  -5.941   2.827  1.00  0.00     0.034 A 
ATOM     57  C   UNL     1      12.163  -1.950  -2.823  1.00  0.00     0.034 A 
ATOM     58  C   UNL     1      13.692  -5.629   2.274  1.00  0.00     0.049 A 
ATOM     59  C   UNL     1      13.480  -2.437  -2.262  1.00  0.00     0.074 A 
ATOM     60  C   UNL     1      14.940  -6.046   2.705  1.00  0.00     0.029 A 
ATOM     61  N   UNL     1      13.898  -4.859   1.142  1.00  0.00    -0.354 N 
ATOM     62  N   UNL     1      13.700  -3.248  -1.256  1.00  0.00    -0.248 NA
ATOM     63  C   UNL     1      14.711  -1.953  -2.913  1.00  0.00     0.031 C 
ATOM     64  C   UNL     1      15.902  -5.521   1.836  1.00  0.00     0.029 A 
ATOM     65  C   UNL     1      15.250  -4.792   0.856  1.00  0.00     0.049 A 
ATOM     66  H   UNL     1      13.187  -4.425   0.618  1.00  0.00     0.167 HD
ATOM     67  C   UNL     1      15.084  -3.379  -1.164  1.00  0.00     0.074 A 
ATOM     68  C   UNL     1      15.655  -2.593  -2.235  1.00  0.00     0.031 C 
ATOM     69  C   UNL     1      15.814  -4.066  -0.251  1.00  0.00     0.034 A 
BRANCH  56  70
ATOM     70  C   UNL     1      12.350  -6.822   4.045  1.00  0.00     0.023 A 
ATOM     71  C   UNL     1      11.948  -8.167   3.948  1.00  0.00     0.012 A 
ATOM     72  C   UNL     1      12.727  -6.298   5.298  1.00  0.00     0.148 A 
ATOM     73  C   UNL     1      11.887  -8.967   5.089  1.00  0.00     0.002 A 
ATOM     74  C   UNL     1      12.708  -7.113   6.422  1.00  0.00     0.091 A 
ATOM     75  F   UNL     1      13.082  -5.006   5.370  1.00  0.00    -0.205 F 
ATOM     76  C   UNL     1      12.276  -8.445   6.322  1.00  0.00     0.022 A 
BRANCH  74  77
ATOM     77  S   UNL     1      13.263  -6.545   8.032  1.00  0.00     0.127 S 
ATOM     78  O   UNL     1      11.997  -6.406   8.749  1.00  0.00    -0.237 OA
ATOM     79  O   UNL     1      14.099  -7.659   8.481  1.00  0.00    -0.237 OA
ATOM     80  O   UNL     1      13.988  -5.305   7.792  1.00  0.00    -0.744 OA
ENDBRANCH  74  77
ENDBRANCH  56  70
BRANCH  57  81
ATOM     81  C   UNL     1      12.164  -1.089  -4.056  1.00  0.00     0.023 A 
ATOM     82  C   UNL     1      12.621  -1.611  -5.285  1.00  0.00     0.012 A 
ATOM     83  C   UNL     1      11.743   0.256  -4.012  1.00  0.00     0.148 A 
ATOM     84  C   UNL     1      12.668  -0.812  -6.432  1.00  0.00     0.002 A 
ATOM     85  C   UNL     1      11.723   1.024  -5.173  1.00  0.00     0.091 A 
ATOM     86  F   UNL     1      11.373   0.768  -2.830  1.00  0.00    -0.205 F 
ATOM     87  C   UNL     1      12.202   0.499  -6.381  1.00  0.00     0.022 A 
BRANCH  85  88
ATOM     88  S   UNL     1      10.994   2.666  -5.216  1.00  0.00     0.127 S 
ATOM     89  O   UNL     1      12.177   3.520  -5.278  1.00  0.00    -0.237 OA
ATOM     90  O   UNL     1      10.203   2.616  -6.446  1.00  0.00    -0.237 OA
ATOM     91  O   UNL     1      10.197   2.765  -4.000  1.00  0.00    -0.744 OA
ENDBRANCH  85  88
ENDBRANCH  57  81
BRANCH  69  92
ATOM     92  C   UNL     1      17.315  -4.044  -0.377  1.00  0.00     0.023 A 
ATOM     93  C   UNL     1      18.031  -2.894   0.008  1.00  0.00     0.012 A 
ATOM     94  C   UNL     1      18.022  -5.193  -0.786  1.00  0.00     0.148 A 
ATOM     95  C   UNL     1      19.426  -2.879  -0.033  1.00  0.00     0.002 A 
ATOM     96  C   UNL     1      19.412  -5.185  -0.785  1.00  0.00     0.091 A 
ATOM     97  F   UNL     1      17.322  -6.271  -1.168  1.00  0.00    -0.205 F 
ATOM     98  C   UNL     1      20.116  -4.027  -0.417  1.00  0.00     0.022 A 
BRANCH  96  99
ATOM     99  S   UNL     1      20.380  -6.648  -1.178  1.00  0.00     0.127 S 
ATOM    100  O   UNL     1      20.859  -6.337  -2.523  1.00  0.00    -0.237 OA
ATOM    101  O   UNL     1      21.414  -6.628  -0.142  1.00  0.00    -0.237 OA
ATOM    102  O   UNL     1      19.458  -7.772  -1.083  1.00  0.00    -0.744 OA
ENDBRANCH  96  99
ENDBRANCH  69  92
ENDBRANCH  43  44
ENDBRANCH  36  38
ENDBRANCH  35  36
ENDBRANCH  34  35
ENDBRANCH  33  34
ENDBRANCH   1  33
TORSDOF 21
