REMARK SMILES CC1=C[C@@H]([C@@H]2N=N[C@H](S)N2/N=C/c2ccc(C(=O)OCCOCCOC(=O)c3ccc(-c4c5nc(c(-c6cccc(S(=O)(=O)[O-])c6F)c6ccc([nH]6)c(-c6cccc(S(=O)(=O)[O-])c6F)c6nc(c(-c7cccc(S(=O)(=O)[O-])c7F)c7ccc4[nH]7)C=C6)C=C5)cc3)cc2)N=N1
REMARK SMILES IDX 22 1 21 2 20 3 19 4 17 5 18 6 16 7 13 8 14 9 92 10 15 11
REMARK SMILES IDX 91 12 12 13 11 14 10 15 5 16 6 17 7 18 8 19 4 20 1 21 2 22
REMARK SMILES IDX 3 23 94 24 93 25 9 26 23 28 24 29 25 30 26 31 27 32 28 33
REMARK SMILES IDX 29 34 90 35 30 36 89 37 31 38 32 39 33 40 83 41 34 42 88 43
REMARK SMILES IDX 82 44 84 45 35 46 87 47 81 48 80 49 36 51 68 52 48 53 67 54
REMARK SMILES IDX 49 55 52 56 66 57 85 58 50 59 51 60 65 62 86 63 53 64 37 65
REMARK SMILES IDX 38 66 46 67 39 68 41 69 47 70 40 71 42 72 43 73 44 74 45 75
REMARK SMILES IDX 69 76 70 77 78 78 71 79 73 80 79 81 72 82 74 83 75 84 76 85
REMARK SMILES IDX 77 86 54 87 55 88 63 89 56 90 58 91 64 92 57 93 59 94 60 95
REMARK SMILES IDX 61 96 62 97
REMARK H PARENT 9 27 84 50 52 61
REMARK Flexibility Score: inf
ROOT
ATOM      1  O   UNL     1      -1.220  11.802   8.923  1.00  0.00    -0.374 OA
ENDROOT
BRANCH   1   2
ATOM      2  C   UNL     1       0.186  11.628   9.094  1.00  0.00     0.202 C 
BRANCH   2   3
ATOM      3  C   UNL     1       0.792  10.247   8.831  1.00  0.00     0.261 C 
BRANCH   3   4
ATOM      4  O   UNL     1       0.619   9.801   7.478  1.00  0.00    -0.460 OA
BRANCH   4   5
ATOM      5  C   UNL     1      -0.288   8.806   7.336  1.00  0.00     0.338 C 
ATOM      6  O   UNL     1      -0.926   8.261   8.223  1.00  0.00    -0.246 OA
BRANCH   5   7
ATOM      7  C   UNL     1      -0.560   8.542   5.909  1.00  0.00     0.060 A 
ATOM      8  C   UNL     1      -1.179   7.703   3.340  1.00  0.00    -0.005 A 
ATOM      9  C   UNL     1      -2.210   7.889   4.261  1.00  0.00     0.010 A 
ATOM     10  C   UNL     1       0.147   8.012   3.666  1.00  0.00     0.010 A 
ATOM     11  C   UNL     1      -1.895   8.292   5.554  1.00  0.00     0.016 A 
ATOM     12  C   UNL     1       0.458   8.454   4.955  1.00  0.00     0.016 A 
BRANCH   8  13
ATOM     13  C   UNL     1      -1.524   7.089   2.050  1.00  0.00     0.141 C 
ATOM     14  N   UNL     1      -0.695   6.296   1.451  1.00  0.00    -0.180 NA
BRANCH  14  15
ATOM     15  N   UNL     1      -1.079   5.751   0.277  1.00  0.00    -0.233 NA
ATOM     16  C   UNL     1      -0.400   4.580  -0.272  1.00  0.00     0.274 C 
ATOM     17  N   UNL     1      -1.355   3.897  -1.189  1.00  0.00    -0.161 NA
ATOM     18  N   UNL     1      -2.433   4.535  -1.256  1.00  0.00    -0.153 NA
ATOM     19  C   UNL     1      -2.380   5.728  -0.381  1.00  0.00     0.298 C 
BRANCH  16  20
ATOM     20  C   UNL     1       0.908   4.953  -1.014  1.00  0.00     0.201 C 
ATOM     21  C   UNL     1       0.761   6.066  -4.540  1.00  0.00     0.068 C 
ATOM     22  C   UNL     1       0.940   5.438  -3.207  1.00  0.00     0.058 C 
ATOM     23  C   UNL     1       0.755   6.030  -2.030  1.00  0.00     0.031 C 
ATOM     24  N   UNL     1       1.309   4.122  -3.081  1.00  0.00    -0.160 NA
ATOM     25  N   UNL     1       1.359   3.799  -1.857  1.00  0.00    -0.177 NA
ENDBRANCH  16  20
BRANCH  19  26
ATOM     26  S   UNL     1      -2.697   7.305  -1.252  1.00  0.00    -0.128 SA
ATOM     27  H   UNL     1      -1.734   7.506  -2.191  1.00  0.00     0.106 HD
ENDBRANCH  19  26
ENDBRANCH  14  15
ENDBRANCH   8  13
ENDBRANCH   5   7
ENDBRANCH   4   5
ENDBRANCH   3   4
ENDBRANCH   2   3
ENDBRANCH   1   2
BRANCH   1  28
ATOM     28  C   UNL     1      -1.789  11.754   7.619  1.00  0.00     0.202 C 
BRANCH  28  29
ATOM     29  C   UNL     1      -1.456  12.861   6.632  1.00  0.00     0.261 C 
BRANCH  29  30
ATOM     30  O   UNL     1      -0.068  12.928   6.355  1.00  0.00    -0.460 OA
BRANCH  30  31
ATOM     31  C   UNL     1       0.556  13.971   6.953  1.00  0.00     0.338 C 
ATOM     32  O   UNL     1       0.154  14.626   7.896  1.00  0.00    -0.246 OA
BRANCH  31  33
ATOM     33  C   UNL     1       1.738  14.311   6.157  1.00  0.00     0.060 A 
ATOM     34  C   UNL     1       2.384  15.492   6.520  1.00  0.00     0.016 A 
ATOM     35  C   UNL     1       1.952  13.684   4.919  1.00  0.00     0.016 A 
ATOM     36  C   UNL     1       3.038  16.187   5.534  1.00  0.00     0.010 A 
ATOM     37  C   UNL     1       2.602  14.383   3.934  1.00  0.00     0.010 A 
ATOM     38  C   UNL     1       3.044  15.666   4.233  1.00  0.00    -0.014 A 
BRANCH  38  39
ATOM     39  C   UNL     1       3.650  16.471   3.201  1.00  0.00     0.031 A 
ATOM     40  C   UNL     1       5.113  16.549   3.375  1.00  0.00     0.074 A 
ATOM     41  C   UNL     1       2.946  17.032   2.202  1.00  0.00     0.049 A 
ATOM     42  N   UNL     1       5.785  17.556   3.823  1.00  0.00    -0.248 NA
ATOM     43  C   UNL     1       5.881  15.298   3.290  1.00  0.00     0.031 C 
ATOM     44  C   UNL     1       1.554  16.789   1.812  1.00  0.00     0.029 A 
ATOM     45  N   UNL     1       3.389  17.872   1.232  1.00  0.00    -0.354 N 
ATOM     46  C   UNL     1       7.108  17.134   3.820  1.00  0.00     0.074 A 
ATOM     47  C   UNL     1       7.075  15.700   3.727  1.00  0.00     0.031 C 
ATOM     48  C   UNL     1       1.361  17.255   0.554  1.00  0.00     0.029 A 
ATOM     49  C   UNL     1       2.562  17.946   0.117  1.00  0.00     0.049 A 
ATOM     50  H   UNL     1       4.225  18.385   1.311  1.00  0.00     0.167 HD
ATOM     51  C   UNL     1       8.113  18.020   3.591  1.00  0.00     0.034 A 
ATOM     52  C   UNL     1       2.900  18.462  -1.092  1.00  0.00     0.034 A 
ATOM     53  C   UNL     1       7.657  19.377   3.769  1.00  0.00     0.049 A 
ATOM     54  C   UNL     1       4.067  19.352  -0.875  1.00  0.00     0.074 A 
ATOM     55  C   UNL     1       7.129  20.100   4.819  1.00  0.00     0.029 A 
ATOM     56  N   UNL     1       7.334  20.068   2.626  1.00  0.00    -0.354 N 
ATOM     57  N   UNL     1       4.004  20.457  -0.188  1.00  0.00    -0.248 NA
ATOM     58  C   UNL     1       5.396  18.776  -1.019  1.00  0.00     0.031 C 
ATOM     59  C   UNL     1       6.136  20.935   4.229  1.00  0.00     0.029 A 
ATOM     60  C   UNL     1       6.158  20.733   2.847  1.00  0.00     0.049 A 
ATOM     61  H   UNL     1       7.857  20.082   1.792  1.00  0.00     0.167 HD
ATOM     62  C   UNL     1       5.167  20.452   0.573  1.00  0.00     0.074 A 
ATOM     63  C   UNL     1       6.029  19.452  -0.056  1.00  0.00     0.031 C 
ATOM     64  C   UNL     1       5.199  21.035   1.807  1.00  0.00     0.034 A 
BRANCH  51  65
ATOM     65  C   UNL     1       9.361  17.704   2.801  1.00  0.00     0.023 A 
ATOM     66  C   UNL     1      10.341  18.718   2.729  1.00  0.00     0.012 A 
ATOM     67  C   UNL     1       9.499  16.616   1.905  1.00  0.00     0.148 A 
ATOM     68  C   UNL     1      11.359  18.687   1.771  1.00  0.00     0.002 A 
ATOM     69  C   UNL     1      10.554  16.553   1.005  1.00  0.00     0.091 A 
ATOM     70  F   UNL     1       8.545  15.689   1.815  1.00  0.00    -0.205 F 
ATOM     71  C   UNL     1      11.467  17.604   0.909  1.00  0.00     0.022 A 
BRANCH  69  72
ATOM     72  S   UNL     1      10.760  15.157  -0.110  1.00  0.00     0.127 S 
ATOM     73  O   UNL     1      10.425  15.760  -1.397  1.00  0.00    -0.237 OA
ATOM     74  O   UNL     1      12.175  14.837   0.078  1.00  0.00    -0.237 OA
ATOM     75  O   UNL     1       9.847  14.128   0.370  1.00  0.00    -0.744 OA
ENDBRANCH  69  72
ENDBRANCH  51  65
BRANCH  52  76
ATOM     76  C   UNL     1       2.521  18.006  -2.452  1.00  0.00     0.023 A 
ATOM     77  C   UNL     1       2.697  18.867  -3.555  1.00  0.00     0.012 A 
ATOM     78  C   UNL     1       2.280  16.638  -2.710  1.00  0.00     0.148 A 
ATOM     79  C   UNL     1       2.666  18.377  -4.868  1.00  0.00     0.002 A 
ATOM     80  C   UNL     1       2.248  16.156  -4.016  1.00  0.00     0.091 A 
ATOM     81  F   UNL     1       2.179  15.796  -1.674  1.00  0.00    -0.205 F 
ATOM     82  C   UNL     1       2.452  17.021  -5.098  1.00  0.00     0.022 A 
BRANCH  80  83
ATOM     83  S   UNL     1       2.016  14.412  -4.388  1.00  0.00     0.127 S 
ATOM     84  O   UNL     1       0.931  14.454  -5.368  1.00  0.00    -0.237 OA
ATOM     85  O   UNL     1       3.320  14.043  -4.933  1.00  0.00    -0.237 OA
ATOM     86  O   UNL     1       1.660  13.777  -3.125  1.00  0.00    -0.744 OA
ENDBRANCH  80  83
ENDBRANCH  52  76
BRANCH  64  87
ATOM     87  C   UNL     1       4.029  21.896   2.212  1.00  0.00     0.023 A 
ATOM     88  C   UNL     1       2.727  21.384   2.401  1.00  0.00     0.012 A 
ATOM     89  C   UNL     1       4.295  23.225   2.576  1.00  0.00     0.148 A 
ATOM     90  C   UNL     1       1.711  22.189   2.927  1.00  0.00     0.002 A 
ATOM     91  C   UNL     1       3.297  24.007   3.143  1.00  0.00     0.091 A 
ATOM     92  F   UNL     1       5.538  23.693   2.390  1.00  0.00    -0.205 F 
ATOM     93  C   UNL     1       2.001  23.497   3.312  1.00  0.00     0.022 A 
BRANCH  91  94
ATOM     94  S   UNL     1       3.645  25.649   3.772  1.00  0.00     0.127 S 
ATOM     95  O   UNL     1       2.999  26.500   2.775  1.00  0.00    -0.237 OA
ATOM     96  O   UNL     1       2.986  25.629   5.080  1.00  0.00    -0.237 OA
ATOM     97  O   UNL     1       5.097  25.755   3.841  1.00  0.00    -0.744 OA
ENDBRANCH  91  94
ENDBRANCH  64  87
ENDBRANCH  38  39
ENDBRANCH  31  33
ENDBRANCH  30  31
ENDBRANCH  29  30
ENDBRANCH  28  29
ENDBRANCH   1  28
TORSDOF 21
