REMARK SMILES O=C(CNC(=O)OCc1ccccc1)NCC(=O)OCCOCCOC(=O)c1ccc(-c2c3nc(c(-c4cccc(S(=O)(=O)[O-])c4F)c4ccc([nH]4)c(-c4cccc(S(=O)(=O)[O-])c4F)c4nc(c(-c5cccc(S(=O)(=O)[O-])c5F)c5ccc2[nH]5)C=C4)C=C3)cc1
REMARK SMILES IDX 20 1 19 2 17 3 18 4 16 5 15 6 1 7 2 8 3 10 4 11 5 12 6 14
REMARK SMILES IDX 7 15 8 16 9 17 10 18 14 19 11 20 13 21 12 22 21 23 22 24
REMARK SMILES IDX 23 25 24 26 25 27 26 28 27 29 28 30 29 31 90 32 30 33 89 34
REMARK SMILES IDX 31 35 32 36 33 37 83 38 34 39 88 40 82 41 84 42 35 43 87 44
REMARK SMILES IDX 81 45 80 46 36 48 68 49 48 50 67 51 49 52 52 53 66 54 85 55
REMARK SMILES IDX 50 56 51 57 65 59 86 60 53 61 37 62 38 63 46 64 39 65 41 66
REMARK SMILES IDX 47 67 40 68 42 69 43 70 44 71 45 72 69 73 70 74 78 75 71 76
REMARK SMILES IDX 73 77 79 78 72 79 74 80 75 81 76 82 77 83 54 84 55 85 63 86
REMARK SMILES IDX 56 87 58 88 64 89 57 90 59 91 60 92 61 93 62 94
REMARK H PARENT 15 9 4 13 84 47 52 58
REMARK Flexibility Score: inf
ROOT
ATOM      1  C   UNL     1       2.294  -1.970  -4.712  1.00  0.00     0.261 C 
ENDROOT
BRANCH   1   2
ATOM      2  O   UNL     1       2.216  -1.575  -3.334  1.00  0.00    -0.462 OA
BRANCH   2   3
ATOM      3  C   UNL     1       1.542  -2.432  -2.518  1.00  0.00     0.325 C 
ATOM      4  O   UNL     1       0.923  -3.422  -2.893  1.00  0.00    -0.250 OA
BRANCH   3   5
ATOM      5  C   UNL     1       1.739  -2.117  -1.037  1.00  0.00     0.238 C 
BRANCH   5   6
ATOM      6  N   UNL     1       2.553  -0.966  -0.675  1.00  0.00    -0.344 N 
ATOM      7  O   UNL     1       0.804   0.359  -0.020  1.00  0.00    -0.273 OA
ATOM      8  C   UNL     1       2.010   0.176  -0.126  1.00  0.00     0.240 C 
ATOM      9  H   UNL     1       3.525  -1.004  -0.827  1.00  0.00     0.164 HD
BRANCH   8  10
ATOM     10  C   UNL     1       3.053   1.192   0.348  1.00  0.00     0.219 C 
BRANCH  10  11
ATOM     11  N   UNL     1       3.941   0.497   1.271  1.00  0.00    -0.312 N 
ATOM     12  C   UNL     1       5.294   0.552   1.327  1.00  0.00     0.407 C 
ATOM     13  H   UNL     1       3.505  -0.083   1.936  1.00  0.00     0.167 HD
ATOM     14  O   UNL     1       5.919  -0.198   2.070  1.00  0.00    -0.225 OA
BRANCH  12  15
ATOM     15  O   UNL     1       5.834   1.469   0.493  1.00  0.00    -0.445 OA
BRANCH  15  16
ATOM     16  C   UNL     1       7.261   1.610   0.579  1.00  0.00     0.270 C 
BRANCH  16  17
ATOM     17  C   UNL     1       7.647   2.505   1.730  1.00  0.00    -0.011 A 
ATOM     18  C   UNL     1       8.034   1.954   2.961  1.00  0.00     0.007 A 
ATOM     19  C   UNL     1       7.568   3.899   1.609  1.00  0.00     0.007 A 
ATOM     20  C   UNL     1       8.322   2.776   4.051  1.00  0.00     0.000 A 
ATOM     21  C   UNL     1       7.865   4.721   2.699  1.00  0.00     0.000 A 
ATOM     22  C   UNL     1       8.236   4.160   3.920  1.00  0.00     0.000 A 
ENDBRANCH  16  17
ENDBRANCH  15  16
ENDBRANCH  12  15
ENDBRANCH  10  11
ENDBRANCH   8  10
ENDBRANCH   5   6
ENDBRANCH   3   5
ENDBRANCH   2   3
ENDBRANCH   1   2
BRANCH   1  23
ATOM     23  C   UNL     1       3.746  -2.094  -5.185  1.00  0.00     0.202 C 
BRANCH  23  24
ATOM     24  O   UNL     1       4.613  -2.958  -4.453  1.00  0.00    -0.374 OA
BRANCH  24  25
ATOM     25  C   UNL     1       5.007  -2.563  -3.141  1.00  0.00     0.202 C 
BRANCH  25  26
ATOM     26  C   UNL     1       5.928  -1.342  -2.985  1.00  0.00     0.261 C 
BRANCH  26  27
ATOM     27  O   UNL     1       5.377  -0.120  -3.506  1.00  0.00    -0.460 OA
BRANCH  27  28
ATOM     28  C   UNL     1       6.028   0.374  -4.594  1.00  0.00     0.338 C 
ATOM     29  O   UNL     1       7.029  -0.083  -5.120  1.00  0.00    -0.246 OA
BRANCH  28  30
ATOM     30  C   UNL     1       5.251   1.472  -5.200  1.00  0.00     0.060 A 
ATOM     31  C   UNL     1       4.767   1.292  -6.503  1.00  0.00     0.016 A 
ATOM     32  C   UNL     1       5.068   2.685  -4.537  1.00  0.00     0.016 A 
ATOM     33  C   UNL     1       4.098   2.329  -7.150  1.00  0.00     0.010 A 
ATOM     34  C   UNL     1       4.409   3.729  -5.195  1.00  0.00     0.010 A 
ATOM     35  C   UNL     1       3.933   3.563  -6.509  1.00  0.00    -0.014 A 
BRANCH  35  36
ATOM     36  C   UNL     1       3.301   4.698  -7.226  1.00  0.00     0.031 A 
ATOM     37  C   UNL     1       4.152   5.822  -7.748  1.00  0.00     0.074 A 
ATOM     38  C   UNL     1       1.965   4.736  -7.383  1.00  0.00     0.049 A 
ATOM     39  N   UNL     1       3.785   6.938  -8.322  1.00  0.00    -0.248 NA
ATOM     40  C   UNL     1       5.608   5.670  -7.602  1.00  0.00     0.031 C 
ATOM     41  C   UNL     1       1.036   3.701  -6.930  1.00  0.00     0.029 A 
ATOM     42  N   UNL     1       1.157   5.698  -7.934  1.00  0.00    -0.354 N 
ATOM     43  C   UNL     1       4.957   7.639  -8.575  1.00  0.00     0.074 A 
ATOM     44  C   UNL     1       6.049   6.821  -8.091  1.00  0.00     0.031 C 
ATOM     45  C   UNL     1      -0.220   4.101  -7.189  1.00  0.00     0.029 A 
ATOM     46  C   UNL     1      -0.185   5.434  -7.787  1.00  0.00     0.049 A 
ATOM     47  H   UNL     1       1.503   6.499  -8.390  1.00  0.00     0.167 HD
ATOM     48  C   UNL     1       5.109   8.851  -9.163  1.00  0.00     0.034 A 
ATOM     49  C   UNL     1      -1.262   6.196  -8.062  1.00  0.00     0.034 A 
ATOM     50  C   UNL     1       4.021   9.657  -9.650  1.00  0.00     0.049 A 
ATOM     51  C   UNL     1      -1.065   7.561  -8.667  1.00  0.00     0.074 A 
ATOM     52  C   UNL     1       4.080  10.871 -10.312  1.00  0.00     0.029 A 
ATOM     53  N   UNL     1       2.677   9.347  -9.508  1.00  0.00    -0.354 N 
ATOM     54  N   UNL     1       0.050   8.159  -9.011  1.00  0.00    -0.248 NA
ATOM     55  C   UNL     1      -2.277   8.347  -8.942  1.00  0.00     0.031 C 
ATOM     56  C   UNL     1       2.771  11.317 -10.527  1.00  0.00     0.029 A 
ATOM     57  C   UNL     1       1.897  10.360 -10.040  1.00  0.00     0.049 A 
ATOM     58  H   UNL     1       2.328   8.526  -9.090  1.00  0.00     0.167 HD
ATOM     59  C   UNL     1      -0.327   9.377  -9.566  1.00  0.00     0.074 A 
ATOM     60  C   UNL     1      -1.774   9.419  -9.539  1.00  0.00     0.031 C 
ATOM     61  C   UNL     1       0.456  10.379 -10.041  1.00  0.00     0.034 A 
BRANCH  48  62
ATOM     62  C   UNL     1       6.510   9.386  -9.318  1.00  0.00     0.023 A 
ATOM     63  C   UNL     1       7.383   8.810 -10.262  1.00  0.00     0.012 A 
ATOM     64  C   UNL     1       6.936  10.506  -8.576  1.00  0.00     0.148 A 
ATOM     65  C   UNL     1       8.669   9.318 -10.442  1.00  0.00     0.002 A 
ATOM     66  C   UNL     1       8.203  11.035  -8.794  1.00  0.00     0.091 A 
ATOM     67  F   UNL     1       6.098  11.029  -7.670  1.00  0.00    -0.205 F 
ATOM     68  C   UNL     1       9.074  10.436  -9.717  1.00  0.00     0.022 A 
BRANCH  66  69
ATOM     69  S   UNL     1       8.790  12.518  -7.968  1.00  0.00     0.127 S 
ATOM     70  O   UNL     1       9.834  11.977  -7.099  1.00  0.00    -0.237 OA
ATOM     71  O   UNL     1       9.283  13.319  -9.089  1.00  0.00    -0.237 OA
ATOM     72  O   UNL     1       7.637  13.080  -7.279  1.00  0.00    -0.744 OA
ENDBRANCH  66  69
ENDBRANCH  48  62
BRANCH  49  73
ATOM     73  C   UNL     1      -2.630   5.685  -7.765  1.00  0.00     0.023 A 
ATOM     74  C   UNL     1      -3.509   5.388  -8.824  1.00  0.00     0.012 A 
ATOM     75  C   UNL     1      -3.058   5.484  -6.438  1.00  0.00     0.148 A 
ATOM     76  C   UNL     1      -4.801   4.928  -8.566  1.00  0.00     0.002 A 
ATOM     77  C   UNL     1      -4.325   4.970  -6.190  1.00  0.00     0.091 A 
ATOM     78  F   UNL     1      -2.211   5.788  -5.445  1.00  0.00    -0.205 F 
ATOM     79  C   UNL     1      -5.205   4.709  -7.252  1.00  0.00     0.022 A 
BRANCH  77  80
ATOM     80  S   UNL     1      -4.884   4.537  -4.540  1.00  0.00     0.127 S 
ATOM     81  O   UNL     1      -5.945   5.516  -4.318  1.00  0.00    -0.237 OA
ATOM     82  O   UNL     1      -5.344   3.162  -4.733  1.00  0.00    -0.237 OA
ATOM     83  O   UNL     1      -3.715   4.667  -3.681  1.00  0.00    -0.744 OA
ENDBRANCH  77  80
ENDBRANCH  49  73
BRANCH  61  84
ATOM     84  C   UNL     1      -0.232  11.602 -10.594  1.00  0.00     0.023 A 
ATOM     85  C   UNL     1      -0.885  12.495  -9.721  1.00  0.00     0.012 A 
ATOM     86  C   UNL     1      -0.175  11.902 -11.970  1.00  0.00     0.148 A 
ATOM     87  C   UNL     1      -1.500  13.647 -10.211  1.00  0.00     0.002 A 
ATOM     88  C   UNL     1      -0.744  13.077 -12.445  1.00  0.00     0.091 A 
ATOM     89  F   UNL     1       0.439  11.034 -12.788  1.00  0.00    -0.205 F 
ATOM     90  C   UNL     1      -1.420  13.943 -11.570  1.00  0.00     0.022 A 
BRANCH  88  91
ATOM     91  S   UNL     1      -0.614  13.593 -14.161  1.00  0.00     0.127 S 
ATOM     92  O   UNL     1      -2.000  13.482 -14.612  1.00  0.00    -0.237 OA
ATOM     93  O   UNL     1      -0.122  14.965 -14.034  1.00  0.00    -0.237 OA
ATOM     94  O   UNL     1       0.320  12.669 -14.791  1.00  0.00    -0.744 OA
ENDBRANCH  88  91
ENDBRANCH  61  84
ENDBRANCH  35  36
ENDBRANCH  28  30
ENDBRANCH  27  28
ENDBRANCH  26  27
ENDBRANCH  25  26
ENDBRANCH  24  25
ENDBRANCH  23  24
ENDBRANCH   1  23
TORSDOF 23
