REMARK SMILES NC(=O)c1ccc(Nc2ccc(C(=O)OCCOCCOC(=O)c3ccc(-c4c5nc(c(-c6cccc(S(=O)(=O)[O-])c6F)c6ccc([nH]6)c(-c6cccc(S(=O)(=O)[O-])c6F)c6nc(c(-c7cccc(S(=O)(=O)[O-])c7F)c7ccc4[nH]7)C=C6)C=C5)cc3)c(Cl)c2)nn1
REMARK SMILES IDX 18 1 17 2 16 3 15 4 13 5 14 6 12 7 9 8 10 9 89 10 11 11
REMARK SMILES IDX 87 12 88 13 8 14 7 16 4 17 5 18 91 19 6 20 90 21 2 22 1 23
REMARK SMILES IDX 3 26 19 27 20 28 21 29 22 30 23 31 24 32 25 33 86 34 26 35
REMARK SMILES IDX 85 36 27 37 28 38 29 39 79 40 30 41 84 42 78 43 80 44 31 45
REMARK SMILES IDX 83 46 77 47 76 48 32 50 64 51 44 52 63 53 45 54 48 55 62 56
REMARK SMILES IDX 81 57 46 58 47 59 61 61 82 62 49 63 33 64 34 65 42 66 35 67
REMARK SMILES IDX 37 68 43 69 36 70 38 71 39 72 40 73 41 74 65 75 66 76 74 77
REMARK SMILES IDX 67 78 69 79 75 80 68 81 70 82 71 83 72 84 73 85 50 86 51 87
REMARK SMILES IDX 59 88 52 89 54 90 60 91 53 92 55 93 56 94 57 95 58 96
REMARK H PARENT 8 15 1 24 1 25 80 49 48 60
REMARK Flexibility Score: inf
ROOT
ATOM      1  O   UNL     1       0.774 -12.199   1.665  1.00  0.00    -0.374 OA
ENDROOT
BRANCH   1   2
ATOM      2  C   UNL     1       1.214 -12.849   2.861  1.00  0.00     0.202 C 
BRANCH   2   3
ATOM      3  C   UNL     1       2.651 -12.545   3.288  1.00  0.00     0.261 C 
BRANCH   3   4
ATOM      4  O   UNL     1       2.781 -11.163   3.660  1.00  0.00    -0.460 OA
BRANCH   4   5
ATOM      5  C   UNL     1       3.711 -10.451   2.990  1.00  0.00     0.339 C 
ATOM      6  O   UNL     1       4.512 -10.874   2.165  1.00  0.00    -0.246 OA
BRANCH   5   7
ATOM      7  C   UNL     1       3.515  -9.006   3.216  1.00  0.00     0.078 A 
ATOM      8  C   UNL     1       3.286  -6.200   3.435  1.00  0.00     0.041 A 
ATOM      9  C   UNL     1       3.341  -6.810   2.179  1.00  0.00     0.027 A 
ATOM     10  C   UNL     1       3.294  -7.020   4.575  1.00  0.00     0.047 A 
ATOM     11  C   UNL     1       3.474  -8.197   2.069  1.00  0.00     0.019 A 
ATOM     12  C   UNL     1       3.401  -8.415   4.474  1.00  0.00     0.057 A 
ATOM     13  Cl  UNL     1       3.439  -9.311   5.949  1.00  0.00    -0.083 Cl
BRANCH   8  14
ATOM     14  N   UNL     1       3.219  -4.806   3.591  1.00  0.00    -0.339 N 
ATOM     15  H   UNL     1       3.706  -4.444   4.366  1.00  0.00     0.168 HD
BRANCH  14  16
ATOM     16  C   UNL     1       2.556  -3.853   2.798  1.00  0.00     0.153 A 
ATOM     17  C   UNL     1       1.208  -1.935   1.370  1.00  0.00     0.150 A 
ATOM     18  C   UNL     1       2.252  -1.537   2.186  1.00  0.00     0.040 A 
ATOM     19  N   UNL     1       0.869  -3.232   1.240  1.00  0.00    -0.143 NA
ATOM     20  C   UNL     1       2.933  -2.517   2.910  1.00  0.00     0.051 A 
ATOM     21  N   UNL     1       1.568  -4.195   1.945  1.00  0.00    -0.132 NA
BRANCH  17  22
ATOM     22  C   UNL     1       0.390  -0.950   0.610  1.00  0.00     0.269 C 
ATOM     23  N   UNL     1       1.053   0.115   0.051  1.00  0.00    -0.364 N 
ATOM     24  H   UNL     1       0.553   0.792  -0.460  1.00  0.00     0.160 HD
ATOM     25  H   UNL     1       2.027   0.202   0.162  1.00  0.00     0.160 HD
ATOM     26  O   UNL     1      -0.821  -1.061   0.473  1.00  0.00    -0.268 OA
ENDBRANCH  17  22
ENDBRANCH  14  16
ENDBRANCH   8  14
ENDBRANCH   5   7
ENDBRANCH   4   5
ENDBRANCH   3   4
ENDBRANCH   2   3
ENDBRANCH   1   2
BRANCH   1  27
ATOM     27  C   UNL     1       0.396 -10.826   1.776  1.00  0.00     0.202 C 
BRANCH  27  28
ATOM     28  C   UNL     1      -1.005 -10.546   2.332  1.00  0.00     0.261 C 
BRANCH  28  29
ATOM     29  O   UNL     1      -1.148 -10.971   3.698  1.00  0.00    -0.460 OA
BRANCH  29  30
ATOM     30  C   UNL     1      -1.924 -12.067   3.866  1.00  0.00     0.338 C 
ATOM     31  O   UNL     1      -2.556 -12.660   3.001  1.00  0.00    -0.246 OA
BRANCH  30  32
ATOM     32  C   UNL     1      -1.790 -12.594   5.237  1.00  0.00     0.060 A 
ATOM     33  C   UNL     1      -1.540 -13.965   5.371  1.00  0.00     0.016 A 
ATOM     34  C   UNL     1      -1.993 -11.797   6.367  1.00  0.00     0.016 A 
ATOM     35  C   UNL     1      -1.569 -14.560   6.629  1.00  0.00     0.010 A 
ATOM     36  C   UNL     1      -2.023 -12.398   7.632  1.00  0.00     0.010 A 
ATOM     37  C   UNL     1      -1.862 -13.789   7.762  1.00  0.00    -0.014 A 
BRANCH  37  38
ATOM     38  C   UNL     1      -2.154 -14.483   9.041  1.00  0.00     0.031 A 
ATOM     39  C   UNL     1      -3.588 -14.685   9.454  1.00  0.00     0.074 A 
ATOM     40  C   UNL     1      -1.159 -14.977   9.800  1.00  0.00     0.049 A 
ATOM     41  N   UNL     1      -4.070 -15.330  10.485  1.00  0.00    -0.248 NA
ATOM     42  C   UNL     1      -4.616 -14.079   8.592  1.00  0.00     0.031 C 
ATOM     43  C   UNL     1       0.268 -14.840   9.514  1.00  0.00     0.029 A 
ATOM     44  N   UNL     1      -1.202 -15.688  10.972  1.00  0.00    -0.354 N 
ATOM     45  C   UNL     1      -5.451 -15.194  10.407  1.00  0.00     0.074 A 
ATOM     46  C   UNL     1      -5.731 -14.384   9.241  1.00  0.00     0.031 C 
ATOM     47  C   UNL     1       0.968 -15.437  10.495  1.00  0.00     0.029 A 
ATOM     48  C   UNL     1       0.039 -15.990  11.479  1.00  0.00     0.049 A 
ATOM     49  H   UNL     1      -2.042 -15.957  11.409  1.00  0.00     0.167 HD
ATOM     50  C   UNL     1      -6.405 -15.713  11.216  1.00  0.00     0.034 A 
ATOM     51  C   UNL     1       0.386 -16.639  12.609  1.00  0.00     0.034 A 
ATOM     52  C   UNL     1      -6.130 -16.538  12.362  1.00  0.00     0.049 A 
ATOM     53  C   UNL     1      -0.695 -17.215  13.488  1.00  0.00     0.074 A 
ATOM     54  C   UNL     1      -7.028 -17.146  13.221  1.00  0.00     0.029 A 
ATOM     55  N   UNL     1      -4.861 -16.866  12.815  1.00  0.00    -0.354 N 
ATOM     56  N   UNL     1      -1.996 -17.189  13.327  1.00  0.00    -0.248 NA
ATOM     57  C   UNL     1      -0.255 -17.952  14.683  1.00  0.00     0.031 C 
ATOM     58  C   UNL     1      -6.302 -17.827  14.205  1.00  0.00     0.029 A 
ATOM     59  C   UNL     1      -4.951 -17.663  13.943  1.00  0.00     0.049 A 
ATOM     60  H   UNL     1      -4.020 -16.573  12.396  1.00  0.00     0.167 HD
ATOM     61  C   UNL     1      -2.527 -17.936  14.373  1.00  0.00     0.074 A 
ATOM     62  C   UNL     1      -1.404 -18.421  15.149  1.00  0.00     0.031 C 
ATOM     63  C   UNL     1      -3.825 -18.187  14.674  1.00  0.00     0.034 A 
BRANCH  50  64
ATOM     64  C   UNL     1      -7.843 -15.433  10.868  1.00  0.00     0.023 A 
ATOM     65  C   UNL     1      -8.428 -16.079   9.759  1.00  0.00     0.012 A 
ATOM     66  C   UNL     1      -8.628 -14.574  11.660  1.00  0.00     0.148 A 
ATOM     67  C   UNL     1      -9.763 -15.851   9.427  1.00  0.00     0.002 A 
ATOM     68  C   UNL     1      -9.970 -14.384  11.348  1.00  0.00     0.091 A 
ATOM     69  F   UNL     1      -8.048 -13.950  12.695  1.00  0.00    -0.205 F 
ATOM     70  C   UNL     1     -10.535 -15.012  10.226  1.00  0.00     0.022 A 
BRANCH  68  71
ATOM     71  S   UNL     1     -11.066 -13.384  12.360  1.00  0.00     0.127 S 
ATOM     72  O   UNL     1     -11.261 -12.209  11.513  1.00  0.00    -0.237 OA
ATOM     73  O   UNL     1     -12.242 -14.246  12.486  1.00  0.00    -0.237 OA
ATOM     74  O   UNL     1     -10.354 -13.146  13.607  1.00  0.00    -0.744 OA
ENDBRANCH  68  71
ENDBRANCH  50  64
BRANCH  51  75
ATOM     75  C   UNL     1       1.825 -16.834  12.943  1.00  0.00     0.023 A 
ATOM     76  C   UNL     1       2.385 -18.125  12.882  1.00  0.00     0.012 A 
ATOM     77  C   UNL     1       2.642 -15.747  13.310  1.00  0.00     0.148 A 
ATOM     78  C   UNL     1       3.724 -18.335  13.212  1.00  0.00     0.002 A 
ATOM     79  C   UNL     1       3.988 -15.955  13.584  1.00  0.00     0.091 A 
ATOM     80  F   UNL     1       2.085 -14.530  13.380  1.00  0.00    -0.205 F 
ATOM     81  C   UNL     1       4.528 -17.250  13.552  1.00  0.00     0.022 A 
BRANCH  79  82
ATOM     82  S   UNL     1       5.123 -14.601  13.909  1.00  0.00     0.127 S 
ATOM     83  O   UNL     1       5.379 -14.761  15.338  1.00  0.00    -0.237 OA
ATOM     84  O   UNL     1       6.252 -14.937  13.039  1.00  0.00    -0.237 OA
ATOM     85  O   UNL     1       4.410 -13.391  13.523  1.00  0.00    -0.744 OA
ENDBRANCH  79  82
ENDBRANCH  51  75
BRANCH  63  86
ATOM     86  C   UNL     1      -4.109 -19.058  15.871  1.00  0.00     0.023 A 
ATOM     87  C   UNL     1      -3.889 -18.559  17.171  1.00  0.00     0.012 A 
ATOM     88  C   UNL     1      -4.645 -20.352  15.711  1.00  0.00     0.148 A 
ATOM     89  C   UNL     1      -4.155 -19.349  18.289  1.00  0.00     0.002 A 
ATOM     90  C   UNL     1      -4.954 -21.115  16.832  1.00  0.00     0.091 A 
ATOM     91  F   UNL     1      -4.831 -20.821  14.469  1.00  0.00    -0.205 F 
ATOM     92  C   UNL     1      -4.697 -20.621  18.121  1.00  0.00     0.022 A 
BRANCH  90  93
ATOM     93  S   UNL     1      -5.744 -22.723  16.701  1.00  0.00     0.127 S 
ATOM     94  O   UNL     1      -4.611 -23.629  16.881  1.00  0.00    -0.237 OA
ATOM     95  O   UNL     1      -6.691 -22.703  17.817  1.00  0.00    -0.237 OA
ATOM     96  O   UNL     1      -6.371 -22.748  15.386  1.00  0.00    -0.744 OA
ENDBRANCH  90  93
ENDBRANCH  63  86
ENDBRANCH  37  38
ENDBRANCH  30  32
ENDBRANCH  29  30
ENDBRANCH  28  29
ENDBRANCH  27  28
ENDBRANCH   1  27
TORSDOF 20
