REMARK SMILES O=C(OCCOCCOC(=O)c1ccc(-c2c3nc(c(-c4cccc(S(=O)(=O)[O-])c4F)c4ccc([nH]4)c(-c4cccc(S(=O)(=O)[O-])c4F)c4nc(c(-c5cccc(S(=O)(=O)[O-])c5F)c5ccc2[nH]5)C=C4)C=C3)cc1)C1=Cc2cc(C(F)(F)F)ccc2O[C@@H]1C(F)(F)F
REMARK SMILES IDX 7 1 6 2 5 3 4 4 3 5 2 6 1 7 75 8 76 9 88 10 77 11 87 12
REMARK SMILES IDX 78 13 86 14 79 15 85 16 84 17 89 18 90 19 91 20 92 21 80 22
REMARK SMILES IDX 81 23 82 24 83 25 8 26 9 27 10 28 11 29 12 30 13 31 74 32
REMARK SMILES IDX 14 33 73 34 15 35 16 36 17 37 67 38 18 39 72 40 66 41 68 42
REMARK SMILES IDX 19 43 71 44 65 45 64 46 20 48 52 49 32 50 51 51 33 52 36 53
REMARK SMILES IDX 50 54 69 55 34 56 35 57 49 59 70 60 37 61 21 62 22 63 30 64
REMARK SMILES IDX 23 65 25 66 31 67 24 68 26 69 27 70 28 71 29 72 53 73 54 74
REMARK SMILES IDX 62 75 55 76 57 77 63 78 56 79 58 80 59 81 60 82 61 83 38 84
REMARK SMILES IDX 39 85 47 86 40 87 42 88 48 89 41 90 43 91 44 92 45 93 46 94
REMARK H PARENT 68 47 36 58
REMARK Flexibility Score: inf
ROOT
ATOM      1  C   UNL     1       2.802  -3.123   0.205  1.00  0.00     0.202 C 
ENDROOT
BRANCH   1   2
ATOM      2  O   UNL     1       4.001  -2.526  -0.326  1.00  0.00    -0.374 OA
BRANCH   2   3
ATOM      3  C   UNL     1       4.352  -1.033  -0.859  1.00  0.00     0.202 C 
BRANCH   3   4
ATOM      4  C   UNL     1       3.472   0.907  -0.367  1.00  0.00     0.261 C 
BRANCH   4   5
ATOM      5  O   UNL     1       2.455   1.687  -1.221  1.00  0.00    -0.460 OA
BRANCH   5   6
ATOM      6  C   UNL     1       2.583   1.443  -2.528  1.00  0.00     0.338 C 
ATOM      7  O   UNL     1       1.912   1.821  -3.454  1.00  0.00    -0.246 OA
BRANCH   6   8
ATOM      8  C   UNL     1       3.494   0.331  -2.382  1.00  0.00     0.087 C 
ATOM      9  C   UNL     1       4.877   0.790  -2.133  1.00  0.00     0.027 C 
ATOM     10  C   UNL     1       2.413  -0.659  -1.117  1.00  0.00     0.316 C 
ATOM     11  C   UNL     1       5.688   0.688  -0.523  1.00  0.00     0.018 A 
ATOM     12  O   UNL     1       3.232  -0.713   0.635  1.00  0.00    -0.475 OA
ATOM     13  C   UNL     1       6.943   1.205  -0.368  1.00  0.00     0.025 A 
ATOM     14  C   UNL     1       4.878   0.048   0.870  1.00  0.00     0.128 A 
ATOM     15  C   UNL     1       7.460   1.185   0.950  1.00  0.00     0.056 A 
ATOM     16  C   UNL     1       5.373   0.202   2.127  1.00  0.00     0.048 A 
ATOM     17  C   UNL     1       6.684   0.760   2.126  1.00  0.00     0.017 A 
BRANCH  10  18
ATOM     18  C   UNL     1       1.968  -1.824  -2.114  1.00  0.00     0.430 C 
ATOM     19  F   UNL     1       1.089  -2.717  -1.623  1.00  0.00    -0.167 F 
ATOM     20  F   UNL     1       1.304  -1.230  -3.153  1.00  0.00    -0.167 F 
ATOM     21  F   UNL     1       2.982  -2.496  -2.705  1.00  0.00    -0.167 F 
ENDBRANCH  10  18
BRANCH  15  22
ATOM     22  C   UNL     1       8.916   1.615   1.096  1.00  0.00     0.416 C 
ATOM     23  F   UNL     1       9.737   0.879   0.289  1.00  0.00    -0.166 F 
ATOM     24  F   UNL     1       9.115   2.910   0.725  1.00  0.00    -0.166 F 
ATOM     25  F   UNL     1       9.418   1.488   2.350  1.00  0.00    -0.166 F 
ENDBRANCH  15  22
ENDBRANCH   6   8
ENDBRANCH   5   6
ENDBRANCH   4   5
ENDBRANCH   3   4
ENDBRANCH   2   3
ENDBRANCH   1   2
BRANCH   1  26
ATOM     26  C   UNL     1       2.917  -3.881   1.522  1.00  0.00     0.261 C 
BRANCH  26  27
ATOM     27  O   UNL     1       3.444  -3.083   2.567  1.00  0.00    -0.460 OA
BRANCH  27  28
ATOM     28  C   UNL     1       4.775  -3.240   2.732  1.00  0.00     0.338 C 
ATOM     29  O   UNL     1       5.548  -3.855   2.018  1.00  0.00    -0.246 OA
BRANCH  28  30
ATOM     30  C   UNL     1       5.175  -2.536   3.958  1.00  0.00     0.060 A 
ATOM     31  C   UNL     1       6.497  -2.088   4.031  1.00  0.00     0.016 A 
ATOM     32  C   UNL     1       4.270  -2.301   5.004  1.00  0.00     0.016 A 
ATOM     33  C   UNL     1       6.917  -1.385   5.148  1.00  0.00     0.010 A 
ATOM     34  C   UNL     1       4.697  -1.618   6.135  1.00  0.00     0.010 A 
ATOM     35  C   UNL     1       6.027  -1.183   6.210  1.00  0.00    -0.014 A 
BRANCH  35  36
ATOM     36  C   UNL     1       6.582  -0.732   7.492  1.00  0.00     0.031 A 
ATOM     37  C   UNL     1       7.044  -1.788   8.446  1.00  0.00     0.074 A 
ATOM     38  C   UNL     1       6.722   0.576   7.753  1.00  0.00     0.049 A 
ATOM     39  N   UNL     1       7.653  -1.656   9.589  1.00  0.00    -0.248 NA
ATOM     40  C   UNL     1       6.796  -3.187   8.047  1.00  0.00     0.031 C 
ATOM     41  C   UNL     1       6.320   1.666   6.865  1.00  0.00     0.029 A 
ATOM     42  N   UNL     1       7.245   1.203   8.850  1.00  0.00    -0.354 N 
ATOM     43  C   UNL     1       7.852  -2.948  10.054  1.00  0.00     0.074 A 
ATOM     44  C   UNL     1       7.286  -3.852   9.080  1.00  0.00     0.031 C 
ATOM     45  C   UNL     1       6.606   2.837   7.461  1.00  0.00     0.029 A 
ATOM     46  C   UNL     1       7.185   2.573   8.777  1.00  0.00     0.049 A 
ATOM     47  H   UNL     1       7.626   0.720   9.618  1.00  0.00     0.167 HD
ATOM     48  C   UNL     1       8.460  -3.342  11.194  1.00  0.00     0.034 A 
ATOM     49  C   UNL     1       7.547   3.496   9.687  1.00  0.00     0.034 A 
ATOM     50  C   UNL     1       8.983  -2.425  12.166  1.00  0.00     0.049 A 
ATOM     51  C   UNL     1       8.156   3.025  10.983  1.00  0.00     0.074 A 
ATOM     52  C   UNL     1       9.627  -2.707  13.355  1.00  0.00     0.029 A 
ATOM     53  N   UNL     1       8.886  -1.044  12.076  1.00  0.00    -0.354 N 
ATOM     54  N   UNL     1       8.430   1.803  11.374  1.00  0.00    -0.248 NA
ATOM     55  C   UNL     1       8.535   4.063  11.950  1.00  0.00     0.031 C 
ATOM     56  C   UNL     1       9.862  -1.497  14.014  1.00  0.00     0.029 A 
ATOM     57  C   UNL     1       9.434  -0.458  13.201  1.00  0.00     0.049 A 
ATOM     58  H   UNL     1       8.486  -0.554  11.321  1.00  0.00     0.167 HD
ATOM     59  C   UNL     1       9.056   1.927  12.609  1.00  0.00     0.074 A 
ATOM     60  C   UNL     1       9.132   3.346  12.892  1.00  0.00     0.031 C 
ATOM     61  C   UNL     1       9.526   0.961  13.438  1.00  0.00     0.034 A 
BRANCH  48  62
ATOM     62  C   UNL     1       8.541  -4.821  11.455  1.00  0.00     0.023 A 
ATOM     63  C   UNL     1       9.364  -5.643  10.657  1.00  0.00     0.012 A 
ATOM     64  C   UNL     1       7.792  -5.396  12.497  1.00  0.00     0.148 A 
ATOM     65  C   UNL     1       9.404  -7.021  10.865  1.00  0.00     0.002 A 
ATOM     66  C   UNL     1       7.878  -6.761  12.734  1.00  0.00     0.091 A 
ATOM     67  F   UNL     1       6.992  -4.601  13.222  1.00  0.00    -0.205 F 
ATOM     68  C   UNL     1       8.670  -7.577  11.909  1.00  0.00     0.022 A 
BRANCH  66  69
ATOM     69  S   UNL     1       7.031  -7.557  14.100  1.00  0.00     0.127 S 
ATOM     70  O   UNL     1       6.062  -8.397  13.396  1.00  0.00    -0.237 OA
ATOM     71  O   UNL     1       8.120  -8.290  14.746  1.00  0.00    -0.237 OA
ATOM     72  O   UNL     1       6.457  -6.486  14.901  1.00  0.00    -0.744 OA
ENDBRANCH  66  69
ENDBRANCH  48  62
BRANCH  49  73
ATOM     73  C   UNL     1       7.365   4.947   9.405  1.00  0.00     0.023 A 
ATOM     74  C   UNL     1       8.491   5.783   9.274  1.00  0.00     0.012 A 
ATOM     75  C   UNL     1       6.078   5.503   9.281  1.00  0.00     0.148 A 
ATOM     76  C   UNL     1       8.337   7.154   9.067  1.00  0.00     0.002 A 
ATOM     77  C   UNL     1       5.932   6.859   9.019  1.00  0.00     0.091 A 
ATOM     78  F   UNL     1       5.021   4.691   9.415  1.00  0.00    -0.205 F 
ATOM     79  C   UNL     1       7.059   7.691   8.933  1.00  0.00     0.022 A 
BRANCH  77  80
ATOM     80  S   UNL     1       4.332   7.618   8.722  1.00  0.00     0.127 S 
ATOM     81  O   UNL     1       4.214   8.524   9.861  1.00  0.00    -0.237 OA
ATOM     82  O   UNL     1       4.549   8.272   7.431  1.00  0.00    -0.237 OA
ATOM     83  O   UNL     1       3.373   6.522   8.689  1.00  0.00    -0.744 OA
ENDBRANCH  77  80
ENDBRANCH  49  73
BRANCH  61  84
ATOM     84  C   UNL     1      10.223   1.404  14.698  1.00  0.00     0.023 A 
ATOM     85  C   UNL     1       9.498   2.006  15.745  1.00  0.00     0.012 A 
ATOM     86  C   UNL     1      11.602   1.158  14.863  1.00  0.00     0.148 A 
ATOM     87  C   UNL     1      10.145   2.401  16.916  1.00  0.00     0.002 A 
ATOM     88  C   UNL     1      12.225   1.496  16.056  1.00  0.00     0.091 A 
ATOM     89  F   UNL     1      12.276   0.595  13.850  1.00  0.00    -0.205 F 
ATOM     90  C   UNL     1      11.503   2.135  17.076  1.00  0.00     0.022 A 
BRANCH  88  91
ATOM     91  S   UNL     1      13.942   1.094  16.391  1.00  0.00     0.127 S 
ATOM     92  O   UNL     1      14.562   2.418  16.392  1.00  0.00    -0.237 OA
ATOM     93  O   UNL     1      13.858   0.458  17.706  1.00  0.00    -0.237 OA
ATOM     94  O   UNL     1      14.368   0.209  15.315  1.00  0.00    -0.744 OA
ENDBRANCH  88  91
ENDBRANCH  61  84
ENDBRANCH  35  36
ENDBRANCH  28  30
ENDBRANCH  27  28
ENDBRANCH  26  27
ENDBRANCH   1  26
TORSDOF 19
