REMARK SMILES COc1c(N)cc(-c2ccccc2)cc1C(=O)OCCOCCOC(=O)c1ccc(-c2c3nc(c(-c4cccc(S(=O)(=O)[O-])c4F)c4ccc([nH]4)c(-c4cccc(S(=O)(=O)[O-])c4F)c4nc(c(-c5cccc(S(=O)(=O)[O-])c5F)c5ccc2[nH]5)C=C4)C=C3)cc1
REMARK SMILES IDX 22 1 21 2 20 3 19 4 18 5 16 6 17 7 15 8 3 9 4 10 6 11 14 12
REMARK SMILES IDX 7 13 2 14 1 15 5 16 8 19 9 20 13 21 10 22 12 23 11 24 23 25
REMARK SMILES IDX 24 26 25 27 26 28 27 29 28 30 89 31 29 32 88 33 30 34 31 35
REMARK SMILES IDX 32 36 82 37 33 38 87 39 81 40 83 41 34 42 86 43 80 44 79 45
REMARK SMILES IDX 35 47 67 48 47 49 66 50 48 51 51 52 65 53 84 54 49 55 50 56
REMARK SMILES IDX 64 58 85 59 52 60 36 61 37 62 45 63 38 64 40 65 46 66 39 67
REMARK SMILES IDX 41 68 42 69 43 70 44 71 68 72 69 73 77 74 70 75 72 76 78 77
REMARK SMILES IDX 71 78 73 79 74 80 75 81 76 82 53 83 54 84 62 85 55 86 57 87
REMARK SMILES IDX 63 88 56 89 58 90 59 91 60 92 61 93
REMARK H PARENT 5 17 5 18 83 46 51 57
REMARK Flexibility Score: inf
ROOT
ATOM      1  C   UNL     1      -2.985  -1.907  -2.235  1.00  0.00     0.202 C 
ENDROOT
BRANCH   1   2
ATOM      2  O   UNL     1      -4.037  -2.371  -1.388  1.00  0.00    -0.374 OA
BRANCH   2   3
ATOM      3  C   UNL     1      -3.934  -2.078   0.007  1.00  0.00     0.202 C 
BRANCH   3   4
ATOM      4  C   UNL     1      -2.935  -2.918   0.806  1.00  0.00     0.261 C 
BRANCH   4   5
ATOM      5  O   UNL     1      -1.593  -2.693   0.345  1.00  0.00    -0.460 OA
BRANCH   5   6
ATOM      6  C   UNL     1      -0.930  -3.801  -0.059  1.00  0.00     0.342 C 
ATOM      7  O   UNL     1      -1.329  -4.954   0.021  1.00  0.00    -0.246 OA
BRANCH   6   8
ATOM      8  C   UNL     1       0.281  -3.458  -0.836  1.00  0.00     0.104 A 
ATOM      9  C   UNL     1       1.217  -2.486  -0.466  1.00  0.00     0.156 A 
ATOM     10  C   UNL     1       2.433  -2.386  -1.170  1.00  0.00     0.076 A 
ATOM     11  C   UNL     1       2.599  -3.121  -2.352  1.00  0.00     0.038 A 
ATOM     12  C   UNL     1       0.488  -4.216  -2.000  1.00  0.00     0.028 A 
ATOM     13  C   UNL     1       1.633  -4.042  -2.782  1.00  0.00    -0.015 A 
BRANCH   9  14
ATOM     14  O   UNL     1       1.000  -1.704   0.643  1.00  0.00    -0.494 OA
ATOM     15  C   UNL     1       0.743  -0.344   0.270  1.00  0.00     0.278 C 
ENDBRANCH   9  14
BRANCH  10  16
ATOM     16  N   UNL     1       3.432  -1.492  -0.780  1.00  0.00    -0.396 N 
ATOM     17  H   UNL     1       3.329  -0.969   0.047  1.00  0.00     0.156 HD
ATOM     18  H   UNL     1       4.240  -1.385  -1.333  1.00  0.00     0.156 HD
ENDBRANCH  10  16
BRANCH  13  19
ATOM     19  C   UNL     1       1.841  -4.852  -3.983  1.00  0.00    -0.018 A 
ATOM     20  C   UNL     1       2.701  -5.961  -3.945  1.00  0.00     0.009 A 
ATOM     21  C   UNL     1       1.177  -4.559  -5.183  1.00  0.00     0.009 A 
ATOM     22  C   UNL     1       2.893  -6.755  -5.077  1.00  0.00     0.001 A 
ATOM     23  C   UNL     1       1.372  -5.352  -6.317  1.00  0.00     0.001 A 
ATOM     24  C   UNL     1       2.229  -6.449  -6.263  1.00  0.00     0.000 A 
ENDBRANCH  13  19
ENDBRANCH   6   8
ENDBRANCH   5   6
ENDBRANCH   4   5
ENDBRANCH   3   4
ENDBRANCH   2   3
ENDBRANCH   1   2
BRANCH   1  25
ATOM     25  C   UNL     1      -2.990  -0.415  -2.592  1.00  0.00     0.261 C 
BRANCH  25  26
ATOM     26  O   UNL     1      -2.789   0.433  -1.448  1.00  0.00    -0.460 OA
BRANCH  26  27
ATOM     27  C   UNL     1      -3.882   1.137  -1.065  1.00  0.00     0.338 C 
ATOM     28  O   UNL     1      -4.972   1.168  -1.624  1.00  0.00    -0.246 OA
BRANCH  27  29
ATOM     29  C   UNL     1      -3.654   1.756   0.253  1.00  0.00     0.060 A 
ATOM     30  C   UNL     1      -4.601   1.513   1.257  1.00  0.00     0.016 A 
ATOM     31  C   UNL     1      -2.578   2.615   0.486  1.00  0.00     0.016 A 
ATOM     32  C   UNL     1      -4.501   2.165   2.485  1.00  0.00     0.010 A 
ATOM     33  C   UNL     1      -2.485   3.275   1.717  1.00  0.00     0.010 A 
ATOM     34  C   UNL     1      -3.464   3.080   2.708  1.00  0.00    -0.014 A 
BRANCH  34  35
ATOM     35  C   UNL     1      -3.482   3.928   3.925  1.00  0.00     0.031 A 
ATOM     36  C   UNL     1      -3.979   5.346   3.820  1.00  0.00     0.074 A 
ATOM     37  C   UNL     1      -3.076   3.439   5.111  1.00  0.00     0.049 A 
ATOM     38  N   UNL     1      -4.055   6.267   4.745  1.00  0.00    -0.248 NA
ATOM     39  C   UNL     1      -4.457   5.783   2.497  1.00  0.00     0.031 C 
ATOM     40  C   UNL     1      -2.586   2.081   5.342  1.00  0.00     0.029 A 
ATOM     41  N   UNL     1      -2.993   4.041   6.342  1.00  0.00    -0.354 N 
ATOM     42  C   UNL     1      -4.574   7.394   4.117  1.00  0.00     0.074 A 
ATOM     43  C   UNL     1      -4.775   7.049   2.726  1.00  0.00     0.031 C 
ATOM     44  C   UNL     1      -2.228   1.960   6.632  1.00  0.00     0.029 A 
ATOM     45  C   UNL     1      -2.442   3.236   7.312  1.00  0.00     0.049 A 
ATOM     46  H   UNL     1      -3.298   4.961   6.514  1.00  0.00     0.167 HD
ATOM     47  C   UNL     1      -4.880   8.599   4.654  1.00  0.00     0.034 A 
ATOM     48  C   UNL     1      -2.132   3.507   8.595  1.00  0.00     0.034 A 
ATOM     49  C   UNL     1      -4.694   8.937   6.039  1.00  0.00     0.049 A 
ATOM     50  C   UNL     1      -2.445   4.872   9.155  1.00  0.00     0.074 A 
ATOM     51  C   UNL     1      -4.980  10.130   6.679  1.00  0.00     0.029 A 
ATOM     52  N   UNL     1      -4.176   8.082   6.998  1.00  0.00    -0.354 N 
ATOM     53  N   UNL     1      -3.027   5.892   8.571  1.00  0.00    -0.248 NA
ATOM     54  C   UNL     1      -2.089   5.112  10.562  1.00  0.00     0.031 C 
ATOM     55  C   UNL     1      -4.624  10.000   8.025  1.00  0.00     0.029 A 
ATOM     56  C   UNL     1      -4.136   8.720   8.226  1.00  0.00     0.049 A 
ATOM     57  H   UNL     1      -3.881   7.158   6.832  1.00  0.00     0.167 HD
ATOM     58  C   UNL     1      -3.147   6.874   9.550  1.00  0.00     0.074 A 
ATOM     59  C   UNL     1      -2.595   6.320  10.768  1.00  0.00     0.031 C 
ATOM     60  C   UNL     1      -3.652   8.128   9.447  1.00  0.00     0.034 A 
BRANCH  47  61
ATOM     61  C   UNL     1      -5.499   9.632   3.749  1.00  0.00     0.023 A 
ATOM     62  C   UNL     1      -6.846   9.486   3.360  1.00  0.00     0.012 A 
ATOM     63  C   UNL     1      -4.782  10.775   3.348  1.00  0.00     0.148 A 
ATOM     64  C   UNL     1      -7.464  10.451   2.567  1.00  0.00     0.002 A 
ATOM     65  C   UNL     1      -5.416  11.752   2.590  1.00  0.00     0.091 A 
ATOM     66  F   UNL     1      -3.496  10.884   3.713  1.00  0.00    -0.205 F 
ATOM     67  C   UNL     1      -6.754  11.588   2.192  1.00  0.00     0.022 A 
BRANCH  65  68
ATOM     68  S   UNL     1      -4.614  13.287   2.112  1.00  0.00     0.127 S 
ATOM     69  O   UNL     1      -4.492  13.118   0.664  1.00  0.00    -0.237 OA
ATOM     70  O   UNL     1      -5.594  14.289   2.529  1.00  0.00    -0.237 OA
ATOM     71  O   UNL     1      -3.353  13.326   2.841  1.00  0.00    -0.744 OA
ENDBRANCH  65  68
ENDBRANCH  47  61
BRANCH  48  72
ATOM     72  C   UNL     1      -1.520   2.460   9.462  1.00  0.00     0.023 A 
ATOM     73  C   UNL     1      -2.254   1.939  10.546  1.00  0.00     0.012 A 
ATOM     74  C   UNL     1      -0.211   1.994   9.235  1.00  0.00     0.148 A 
ATOM     75  C   UNL     1      -1.681   1.006  11.411  1.00  0.00     0.002 A 
ATOM     76  C   UNL     1       0.334   1.023  10.068  1.00  0.00     0.091 A 
ATOM     77  F   UNL     1       0.484   2.517   8.214  1.00  0.00    -0.205 F 
ATOM     78  C   UNL     1      -0.391   0.541  11.168  1.00  0.00     0.022 A 
BRANCH  76  79
ATOM     79  S   UNL     1       1.941   0.288   9.746  1.00  0.00     0.127 S 
ATOM     80  O   UNL     1       2.789   0.986  10.709  1.00  0.00    -0.237 OA
ATOM     81  O   UNL     1       1.700  -1.124  10.046  1.00  0.00    -0.237 OA
ATOM     82  O   UNL     1       2.213   0.560   8.341  1.00  0.00    -0.744 OA
ENDBRANCH  76  79
ENDBRANCH  48  72
BRANCH  60  83
ATOM     83  C   UNL     1      -3.685   8.976  10.691  1.00  0.00     0.023 A 
ATOM     84  C   UNL     1      -2.489   9.519  11.201  1.00  0.00     0.012 A 
ATOM     85  C   UNL     1      -4.910   9.297  11.310  1.00  0.00     0.148 A 
ATOM     86  C   UNL     1      -2.508  10.341  12.328  1.00  0.00     0.002 A 
ATOM     87  C   UNL     1      -4.925  10.155  12.403  1.00  0.00     0.091 A 
ATOM     88  F   UNL     1      -6.035   8.757  10.820  1.00  0.00    -0.205 F 
ATOM     89  C   UNL     1      -3.725  10.668  12.920  1.00  0.00     0.022 A 
BRANCH  87  90
ATOM     90  S   UNL     1      -6.453  10.707  13.172  1.00  0.00     0.127 S 
ATOM     91  O   UNL     1      -6.446   9.950  14.423  1.00  0.00    -0.237 OA
ATOM     92  O   UNL     1      -6.222  12.143  13.327  1.00  0.00    -0.237 OA
ATOM     93  O   UNL     1      -7.517  10.364  12.239  1.00  0.00    -0.744 OA
ENDBRANCH  87  90
ENDBRANCH  60  83
ENDBRANCH  34  35
ENDBRANCH  27  29
ENDBRANCH  26  27
ENDBRANCH  25  26
ENDBRANCH   1  25
TORSDOF 20
