REMARK SMILES CC(C)[C@H](NC(=O)Cn1ccc2c(Br)cccc21)C(=O)OCCOCCOC(=O)c1ccc(-c2c3nc(c(-c4cccc(S(=O)(=O)[O-])c4F)c4ccc([nH]4)c(-c4cccc(S(=O)(=O)[O-])c4F)c4nc(c(-c5cccc(S(=O)(=O)[O-])c5F)c5ccc2[nH]5)C=C4)C=C3)cc1
REMARK SMILES IDX 24 1 23 2 22 3 21 4 19 5 20 6 4 7 2 8 1 9 3 10 5 11 6 12
REMARK SMILES IDX 7 14 8 15 9 16 10 17 18 18 11 19 12 20 17 21 13 22 16 23
REMARK SMILES IDX 14 24 15 25 25 26 26 27 27 28 28 29 29 30 30 31 31 32 92 33
REMARK SMILES IDX 32 34 91 35 33 36 34 37 35 38 85 39 36 40 90 41 84 42 86 43
REMARK SMILES IDX 37 44 89 45 83 46 82 47 38 49 70 50 50 51 69 52 51 53 54 54
REMARK SMILES IDX 68 55 87 56 52 57 53 58 67 60 88 61 55 62 39 63 40 64 48 65
REMARK SMILES IDX 41 66 43 67 49 68 42 69 44 70 45 71 46 72 47 73 71 74 72 75
REMARK SMILES IDX 80 76 73 77 75 78 81 79 74 80 76 81 77 82 78 83 79 84 56 85
REMARK SMILES IDX 57 86 65 87 58 88 60 89 66 90 59 91 61 92 62 93 63 94 64 95
REMARK H PARENT 5 13 86 48 54 59
REMARK Flexibility Score: inf
ROOT
ATOM      1  O   UNL     1      -1.966   5.488  -0.381  1.00  0.00    -0.374 OA
ENDROOT
BRANCH   1   2
ATOM      2  C   UNL     1      -1.940   5.514   1.047  1.00  0.00     0.202 C 
BRANCH   2   3
ATOM      3  C   UNL     1      -2.521   4.316   1.786  1.00  0.00     0.261 C 
BRANCH   3   4
ATOM      4  O   UNL     1      -1.780   3.115   1.525  1.00  0.00    -0.462 OA
BRANCH   4   5
ATOM      5  C   UNL     1      -2.394   2.243   0.685  1.00  0.00     0.328 C 
ATOM      6  O   UNL     1      -3.483   2.433   0.152  1.00  0.00    -0.250 OA
BRANCH   5   7
ATOM      7  C   UNL     1      -1.627   0.919   0.531  1.00  0.00     0.194 C 
BRANCH   7   8
ATOM      8  C   UNL     1      -2.357  -0.213   1.282  1.00  0.00     0.017 C 
ATOM      9  C   UNL     1      -3.544   0.224   2.154  1.00  0.00     0.010 C 
ATOM     10  C   UNL     1      -2.788  -1.307   0.308  1.00  0.00     0.010 C 
ENDBRANCH   7   8
BRANCH   7  11
ATOM     11  N   UNL     1      -0.156   1.046   0.686  1.00  0.00    -0.341 N 
ATOM     12  C   UNL     1       0.879   0.347   1.217  1.00  0.00     0.240 C 
ATOM     13  H   UNL     1       0.163   1.886   0.285  1.00  0.00     0.164 HD
ATOM     14  O   UNL     1       2.000   0.654   0.791  1.00  0.00    -0.273 OA
BRANCH  12  15
ATOM     15  C   UNL     1       0.761  -0.738   2.265  1.00  0.00     0.222 C 
BRANCH  15  16
ATOM     16  N   UNL     1       0.116  -0.319   3.509  1.00  0.00    -0.338 N 
ATOM     17  C   UNL     1      -0.702  -1.147   4.245  1.00  0.00     0.087 A 
ATOM     18  C   UNL     1       0.070   0.961   4.026  1.00  0.00     0.050 A 
ATOM     19  C   UNL     1      -1.444  -0.354   5.089  1.00  0.00     0.029 A 
ATOM     20  C   UNL     1      -0.991   0.989   4.939  1.00  0.00     0.014 A 
ATOM     21  C   UNL     1       0.819   2.112   3.727  1.00  0.00     0.027 A 
ATOM     22  C   UNL     1      -1.372   2.234   5.484  1.00  0.00     0.027 A 
ATOM     23  C   UNL     1       0.433   3.324   4.301  1.00  0.00     0.003 A 
ATOM     24  Br  UNL     1      -2.870   2.369   6.636  1.00  0.00    -0.050 Br
ATOM     25  C   UNL     1      -0.663   3.393   5.153  1.00  0.00     0.016 A 
ENDBRANCH  15  16
ENDBRANCH  12  15
ENDBRANCH   7  11
ENDBRANCH   5   7
ENDBRANCH   4   5
ENDBRANCH   3   4
ENDBRANCH   2   3
ENDBRANCH   1   2
BRANCH   1  26
ATOM     26  C   UNL     1      -1.100   4.615  -1.102  1.00  0.00     0.202 C 
BRANCH  26  27
ATOM     27  C   UNL     1       0.384   4.941  -1.159  1.00  0.00     0.261 C 
BRANCH  27  28
ATOM     28  O   UNL     1       0.950   4.951   0.138  1.00  0.00    -0.460 OA
BRANCH  28  29
ATOM     29  C   UNL     1       1.056   6.199   0.649  1.00  0.00     0.338 C 
ATOM     30  O   UNL     1       0.541   7.217   0.228  1.00  0.00    -0.246 OA
BRANCH  29  31
ATOM     31  C   UNL     1       2.001   6.168   1.764  1.00  0.00     0.060 A 
ATOM     32  C   UNL     1       2.205   7.401   2.387  1.00  0.00     0.016 A 
ATOM     33  C   UNL     1       2.934   5.123   1.804  1.00  0.00     0.016 A 
ATOM     34  C   UNL     1       3.488   7.707   2.753  1.00  0.00     0.010 A 
ATOM     35  C   UNL     1       4.218   5.440   2.148  1.00  0.00     0.010 A 
ATOM     36  C   UNL     1       4.483   6.757   2.504  1.00  0.00    -0.014 A 
BRANCH  36  37
ATOM     37  C   UNL     1       5.846   7.171   2.683  1.00  0.00     0.031 A 
ATOM     38  C   UNL     1       6.230   7.136   4.105  1.00  0.00     0.074 A 
ATOM     39  C   UNL     1       6.633   7.489   1.641  1.00  0.00     0.049 A 
ATOM     40  N   UNL     1       6.339   8.145   4.902  1.00  0.00    -0.248 NA
ATOM     41  C   UNL     1       6.241   5.825   4.776  1.00  0.00     0.031 C 
ATOM     42  C   UNL     1       6.408   7.258   0.211  1.00  0.00     0.029 A 
ATOM     43  N   UNL     1       7.896   7.975   1.669  1.00  0.00    -0.354 N 
ATOM     44  C   UNL     1       6.703   7.588   6.119  1.00  0.00     0.074 A 
ATOM     45  C   UNL     1       6.377   6.188   6.051  1.00  0.00     0.031 C 
ATOM     46  C   UNL     1       7.598   7.333  -0.434  1.00  0.00     0.029 A 
ATOM     47  C   UNL     1       8.627   7.730   0.513  1.00  0.00     0.049 A 
ATOM     48  H   UNL     1       8.265   8.460   2.443  1.00  0.00     0.167 HD
ATOM     49  C   UNL     1       7.540   8.241   6.965  1.00  0.00     0.034 A 
ATOM     50  C   UNL     1       9.984   7.731   0.434  1.00  0.00     0.034 A 
ATOM     51  C   UNL     1       7.673   9.632   6.630  1.00  0.00     0.049 A 
ATOM     52  C   UNL     1      10.474   8.498   1.615  1.00  0.00     0.074 A 
ATOM     53  C   UNL     1       6.784  10.679   6.490  1.00  0.00     0.029 A 
ATOM     54  N   UNL     1       8.806   9.998   5.942  1.00  0.00    -0.354 N 
ATOM     55  N   UNL     1      10.241   9.770   1.797  1.00  0.00    -0.248 NA
ATOM     56  C   UNL     1      10.797   7.741   2.818  1.00  0.00     0.031 C 
ATOM     57  C   UNL     1       7.232  11.386   5.337  1.00  0.00     0.029 A 
ATOM     58  C   UNL     1       8.408  10.780   4.889  1.00  0.00     0.049 A 
ATOM     59  H   UNL     1       9.732   9.745   6.164  1.00  0.00     0.167 HD
ATOM     60  C   UNL     1       9.949   9.878   3.152  1.00  0.00     0.074 A 
ATOM     61  C   UNL     1      10.383   8.612   3.743  1.00  0.00     0.031 C 
ATOM     62  C   UNL     1       9.104  10.839   3.624  1.00  0.00     0.034 A 
BRANCH  49  63
ATOM     63  C   UNL     1       8.530   7.526   7.834  1.00  0.00     0.023 A 
ATOM     64  C   UNL     1       9.083   8.225   8.921  1.00  0.00     0.012 A 
ATOM     65  C   UNL     1       9.118   6.287   7.485  1.00  0.00     0.148 A 
ATOM     66  C   UNL     1      10.167   7.707   9.635  1.00  0.00     0.002 A 
ATOM     67  C   UNL     1      10.132   5.735   8.250  1.00  0.00     0.091 A 
ATOM     68  F   UNL     1       8.797   5.701   6.326  1.00  0.00    -0.205 F 
ATOM     69  C   UNL     1      10.678   6.452   9.315  1.00  0.00     0.022 A 
BRANCH  67  70
ATOM     70  S   UNL     1      10.785   4.101   7.895  1.00  0.00     0.127 S 
ATOM     71  O   UNL     1      12.079   4.426   7.303  1.00  0.00    -0.237 OA
ATOM     72  O   UNL     1      10.843   3.506   9.231  1.00  0.00    -0.237 OA
ATOM     73  O   UNL     1       9.809   3.479   7.009  1.00  0.00    -0.744 OA
ENDBRANCH  67  70
ENDBRANCH  49  63
BRANCH  50  74
ATOM     74  C   UNL     1      10.884   6.812  -0.323  1.00  0.00     0.023 A 
ATOM     75  C   UNL     1      12.271   7.082  -0.347  1.00  0.00     0.012 A 
ATOM     76  C   UNL     1      10.461   5.538  -0.764  1.00  0.00     0.148 A 
ATOM     77  C   UNL     1      13.199   6.104  -0.732  1.00  0.00     0.002 A 
ATOM     78  C   UNL     1      11.386   4.574  -1.161  1.00  0.00     0.091 A 
ATOM     79  F   UNL     1       9.162   5.223  -0.706  1.00  0.00    -0.205 F 
ATOM     80  C   UNL     1      12.758   4.846  -1.128  1.00  0.00     0.022 A 
BRANCH  78  81
ATOM     81  S   UNL     1      10.877   2.929  -1.686  1.00  0.00     0.127 S 
ATOM     82  O   UNL     1      11.717   2.708  -2.864  1.00  0.00    -0.237 OA
ATOM     83  O   UNL     1      11.225   2.116  -0.524  1.00  0.00    -0.237 OA
ATOM     84  O   UNL     1       9.453   3.033  -1.984  1.00  0.00    -0.744 OA
ENDBRANCH  78  81
ENDBRANCH  50  74
BRANCH  62  85
ATOM     85  C   UNL     1       8.666  11.938   2.693  1.00  0.00     0.023 A 
ATOM     86  C   UNL     1       7.784  11.718   1.614  1.00  0.00     0.012 A 
ATOM     87  C   UNL     1       8.968  13.255   3.073  1.00  0.00     0.148 A 
ATOM     88  C   UNL     1       7.212  12.798   0.933  1.00  0.00     0.002 A 
ATOM     89  C   UNL     1       8.368  14.322   2.420  1.00  0.00     0.091 A 
ATOM     90  F   UNL     1       9.801  13.435   4.109  1.00  0.00    -0.205 F 
ATOM     91  C   UNL     1       7.491  14.100   1.347  1.00  0.00     0.022 A 
BRANCH  89  92
ATOM     92  S   UNL     1       8.599  16.011   2.980  1.00  0.00     0.127 S 
ATOM     93  O   UNL     1       9.387  16.586   1.892  1.00  0.00    -0.237 OA
ATOM     94  O   UNL     1       7.222  16.501   3.065  1.00  0.00    -0.237 OA
ATOM     95  O   UNL     1       9.282  15.924   4.264  1.00  0.00    -0.744 OA
ENDBRANCH  89  92
ENDBRANCH  62  85
ENDBRANCH  36  37
ENDBRANCH  29  31
ENDBRANCH  28  29
ENDBRANCH  27  28
ENDBRANCH  26  27
ENDBRANCH   1  26
TORSDOF 21
