REMARK SMILES COc1cc(OC)cc(-c2ccc([C@@H](C)C(=O)OCCOCCOC(=O)c3ccc(-c4c5nc(c(-c6cccc(S(=O)(=O)[O-])c6F)c6ccc([nH]6)c(-c6cccc(S(=O)(=O)[O-])c6F)c6nc(c(-c7cccc(S(=O)(=O)[O-])c7F)c7ccc4[nH]7)C=C6)C=C5)cc3)cc2F)c1
REMARK SMILES IDX 21 1 20 2 19 3 18 4 16 5 17 6 14 7 15 8 13 9 10 10 11 11
REMARK SMILES IDX 91 12 12 13 90 14 92 15 9 16 3 17 4 18 93 19 5 20 8 21 2 22
REMARK SMILES IDX 1 23 6 24 7 25 22 26 23 27 24 28 25 29 26 30 27 31 28 32
REMARK SMILES IDX 89 33 29 34 88 35 30 36 31 37 32 38 82 39 33 40 87 41 81 42
REMARK SMILES IDX 83 43 34 44 86 45 80 46 79 47 35 49 67 50 47 51 66 52 48 53
REMARK SMILES IDX 51 54 65 55 84 56 49 57 50 58 64 60 85 61 52 62 36 63 37 64
REMARK SMILES IDX 45 65 38 66 40 67 46 68 39 69 41 70 42 71 43 72 44 73 68 74
REMARK SMILES IDX 69 75 77 76 70 77 72 78 78 79 71 80 73 81 74 82 75 83 76 84
REMARK SMILES IDX 53 85 54 86 62 87 55 88 57 89 63 90 56 91 58 92 59 93 60 94
REMARK SMILES IDX 61 95
REMARK H PARENT 83 48 51 59
REMARK Flexibility Score: inf
ROOT
ATOM      1  O   UNL     1       8.798  -4.539   0.693  1.00  0.00    -0.374 OA
ENDROOT
BRANCH   1   2
ATOM      2  C   UNL     1       8.536  -5.792   1.330  1.00  0.00     0.202 C 
BRANCH   2   3
ATOM      3  C   UNL     1       9.056  -5.938   2.762  1.00  0.00     0.261 C 
BRANCH   3   4
ATOM      4  O   UNL     1       8.336  -5.078   3.664  1.00  0.00    -0.463 OA
BRANCH   4   5
ATOM      5  C   UNL     1       9.056  -4.093   4.258  1.00  0.00     0.313 C 
ATOM      6  O   UNL     1      10.275  -3.970   4.167  1.00  0.00    -0.252 OA
BRANCH   5   7
ATOM      7  C   UNL     1       8.214  -3.139   5.090  1.00  0.00     0.126 C 
ATOM      8  C   UNL     1       8.249  -3.577   6.552  1.00  0.00     0.025 C 
BRANCH   7   9
ATOM      9  C   UNL     1       6.797  -2.841   4.609  1.00  0.00    -0.031 A 
ATOM     10  C   UNL     1       4.110  -2.129   3.942  1.00  0.00     0.018 A 
ATOM     11  C   UNL     1       4.446  -3.439   4.322  1.00  0.00     0.012 A 
ATOM     12  C   UNL     1       5.158  -1.206   3.845  1.00  0.00     0.131 A 
ATOM     13  C   UNL     1       5.766  -3.790   4.651  1.00  0.00     0.005 A 
ATOM     14  C   UNL     1       6.474  -1.547   4.171  1.00  0.00     0.044 A 
ATOM     15  F   UNL     1       4.912   0.063   3.485  1.00  0.00    -0.206 F 
BRANCH  10  16
ATOM     16  C   UNL     1       2.703  -1.718   3.763  1.00  0.00    -0.008 A 
ATOM     17  C   UNL     1       0.934  -0.634   2.482  1.00  0.00     0.123 A 
ATOM     18  C   UNL     1       0.059  -0.803   3.556  1.00  0.00     0.092 A 
ATOM     19  C   UNL     1       2.253  -1.085   2.589  1.00  0.00     0.055 A 
ATOM     20  C   UNL     1       0.477  -1.426   4.730  1.00  0.00     0.123 A 
ATOM     21  C   UNL     1       1.788  -1.893   4.821  1.00  0.00     0.055 A 
BRANCH  17  22
ATOM     22  O   UNL     1       0.399   0.035   1.414  1.00  0.00    -0.497 OA
ATOM     23  C   UNL     1       1.044  -0.149   0.162  1.00  0.00     0.278 C 
ENDBRANCH  17  22
BRANCH  20  24
ATOM     24  O   UNL     1      -0.474  -1.505   5.709  1.00  0.00    -0.497 OA
ATOM     25  C   UNL     1      -0.039  -1.937   6.993  1.00  0.00     0.278 C 
ENDBRANCH  20  24
ENDBRANCH  10  16
ENDBRANCH   7   9
ENDBRANCH   5   7
ENDBRANCH   4   5
ENDBRANCH   3   4
ENDBRANCH   2   3
ENDBRANCH   1   2
BRANCH   1  26
ATOM     26  C   UNL     1       7.974  -3.434   1.064  1.00  0.00     0.202 C 
BRANCH  26  27
ATOM     27  C   UNL     1       6.566  -3.392   0.460  1.00  0.00     0.261 C 
BRANCH  27  28
ATOM     28  O   UNL     1       5.734  -4.465   0.933  1.00  0.00    -0.460 OA
BRANCH  28  29
ATOM     29  C   UNL     1       5.418  -5.392  -0.001  1.00  0.00     0.338 C 
ATOM     30  O   UNL     1       5.700  -5.361  -1.193  1.00  0.00    -0.246 OA
BRANCH  29  31
ATOM     31  C   UNL     1       4.818  -6.580   0.633  1.00  0.00     0.060 A 
ATOM     32  C   UNL     1       5.371  -7.827   0.312  1.00  0.00     0.016 A 
ATOM     33  C   UNL     1       3.690  -6.494   1.453  1.00  0.00     0.016 A 
ATOM     34  C   UNL     1       4.762  -8.997   0.757  1.00  0.00     0.010 A 
ATOM     35  C   UNL     1       3.076  -7.673   1.894  1.00  0.00     0.010 A 
ATOM     36  C   UNL     1       3.584  -8.929   1.512  1.00  0.00    -0.014 A 
BRANCH  36  37
ATOM     37  C   UNL     1       2.808 -10.169   1.761  1.00  0.00     0.031 A 
ATOM     38  C   UNL     1       1.608 -10.464   0.900  1.00  0.00     0.074 A 
ATOM     39  C   UNL     1       3.178 -11.035   2.721  1.00  0.00     0.049 A 
ATOM     40  N   UNL     1       0.790 -11.483   0.942  1.00  0.00    -0.248 NA
ATOM     41  C   UNL     1       1.288  -9.480  -0.148  1.00  0.00     0.031 C 
ATOM     42  C   UNL     1       4.324 -10.869   3.613  1.00  0.00     0.029 A 
ATOM     43  N   UNL     1       2.612 -12.222   3.117  1.00  0.00    -0.354 N 
ATOM     44  C   UNL     1      -0.153 -11.254  -0.053  1.00  0.00     0.074 A 
ATOM     45  C   UNL     1       0.184  -9.992  -0.674  1.00  0.00     0.031 C 
ATOM     46  C   UNL     1       4.363 -11.903   4.471  1.00  0.00     0.029 A 
ATOM     47  C   UNL     1       3.235 -12.794   4.202  1.00  0.00     0.049 A 
ATOM     48  H   UNL     1       1.835 -12.625   2.667  1.00  0.00     0.167 HD
ATOM     49  C   UNL     1      -1.195 -12.032  -0.431  1.00  0.00     0.034 A 
ATOM     50  C   UNL     1       2.919 -13.899   4.907  1.00  0.00     0.034 A 
ATOM     51  C   UNL     1      -1.517 -13.299   0.168  1.00  0.00     0.049 A 
ATOM     52  C   UNL     1       1.739 -14.734   4.480  1.00  0.00     0.074 A 
ATOM     53  C   UNL     1      -2.529 -14.179  -0.175  1.00  0.00     0.029 A 
ATOM     54  N   UNL     1      -0.840 -13.864   1.236  1.00  0.00    -0.354 N 
ATOM     55  N   UNL     1       0.930 -14.564   3.462  1.00  0.00    -0.248 NA
ATOM     56  C   UNL     1       1.448 -15.935   5.279  1.00  0.00     0.031 C 
ATOM     57  C   UNL     1      -2.476 -15.268   0.702  1.00  0.00     0.029 A 
ATOM     58  C   UNL     1      -1.416 -15.076   1.574  1.00  0.00     0.049 A 
ATOM     59  H   UNL     1      -0.064 -13.462   1.689  1.00  0.00     0.167 HD
ATOM     60  C   UNL     1       0.063 -15.652   3.475  1.00  0.00     0.074 A 
ATOM     61  C   UNL     1       0.457 -16.485   4.591  1.00  0.00     0.031 C 
ATOM     62  C   UNL     1      -0.976 -15.928   2.648  1.00  0.00     0.034 A 
BRANCH  49  63
ATOM     63  C   UNL     1      -2.048 -11.552  -1.575  1.00  0.00     0.023 A 
ATOM     64  C   UNL     1      -1.547 -11.620  -2.891  1.00  0.00     0.012 A 
ATOM     65  C   UNL     1      -3.363 -11.097  -1.357  1.00  0.00     0.148 A 
ATOM     66  C   UNL     1      -2.333 -11.219  -3.970  1.00  0.00     0.002 A 
ATOM     67  C   UNL     1      -4.154 -10.737  -2.441  1.00  0.00     0.091 A 
ATOM     68  F   UNL     1      -3.811 -11.019  -0.096  1.00  0.00    -0.205 F 
ATOM     69  C   UNL     1      -3.638 -10.788  -3.747  1.00  0.00     0.022 A 
BRANCH  67  70
ATOM     70  S   UNL     1      -5.872 -10.241  -2.265  1.00  0.00     0.127 S 
ATOM     71  O   UNL     1      -5.799  -8.813  -2.572  1.00  0.00    -0.237 OA
ATOM     72  O   UNL     1      -6.533 -11.052  -3.288  1.00  0.00    -0.237 OA
ATOM     73  O   UNL     1      -6.245 -10.568  -0.896  1.00  0.00    -0.744 OA
ENDBRANCH  67  70
ENDBRANCH  49  63
BRANCH  50  74
ATOM     74  C   UNL     1       3.753 -14.305   6.073  1.00  0.00     0.023 A 
ATOM     75  C   UNL     1       4.534 -15.475   5.998  1.00  0.00     0.012 A 
ATOM     76  C   UNL     1       3.781 -13.536   7.253  1.00  0.00     0.148 A 
ATOM     77  C   UNL     1       5.301 -15.889   7.087  1.00  0.00     0.002 A 
ATOM     78  C   UNL     1       4.591 -13.924   8.314  1.00  0.00     0.091 A 
ATOM     79  F   UNL     1       3.015 -12.438   7.315  1.00  0.00    -0.205 F 
ATOM     80  C   UNL     1       5.338 -15.110   8.241  1.00  0.00     0.022 A 
BRANCH  78  81
ATOM     81  S   UNL     1       4.797 -12.909   9.781  1.00  0.00     0.127 S 
ATOM     82  O   UNL     1       4.021 -13.650  10.771  1.00  0.00    -0.237 OA
ATOM     83  O   UNL     1       6.247 -12.948   9.978  1.00  0.00    -0.237 OA
ATOM     84  O   UNL     1       4.281 -11.595   9.421  1.00  0.00    -0.744 OA
ENDBRANCH  78  81
ENDBRANCH  50  74
BRANCH  62  85
ATOM     85  C   UNL     1      -1.744 -17.203   2.885  1.00  0.00     0.023 A 
ATOM     86  C   UNL     1      -2.619 -17.299   3.984  1.00  0.00     0.012 A 
ATOM     87  C   UNL     1      -1.660 -18.273   1.972  1.00  0.00     0.148 A 
ATOM     88  C   UNL     1      -3.376 -18.452   4.189  1.00  0.00     0.002 A 
ATOM     89  C   UNL     1      -2.453 -19.400   2.155  1.00  0.00     0.091 A 
ATOM     90  F   UNL     1      -0.808 -18.170   0.941  1.00  0.00    -0.205 F 
ATOM     91  C   UNL     1      -3.302 -19.496   3.269  1.00  0.00     0.022 A 
BRANCH  89  92
ATOM     92  S   UNL     1      -2.493 -20.751   0.972  1.00  0.00     0.127 S 
ATOM     93  O   UNL     1      -1.741 -21.788   1.677  1.00  0.00    -0.237 OA
ATOM     94  O   UNL     1      -3.927 -21.015   0.848  1.00  0.00    -0.237 OA
ATOM     95  O   UNL     1      -1.868 -20.238  -0.241  1.00  0.00    -0.744 OA
ENDBRANCH  89  92
ENDBRANCH  62  85
ENDBRANCH  36  37
ENDBRANCH  29  31
ENDBRANCH  28  29
ENDBRANCH  27  28
ENDBRANCH  26  27
ENDBRANCH   1  26
TORSDOF 21
