REMARK SMILES C[C@H]1C[NH+](CC[C@@H]2CCC[C@]2([NH3+])C(=O)OCCOCCOC(=O)c2ccc(-c3c4nc(c(-c5cccc(S(=O)(=O)[O-])c5F)c5ccc([nH]5)c(-c5cccc(S(=O)(=O)[O-])c5F)c5nc(c(-c6cccc(S(=O)(=O)[O-])c6F)c6ccc3[nH]6)C=C5)C=C4)cc2)C[C@H](C)O1
REMARK SMILES IDX 18 1 17 2 16 3 15 4 13 5 14 6 11 7 7 8 8 9 9 10 10 11 6 12
REMARK SMILES IDX 5 13 4 14 1 15 2 16 3 17 90 18 88 19 87 20 89 22 12 23 19 27
REMARK SMILES IDX 20 28 21 29 22 30 23 31 24 32 25 33 86 34 26 35 85 36 27 37
REMARK SMILES IDX 28 38 29 39 79 40 30 41 84 42 78 43 80 44 31 45 83 46 77 47
REMARK SMILES IDX 76 48 32 50 64 51 44 52 63 53 45 54 48 55 62 56 81 57 46 58
REMARK SMILES IDX 47 59 61 61 82 62 49 63 33 64 34 65 42 66 35 67 37 68 43 69
REMARK SMILES IDX 36 70 38 71 39 72 40 73 41 74 65 75 66 76 74 77 67 78 69 79
REMARK SMILES IDX 75 80 68 81 70 82 71 83 72 84 73 85 50 86 51 87 59 88 52 89
REMARK SMILES IDX 54 90 60 91 53 92 55 93 56 94 57 95 58 96
REMARK H PARENT 4 21 12 24 12 25 12 26 80 49 48 60
REMARK Flexibility Score: inf
ROOT
ATOM      1  O   UNL     1       6.602   5.152  -1.230  1.00  0.00    -0.374 OA
ENDROOT
BRANCH   1   2
ATOM      2  C   UNL     1       5.986   3.978  -0.690  1.00  0.00     0.202 C 
BRANCH   2   3
ATOM      3  C   UNL     1       4.536   4.154  -0.244  1.00  0.00     0.261 C 
BRANCH   3   4
ATOM      4  O   UNL     1       3.687   4.311  -1.401  1.00  0.00    -0.459 OA
BRANCH   4   5
ATOM      5  C   UNL     1       2.575   5.051  -1.216  1.00  0.00     0.368 C 
ATOM      6  O   UNL     1       2.299   5.623  -0.164  1.00  0.00    -0.245 OA
BRANCH   5   7
ATOM      7  C   UNL     1       1.615   5.043  -2.439  1.00  0.00     0.195 C 
ATOM      8  C   UNL     1       1.896   4.133  -3.689  1.00  0.00     0.068 C 
ATOM      9  C   UNL     1       2.454   5.108  -4.775  1.00  0.00     0.011 C 
ATOM     10  C   UNL     1       2.596   6.478  -4.140  1.00  0.00     0.008 C 
ATOM     11  C   UNL     1       1.587   6.477  -3.019  1.00  0.00     0.081 C 
BRANCH   8  12
ATOM     12  C   UNL     1       2.633   2.749  -3.814  1.00  0.00     0.072 C 
BRANCH  12  13
ATOM     13  C   UNL     1       3.037   1.724  -2.727  1.00  0.00     0.262 C 
BRANCH  13  14
ATOM     14  N   UNL     1       2.095   1.094  -1.805  1.00  0.00    -0.331 N 
ATOM     15  C   UNL     1      -0.642  -1.607  -2.022  1.00  0.00     0.045 C 
ATOM     16  C   UNL     1       0.310  -0.618  -1.354  1.00  0.00     0.170 C 
ATOM     17  C   UNL     1       1.313  -0.015  -2.385  1.00  0.00     0.294 C 
ATOM     18  O   UNL     1      -0.518   0.388  -0.731  1.00  0.00    -0.364 OA
ATOM     19  C   UNL     1       0.240   1.451  -0.153  1.00  0.00     0.170 C 
ATOM     20  C   UNL     1       1.177   2.041  -1.201  1.00  0.00     0.294 C 
ATOM     21  H   UNL     1       2.705   0.702  -1.088  1.00  0.00     0.348 HD
ATOM     22  C   UNL     1       0.969   1.069   1.131  1.00  0.00     0.045 C 
ENDBRANCH  13  14
ENDBRANCH  12  13
ENDBRANCH   8  12
BRANCH   7  23
ATOM     23  N   UNL     1       0.220   4.912  -1.919  1.00  0.00    -0.343 N 
ATOM     24  H   UNL     1      -0.435   4.904  -2.702  1.00  0.00     0.345 HD
ATOM     25  H   UNL     1       0.009   5.702  -1.309  1.00  0.00     0.345 HD
ATOM     26  H   UNL     1       0.133   4.043  -1.393  1.00  0.00     0.345 HD
ENDBRANCH   7  23
ENDBRANCH   5   7
ENDBRANCH   4   5
ENDBRANCH   3   4
ENDBRANCH   2   3
ENDBRANCH   1   2
BRANCH   1  27
ATOM     27  C   UNL     1       6.065   5.666  -2.445  1.00  0.00     0.202 C 
BRANCH  27  28
ATOM     28  C   UNL     1       6.471   4.973  -3.753  1.00  0.00     0.261 C 
BRANCH  28  29
ATOM     29  O   UNL     1       6.514   3.544  -3.689  1.00  0.00    -0.460 OA
BRANCH  29  30
ATOM     30  C   UNL     1       7.738   3.064  -3.361  1.00  0.00     0.338 C 
ATOM     31  O   UNL     1       8.750   3.723  -3.140  1.00  0.00    -0.246 OA
BRANCH  30  32
ATOM     32  C   UNL     1       7.707   1.603  -3.195  1.00  0.00     0.060 A 
ATOM     33  C   UNL     1       8.298   1.073  -2.042  1.00  0.00     0.016 A 
ATOM     34  C   UNL     1       7.235   0.761  -4.205  1.00  0.00     0.016 A 
ATOM     35  C   UNL     1       8.492  -0.301  -1.930  1.00  0.00     0.010 A 
ATOM     36  C   UNL     1       7.429  -0.619  -4.089  1.00  0.00     0.010 A 
ATOM     37  C   UNL     1       8.105  -1.150  -2.975  1.00  0.00    -0.014 A 
BRANCH  37  38
ATOM     38  C   UNL     1       8.543  -2.567  -2.960  1.00  0.00     0.031 A 
ATOM     39  C   UNL     1       9.708  -2.986  -3.819  1.00  0.00     0.074 A 
ATOM     40  C   UNL     1       7.926  -3.464  -2.172  1.00  0.00     0.049 A 
ATOM     41  N   UNL     1      10.259  -4.164  -3.947  1.00  0.00    -0.248 NA
ATOM     42  C   UNL     1      10.332  -1.939  -4.645  1.00  0.00     0.031 C 
ATOM     43  C   UNL     1       6.787  -3.178  -1.301  1.00  0.00     0.029 A 
ATOM     44  N   UNL     1       8.160  -4.804  -1.993  1.00  0.00    -0.354 N 
ATOM     45  C   UNL     1      11.274  -4.010  -4.885  1.00  0.00     0.074 A 
ATOM     46  C   UNL     1      11.253  -2.626  -5.306  1.00  0.00     0.031 C 
ATOM     47  C   UNL     1       6.405  -4.316  -0.696  1.00  0.00     0.029 A 
ATOM     48  C   UNL     1       7.259  -5.412  -1.152  1.00  0.00     0.049 A 
ATOM     49  H   UNL     1       8.902  -5.285  -2.426  1.00  0.00     0.167 HD
ATOM     50  C   UNL     1      12.155  -4.931  -5.341  1.00  0.00     0.034 A 
ATOM     51  C   UNL     1       7.128  -6.707  -0.803  1.00  0.00     0.034 A 
ATOM     52  C   UNL     1      12.191  -6.299  -4.899  1.00  0.00     0.049 A 
ATOM     53  C   UNL     1       8.117  -7.713  -1.330  1.00  0.00     0.074 A 
ATOM     54  C   UNL     1      13.080  -7.296  -5.259  1.00  0.00     0.029 A 
ATOM     55  N   UNL     1      11.293  -6.867  -4.008  1.00  0.00    -0.354 N 
ATOM     56  N   UNL     1       9.149  -7.524  -2.117  1.00  0.00    -0.248 NA
ATOM     57  C   UNL     1       7.948  -9.107  -0.890  1.00  0.00     0.031 C 
ATOM     58  C   UNL     1      12.703  -8.474  -4.606  1.00  0.00     0.029 A 
ATOM     59  C   UNL     1      11.598  -8.203  -3.816  1.00  0.00     0.049 A 
ATOM     60  H   UNL     1      10.548  -6.389  -3.576  1.00  0.00     0.167 HD
ATOM     61  C   UNL     1       9.772  -8.761  -2.236  1.00  0.00     0.074 A 
ATOM     62  C   UNL     1       9.013  -9.690  -1.425  1.00  0.00     0.031 C 
ATOM     63  C   UNL     1      10.867  -9.102  -2.960  1.00  0.00     0.034 A 
BRANCH  50  64
ATOM     64  C   UNL     1      13.177  -4.487  -6.354  1.00  0.00     0.023 A 
ATOM     65  C   UNL     1      14.253  -3.671  -5.948  1.00  0.00     0.012 A 
ATOM     66  C   UNL     1      13.112  -4.931  -7.689  1.00  0.00     0.148 A 
ATOM     67  C   UNL     1      15.232  -3.282  -6.861  1.00  0.00     0.002 A 
ATOM     68  C   UNL     1      14.114  -4.574  -8.583  1.00  0.00     0.091 A 
ATOM     69  F   UNL     1      12.069  -5.688  -8.060  1.00  0.00    -0.205 F 
ATOM     70  C   UNL     1      15.169  -3.742  -8.174  1.00  0.00     0.022 A 
BRANCH  68  71
ATOM     71  S   UNL     1      14.164  -5.177 -10.275  1.00  0.00     0.127 S 
ATOM     72  O   UNL     1      13.858  -3.962 -11.030  1.00  0.00    -0.237 OA
ATOM     73  O   UNL     1      15.546  -5.639 -10.397  1.00  0.00    -0.237 OA
ATOM     74  O   UNL     1      13.162  -6.230 -10.356  1.00  0.00    -0.744 OA
ENDBRANCH  68  71
ENDBRANCH  50  64
BRANCH  51  75
ATOM     75  C   UNL     1       6.034  -7.120   0.121  1.00  0.00     0.023 A 
ATOM     76  C   UNL     1       6.347  -7.560   1.421  1.00  0.00     0.012 A 
ATOM     77  C   UNL     1       4.685  -7.060  -0.278  1.00  0.00     0.148 A 
ATOM     78  C   UNL     1       5.337  -7.962   2.297  1.00  0.00     0.002 A 
ATOM     79  C   UNL     1       3.681  -7.407   0.618  1.00  0.00     0.091 A 
ATOM     80  F   UNL     1       4.408  -6.657  -1.527  1.00  0.00    -0.205 F 
ATOM     81  C   UNL     1       4.005  -7.875   1.900  1.00  0.00     0.022 A 
BRANCH  79  82
ATOM     82  S   UNL     1       1.939  -7.195   0.233  1.00  0.00     0.127 S 
ATOM     83  O   UNL     1       1.505  -8.575   0.039  1.00  0.00    -0.237 OA
ATOM     84  O   UNL     1       1.436  -6.554   1.449  1.00  0.00    -0.237 OA
ATOM     85  O   UNL     1       1.901  -6.343  -0.949  1.00  0.00    -0.744 OA
ENDBRANCH  79  82
ENDBRANCH  51  75
BRANCH  63  86
ATOM     86  C   UNL     1      11.344 -10.529  -2.884  1.00  0.00     0.023 A 
ATOM     87  C   UNL     1      10.616 -11.549  -3.529  1.00  0.00     0.012 A 
ATOM     88  C   UNL     1      12.559 -10.845  -2.245  1.00  0.00     0.148 A 
ATOM     89  C   UNL     1      11.073 -12.866  -3.510  1.00  0.00     0.002 A 
ATOM     90  C   UNL     1      13.034 -12.151  -2.273  1.00  0.00     0.091 A 
ATOM     91  F   UNL     1      13.229  -9.864  -1.623  1.00  0.00    -0.205 F 
ATOM     92  C   UNL     1      12.287 -13.165  -2.894  1.00  0.00     0.022 A 
BRANCH  90  93
ATOM     93  S   UNL     1      14.632 -12.609  -1.592  1.00  0.00     0.127 S 
ATOM     94  O   UNL     1      14.244 -13.347  -0.391  1.00  0.00    -0.237 OA
ATOM     95  O   UNL     1      15.199 -13.435  -2.659  1.00  0.00    -0.237 OA
ATOM     96  O   UNL     1      15.341 -11.359  -1.356  1.00  0.00    -0.744 OA
ENDBRANCH  90  93
ENDBRANCH  63  86
ENDBRANCH  37  38
ENDBRANCH  30  32
ENDBRANCH  29  30
ENDBRANCH  28  29
ENDBRANCH  27  28
ENDBRANCH   1  27
TORSDOF 21
