REMARK SMILES C[C@](NC(=O)CSc1cccs1)(C(=O)OCCOCCOC(=O)c1ccc(-c2c3nc(c(-c4cccc(S(=O)(=O)[O-])c4F)c4ccc([nH]4)c(-c4cccc(S(=O)(=O)[O-])c4F)c4nc(c(-c5cccc(S(=O)(=O)[O-])c5F)c5ccc2[nH]5)C=C4)C=C3)cc1)C1CC1
REMARK SMILES IDX 17 1 16 2 15 3 13 4 14 5 2 6 1 7 87 8 88 9 89 10 3 11 4 12
REMARK SMILES IDX 5 14 6 15 7 16 8 17 9 18 12 19 10 20 11 21 18 22 19 23 20 24
REMARK SMILES IDX 21 25 22 26 23 27 24 28 25 29 86 30 26 31 85 32 27 33 28 34
REMARK SMILES IDX 29 35 79 36 30 37 84 38 78 39 80 40 31 41 83 42 77 43 76 44
REMARK SMILES IDX 32 46 64 47 44 48 63 49 45 50 48 51 62 52 81 53 46 54 47 55
REMARK SMILES IDX 61 57 82 58 49 59 33 60 34 61 42 62 35 63 37 64 43 65 36 66
REMARK SMILES IDX 38 67 39 68 40 69 41 70 65 71 66 72 74 73 67 74 69 75 75 76
REMARK SMILES IDX 68 77 70 78 71 79 72 80 73 81 50 82 51 83 59 84 52 85 54 86
REMARK SMILES IDX 60 87 53 88 55 89 56 90 57 91 58 92
REMARK H PARENT 3 13 80 45 48 56
REMARK Flexibility Score: inf
ROOT
ATOM      1  C   UNL     1      -3.798  -0.551  -0.423  1.00  0.00     0.202 C 
ENDROOT
BRANCH   1   2
ATOM      2  C   UNL     1      -3.093  -1.581   0.469  1.00  0.00     0.261 C 
BRANCH   2   3
ATOM      3  O   UNL     1      -1.663  -1.522   0.406  1.00  0.00    -0.461 OA
BRANCH   3   4
ATOM      4  C   UNL     1      -1.088  -2.478  -0.387  1.00  0.00     0.331 C 
ATOM      5  O   UNL     1      -1.714  -3.365  -0.959  1.00  0.00    -0.249 OA
BRANCH   4   6
ATOM      6  C   UNL     1       0.472  -2.318  -0.464  1.00  0.00     0.138 C 
ATOM      7  C   UNL     1       1.012  -3.597   0.184  1.00  0.00     0.048 C 
BRANCH   6   8
ATOM      8  C   UNL     1       0.969  -2.174  -1.907  1.00  0.00     0.026 C 
ATOM      9  C   UNL     1       0.758  -3.275  -2.923  1.00  0.00     0.007 C 
ATOM     10  C   UNL     1       0.078  -1.949  -3.113  1.00  0.00     0.007 C 
ENDBRANCH   6   8
BRANCH   6  11
ATOM     11  N   UNL     1       0.894  -1.115   0.296  1.00  0.00    -0.340 N 
ATOM     12  C   UNL     1       2.082  -0.586   0.691  1.00  0.00     0.231 C 
ATOM     13  H   UNL     1       0.128  -0.568   0.584  1.00  0.00     0.164 HD
ATOM     14  O   UNL     1       2.030   0.508   1.266  1.00  0.00    -0.274 OA
BRANCH  12  15
ATOM     15  C   UNL     1       3.429  -1.218   0.390  1.00  0.00     0.175 C 
BRANCH  15  16
ATOM     16  S   UNL     1       3.938  -2.542   1.509  1.00  0.00    -0.105 SA
BRANCH  16  17
ATOM     17  C   UNL     1       3.511  -1.948   3.098  1.00  0.00     0.060 A 
ATOM     18  C   UNL     1       2.615  -2.560   3.948  1.00  0.00     0.027 A 
ATOM     19  S   UNL     1       4.244  -0.586   3.820  1.00  0.00    -0.137 S 
ATOM     20  C   UNL     1       2.514  -1.888   5.200  1.00  0.00     0.013 A 
ATOM     21  C   UNL     1       3.345  -0.792   5.262  1.00  0.00     0.066 A 
ENDBRANCH  16  17
ENDBRANCH  15  16
ENDBRANCH  12  15
ENDBRANCH   6  11
ENDBRANCH   4   6
ENDBRANCH   3   4
ENDBRANCH   2   3
ENDBRANCH   1   2
BRANCH   1  22
ATOM     22  O   UNL     1      -3.226  -0.257  -1.694  1.00  0.00    -0.374 OA
BRANCH  22  23
ATOM     23  C   UNL     1      -2.039   0.538  -1.733  1.00  0.00     0.202 C 
BRANCH  23  24
ATOM     24  C   UNL     1      -2.118   1.996  -1.271  1.00  0.00     0.261 C 
BRANCH  24  25
ATOM     25  O   UNL     1      -2.388   2.110   0.135  1.00  0.00    -0.460 OA
BRANCH  25  26
ATOM     26  C   UNL     1      -3.539   2.756   0.436  1.00  0.00     0.338 C 
ATOM     27  O   UNL     1      -4.321   3.276  -0.352  1.00  0.00    -0.246 OA
BRANCH  26  28
ATOM     28  C   UNL     1      -3.861   2.583   1.861  1.00  0.00     0.060 A 
ATOM     29  C   UNL     1      -5.115   2.045   2.177  1.00  0.00     0.016 A 
ATOM     30  C   UNL     1      -2.999   3.026   2.866  1.00  0.00     0.016 A 
ATOM     31  C   UNL     1      -5.540   2.005   3.501  1.00  0.00     0.010 A 
ATOM     32  C   UNL     1      -3.433   2.994   4.195  1.00  0.00     0.010 A 
ATOM     33  C   UNL     1      -4.721   2.525   4.510  1.00  0.00    -0.014 A 
BRANCH  33  34
ATOM     34  C   UNL     1      -5.289   2.724   5.864  1.00  0.00     0.031 A 
ATOM     35  C   UNL     1      -5.792   4.089   6.247  1.00  0.00     0.074 A 
ATOM     36  C   UNL     1      -5.389   1.694   6.722  1.00  0.00     0.049 A 
ATOM     37  N   UNL     1      -6.348   4.484   7.362  1.00  0.00    -0.248 NA
ATOM     38  C   UNL     1      -5.653   5.152   5.236  1.00  0.00     0.031 C 
ATOM     39  C   UNL     1      -4.939   0.329   6.457  1.00  0.00     0.029 A 
ATOM     40  N   UNL     1      -5.888   1.645   7.999  1.00  0.00    -0.354 N 
ATOM     41  C   UNL     1      -6.612   5.838   7.195  1.00  0.00     0.074 A 
ATOM     42  C   UNL     1      -6.135   6.205   5.880  1.00  0.00     0.031 C 
ATOM     43  C   UNL     1      -5.158  -0.421   7.551  1.00  0.00     0.029 A 
ATOM     44  C   UNL     1      -5.748   0.414   8.595  1.00  0.00     0.049 A 
ATOM     45  H   UNL     1      -6.306   2.416   8.445  1.00  0.00     0.167 HD
ATOM     46  C   UNL     1      -7.218   6.695   8.051  1.00  0.00     0.034 A 
ATOM     47  C   UNL     1      -6.050   0.016   9.847  1.00  0.00     0.034 A 
ATOM     48  C   UNL     1      -7.701   6.323   9.353  1.00  0.00     0.049 A 
ATOM     49  C   UNL     1      -6.702   0.996  10.788  1.00  0.00     0.074 A 
ATOM     50  C   UNL     1      -8.348   7.110  10.289  1.00  0.00     0.029 A 
ATOM     51  N   UNL     1      -7.582   5.058   9.907  1.00  0.00    -0.354 N 
ATOM     52  N   UNL     1      -7.049   2.242  10.574  1.00  0.00    -0.248 NA
ATOM     53  C   UNL     1      -7.039   0.503  12.132  1.00  0.00     0.031 C 
ATOM     54  C   UNL     1      -8.606   6.323  11.417  1.00  0.00     0.029 A 
ATOM     55  C   UNL     1      -8.139   5.041  11.174  1.00  0.00     0.049 A 
ATOM     56  H   UNL     1      -7.162   4.285   9.465  1.00  0.00     0.167 HD
ATOM     57  C   UNL     1      -7.677   2.671  11.739  1.00  0.00     0.074 A 
ATOM     58  C   UNL     1      -7.683   1.542  12.647  1.00  0.00     0.031 C 
ATOM     59  C   UNL     1      -8.187   3.891  12.040  1.00  0.00     0.034 A 
BRANCH  46  60
ATOM     60  C   UNL     1      -7.429   8.111   7.585  1.00  0.00     0.023 A 
ATOM     61  C   UNL     1      -8.415   8.381   6.614  1.00  0.00     0.012 A 
ATOM     62  C   UNL     1      -6.693   9.178   8.138  1.00  0.00     0.148 A 
ATOM     63  C   UNL     1      -8.647   9.686   6.179  1.00  0.00     0.002 A 
ATOM     64  C   UNL     1      -6.958  10.480   7.729  1.00  0.00     0.091 A 
ATOM     65  F   UNL     1      -5.744   8.898   9.042  1.00  0.00    -0.205 F 
ATOM     66  C   UNL     1      -7.926  10.735   6.743  1.00  0.00     0.022 A 
BRANCH  64  67
ATOM     67  S   UNL     1      -6.134  11.907   8.445  1.00  0.00     0.127 S 
ATOM     68  O   UNL     1      -5.277  12.338   7.341  1.00  0.00    -0.237 OA
ATOM     69  O   UNL     1      -7.258  12.800   8.729  1.00  0.00    -0.237 OA
ATOM     70  O   UNL     1      -5.435  11.417   9.625  1.00  0.00    -0.744 OA
ENDBRANCH  64  67
ENDBRANCH  46  60
BRANCH  47  71
ATOM     71  C   UNL     1      -5.774  -1.386  10.271  1.00  0.00     0.023 A 
ATOM     72  C   UNL     1      -6.846  -2.261  10.528  1.00  0.00     0.012 A 
ATOM     73  C   UNL     1      -4.454  -1.859  10.409  1.00  0.00     0.148 A 
ATOM     74  C   UNL     1      -6.610  -3.571  10.949  1.00  0.00     0.002 A 
ATOM     75  C   UNL     1      -4.226  -3.181  10.772  1.00  0.00     0.091 A 
ATOM     76  F   UNL     1      -3.445  -1.006  10.180  1.00  0.00    -0.205 F 
ATOM     77  C   UNL     1      -5.302  -4.034  11.060  1.00  0.00     0.022 A 
BRANCH  75  78
ATOM     78  S   UNL     1      -2.576  -3.890  10.804  1.00  0.00     0.127 S 
ATOM     79  O   UNL     1      -2.306  -3.958  12.237  1.00  0.00    -0.237 OA
ATOM     80  O   UNL     1      -2.786  -5.184  10.153  1.00  0.00    -0.237 OA
ATOM     81  O   UNL     1      -1.743  -2.970  10.040  1.00  0.00    -0.744 OA
ENDBRANCH  75  78
ENDBRANCH  47  71
BRANCH  59  82
ATOM     82  C   UNL     1      -8.828   4.064  13.392  1.00  0.00     0.023 A 
ATOM     83  C   UNL     1      -8.023   4.122  14.546  1.00  0.00     0.012 A 
ATOM     84  C   UNL     1     -10.221   4.237  13.511  1.00  0.00     0.148 A 
ATOM     85  C   UNL     1      -8.596   4.313  15.802  1.00  0.00     0.002 A 
ATOM     86  C   UNL     1     -10.781   4.476  14.761  1.00  0.00     0.091 A 
ATOM     87  F   UNL     1     -10.974   4.161  12.404  1.00  0.00    -0.205 F 
ATOM     88  C   UNL     1      -9.972   4.502  15.909  1.00  0.00     0.022 A 
BRANCH  86  89
ATOM     89  S   UNL     1     -12.531   4.823  14.978  1.00  0.00     0.127 S 
ATOM     90  O   UNL     1     -13.018   3.562  15.535  1.00  0.00    -0.237 OA
ATOM     91  O   UNL     1     -12.513   5.941  15.923  1.00  0.00    -0.237 OA
ATOM     92  O   UNL     1     -13.037   5.163  13.655  1.00  0.00    -0.744 OA
ENDBRANCH  86  89
ENDBRANCH  59  82
ENDBRANCH  33  34
ENDBRANCH  26  28
ENDBRANCH  25  26
ENDBRANCH  24  25
ENDBRANCH  23  24
ENDBRANCH  22  23
ENDBRANCH   1  22
TORSDOF 22
