REMARK SMILES O=C(OCCOCCOC(=O)[C@H](NC(=O)[C@H]1CC[C@@H](CNC(=O)[C@@H]2Cc3ccccc3C[NH2+]2)CC1)c1ccccc1)c1ccc(-c2c3nc(c(-c4cccc(S(=O)(=O)[O-])c4F)c4ccc([nH]4)c(-c4cccc(S(=O)(=O)[O-])c4F)c4nc(c(-c5cccc(S(=O)(=O)[O-])c5F)c5ccc2[nH]5)C=C4)C=C3)cc1
REMARK SMILES IDX 7 1 6 2 5 3 4 4 3 5 2 6 1 7 42 8 43 9 104 10 44 11 103 12
REMARK SMILES IDX 45 13 46 14 47 15 97 16 48 17 102 18 96 19 98 20 49 21
REMARK SMILES IDX 101 22 95 23 94 24 50 26 82 27 62 28 81 29 63 30 66 31 80 32
REMARK SMILES IDX 99 33 64 34 65 35 79 37 100 38 67 39 51 40 52 41 60 42 53 43
REMARK SMILES IDX 55 44 61 45 54 46 56 47 57 48 58 49 59 50 83 51 84 52 92 53
REMARK SMILES IDX 85 54 87 55 93 56 86 57 88 58 89 59 90 60 91 61 68 62 69 63
REMARK SMILES IDX 77 64 70 65 72 66 78 67 71 68 73 69 74 70 75 71 76 72 8 73
REMARK SMILES IDX 9 74 10 75 11 76 12 77 36 78 37 79 41 80 38 81 40 82 39 83
REMARK SMILES IDX 13 84 14 85 15 87 16 88 35 89 17 90 34 91 18 92 19 93 20 94
REMARK SMILES IDX 21 95 22 96 23 98 24 99 25 100 33 101 26 102 32 103 27 106
REMARK SMILES IDX 31 107 28 108 30 109 29 110
REMARK H PARENT 98 25 66 36 13 86 21 97 33 104 33 105
REMARK Flexibility Score: inf
ROOT
ATOM      1  C   UNL     1      13.338  10.897  -4.572  1.00  0.00     0.202 C 
ENDROOT
BRANCH   1   2
ATOM      2  O   UNL     1      13.084  11.328  -5.910  1.00  0.00    -0.374 OA
BRANCH   2   3
ATOM      3  C   UNL     1      13.653  10.547  -6.961  1.00  0.00     0.202 C 
BRANCH   3   4
ATOM      4  C   UNL     1      15.017  11.017  -7.463  1.00  0.00     0.261 C 
BRANCH   4   5
ATOM      5  O   UNL     1      15.928  11.200  -6.375  1.00  0.00    -0.460 OA
BRANCH   5   6
ATOM      6  C   UNL     1      15.962  12.269  -5.540  1.00  0.00     0.338 C 
ATOM      7  O   UNL     1      16.572  12.162  -4.477  1.00  0.00    -0.246 OA
BRANCH   6   8
ATOM      8  C   UNL     1      15.352  13.588  -5.884  1.00  0.00     0.060 A 
ATOM      9  C   UNL     1      14.219  13.774  -6.679  1.00  0.00     0.016 A 
ATOM     10  C   UNL     1      15.955  14.725  -5.322  1.00  0.00     0.016 A 
ATOM     11  C   UNL     1      13.734  15.023  -6.978  1.00  0.00     0.010 A 
ATOM     12  C   UNL     1      15.460  16.000  -5.596  1.00  0.00     0.010 A 
ATOM     13  C   UNL     1      14.363  16.138  -6.449  1.00  0.00    -0.014 A 
BRANCH  13  14
ATOM     14  C   UNL     1      13.917  17.418  -6.995  1.00  0.00     0.031 A 
ATOM     15  C   UNL     1      14.756  18.032  -8.066  1.00  0.00     0.074 A 
ATOM     16  C   UNL     1      12.686  17.857  -6.683  1.00  0.00     0.049 A 
ATOM     17  N   UNL     1      14.587  19.156  -8.698  1.00  0.00    -0.248 NA
ATOM     18  C   UNL     1      15.935  17.260  -8.507  1.00  0.00     0.031 C 
ATOM     19  C   UNL     1      11.755  17.181  -5.771  1.00  0.00     0.029 A 
ATOM     20  N   UNL     1      11.993  18.947  -7.121  1.00  0.00    -0.354 N 
ATOM     21  C   UNL     1      15.662  19.255  -9.569  1.00  0.00     0.074 A 
ATOM     22  C   UNL     1      16.470  18.070  -9.406  1.00  0.00     0.031 C 
ATOM     23  C   UNL     1      10.615  17.885  -5.708  1.00  0.00     0.029 A 
ATOM     24  C   UNL     1      10.772  19.091  -6.508  1.00  0.00     0.049 A 
ATOM     25  H   UNL     1      12.333  19.567  -7.806  1.00  0.00     0.167 HD
ATOM     26  C   UNL     1      15.940  20.264 -10.421  1.00  0.00     0.034 A 
ATOM     27  C   UNL     1       9.918  20.128  -6.552  1.00  0.00     0.034 A 
ATOM     28  C   UNL     1      15.098  21.420 -10.539  1.00  0.00     0.049 A 
ATOM     29  C   UNL     1      10.304  21.286  -7.430  1.00  0.00     0.074 A 
ATOM     30  C   UNL     1      15.294  22.565 -11.283  1.00  0.00     0.029 A 
ATOM     31  N   UNL     1      13.885  21.567  -9.875  1.00  0.00    -0.354 N 
ATOM     32  N   UNL     1      11.350  21.412  -8.216  1.00  0.00    -0.248 NA
ATOM     33  C   UNL     1       9.398  22.438  -7.441  1.00  0.00     0.031 C 
ATOM     34  C   UNL     1      14.209  23.417 -11.047  1.00  0.00     0.029 A 
ATOM     35  C   UNL     1      13.317  22.784 -10.190  1.00  0.00     0.049 A 
ATOM     36  H   UNL     1      13.489  20.900  -9.269  1.00  0.00     0.167 HD
ATOM     37  C   UNL     1      11.217  22.644  -8.837  1.00  0.00     0.074 A 
ATOM     38  C   UNL     1       9.970  23.211  -8.354  1.00  0.00     0.031 C 
ATOM     39  C   UNL     1      12.047  23.269  -9.709  1.00  0.00     0.034 A 
BRANCH  26  40
ATOM     40  C   UNL     1      17.213  20.165 -11.212  1.00  0.00     0.023 A 
ATOM     41  C   UNL     1      17.320  19.245 -12.275  1.00  0.00     0.012 A 
ATOM     42  C   UNL     1      18.324  20.959 -10.871  1.00  0.00     0.148 A 
ATOM     43  C   UNL     1      18.524  19.094 -12.963  1.00  0.00     0.002 A 
ATOM     44  C   UNL     1      19.507  20.834 -11.588  1.00  0.00     0.091 A 
ATOM     45  F   UNL     1      18.211  21.801  -9.834  1.00  0.00    -0.205 F 
ATOM     46  C   UNL     1      19.614  19.892 -12.625  1.00  0.00     0.022 A 
BRANCH  44  47
ATOM     47  S   UNL     1      20.951  21.851 -11.265  1.00  0.00     0.127 S 
ATOM     48  O   UNL     1      21.925  20.852 -10.827  1.00  0.00    -0.237 OA
ATOM     49  O   UNL     1      21.216  22.427 -12.583  1.00  0.00    -0.237 OA
ATOM     50  O   UNL     1      20.550  22.811 -10.246  1.00  0.00    -0.744 OA
ENDBRANCH  44  47
ENDBRANCH  26  40
BRANCH  27  51
ATOM     51  C   UNL     1       8.687  20.138  -5.714  1.00  0.00     0.023 A 
ATOM     52  C   UNL     1       7.418  20.174  -6.320  1.00  0.00     0.012 A 
ATOM     53  C   UNL     1       8.770  20.116  -4.305  1.00  0.00     0.148 A 
ATOM     54  C   UNL     1       6.259  20.230  -5.542  1.00  0.00     0.002 A 
ATOM     55  C   UNL     1       7.611  20.113  -3.537  1.00  0.00     0.091 A 
ATOM     56  F   UNL     1       9.985  20.101  -3.738  1.00  0.00    -0.205 F 
ATOM     57  C   UNL     1       6.355  20.191  -4.153  1.00  0.00     0.022 A 
BRANCH  55  58
ATOM     58  S   UNL     1       7.654  19.942  -1.749  1.00  0.00     0.127 S 
ATOM     59  O   UNL     1       7.330  21.304  -1.314  1.00  0.00    -0.237 OA
ATOM     60  O   UNL     1       6.593  18.958  -1.512  1.00  0.00    -0.237 OA
ATOM     61  O   UNL     1       8.986  19.474  -1.429  1.00  0.00    -0.744 OA
ENDBRANCH  55  58
ENDBRANCH  27  51
BRANCH  39  62
ATOM     62  C   UNL     1      11.598  24.605 -10.224  1.00  0.00     0.023 A 
ATOM     63  C   UNL     1      11.632  25.732  -9.381  1.00  0.00     0.012 A 
ATOM     64  C   UNL     1      11.215  24.747 -11.570  1.00  0.00     0.148 A 
ATOM     65  C   UNL     1      11.251  26.981  -9.865  1.00  0.00     0.002 A 
ATOM     66  C   UNL     1      10.897  26.003 -12.060  1.00  0.00     0.091 A 
ATOM     67  F   UNL     1      11.173  23.651 -12.343  1.00  0.00    -0.205 F 
ATOM     68  C   UNL     1      10.898  27.119 -11.206  1.00  0.00     0.022 A 
BRANCH  66  69
ATOM     69  S   UNL     1      10.546  26.289 -13.796  1.00  0.00     0.127 S 
ATOM     70  O   UNL     1       9.104  26.525 -13.773  1.00  0.00    -0.237 OA
ATOM     71  O   UNL     1      11.356  27.473 -14.084  1.00  0.00    -0.237 OA
ATOM     72  O   UNL     1      10.971  25.084 -14.495  1.00  0.00    -0.744 OA
ENDBRANCH  66  69
ENDBRANCH  39  62
ENDBRANCH  13  14
ENDBRANCH   6   8
ENDBRANCH   5   6
ENDBRANCH   4   5
ENDBRANCH   3   4
ENDBRANCH   2   3
ENDBRANCH   1   2
BRANCH   1  73
ATOM     73  C   UNL     1      12.312   9.884  -4.060  1.00  0.00     0.261 C 
BRANCH  73  74
ATOM     74  O   UNL     1      11.946   8.961  -5.114  1.00  0.00    -0.461 OA
BRANCH  74  75
ATOM     75  C   UNL     1      11.007   9.538  -5.918  1.00  0.00     0.333 C 
ATOM     76  O   UNL     1      10.459  10.598  -5.610  1.00  0.00    -0.249 OA
BRANCH  75  77
ATOM     77  C   UNL     1      10.631   8.708  -7.225  1.00  0.00     0.223 C 
BRANCH  77  78
ATOM     78  C   UNL     1       9.327   9.358  -7.564  1.00  0.00    -0.014 A 
ATOM     79  C   UNL     1       8.216   8.802  -6.986  1.00  0.00     0.006 A 
ATOM     80  C   UNL     1       9.274  10.634  -8.175  1.00  0.00     0.006 A 
ATOM     81  C   UNL     1       7.072   9.543  -7.027  1.00  0.00     0.000 A 
ATOM     82  C   UNL     1       8.076  11.329  -8.245  1.00  0.00     0.000 A 
ATOM     83  C   UNL     1       6.960  10.772  -7.661  1.00  0.00     0.000 A 
ENDBRANCH  77  78
BRANCH  77  84
ATOM     84  N   UNL     1      11.383   8.591  -8.482  1.00  0.00    -0.339 N 
ATOM     85  C   UNL     1      11.017   8.173  -9.734  1.00  0.00     0.224 C 
ATOM     86  H   UNL     1      12.326   8.864  -8.411  1.00  0.00     0.164 HD
ATOM     87  O   UNL     1      11.905   8.284 -10.593  1.00  0.00    -0.275 OA
BRANCH  85  88
ATOM     88  C   UNL     1       9.620   7.603 -10.178  1.00  0.00     0.078 C 
ATOM     89  C   UNL     1       9.072   6.477  -9.314  1.00  0.00     0.014 C 
ATOM     90  C   UNL     1       8.592   8.638 -10.664  1.00  0.00     0.014 C 
ATOM     91  C   UNL     1       7.644   6.031  -9.633  1.00  0.00     0.006 C 
ATOM     92  C   UNL     1       7.075   8.406 -10.456  1.00  0.00     0.006 C 
ATOM     93  C   UNL     1       6.553   7.113  -9.812  1.00  0.00     0.008 C 
BRANCH  93  94
ATOM     94  C   UNL     1       5.589   7.141  -8.560  1.00  0.00     0.119 C 
BRANCH  94  95
ATOM     95  N   UNL     1       4.717   8.279  -8.261  1.00  0.00    -0.351 N 
ATOM     96  C   UNL     1       4.103   8.706  -7.088  1.00  0.00     0.278 C 
ATOM     97  H   UNL     1       4.530   8.852  -9.039  1.00  0.00     0.163 HD
ATOM     98  O   UNL     1       3.547   9.812  -7.147  1.00  0.00    -0.268 OA
BRANCH  96  99
ATOM     99  C   UNL     1       4.109   7.936  -5.698  1.00  0.00     0.277 C 
ATOM    100  C   UNL     1       4.880   8.612  -4.495  1.00  0.00     0.111 C 
ATOM    101  N   UNL     1       4.290   6.478  -5.848  1.00  0.00    -0.332 N 
ATOM    102  C   UNL     1       5.231   7.630  -3.391  1.00  0.00    -0.033 A 
ATOM    103  C   UNL     1       5.498   5.969  -5.225  1.00  0.00     0.298 C 
ATOM    104  H   UNL     1       4.325   6.260  -6.844  1.00  0.00     0.347 HD
ATOM    105  H   UNL     1       3.503   6.032  -5.377  1.00  0.00     0.347 HD
ATOM    106  C   UNL     1       5.335   8.005  -2.047  1.00  0.00     0.004 A 
ATOM    107  C   UNL     1       5.520   6.307  -3.763  1.00  0.00     0.010 A 
ATOM    108  C   UNL     1       5.646   7.047  -1.077  1.00  0.00     0.000 A 
ATOM    109  C   UNL     1       5.847   5.357  -2.790  1.00  0.00     0.010 A 
ATOM    110  C   UNL     1       5.888   5.724  -1.446  1.00  0.00     0.001 A 
ENDBRANCH  96  99
ENDBRANCH  94  95
ENDBRANCH  93  94
ENDBRANCH  85  88
ENDBRANCH  77  84
ENDBRANCH  75  77
ENDBRANCH  74  75
ENDBRANCH  73  74
ENDBRANCH   1  73
TORSDOF 23
