REMARK SMILES COc1ccc(-c2ccc3n(c2=O)C[C@H]2C[C@@H]3CN(C(=O)CCCC(=O)OCCOCCOC(=O)c3ccc(-c4c5nc(c(-c6cccc(S(=O)(=O)[O-])c6F)c6ccc([nH]6)c(-c6cccc(S(=O)(=O)[O-])c6F)c6nc(c(-c7cccc(S(=O)(=O)[O-])c7F)c7ccc4[nH]7)C=C6)C=C5)cc3)C2)cc1
REMARK SMILES IDX 28 1 27 2 25 3 26 4 24 5 23 6 22 7 20 8 21 9 19 10 7 11 8 12
REMARK SMILES IDX 12 13 9 14 11 15 13 16 10 17 14 18 17 19 15 20 16 21 18 22
REMARK SMILES IDX 99 23 6 24 3 25 4 26 101 27 5 28 100 29 2 30 1 31 29 32
REMARK SMILES IDX 30 33 31 34 32 35 33 36 34 37 35 38 36 39 37 40 98 41 38 42
REMARK SMILES IDX 97 43 39 44 40 45 41 46 91 47 42 48 96 49 90 50 92 51 43 52
REMARK SMILES IDX 95 53 89 54 88 55 44 57 76 58 56 59 75 60 57 61 60 62 74 63
REMARK SMILES IDX 93 64 58 65 59 66 73 68 94 69 61 70 45 71 46 72 54 73 47 74
REMARK SMILES IDX 49 75 55 76 48 77 50 78 51 79 52 80 53 81 77 82 78 83 86 84
REMARK SMILES IDX 79 85 81 86 87 87 80 88 82 89 83 90 84 91 85 92 62 93 63 94
REMARK SMILES IDX 71 95 64 96 66 97 72 98 65 99 67 100 68 101 69 102 70 103
REMARK H PARENT 92 56 60 67
REMARK Flexibility Score: inf
ROOT
ATOM      1  C   UNL     1      -3.062  -7.434  -9.282  1.00  0.00     0.261 C 
ENDROOT
BRANCH   1   2
ATOM      2  O   UNL     1      -2.972  -7.851  -7.909  1.00  0.00    -0.463 OA
BRANCH   2   3
ATOM      3  C   UNL     1      -2.690  -6.879  -7.002  1.00  0.00     0.305 C 
ATOM      4  O   UNL     1      -2.604  -5.687  -7.271  1.00  0.00    -0.252 OA
BRANCH   3   5
ATOM      5  C   UNL     1      -2.441  -7.418  -5.608  1.00  0.00     0.123 C 
BRANCH   5   6
ATOM      6  C   UNL     1      -2.842  -8.864  -5.318  1.00  0.00     0.022 C 
BRANCH   6   7
ATOM      7  C   UNL     1      -1.981  -9.951  -5.966  1.00  0.00     0.101 C 
BRANCH   7   8
ATOM      8  C   UNL     1      -0.541  -9.958  -5.476  1.00  0.00     0.222 C 
ATOM      9  O   UNL     1      -0.306 -10.354  -4.331  1.00  0.00    -0.275 OA
BRANCH   8  10
ATOM     10  N   UNL     1       0.461  -9.527  -6.334  1.00  0.00    -0.342 N 
ATOM     11  C   UNL     1       1.721  -5.521  -3.414  1.00  0.00     0.047 A 
ATOM     12  C   UNL     1       2.598  -6.487  -3.094  1.00  0.00     0.016 A 
ATOM     13  C   UNL     1       1.112  -5.527  -4.791  1.00  0.00     0.258 A 
ATOM     14  C   UNL     1       2.961  -7.509  -4.035  1.00  0.00     0.023 A 
ATOM     15  N   UNL     1       1.523  -6.553  -5.659  1.00  0.00    -0.311 N 
ATOM     16  O   UNL     1       0.313  -4.649  -5.117  1.00  0.00    -0.269 OA
ATOM     17  C   UNL     1       2.438  -7.533  -5.271  1.00  0.00     0.026 A 
ATOM     18  C   UNL     1       1.014  -6.494  -7.030  1.00  0.00     0.131 C 
ATOM     19  C   UNL     1       2.795  -8.654  -6.236  1.00  0.00     0.056 C 
ATOM     20  C   UNL     1       1.252  -7.731  -7.908  1.00  0.00     0.029 C 
ATOM     21  C   UNL     1       2.684  -8.197  -7.691  1.00  0.00     0.019 C 
ATOM     22  C   UNL     1       1.853  -9.851  -6.004  1.00  0.00     0.129 C 
ATOM     23  C   UNL     1       0.268  -8.885  -7.630  1.00  0.00     0.125 C 
BRANCH  11  24
ATOM     24  C   UNL     1       1.403  -4.465  -2.437  1.00  0.00    -0.013 A 
ATOM     25  C   UNL     1       0.809  -2.397  -0.631  1.00  0.00     0.118 A 
ATOM     26  C   UNL     1      -0.189  -3.284  -1.034  1.00  0.00     0.047 A 
ATOM     27  C   UNL     1       2.114  -2.566  -1.090  1.00  0.00     0.047 A 
ATOM     28  C   UNL     1       0.102  -4.306  -1.944  1.00  0.00     0.013 A 
ATOM     29  C   UNL     1       2.408  -3.593  -1.992  1.00  0.00     0.013 A 
BRANCH  25  30
ATOM     30  O   UNL     1       0.438  -1.418   0.252  1.00  0.00    -0.497 OA
ATOM     31  C   UNL     1       0.960  -0.134  -0.082  1.00  0.00     0.278 C 
ENDBRANCH  25  30
ENDBRANCH  11  24
ENDBRANCH   8  10
ENDBRANCH   7   8
ENDBRANCH   6   7
ENDBRANCH   5   6
ENDBRANCH   3   5
ENDBRANCH   2   3
ENDBRANCH   1   2
BRANCH   1  32
ATOM     32  C   UNL     1      -4.423  -7.755  -9.898  1.00  0.00     0.202 C 
BRANCH  32  33
ATOM     33  O   UNL     1      -5.560  -7.098  -9.343  1.00  0.00    -0.374 OA
BRANCH  33  34
ATOM     34  C   UNL     1      -5.920  -7.402  -7.999  1.00  0.00     0.202 C 
BRANCH  34  35
ATOM     35  C   UNL     1      -6.531  -8.780  -7.708  1.00  0.00     0.261 C 
BRANCH  35  36
ATOM     36  O   UNL     1      -5.746  -9.896  -8.158  1.00  0.00    -0.460 OA
BRANCH  36  37
ATOM     37  C   UNL     1      -6.262 -10.534  -9.242  1.00  0.00     0.338 C 
ATOM     38  O   UNL     1      -7.275 -10.241  -9.852  1.00  0.00    -0.246 OA
BRANCH  37  39
ATOM     39  C   UNL     1      -5.351 -11.596  -9.709  1.00  0.00     0.060 A 
ATOM     40  C   UNL     1      -4.917 -11.542 -11.040  1.00  0.00     0.016 A 
ATOM     41  C   UNL     1      -5.037 -12.693  -8.905  1.00  0.00     0.016 A 
ATOM     42  C   UNL     1      -4.201 -12.607 -11.585  1.00  0.00     0.010 A 
ATOM     43  C   UNL     1      -4.326 -13.765  -9.458  1.00  0.00     0.010 A 
ATOM     44  C   UNL     1      -3.933 -13.741 -10.808  1.00  0.00    -0.014 A 
BRANCH  44  45
ATOM     45  C   UNL     1      -3.321 -14.939 -11.434  1.00  0.00     0.031 A 
ATOM     46  C   UNL     1      -4.194 -16.094 -11.842  1.00  0.00     0.074 A 
ATOM     47  C   UNL     1      -1.991 -14.998 -11.627  1.00  0.00     0.049 A 
ATOM     48  N   UNL     1      -3.852 -17.240 -12.373  1.00  0.00    -0.248 NA
ATOM     49  C   UNL     1      -5.641 -15.938 -11.628  1.00  0.00     0.031 C 
ATOM     50  C   UNL     1      -1.044 -13.940 -11.278  1.00  0.00     0.029 A 
ATOM     51  N   UNL     1      -1.206 -16.001 -12.137  1.00  0.00    -0.354 N 
ATOM     52  C   UNL     1      -5.035 -17.951 -12.535  1.00  0.00     0.074 A 
ATOM     53  C   UNL     1      -6.104 -17.110 -12.040  1.00  0.00     0.031 C 
ATOM     54  C   UNL     1       0.201 -14.364 -11.553  1.00  0.00     0.029 A 
ATOM     55  C   UNL     1       0.140 -15.730 -12.071  1.00  0.00     0.049 A 
ATOM     56  H   UNL     1      -1.571 -16.834 -12.514  1.00  0.00     0.167 HD
ATOM     57  C   UNL     1      -5.216 -19.185 -13.063  1.00  0.00     0.034 A 
ATOM     58  C   UNL     1       1.203 -16.505 -12.367  1.00  0.00     0.034 A 
ATOM     59  C   UNL     1      -4.155 -20.013 -13.571  1.00  0.00     0.049 A 
ATOM     60  C   UNL     1       0.976 -17.892 -12.908  1.00  0.00     0.074 A 
ATOM     61  C   UNL     1      -4.247 -21.251 -14.183  1.00  0.00     0.029 A 
ATOM     62  N   UNL     1      -2.807 -19.699 -13.508  1.00  0.00    -0.354 N 
ATOM     63  N   UNL     1      -0.155 -18.495 -13.185  1.00  0.00    -0.248 NA
ATOM     64  C   UNL     1       2.172 -18.697 -13.202  1.00  0.00     0.031 C 
ATOM     65  C   UNL     1      -2.951 -21.697 -14.466  1.00  0.00     0.029 A 
ATOM     66  C   UNL     1      -2.054 -20.728 -14.047  1.00  0.00     0.049 A 
ATOM     67  H   UNL     1      -2.438 -18.865 -13.136  1.00  0.00     0.167 HD
ATOM     68  C   UNL     1       0.192 -19.738 -13.705  1.00  0.00     0.074 A 
ATOM     69  C   UNL     1       1.639 -19.790 -13.731  1.00  0.00     0.031 C 
ATOM     70  C   UNL     1      -0.615 -20.753 -14.106  1.00  0.00     0.034 A 
BRANCH  57  71
ATOM     71  C   UNL     1      -6.625 -19.709 -13.152  1.00  0.00     0.023 A 
ATOM     72  C   UNL     1      -7.493 -19.200 -14.139  1.00  0.00     0.012 A 
ATOM     73  C   UNL     1      -7.069 -20.745 -12.307  1.00  0.00     0.148 A 
ATOM     74  C   UNL     1      -8.789 -19.698 -14.269  1.00  0.00     0.002 A 
ATOM     75  C   UNL     1      -8.350 -21.261 -12.466  1.00  0.00     0.091 A 
ATOM     76  F   UNL     1      -6.237 -21.198 -11.359  1.00  0.00    -0.205 F 
ATOM     77  C   UNL     1      -9.214 -20.734 -13.441  1.00  0.00     0.022 A 
BRANCH  75  78
ATOM     78  S   UNL     1      -8.964 -22.641 -11.494  1.00  0.00     0.127 S 
ATOM     79  O   UNL     1      -9.909 -21.974 -10.599  1.00  0.00    -0.237 OA
ATOM     80  O   UNL     1      -9.585 -23.487 -12.514  1.00  0.00    -0.237 OA
ATOM     81  O   UNL     1      -7.797 -23.226 -10.849  1.00  0.00    -0.744 OA
ENDBRANCH  75  78
ENDBRANCH  57  71
BRANCH  58  82
ATOM     82  C   UNL     1       2.582 -15.972 -12.177  1.00  0.00     0.023 A 
ATOM     83  C   UNL     1       3.385 -15.707 -13.302  1.00  0.00     0.012 A 
ATOM     84  C   UNL     1       3.087 -15.694 -10.891  1.00  0.00     0.148 A 
ATOM     85  C   UNL     1       4.675 -15.196 -13.149  1.00  0.00     0.002 A 
ATOM     86  C   UNL     1       4.348 -15.127 -10.750  1.00  0.00     0.091 A 
ATOM     87  F   UNL     1       2.316 -15.974  -9.831  1.00  0.00    -0.205 F 
ATOM     88  C   UNL     1       5.152 -14.895 -11.876  1.00  0.00     0.022 A 
BRANCH  86  89
ATOM     89  S   UNL     1       4.976 -14.567  -9.162  1.00  0.00     0.127 S 
ATOM     90  O   UNL     1       6.012 -15.557  -8.882  1.00  0.00    -0.237 OA
ATOM     91  O   UNL     1       5.471 -13.228  -9.487  1.00  0.00    -0.237 OA
ATOM     92  O   UNL     1       3.830 -14.572  -8.263  1.00  0.00    -0.744 OA
ENDBRANCH  86  89
ENDBRANCH  58  82
BRANCH  70  93
ATOM     93  C   UNL     1       0.044 -22.010 -14.613  1.00  0.00     0.023 A 
ATOM     94  C   UNL     1       0.662 -22.885 -13.698  1.00  0.00     0.012 A 
ATOM     95  C   UNL     1      -0.011 -22.361 -15.976  1.00  0.00     0.148 A 
ATOM     96  C   UNL     1       1.240 -24.076 -14.135  1.00  0.00     0.002 A 
ATOM     97  C   UNL     1       0.528 -23.572 -16.399  1.00  0.00     0.091 A 
ATOM     98  F   UNL     1      -0.588 -21.507 -16.835  1.00  0.00    -0.205 F 
ATOM     99  C   UNL     1       1.163 -24.425 -15.482  1.00  0.00     0.022 A 
BRANCH  97 100
ATOM    100  S   UNL     1       0.398 -24.145 -18.097  1.00  0.00     0.127 S 
ATOM    101  O   UNL     1       1.767 -23.964 -18.577  1.00  0.00    -0.237 OA
ATOM    102  O   UNL     1      -0.009 -25.540 -17.925  1.00  0.00    -0.237 OA
ATOM    103  O   UNL     1      -0.604 -23.297 -18.729  1.00  0.00    -0.744 OA
ENDBRANCH  97 100
ENDBRANCH  70  93
ENDBRANCH  44  45
ENDBRANCH  37  39
ENDBRANCH  36  37
ENDBRANCH  35  36
ENDBRANCH  34  35
ENDBRANCH  33  34
ENDBRANCH  32  33
ENDBRANCH   1  32
TORSDOF 23
