REMARK SMILES O=C(OCCOCCOC(=O)C1(Cc2ccncc2)Cc2ccccc2C1)c1ccc(-c2c3nc(c(-c4cccc(S(=O)(=O)[O-])c4F)c4ccc([nH]4)c(-c4cccc(S(=O)(=O)[O-])c4F)c4nc(c(-c5cccc(S(=O)(=O)[O-])c5F)c5ccc2[nH]5)C=C4)C=C3)cc1
REMARK SMILES IDX 5 1 4 2 3 3 2 4 1 5 28 6 29 7 90 8 30 9 89 10 31 11 32 12
REMARK SMILES IDX 33 13 83 14 34 15 88 16 82 17 84 18 35 19 87 20 81 21 80 22
REMARK SMILES IDX 36 24 68 25 48 26 67 27 49 28 52 29 66 30 85 31 50 32 51 33
REMARK SMILES IDX 65 35 86 36 53 37 37 38 38 39 46 40 39 41 41 42 47 43 40 44
REMARK SMILES IDX 42 45 43 46 44 47 45 48 69 49 70 50 78 51 71 52 73 53 79 54
REMARK SMILES IDX 72 55 74 56 75 57 76 58 77 59 54 60 55 61 63 62 56 63 58 64
REMARK SMILES IDX 64 65 57 66 59 67 60 68 61 69 62 70 6 71 7 72 8 73 9 74
REMARK SMILES IDX 10 75 11 76 12 77 20 78 27 79 21 80 26 81 22 82 25 83 23 84
REMARK SMILES IDX 24 85 13 86 14 87 15 88 19 89 16 90 18 91 17 92
REMARK H PARENT 84 23 52 34
REMARK Flexibility Score: inf
ROOT
ATOM      1  C   UNL     1       2.807   1.277   0.151  1.00  0.00     0.202 C 
ENDROOT
BRANCH   1   2
ATOM      2  C   UNL     1       2.990   0.481  -1.144  1.00  0.00     0.261 C 
BRANCH   2   3
ATOM      3  O   UNL     1       1.875  -0.381  -1.389  1.00  0.00    -0.460 OA
BRANCH   3   4
ATOM      4  C   UNL     1       1.551  -1.382  -0.529  1.00  0.00     0.338 C 
ATOM      5  O   UNL     1       0.372  -1.636  -0.300  1.00  0.00    -0.246 OA
BRANCH   4   6
ATOM      6  C   UNL     1       2.619  -2.318  -0.063  1.00  0.00     0.060 A 
ATOM      7  C   UNL     1       3.843  -1.932   0.500  1.00  0.00     0.016 A 
ATOM      8  C   UNL     1       2.305  -3.682  -0.112  1.00  0.00     0.016 A 
ATOM      9  C   UNL     1       4.737  -2.863   0.993  1.00  0.00     0.010 A 
ATOM     10  C   UNL     1       3.183  -4.625   0.423  1.00  0.00     0.010 A 
ATOM     11  C   UNL     1       4.393  -4.209   0.991  1.00  0.00    -0.014 A 
BRANCH  11  12
ATOM     12  C   UNL     1       5.345  -5.158   1.581  1.00  0.00     0.031 A 
ATOM     13  C   UNL     1       6.114  -6.054   0.670  1.00  0.00     0.074 A 
ATOM     14  C   UNL     1       5.550  -5.130   2.911  1.00  0.00     0.049 A 
ATOM     15  N   UNL     1       6.934  -7.018   0.971  1.00  0.00    -0.248 NA
ATOM     16  C   UNL     1       5.940  -5.829  -0.777  1.00  0.00     0.031 C 
ATOM     17  C   UNL     1       4.893  -4.213   3.849  1.00  0.00     0.029 A 
ATOM     18  N   UNL     1       6.370  -5.883   3.705  1.00  0.00    -0.354 N 
ATOM     19  C   UNL     1       7.335  -7.555  -0.244  1.00  0.00     0.074 A 
ATOM     20  C   UNL     1       6.681  -6.800  -1.289  1.00  0.00     0.031 C 
ATOM     21  C   UNL     1       5.336  -4.459   5.091  1.00  0.00     0.029 A 
ATOM     22  C   UNL     1       6.244  -5.596   5.045  1.00  0.00     0.049 A 
ATOM     23  H   UNL     1       6.988  -6.563   3.354  1.00  0.00     0.167 HD
ATOM     24  C   UNL     1       8.174  -8.592  -0.453  1.00  0.00     0.034 A 
ATOM     25  C   UNL     1       6.770  -6.226   6.111  1.00  0.00     0.034 A 
ATOM     26  C   UNL     1       8.811  -9.309   0.616  1.00  0.00     0.049 A 
ATOM     27  C   UNL     1       7.656  -7.413   5.844  1.00  0.00     0.074 A 
ATOM     28  C   UNL     1       9.650 -10.404   0.543  1.00  0.00     0.029 A 
ATOM     29  N   UNL     1       8.669  -8.996   1.962  1.00  0.00    -0.354 N 
ATOM     30  N   UNL     1       8.040  -7.913   4.693  1.00  0.00    -0.248 NA
ATOM     31  C   UNL     1       8.192  -8.116   7.015  1.00  0.00     0.031 C 
ATOM     32  C   UNL     1       9.996 -10.768   1.848  1.00  0.00     0.029 A 
ATOM     33  C   UNL     1       9.403  -9.877   2.732  1.00  0.00     0.049 A 
ATOM     34  H   UNL     1       8.126  -8.255   2.315  1.00  0.00     0.167 HD
ATOM     35  C   UNL     1       8.882  -8.972   4.998  1.00  0.00     0.074 A 
ATOM     36  C   UNL     1       8.979  -9.017   6.445  1.00  0.00     0.031 C 
ATOM     37  C   UNL     1       9.504  -9.848   4.170  1.00  0.00     0.034 A 
BRANCH  24  38
ATOM     38  C   UNL     1       8.407  -9.015  -1.875  1.00  0.00     0.023 A 
ATOM     39  C   UNL     1       9.193  -8.217  -2.732  1.00  0.00     0.012 A 
ATOM     40  C   UNL     1       7.841 -10.207  -2.365  1.00  0.00     0.148 A 
ATOM     41  C   UNL     1       9.383  -8.584  -4.064  1.00  0.00     0.002 A 
ATOM     42  C   UNL     1       8.072 -10.589  -3.680  1.00  0.00     0.091 A 
ATOM     43  F   UNL     1       7.074 -10.934  -1.540  1.00  0.00    -0.205 F 
ATOM     44  C   UNL     1       8.831  -9.773  -4.535  1.00  0.00     0.022 A 
BRANCH  42  45
ATOM     45  S   UNL     1       7.455 -12.129  -4.366  1.00  0.00     0.127 S 
ATOM     46  O   UNL     1       6.553 -11.648  -5.412  1.00  0.00    -0.237 OA
ATOM     47  O   UNL     1       8.683 -12.753  -4.859  1.00  0.00    -0.237 OA
ATOM     48  O   UNL     1       6.808 -12.833  -3.268  1.00  0.00    -0.744 OA
ENDBRANCH  42  45
ENDBRANCH  24  38
BRANCH  25  49
ATOM     49  C   UNL     1       6.457  -5.781   7.500  1.00  0.00     0.023 A 
ATOM     50  C   UNL     1       7.489  -5.304   8.332  1.00  0.00     0.012 A 
ATOM     51  C   UNL     1       5.145  -5.843   8.011  1.00  0.00     0.148 A 
ATOM     52  C   UNL     1       7.229  -4.945   9.657  1.00  0.00     0.002 A 
ATOM     53  C   UNL     1       4.882  -5.427   9.312  1.00  0.00     0.091 A 
ATOM     54  F   UNL     1       4.173  -6.315   7.217  1.00  0.00    -0.205 F 
ATOM     55  C   UNL     1       5.926  -4.999  10.144  1.00  0.00     0.022 A 
BRANCH  53  56
ATOM     56  S   UNL     1       3.214  -5.346   9.975  1.00  0.00     0.127 S 
ATOM     57  O   UNL     1       3.195  -6.492  10.880  1.00  0.00    -0.237 OA
ATOM     58  O   UNL     1       3.211  -4.039  10.634  1.00  0.00    -0.237 OA
ATOM     59  O   UNL     1       2.330  -5.432   8.820  1.00  0.00    -0.744 OA
ENDBRANCH  53  56
ENDBRANCH  25  49
BRANCH  37  60
ATOM     60  C   UNL     1      10.371 -10.893   4.815  1.00  0.00     0.023 A 
ATOM     61  C   UNL     1       9.780 -11.958   5.521  1.00  0.00     0.012 A 
ATOM     62  C   UNL     1      11.769 -10.847   4.662  1.00  0.00     0.148 A 
ATOM     63  C   UNL     1      10.574 -12.945   6.101  1.00  0.00     0.002 A 
ATOM     64  C   UNL     1      12.549 -11.865   5.191  1.00  0.00     0.091 A 
ATOM     65  F   UNL     1      12.308  -9.811   4.002  1.00  0.00    -0.205 F 
ATOM     66  C   UNL     1      11.956 -12.905   5.924  1.00  0.00     0.022 A 
BRANCH  64  67
ATOM     67  S   UNL     1      14.320 -11.953   4.916  1.00  0.00     0.127 S 
ATOM     68  O   UNL     1      14.844 -11.593   6.232  1.00  0.00    -0.237 OA
ATOM     69  O   UNL     1      14.506 -13.357   4.546  1.00  0.00    -0.237 OA
ATOM     70  O   UNL     1      14.608 -11.005   3.847  1.00  0.00    -0.744 OA
ENDBRANCH  64  67
ENDBRANCH  37  60
ENDBRANCH  11  12
ENDBRANCH   4   6
ENDBRANCH   3   4
ENDBRANCH   2   3
ENDBRANCH   1   2
BRANCH   1  71
ATOM     71  O   UNL     1       2.537   0.455   1.281  1.00  0.00    -0.374 OA
BRANCH  71  72
ATOM     72  C   UNL     1       1.804   1.073   2.331  1.00  0.00     0.202 C 
BRANCH  72  73
ATOM     73  C   UNL     1       2.652   1.973   3.228  1.00  0.00     0.261 C 
BRANCH  73  74
ATOM     74  O   UNL     1       3.368   2.950   2.452  1.00  0.00    -0.463 OA
BRANCH  74  75
ATOM     75  C   UNL     1       4.722   2.795   2.331  1.00  0.00     0.313 C 
ATOM     76  O   UNL     1       5.357   1.863   2.794  1.00  0.00    -0.252 OA
BRANCH  75  77
ATOM     77  C   UNL     1       5.338   3.930   1.513  1.00  0.00     0.080 C 
ATOM     78  C   UNL     1       4.399   5.181   1.627  1.00  0.00     0.055 C 
ATOM     79  C   UNL     1       6.669   4.377   2.170  1.00  0.00     0.055 C 
ATOM     80  C   UNL     1       5.368   6.312   1.646  1.00  0.00    -0.044 A 
ATOM     81  C   UNL     1       6.655   5.859   1.940  1.00  0.00    -0.044 A 
ATOM     82  C   UNL     1       5.089   7.653   1.463  1.00  0.00     0.004 A 
ATOM     83  C   UNL     1       7.708   6.747   2.034  1.00  0.00     0.004 A 
ATOM     84  C   UNL     1       6.144   8.556   1.558  1.00  0.00     0.000 A 
ATOM     85  C   UNL     1       7.446   8.105   1.835  1.00  0.00     0.000 A 
BRANCH  77  86
ATOM     86  C   UNL     1       5.532   3.620  -0.006  1.00  0.00     0.055 C 
BRANCH  86  87
ATOM     87  C   UNL     1       6.548   2.622  -0.531  1.00  0.00    -0.044 A 
ATOM     88  C   UNL     1       6.627   1.288  -0.127  1.00  0.00     0.024 A 
ATOM     89  C   UNL     1       7.375   3.016  -1.596  1.00  0.00     0.024 A 
ATOM     90  C   UNL     1       7.492   0.426  -0.800  1.00  0.00     0.111 A 
ATOM     91  C   UNL     1       8.208   2.087  -2.203  1.00  0.00     0.111 A 
ATOM     92  N   UNL     1       8.276   0.797  -1.834  1.00  0.00    -0.265 NA
ENDBRANCH  86  87
ENDBRANCH  77  86
ENDBRANCH  75  77
ENDBRANCH  74  75
ENDBRANCH  73  74
ENDBRANCH  72  73
ENDBRANCH  71  72
ENDBRANCH   1  71
TORSDOF 19
