REMARK SMILES O=C(OCCOCCOC(=O)[C@H]1CC[C@H]2CCCC[C@@H]2N1C(=O)c1ccn[nH]1)c1ccc(-c2c3nc(c(-c4cccc(S(=O)(=O)[O-])c4F)c4ccc([nH]4)c(-c4cccc(S(=O)(=O)[O-])c4F)c4nc(c(-c5cccc(S(=O)(=O)[O-])c5F)c5ccc2[nH]5)C=C4)C=C3)cc1
REMARK SMILES IDX 5 1 4 2 3 3 2 4 1 5 29 6 30 7 91 8 31 9 90 10 32 11 33 12
REMARK SMILES IDX 34 13 84 14 35 15 89 16 83 17 85 18 36 19 88 20 82 21 81 22
REMARK SMILES IDX 37 24 69 25 49 26 68 27 50 28 53 29 67 30 86 31 51 32 52 33
REMARK SMILES IDX 66 35 87 36 54 37 38 38 39 39 47 40 40 41 42 42 48 43 41 44
REMARK SMILES IDX 43 45 44 46 45 47 46 48 70 49 71 50 79 51 72 52 74 53 80 54
REMARK SMILES IDX 73 55 75 56 76 57 77 58 78 59 55 60 56 61 64 62 57 63 59 64
REMARK SMILES IDX 65 65 58 66 60 67 61 68 62 69 63 70 6 71 7 72 8 73 9 74
REMARK SMILES IDX 10 75 11 76 12 77 13 78 21 79 14 80 20 81 15 82 19 83 16 84
REMARK SMILES IDX 18 85 17 86 22 87 23 88 24 89 25 90 28 91 26 92 27 93
REMARK H PARENT 85 23 53 34 28 94
REMARK Flexibility Score: inf
ROOT
ATOM      1  C   UNL     1       4.697  -0.950   0.347  1.00  0.00     0.202 C 
ENDROOT
BRANCH   1   2
ATOM      2  C   UNL     1       4.404   0.340   1.125  1.00  0.00     0.261 C 
BRANCH   2   3
ATOM      3  O   UNL     1       3.002   0.646   1.131  1.00  0.00    -0.460 OA
BRANCH   3   4
ATOM      4  C   UNL     1       2.319   1.443   0.273  1.00  0.00     0.338 C 
ATOM      5  O   UNL     1       1.137   1.674   0.525  1.00  0.00    -0.246 OA
BRANCH   4   6
ATOM      6  C   UNL     1       2.902   2.014  -0.985  1.00  0.00     0.060 A 
ATOM      7  C   UNL     1       4.144   1.676  -1.524  1.00  0.00     0.016 A 
ATOM      8  C   UNL     1       2.105   2.915  -1.714  1.00  0.00     0.016 A 
ATOM      9  C   UNL     1       4.570   2.133  -2.748  1.00  0.00     0.010 A 
ATOM     10  C   UNL     1       2.551   3.446  -2.927  1.00  0.00     0.010 A 
ATOM     11  C   UNL     1       3.789   3.046  -3.431  1.00  0.00    -0.014 A 
BRANCH  11  12
ATOM     12  C   UNL     1       4.458   3.705  -4.547  1.00  0.00     0.031 A 
ATOM     13  C   UNL     1       5.246   4.931  -4.229  1.00  0.00     0.074 A 
ATOM     14  C   UNL     1       4.519   3.079  -5.730  1.00  0.00     0.049 A 
ATOM     15  N   UNL     1       5.907   5.714  -5.028  1.00  0.00    -0.248 NA
ATOM     16  C   UNL     1       5.331   5.306  -2.803  1.00  0.00     0.031 C 
ATOM     17  C   UNL     1       3.933   1.767  -6.018  1.00  0.00     0.029 A 
ATOM     18  N   UNL     1       5.107   3.455  -6.902  1.00  0.00    -0.354 N 
ATOM     19  C   UNL     1       6.426   6.712  -4.215  1.00  0.00     0.074 A 
ATOM     20  C   UNL     1       6.065   6.404  -2.853  1.00  0.00     0.031 C 
ATOM     21  C   UNL     1       4.151   1.470  -7.309  1.00  0.00     0.029 A 
ATOM     22  C   UNL     1       4.827   2.599  -7.938  1.00  0.00     0.049 A 
ATOM     23  H   UNL     1       5.673   4.255  -6.995  1.00  0.00     0.167 HD
ATOM     24  C   UNL     1       7.110   7.809  -4.600  1.00  0.00     0.034 A 
ATOM     25  C   UNL     1       5.034   2.768  -9.256  1.00  0.00     0.034 A 
ATOM     26  C   UNL     1       7.413   8.072  -5.975  1.00  0.00     0.049 A 
ATOM     27  C   UNL     1       5.718   4.038  -9.681  1.00  0.00     0.074 A 
ATOM     28  C   UNL     1       8.019   9.177  -6.536  1.00  0.00     0.029 A 
ATOM     29  N   UNL     1       7.103   7.202  -7.016  1.00  0.00    -0.354 N 
ATOM     30  N   UNL     1       6.180   5.011  -8.926  1.00  0.00    -0.248 NA
ATOM     31  C   UNL     1       5.920   4.243 -11.118  1.00  0.00     0.031 C 
ATOM     32  C   UNL     1       8.046   8.986  -7.922  1.00  0.00     0.029 A 
ATOM     33  C   UNL     1       7.491   7.746  -8.221  1.00  0.00     0.049 A 
ATOM     34  H   UNL     1       6.669   6.325  -6.907  1.00  0.00     0.167 HD
ATOM     35  C   UNL     1       6.744   5.937  -9.791  1.00  0.00     0.074 A 
ATOM     36  C   UNL     1       6.577   5.397 -11.130  1.00  0.00     0.031 C 
ATOM     37  C   UNL     1       7.335   7.127  -9.517  1.00  0.00     0.034 A 
BRANCH  24  38
ATOM     38  C   UNL     1       7.446   8.805  -3.527  1.00  0.00     0.023 A 
ATOM     39  C   UNL     1       8.461   8.530  -2.588  1.00  0.00     0.012 A 
ATOM     40  C   UNL     1       6.683   9.981  -3.395  1.00  0.00     0.148 A 
ATOM     41  C   UNL     1       8.681   9.389  -1.510  1.00  0.00     0.002 A 
ATOM     42  C   UNL     1       6.933  10.851  -2.340  1.00  0.00     0.091 A 
ATOM     43  F   UNL     1       5.691  10.201  -4.269  1.00  0.00    -0.205 F 
ATOM     44  C   UNL     1       7.921  10.550  -1.389  1.00  0.00     0.022 A 
BRANCH  42  45
ATOM     45  S   UNL     1       6.029  12.388  -2.131  1.00  0.00     0.127 S 
ATOM     46  O   UNL     1       5.137  12.059  -1.021  1.00  0.00    -0.237 OA
ATOM     47  O   UNL     1       7.098  13.331  -1.796  1.00  0.00    -0.237 OA
ATOM     48  O   UNL     1       5.379  12.645  -3.409  1.00  0.00    -0.744 OA
ENDBRANCH  42  45
ENDBRANCH  24  38
BRANCH  25  49
ATOM     49  C   UNL     1       4.539   1.742 -10.215  1.00  0.00     0.023 A 
ATOM     50  C   UNL     1       5.449   0.951 -10.937  1.00  0.00     0.012 A 
ATOM     51  C   UNL     1       3.156   1.485 -10.342  1.00  0.00     0.148 A 
ATOM     52  C   UNL     1       4.992  -0.074 -11.771  1.00  0.00     0.002 A 
ATOM     53  C   UNL     1       2.712   0.428 -11.127  1.00  0.00     0.091 A 
ATOM     54  F   UNL     1       2.301   2.262  -9.661  1.00  0.00    -0.205 F 
ATOM     55  C   UNL     1       3.628  -0.345 -11.853  1.00  0.00     0.022 A 
BRANCH  53  56
ATOM     56  S   UNL     1       0.987  -0.078 -11.177  1.00  0.00     0.127 S 
ATOM     57  O   UNL     1       0.604   0.302 -12.534  1.00  0.00    -0.237 OA
ATOM     58  O   UNL     1       1.088  -1.519 -10.946  1.00  0.00    -0.237 OA
ATOM     59  O   UNL     1       0.329   0.657 -10.105  1.00  0.00    -0.744 OA
ENDBRANCH  53  56
ENDBRANCH  25  49
BRANCH  37  60
ATOM     60  C   UNL     1       7.879   7.906 -10.677  1.00  0.00     0.023 A 
ATOM     61  C   UNL     1       7.004   8.653 -11.487  1.00  0.00     0.012 A 
ATOM     62  C   UNL     1       9.270   8.016 -10.853  1.00  0.00     0.148 A 
ATOM     63  C   UNL     1       7.513   9.501 -12.466  1.00  0.00     0.002 A 
ATOM     64  C   UNL     1       9.770   8.901 -11.795  1.00  0.00     0.091 A 
ATOM     65  F   UNL     1      10.073   7.276 -10.074  1.00  0.00    -0.205 F 
ATOM     66  C   UNL     1       8.893   9.639 -12.608  1.00  0.00     0.022 A 
BRANCH  64  67
ATOM     67  S   UNL     1      11.526   9.230 -11.961  1.00  0.00     0.127 S 
ATOM     68  O   UNL     1      11.822   8.615 -13.254  1.00  0.00    -0.237 OA
ATOM     69  O   UNL     1      11.569  10.692 -11.955  1.00  0.00    -0.237 OA
ATOM     70  O   UNL     1      12.165   8.601 -10.812  1.00  0.00    -0.744 OA
ENDBRANCH  64  67
ENDBRANCH  37  60
ENDBRANCH  11  12
ENDBRANCH   4   6
ENDBRANCH   3   4
ENDBRANCH   2   3
ENDBRANCH   1   2
BRANCH   1  71
ATOM     71  O   UNL     1       4.215  -1.028  -0.991  1.00  0.00    -0.374 OA
BRANCH  71  72
ATOM     72  C   UNL     1       2.886  -1.530  -1.155  1.00  0.00     0.202 C 
BRANCH  72  73
ATOM     73  C   UNL     1       2.903  -2.961  -1.686  1.00  0.00     0.261 C 
BRANCH  73  74
ATOM     74  O   UNL     1       3.216  -3.872  -0.619  1.00  0.00    -0.462 OA
BRANCH  74  75
ATOM     75  C   UNL     1       4.537  -4.154  -0.430  1.00  0.00     0.328 C 
ATOM     76  O   UNL     1       5.465  -3.676  -1.064  1.00  0.00    -0.250 OA
BRANCH  75  77
ATOM     77  C   UNL     1       4.753  -4.975   0.860  1.00  0.00     0.195 C 
ATOM     78  C   UNL     1       4.839  -3.921   1.994  1.00  0.00     0.037 C 
ATOM     79  N   UNL     1       3.707  -5.935   1.234  1.00  0.00    -0.320 N 
ATOM     80  C   UNL     1       4.820  -4.457   3.419  1.00  0.00     0.008 C 
ATOM     81  C   UNL     1       3.878  -6.612   2.534  1.00  0.00     0.089 C 
ATOM     82  C   UNL     1       4.986  -5.958   3.398  1.00  0.00     0.012 C 
ATOM     83  C   UNL     1       4.247  -8.098   2.383  1.00  0.00     0.025 C 
ATOM     84  C   UNL     1       4.999  -6.562   4.798  1.00  0.00     0.006 C 
ATOM     85  C   UNL     1       4.364  -8.779   3.747  1.00  0.00     0.002 C 
ATOM     86  C   UNL     1       5.313  -8.052   4.699  1.00  0.00     0.000 C 
BRANCH  79  87
ATOM     87  C   UNL     1       2.990  -6.551   0.209  1.00  0.00     0.272 C 
ATOM     88  O   UNL     1       3.495  -6.750  -0.895  1.00  0.00    -0.267 OA
BRANCH  87  89
ATOM     89  C   UNL     1       1.616  -6.892   0.477  1.00  0.00     0.123 A 
ATOM     90  C   UNL     1       0.724  -6.548   1.474  1.00  0.00     0.055 A 
ATOM     91  N   UNL     1       0.879  -7.630  -0.412  1.00  0.00    -0.273 N 
ATOM     92  C   UNL     1      -0.477  -7.196   1.135  1.00  0.00     0.135 A 
ATOM     93  N   UNL     1      -0.376  -7.886  -0.001  1.00  0.00    -0.183 NA
ATOM     94  H   UNL     1       1.235  -7.944  -1.274  1.00  0.00     0.190 HD
ENDBRANCH  87  89
ENDBRANCH  79  87
ENDBRANCH  75  77
ENDBRANCH  74  75
ENDBRANCH  73  74
ENDBRANCH  72  73
ENDBRANCH  71  72
ENDBRANCH   1  71
TORSDOF 19
