REMARK SMILES O=C(OCCOCCOC(=O)[C@@H]1CC=CC[C@@H]1C(=O)Nc1ccc(O)cc1)c1ccc(-c2c3nc(c(-c4cccc(S(=O)(=O)[O-])c4F)c4ccc([nH]4)c(-c4cccc(S(=O)(=O)[O-])c4F)c4nc(c(-c5cccc(S(=O)(=O)[O-])c5F)c5ccc2[nH]5)C=C4)C=C3)cc1
REMARK SMILES IDX 6 1 5 2 4 3 3 4 2 5 1 6 28 7 29 8 90 9 30 10 89 11 31 12
REMARK SMILES IDX 32 13 33 14 83 15 34 16 88 17 82 18 84 19 35 20 87 21 81 22
REMARK SMILES IDX 80 23 36 25 68 26 48 27 67 28 49 29 52 30 66 31 85 32 50 33
REMARK SMILES IDX 51 34 65 36 86 37 53 38 37 39 38 40 46 41 39 42 41 43 47 44
REMARK SMILES IDX 40 45 42 46 43 47 44 48 45 49 69 50 70 51 78 52 71 53 73 54
REMARK SMILES IDX 79 55 72 56 74 57 75 58 76 59 77 60 54 61 55 62 63 63 56 64
REMARK SMILES IDX 58 65 64 66 57 67 59 68 60 69 61 70 62 71 7 72 8 73 9 74
REMARK SMILES IDX 10 75 11 76 12 77 13 78 17 79 14 80 16 81 15 82 18 83 19 84
REMARK SMILES IDX 20 85 21 87 22 88 27 89 23 90 26 91 24 92 25 93
REMARK H PARENT 84 24 52 35 20 86 25 94
REMARK Flexibility Score: inf
ROOT
ATOM      1  O   UNL     1       7.371  -0.732  -2.031  1.00  0.00    -0.374 OA
ENDROOT
BRANCH   1   2
ATOM      2  C   UNL     1       6.220  -0.148  -1.419  1.00  0.00     0.202 C 
BRANCH   2   3
ATOM      3  C   UNL     1       6.422   0.819  -0.240  1.00  0.00     0.261 C 
BRANCH   3   4
ATOM      4  O   UNL     1       7.404   1.829  -0.512  1.00  0.00    -0.460 OA
BRANCH   4   5
ATOM      5  C   UNL     1       8.696   1.853  -0.095  1.00  0.00     0.338 C 
ATOM      6  O   UNL     1       9.311   2.914  -0.183  1.00  0.00    -0.246 OA
BRANCH   5   7
ATOM      7  C   UNL     1       9.440   0.628   0.351  1.00  0.00     0.060 A 
ATOM      8  C   UNL     1       8.923  -0.665   0.323  1.00  0.00     0.016 A 
ATOM      9  C   UNL     1      10.786   0.775   0.733  1.00  0.00     0.016 A 
ATOM     10  C   UNL     1       9.689  -1.776   0.575  1.00  0.00     0.010 A 
ATOM     11  C   UNL     1      11.569  -0.344   1.052  1.00  0.00     0.010 A 
ATOM     12  C   UNL     1      11.007  -1.619   0.965  1.00  0.00    -0.014 A 
BRANCH  12  13
ATOM     13  C   UNL     1      11.603  -2.844   1.501  1.00  0.00     0.031 A 
ATOM     14  C   UNL     1      11.414  -3.090   2.965  1.00  0.00     0.074 A 
ATOM     15  C   UNL     1      11.988  -3.807   0.647  1.00  0.00     0.049 A 
ATOM     16  N   UNL     1      11.681  -4.154   3.664  1.00  0.00    -0.248 NA
ATOM     17  C   UNL     1      10.779  -2.003   3.737  1.00  0.00     0.031 C 
ATOM     18  C   UNL     1      11.979  -3.691  -0.815  1.00  0.00     0.029 A 
ATOM     19  N   UNL     1      12.402  -5.087   0.879  1.00  0.00    -0.354 N 
ATOM     20  C   UNL     1      11.300  -3.848   4.962  1.00  0.00     0.074 A 
ATOM     21  C   UNL     1      10.740  -2.518   4.954  1.00  0.00     0.031 C 
ATOM     22  C   UNL     1      12.381  -4.856  -1.349  1.00  0.00     0.029 A 
ATOM     23  C   UNL     1      12.721  -5.774  -0.268  1.00  0.00     0.049 A 
ATOM     24  H   UNL     1      12.467  -5.480   1.779  1.00  0.00     0.167 HD
ATOM     25  C   UNL     1      11.437  -4.611   6.067  1.00  0.00     0.034 A 
ATOM     26  C   UNL     1      13.262  -6.998  -0.404  1.00  0.00     0.034 A 
ATOM     27  C   UNL     1      12.019  -5.920   6.032  1.00  0.00     0.049 A 
ATOM     28  C   UNL     1      13.513  -7.780   0.857  1.00  0.00     0.074 A 
ATOM     29  C   UNL     1      12.304  -6.769   7.081  1.00  0.00     0.029 A 
ATOM     30  N   UNL     1      12.430  -6.558   4.867  1.00  0.00    -0.354 N 
ATOM     31  N   UNL     1      13.191  -7.475   2.094  1.00  0.00    -0.248 NA
ATOM     32  C   UNL     1      14.184  -9.076   0.712  1.00  0.00     0.031 C 
ATOM     33  C   UNL     1      12.934  -7.901   6.553  1.00  0.00     0.029 A 
ATOM     34  C   UNL     1      12.985  -7.784   5.171  1.00  0.00     0.049 A 
ATOM     35  H   UNL     1      12.337  -6.189   3.959  1.00  0.00     0.167 HD
ATOM     36  C   UNL     1      13.585  -8.555   2.870  1.00  0.00     0.074 A 
ATOM     37  C   UNL     1      14.154  -9.530   1.957  1.00  0.00     0.031 C 
ATOM     38  C   UNL     1      13.497  -8.732   4.213  1.00  0.00     0.034 A 
BRANCH  25  39
ATOM     39  C   UNL     1      11.059  -3.983   7.378  1.00  0.00     0.023 A 
ATOM     40  C   UNL     1       9.709  -3.764   7.716  1.00  0.00     0.012 A 
ATOM     41  C   UNL     1      12.072  -3.550   8.256  1.00  0.00     0.148 A 
ATOM     42  C   UNL     1       9.375  -3.084   8.889  1.00  0.00     0.002 A 
ATOM     43  C   UNL     1      11.731  -2.917   9.443  1.00  0.00     0.091 A 
ATOM     44  F   UNL     1      13.350  -3.733   7.894  1.00  0.00    -0.205 F 
ATOM     45  C   UNL     1      10.385  -2.667   9.754  1.00  0.00     0.022 A 
BRANCH  43  46
ATOM     46  S   UNL     1      12.958  -2.395  10.644  1.00  0.00     0.127 S 
ATOM     47  O   UNL     1      12.820  -0.940  10.595  1.00  0.00    -0.237 OA
ATOM     48  O   UNL     1      12.460  -3.014  11.873  1.00  0.00    -0.237 OA
ATOM     49  O   UNL     1      14.234  -2.913  10.172  1.00  0.00    -0.744 OA
ENDBRANCH  43  46
ENDBRANCH  25  39
BRANCH  26  50
ATOM     50  C   UNL     1      13.626  -7.531  -1.749  1.00  0.00     0.023 A 
ATOM     51  C   UNL     1      13.002  -8.691  -2.244  1.00  0.00     0.012 A 
ATOM     52  C   UNL     1      14.607  -6.895  -2.538  1.00  0.00     0.148 A 
ATOM     53  C   UNL     1      13.373  -9.228  -3.479  1.00  0.00     0.002 A 
ATOM     54  C   UNL     1      14.934  -7.403  -3.789  1.00  0.00     0.091 A 
ATOM     55  F   UNL     1      15.207  -5.801  -2.046  1.00  0.00    -0.205 F 
ATOM     56  C   UNL     1      14.333  -8.582  -4.254  1.00  0.00     0.022 A 
BRANCH  54  57
ATOM     57  S   UNL     1      16.082  -6.576  -4.897  1.00  0.00     0.127 S 
ATOM     58  O   UNL     1      17.213  -7.500  -4.900  1.00  0.00    -0.237 OA
ATOM     59  O   UNL     1      15.318  -6.532  -6.144  1.00  0.00    -0.237 OA
ATOM     60  O   UNL     1      16.335  -5.271  -4.302  1.00  0.00    -0.744 OA
ENDBRANCH  54  57
ENDBRANCH  26  50
BRANCH  38  61
ATOM     61  C   UNL     1      13.970 -10.049   4.760  1.00  0.00     0.023 A 
ATOM     62  C   UNL     1      15.345 -10.346   4.808  1.00  0.00     0.012 A 
ATOM     63  C   UNL     1      13.040 -10.953   5.307  1.00  0.00     0.148 A 
ATOM     64  C   UNL     1      15.785 -11.546   5.361  1.00  0.00     0.002 A 
ATOM     65  C   UNL     1      13.490 -12.115   5.913  1.00  0.00     0.091 A 
ATOM     66  F   UNL     1      11.735 -10.653   5.230  1.00  0.00    -0.205 F 
ATOM     67  C   UNL     1      14.860 -12.422   5.927  1.00  0.00     0.022 A 
BRANCH  65  68
ATOM     68  S   UNL     1      12.379 -13.232   6.773  1.00  0.00     0.127 S 
ATOM     69  O   UNL     1      12.324 -14.364   5.850  1.00  0.00    -0.237 OA
ATOM     70  O   UNL     1      13.104 -13.491   8.017  1.00  0.00    -0.237 OA
ATOM     71  O   UNL     1      11.130 -12.502   6.944  1.00  0.00    -0.744 OA
ENDBRANCH  65  68
ENDBRANCH  38  61
ENDBRANCH  12  13
ENDBRANCH   5   7
ENDBRANCH   4   5
ENDBRANCH   3   4
ENDBRANCH   2   3
ENDBRANCH   1   2
BRANCH   1  72
ATOM     72  C   UNL     1       8.199   0.120  -2.831  1.00  0.00     0.202 C 
BRANCH  72  73
ATOM     73  C   UNL     1       8.282  -0.410  -4.256  1.00  0.00     0.261 C 
BRANCH  73  74
ATOM     74  O   UNL     1       7.008  -0.123  -4.842  1.00  0.00    -0.463 OA
BRANCH  74  75
ATOM     75  C   UNL     1       6.067  -1.091  -4.752  1.00  0.00     0.310 C 
ATOM     76  O   UNL     1       6.295  -2.271  -4.576  1.00  0.00    -0.252 OA
BRANCH  75  77
ATOM     77  C   UNL     1       4.693  -0.429  -4.690  1.00  0.00     0.116 C 
ATOM     78  C   UNL     1       3.669  -1.530  -4.394  1.00  0.00     0.043 C 
ATOM     79  C   UNL     1       4.375   0.601  -5.789  1.00  0.00     0.097 C 
ATOM     80  C   UNL     1       2.260  -1.196  -4.722  1.00  0.00    -0.030 C 
ATOM     81  C   UNL     1       2.871   0.855  -6.021  1.00  0.00     0.041 C 
ATOM     82  C   UNL     1       1.907  -0.139  -5.456  1.00  0.00    -0.030 C 
BRANCH  79  83
ATOM     83  C   UNL     1       5.109   0.357  -7.093  1.00  0.00     0.228 C 
ATOM     84  O   UNL     1       4.667  -0.483  -7.886  1.00  0.00    -0.274 OA
ATOM     85  N   UNL     1       6.262   0.992  -7.461  1.00  0.00    -0.326 N 
ATOM     86  H   UNL     1       6.532   0.730  -8.371  1.00  0.00     0.169 HD
BRANCH  85  87
ATOM     87  C   UNL     1       7.181   1.919  -6.907  1.00  0.00     0.041 A 
ATOM     88  C   UNL     1       7.076   2.604  -5.692  1.00  0.00     0.030 A 
ATOM     89  C   UNL     1       8.370   2.093  -7.641  1.00  0.00     0.030 A 
ATOM     90  C   UNL     1       8.147   3.358  -5.183  1.00  0.00     0.048 A 
ATOM     91  C   UNL     1       9.433   2.858  -7.147  1.00  0.00     0.048 A 
ATOM     92  C   UNL     1       9.324   3.463  -5.906  1.00  0.00     0.115 A 
BRANCH  92  93
ATOM     93  O   UNL     1      10.402   4.138  -5.420  1.00  0.00    -0.508 OA
ATOM     94  H   UNL     1      10.354   4.556  -4.583  1.00  0.00     0.293 HD
ENDBRANCH  92  93
ENDBRANCH  85  87
ENDBRANCH  79  83
ENDBRANCH  75  77
ENDBRANCH  74  75
ENDBRANCH  73  74
ENDBRANCH  72  73
ENDBRANCH   1  72
TORSDOF 20
