REMARK SMILES C[C@@H]1[C@@H](C(=O)OCCOCCOC(=O)c2ccc(-c3c4nc(c(-c5cccc(S(=O)(=O)[O-])c5F)c5ccc([nH]5)c(-c5cccc(S(=O)(=O)[O-])c5F)c5nc(c(-c6cccc(S(=O)(=O)[O-])c6F)c6ccc3[nH]6)C=C5)C=C4)cc2)CC[N@@H+]1Cc1c(F)cccc1Cl
REMARK SMILES IDX 10 1 9 2 8 3 7 4 6 5 4 6 5 7 3 8 1 9 2 10 80 11 78 12 79 13
REMARK SMILES IDX 81 15 82 16 83 17 88 18 84 19 85 20 87 21 89 22 86 23 11 24
REMARK SMILES IDX 12 25 13 26 14 27 15 28 16 29 77 30 17 31 76 32 18 33 19 34
REMARK SMILES IDX 20 35 70 36 21 37 75 38 69 39 71 40 22 41 74 42 68 43 67 44
REMARK SMILES IDX 23 46 55 47 35 48 54 49 36 50 39 51 53 52 72 53 37 54 38 55
REMARK SMILES IDX 52 57 73 58 40 59 24 60 25 61 33 62 26 63 28 64 34 65 27 66
REMARK SMILES IDX 29 67 30 68 31 69 32 70 56 71 57 72 65 73 58 74 60 75 66 76
REMARK SMILES IDX 59 77 61 78 62 79 63 80 64 81 41 82 42 83 50 84 43 85 45 86
REMARK SMILES IDX 51 87 44 88 46 89 47 90 48 91 49 92
REMARK H PARENT 80 14 71 45 39 56
REMARK Flexibility Score: inf
ROOT
ATOM      1  C   UNL     1       0.691   3.022  -3.505  1.00  0.00     0.202 C 
ENDROOT
BRANCH   1   2
ATOM      2  O   UNL     1       0.004   2.574  -4.674  1.00  0.00    -0.374 OA
BRANCH   2   3
ATOM      3  C   UNL     1      -1.422   2.532  -4.633  1.00  0.00     0.202 C 
BRANCH   3   4
ATOM      4  C   UNL     1      -2.067   1.339  -3.926  1.00  0.00     0.261 C 
BRANCH   4   5
ATOM      5  O   UNL     1      -1.733   1.305  -2.534  1.00  0.00    -0.463 OA
BRANCH   5   6
ATOM      6  C   UNL     1      -0.771   0.402  -2.189  1.00  0.00     0.315 C 
ATOM      7  O   UNL     1      -0.210  -0.352  -2.971  1.00  0.00    -0.252 OA
BRANCH   6   8
ATOM      8  C   UNL     1      -0.426   0.562  -0.718  1.00  0.00     0.162 C 
ATOM      9  C   UNL     1       1.734   0.149   0.497  1.00  0.00     0.076 C 
ATOM     10  C   UNL     1       0.588  -0.512  -0.266  1.00  0.00     0.195 C 
ATOM     11  N   UNL     1      -0.246  -1.454   0.469  1.00  0.00    -0.328 N 
ATOM     12  C   UNL     1      -1.653   0.306   0.151  1.00  0.00     0.083 C 
ATOM     13  C   UNL     1      -1.652  -1.204   0.239  1.00  0.00     0.263 C 
ATOM     14  H   UNL     1       0.264  -2.324   0.318  1.00  0.00     0.348 HD
BRANCH  11  15
ATOM     15  C   UNL     1       0.191  -2.400   1.467  1.00  0.00     0.303 C 
BRANCH  15  16
ATOM     16  C   UNL     1       0.519  -1.798   2.816  1.00  0.00     0.061 A 
ATOM     17  C   UNL     1       1.865  -1.693   3.195  1.00  0.00     0.133 A 
ATOM     18  C   UNL     1      -0.432  -1.306   3.723  1.00  0.00     0.052 A 
ATOM     19  F   UNL     1       2.824  -2.224   2.420  1.00  0.00    -0.206 F 
ATOM     20  C   UNL     1       2.265  -1.036   4.357  1.00  0.00     0.040 A 
ATOM     21  C   UNL     1      -0.037  -0.624   4.883  1.00  0.00     0.021 A 
ATOM     22  Cl  UNL     1      -2.128  -1.573   3.560  1.00  0.00    -0.084 Cl
ATOM     23  C   UNL     1       1.310  -0.474   5.193  1.00  0.00     0.005 A 
ENDBRANCH  15  16
ENDBRANCH  11  15
ENDBRANCH   6   8
ENDBRANCH   5   6
ENDBRANCH   4   5
ENDBRANCH   3   4
ENDBRANCH   2   3
ENDBRANCH   1   2
BRANCH   1  24
ATOM     24  C   UNL     1       0.681   4.527  -3.213  1.00  0.00     0.261 C 
BRANCH  24  25
ATOM     25  O   UNL     1      -0.631   5.007  -2.873  1.00  0.00    -0.460 OA
BRANCH  25  26
ATOM     26  C   UNL     1      -1.202   5.799  -3.808  1.00  0.00     0.338 C 
ATOM     27  O   UNL     1      -0.692   6.191  -4.853  1.00  0.00    -0.246 OA
BRANCH  26  28
ATOM     28  C   UNL     1      -2.631   5.994  -3.510  1.00  0.00     0.060 A 
ATOM     29  C   UNL     1      -3.550   5.666  -4.516  1.00  0.00     0.016 A 
ATOM     30  C   UNL     1      -3.061   6.565  -2.311  1.00  0.00     0.016 A 
ATOM     31  C   UNL     1      -4.899   5.964  -4.352  1.00  0.00     0.010 A 
ATOM     32  C   UNL     1      -4.415   6.874  -2.153  1.00  0.00     0.010 A 
ATOM     33  C   UNL     1      -5.330   6.614  -3.190  1.00  0.00    -0.014 A 
BRANCH  33  34
ATOM     34  C   UNL     1      -6.704   7.167  -3.138  1.00  0.00     0.031 A 
ATOM     35  C   UNL     1      -6.908   8.630  -3.424  1.00  0.00     0.074 A 
ATOM     36  C   UNL     1      -7.753   6.375  -2.857  1.00  0.00     0.049 A 
ATOM     37  N   UNL     1      -8.015   9.326  -3.427  1.00  0.00    -0.248 NA
ATOM     38  C   UNL     1      -5.704   9.414  -3.749  1.00  0.00     0.031 C 
ATOM     39  C   UNL     1      -7.678   4.944  -2.571  1.00  0.00     0.029 A 
ATOM     40  N   UNL     1      -9.088   6.673  -2.747  1.00  0.00    -0.354 N 
ATOM     41  C   UNL     1      -7.641  10.630  -3.726  1.00  0.00     0.074 A 
ATOM     42  C   UNL     1      -6.203  10.634  -3.886  1.00  0.00     0.031 C 
ATOM     43  C   UNL     1      -8.912   4.492  -2.288  1.00  0.00     0.029 A 
ATOM     44  C   UNL     1      -9.858   5.604  -2.355  1.00  0.00     0.049 A 
ATOM     45  H   UNL     1      -9.459   7.566  -2.931  1.00  0.00     0.167 HD
ATOM     46  C   UNL     1      -8.425  11.724  -3.872  1.00  0.00     0.034 A 
ATOM     47  C   UNL     1     -11.172   5.539  -2.064  1.00  0.00     0.034 A 
ATOM     48  C   UNL     1      -9.856  11.713  -3.735  1.00  0.00     0.049 A 
ATOM     49  C   UNL     1     -12.020   6.775  -2.215  1.00  0.00     0.074 A 
ATOM     50  C   UNL     1     -10.745  12.758  -3.909  1.00  0.00     0.029 A 
ATOM     51  N   UNL     1     -10.606  10.603  -3.378  1.00  0.00    -0.354 N 
ATOM     52  N   UNL     1     -11.670   7.973  -2.617  1.00  0.00    -0.248 NA
ATOM     53  C   UNL     1     -13.451   6.643  -1.905  1.00  0.00     0.031 C 
ATOM     54  C   UNL     1     -12.033  12.285  -3.635  1.00  0.00     0.029 A 
ATOM     55  C   UNL     1     -11.947  10.939  -3.316  1.00  0.00     0.049 A 
ATOM     56  H   UNL     1     -10.239   9.707  -3.197  1.00  0.00     0.167 HD
ATOM     57  C   UNL     1     -12.839   8.726  -2.643  1.00  0.00     0.074 A 
ATOM     58  C   UNL     1     -13.912   7.842  -2.235  1.00  0.00     0.031 C 
ATOM     59  C   UNL     1     -13.010  10.033  -2.962  1.00  0.00     0.034 A 
BRANCH  46  60
ATOM     60  C   UNL     1      -7.752  13.024  -4.225  1.00  0.00     0.023 A 
ATOM     61  C   UNL     1      -7.255  13.219  -5.530  1.00  0.00     0.012 A 
ATOM     62  C   UNL     1      -7.661  14.070  -3.287  1.00  0.00     0.148 A 
ATOM     63  C   UNL     1      -6.651  14.424  -5.886  1.00  0.00     0.002 A 
ATOM     64  C   UNL     1      -7.095  15.283  -3.662  1.00  0.00     0.091 A 
ATOM     65  F   UNL     1      -8.117  13.856  -2.044  1.00  0.00    -0.205 F 
ATOM     66  C   UNL     1      -6.581  15.458  -4.957  1.00  0.00     0.022 A 
BRANCH  64  67
ATOM     67  S   UNL     1      -7.025  16.699  -2.559  1.00  0.00     0.127 S 
ATOM     68  O   UNL     1      -5.598  16.759  -2.247  1.00  0.00    -0.237 OA
ATOM     69  O   UNL     1      -7.508  17.782  -3.417  1.00  0.00    -0.237 OA
ATOM     70  O   UNL     1      -7.898  16.378  -1.438  1.00  0.00    -0.744 OA
ENDBRANCH  64  67
ENDBRANCH  46  60
BRANCH  47  71
ATOM     71  C   UNL     1     -11.776   4.245  -1.637  1.00  0.00     0.023 A 
ATOM     72  C   UNL     1     -12.672   3.578  -2.494  1.00  0.00     0.012 A 
ATOM     73  C   UNL     1     -11.453   3.666  -0.395  1.00  0.00     0.148 A 
ATOM     74  C   UNL     1     -13.257   2.371  -2.110  1.00  0.00     0.002 A 
ATOM     75  C   UNL     1     -11.996   2.436  -0.042  1.00  0.00     0.091 A 
ATOM     76  F   UNL     1     -10.613   4.326   0.416  1.00  0.00    -0.205 F 
ATOM     77  C   UNL     1     -12.912   1.795  -0.890  1.00  0.00     0.022 A 
BRANCH  75  78
ATOM     78  S   UNL     1     -11.508   1.563   1.450  1.00  0.00     0.127 S 
ATOM     79  O   UNL     1     -12.700   1.703   2.283  1.00  0.00    -0.237 OA
ATOM     80  O   UNL     1     -11.265   0.211   0.944  1.00  0.00    -0.237 OA
ATOM     81  O   UNL     1     -10.315   2.245   1.931  1.00  0.00    -0.744 OA
ENDBRANCH  75  78
ENDBRANCH  47  71
BRANCH  59  82
ATOM     82  C   UNL     1     -14.410  10.588  -2.920  1.00  0.00     0.023 A 
ATOM     83  C   UNL     1     -15.033  10.823  -1.678  1.00  0.00     0.012 A 
ATOM     84  C   UNL     1     -15.076  10.950  -4.107  1.00  0.00     0.148 A 
ATOM     85  C   UNL     1     -16.309  11.382  -1.620  1.00  0.00     0.002 A 
ATOM     86  C   UNL     1     -16.328  11.551  -4.040  1.00  0.00     0.091 A 
ATOM     87  F   UNL     1     -14.475  10.702  -5.280  1.00  0.00    -0.205 F 
ATOM     88  C   UNL     1     -16.951  11.756  -2.798  1.00  0.00     0.022 A 
BRANCH  86  89
ATOM     89  S   UNL     1     -17.186  12.152  -5.500  1.00  0.00     0.127 S 
ATOM     90  O   UNL     1     -18.240  11.153  -5.659  1.00  0.00    -0.237 OA
ATOM     91  O   UNL     1     -17.654  13.469  -5.065  1.00  0.00    -0.237 OA
ATOM     92  O   UNL     1     -16.189  12.188  -6.562  1.00  0.00    -0.744 OA
ENDBRANCH  86  89
ENDBRANCH  59  82
ENDBRANCH  33  34
ENDBRANCH  26  28
ENDBRANCH  25  26
ENDBRANCH  24  25
ENDBRANCH   1  24
TORSDOF 19
