REMARK SMILES C[C@]12CC[C@@H]3[C@@H](CCC4=C/C(=N\OCC(=O)N5CCC[C@@H]5C(=O)OCCOCCOC(=O)c5ccc(-c6c7nc(c(-c8cccc(S(=O)(=O)[O-])c8F)c8ccc([nH]8)c(-c8cccc(S(=O)(=O)[O-])c8F)c8nc(c(-c9cccc(S(=O)(=O)[O-])c9F)c9ccc6[nH]9)C=C8)C=C7)cc5)CC[C@@]43C)[C@H]1CC[C@@H]2O
REMARK SMILES IDX 26 1 25 2 24 3 22 4 23 5 21 6 17 7 18 8 19 9 20 10 15 11
REMARK SMILES IDX 16 12 14 13 13 14 12 15 1 16 2 17 3 18 100 19 103 20 4 21
REMARK SMILES IDX 6 22 101 23 102 24 5 25 7 26 98 27 8 28 9 29 97 30 99 31
REMARK SMILES IDX 10 32 96 33 11 34 104 35 27 37 28 38 29 39 30 40 31 41 32 42
REMARK SMILES IDX 33 43 34 44 95 45 35 46 94 47 36 48 37 49 38 50 88 51 39 52
REMARK SMILES IDX 93 53 87 54 89 55 40 56 92 57 86 58 85 59 41 61 73 62 53 63
REMARK SMILES IDX 72 64 54 65 57 66 71 67 90 68 55 69 56 70 70 72 91 73 58 74
REMARK SMILES IDX 42 75 43 76 51 77 44 78 46 79 52 80 45 81 47 82 48 83 49 84
REMARK SMILES IDX 50 85 74 86 75 87 83 88 76 89 78 90 84 91 77 92 79 93 80 94
REMARK SMILES IDX 81 95 82 96 59 97 60 98 68 99 61 100 63 101 69 102 62 103
REMARK SMILES IDX 64 104 65 105 66 106 67 107
REMARK H PARENT 104 36 89 60 57 71
REMARK Flexibility Score: inf
ROOT
ATOM      1  C   UNL     1       1.529  -8.338   3.952  1.00  0.00     0.202 C 
ENDROOT
BRANCH   1   2
ATOM      2  C   UNL     1       0.187  -8.288   3.204  1.00  0.00     0.261 C 
BRANCH   2   3
ATOM      3  O   UNL     1      -0.552  -9.484   3.007  1.00  0.00    -0.462 OA
BRANCH   3   4
ATOM      4  C   UNL     1      -0.476  -9.974   1.742  1.00  0.00     0.328 C 
ATOM      5  O   UNL     1       0.391  -9.683   0.922  1.00  0.00    -0.250 OA
BRANCH   4   6
ATOM      6  C   UNL     1      -1.529 -11.047   1.470  1.00  0.00     0.195 C 
ATOM      7  N   UNL     1      -2.715 -11.076   2.331  1.00  0.00    -0.326 N 
ATOM      8  C   UNL     1      -2.797 -12.309   3.091  1.00  0.00     0.120 C 
ATOM      9  C   UNL     1      -1.398 -12.883   3.050  1.00  0.00     0.024 C 
ATOM     10  C   UNL     1      -0.865 -12.416   1.697  1.00  0.00     0.039 C 
BRANCH   7  11
ATOM     11  C   UNL     1      -3.789 -10.207   2.320  1.00  0.00     0.264 C 
ATOM     12  O   UNL     1      -4.767 -10.428   3.043  1.00  0.00    -0.271 OA
BRANCH  11  13
ATOM     13  C   UNL     1      -3.845  -9.071   1.279  1.00  0.00     0.363 C 
BRANCH  13  14
ATOM     14  O   UNL     1      -2.709  -8.253   1.041  1.00  0.00    -0.385 OA
BRANCH  14  15
ATOM     15  N   UNL     1      -2.731  -7.174   1.937  1.00  0.00    -0.091 NA
ATOM     16  C   UNL     1       0.605   0.908   0.367  1.00  0.00     0.014 C 
ATOM     17  C   UNL     1       0.343  -0.621   0.337  1.00  0.00    -0.003 C 
ATOM     18  C   UNL     1       0.387  -1.067   1.805  1.00  0.00     0.010 C 
ATOM     19  C   UNL     1       1.326  -1.313  -0.646  1.00  0.00     0.001 C 
ATOM     20  C   UNL     1      -0.984  -0.990  -0.359  1.00  0.00     0.120 C 
ATOM     21  C   UNL     1       1.466  -2.088   2.096  1.00  0.00     0.005 C 
ATOM     22  C   UNL     1       1.677  -2.807  -0.325  1.00  0.00    -0.003 C 
ATOM     23  C   UNL     1       0.733  -0.992  -2.041  1.00  0.00     0.007 C 
ATOM     24  C   UNL     1      -0.736  -0.626  -1.814  1.00  0.00     0.032 C 
ATOM     25  C   UNL     1       1.446  -3.270   1.125  1.00  0.00     0.002 C 
ATOM     26  C   UNL     1       1.538  -3.942  -1.345  1.00  0.00     0.008 C 
ATOM     27  C   UNL     1       0.363  -4.374   1.458  1.00  0.00    -0.008 C 
ATOM     28  C   UNL     1       0.506  -5.036  -1.098  1.00  0.00     0.032 C 
ATOM     29  C   UNL     1      -0.096  -5.215   0.268  1.00  0.00    -0.062 C 
ATOM     30  C   UNL     1      -0.952  -3.891   2.135  1.00  0.00     0.018 C 
ATOM     31  C   UNL     1       1.109  -5.258   2.495  1.00  0.00     0.016 C 
ATOM     32  C   UNL     1      -1.131  -6.083   0.360  1.00  0.00     0.027 C 
ATOM     33  C   UNL     1      -1.921  -5.008   2.548  1.00  0.00     0.061 C 
ATOM     34  C   UNL     1      -1.957  -6.188   1.595  1.00  0.00     0.080 C 
BRANCH  20  35
ATOM     35  O   UNL     1      -2.102  -0.319   0.171  1.00  0.00    -0.393 OA
ATOM     36  H   UNL     1      -1.973   0.639   0.090  1.00  0.00     0.210 HD
ENDBRANCH  20  35
ENDBRANCH  14  15
ENDBRANCH  13  14
ENDBRANCH  11  13
ENDBRANCH   7  11
ENDBRANCH   4   6
ENDBRANCH   3   4
ENDBRANCH   2   3
ENDBRANCH   1   2
BRANCH   1  37
ATOM     37  O   UNL     1       2.237  -9.550   4.120  1.00  0.00    -0.374 OA
BRANCH  37  38
ATOM     38  C   UNL     1       1.533 -10.676   4.605  1.00  0.00     0.202 C 
BRANCH  38  39
ATOM     39  C   UNL     1       0.814 -10.610   5.960  1.00  0.00     0.261 C 
BRANCH  39  40
ATOM     40  O   UNL     1      -0.000  -9.452   6.197  1.00  0.00    -0.460 OA
BRANCH  40  41
ATOM     41  C   UNL     1       0.544  -8.559   7.064  1.00  0.00     0.338 C 
ATOM     42  O   UNL     1       1.664  -8.595   7.542  1.00  0.00    -0.246 OA
BRANCH  41  43
ATOM     43  C   UNL     1      -0.377  -7.434   7.314  1.00  0.00     0.060 A 
ATOM     44  C   UNL     1       0.100  -6.130   7.127  1.00  0.00     0.016 A 
ATOM     45  C   UNL     1      -1.623  -7.658   7.900  1.00  0.00     0.016 A 
ATOM     46  C   UNL     1      -0.643  -5.042   7.591  1.00  0.00     0.010 A 
ATOM     47  C   UNL     1      -2.363  -6.568   8.368  1.00  0.00     0.010 A 
ATOM     48  C   UNL     1      -1.854  -5.261   8.261  1.00  0.00    -0.014 A 
BRANCH  48  49
ATOM     49  C   UNL     1      -2.511  -4.159   9.009  1.00  0.00     0.031 A 
ATOM     50  C   UNL     1      -2.339  -4.094  10.505  1.00  0.00     0.074 A 
ATOM     51  C   UNL     1      -3.280  -3.255   8.377  1.00  0.00     0.049 A 
ATOM     52  N   UNL     1      -2.903  -3.296  11.372  1.00  0.00    -0.248 NA
ATOM     53  C   UNL     1      -1.410  -5.069  11.102  1.00  0.00     0.031 C 
ATOM     54  C   UNL     1      -3.517  -3.206   6.936  1.00  0.00     0.029 A 
ATOM     55  N   UNL     1      -4.035  -2.224   8.880  1.00  0.00    -0.354 N 
ATOM     56  C   UNL     1      -2.431  -3.693  12.618  1.00  0.00     0.074 A 
ATOM     57  C   UNL     1      -1.536  -4.808  12.396  1.00  0.00     0.031 C 
ATOM     58  C   UNL     1      -4.391  -2.220   6.672  1.00  0.00     0.029 A 
ATOM     59  C   UNL     1      -4.797  -1.589   7.927  1.00  0.00     0.049 A 
ATOM     60  H   UNL     1      -4.030  -1.964   9.829  1.00  0.00     0.167 HD
ATOM     61  C   UNL     1      -2.707  -3.171  13.837  1.00  0.00     0.034 A 
ATOM     62  C   UNL     1      -5.737  -0.631   8.059  1.00  0.00     0.034 A 
ATOM     63  C   UNL     1      -3.578  -2.048  14.054  1.00  0.00     0.049 A 
ATOM     64  C   UNL     1      -6.042  -0.080   9.430  1.00  0.00     0.074 A 
ATOM     65  C   UNL     1      -3.890  -1.418  15.245  1.00  0.00     0.029 A 
ATOM     66  N   UNL     1      -4.282  -1.391  13.057  1.00  0.00    -0.354 N 
ATOM     67  N   UNL     1      -5.508  -0.395  10.586  1.00  0.00    -0.248 NA
ATOM     68  C   UNL     1      -7.056   0.983   9.510  1.00  0.00     0.031 C 
ATOM     69  C   UNL     1      -4.800  -0.392  14.971  1.00  0.00     0.029 A 
ATOM     70  C   UNL     1      -5.031  -0.365  13.605  1.00  0.00     0.049 A 
ATOM     71  H   UNL     1      -4.253  -1.620  12.100  1.00  0.00     0.167 HD
ATOM     72  C   UNL     1      -6.087   0.459  11.520  1.00  0.00     0.074 A 
ATOM     73  C   UNL     1      -7.005   1.312  10.794  1.00  0.00     0.031 C 
ATOM     74  C   UNL     1      -5.886   0.523  12.860  1.00  0.00     0.034 A 
BRANCH  61  75
ATOM     75  C   UNL     1      -2.037  -3.793  15.035  1.00  0.00     0.023 A 
ATOM     76  C   UNL     1      -0.662  -3.576  15.255  1.00  0.00     0.012 A 
ATOM     77  C   UNL     1      -2.777  -4.541  15.973  1.00  0.00     0.148 A 
ATOM     78  C   UNL     1      -0.026  -4.120  16.371  1.00  0.00     0.002 A 
ATOM     79  C   UNL     1      -2.145  -5.044  17.105  1.00  0.00     0.091 A 
ATOM     80  F   UNL     1      -4.079  -4.755  15.736  1.00  0.00    -0.205 F 
ATOM     81  C   UNL     1      -0.769  -4.843  17.300  1.00  0.00     0.022 A 
BRANCH  79  82
ATOM     82  S   UNL     1      -3.030  -5.923  18.398  1.00  0.00     0.127 S 
ATOM     83  O   UNL     1      -2.551  -7.291  18.206  1.00  0.00    -0.237 OA
ATOM     84  O   UNL     1      -2.535  -5.269  19.610  1.00  0.00    -0.237 OA
ATOM     85  O   UNL     1      -4.446  -5.713  18.131  1.00  0.00    -0.744 OA
ENDBRANCH  79  82
ENDBRANCH  61  75
BRANCH  62  86
ATOM     86  C   UNL     1      -6.437  -0.102   6.855  1.00  0.00     0.023 A 
ATOM     87  C   UNL     1      -6.182   1.216   6.429  1.00  0.00     0.012 A 
ATOM     88  C   UNL     1      -7.343  -0.896   6.124  1.00  0.00     0.148 A 
ATOM     89  C   UNL     1      -6.838   1.744   5.317  1.00  0.00     0.002 A 
ATOM     90  C   UNL     1      -7.952  -0.382   4.985  1.00  0.00     0.091 A 
ATOM     91  F   UNL     1      -7.586  -2.142   6.554  1.00  0.00    -0.205 F 
ATOM     92  C   UNL     1      -7.714   0.944   4.590  1.00  0.00     0.022 A 
BRANCH  90  93
ATOM     93  S   UNL     1      -9.000  -1.377   3.918  1.00  0.00     0.127 S 
ATOM     94  O   UNL     1     -10.319  -0.805   4.175  1.00  0.00    -0.237 OA
ATOM     95  O   UNL     1      -8.448  -1.083   2.594  1.00  0.00    -0.237 OA
ATOM     96  O   UNL     1      -8.809  -2.753   4.354  1.00  0.00    -0.744 OA
ENDBRANCH  90  93
ENDBRANCH  62  86
BRANCH  74  97
ATOM     97  C   UNL     1      -6.621   1.586  13.635  1.00  0.00     0.023 A 
ATOM     98  C   UNL     1      -8.000   1.451  13.883  1.00  0.00     0.012 A 
ATOM     99  C   UNL     1      -5.920   2.673  14.197  1.00  0.00     0.148 A 
ATOM    100  C   UNL     1      -8.676   2.394  14.657  1.00  0.00     0.002 A 
ATOM    101  C   UNL     1      -6.590   3.582  15.006  1.00  0.00     0.091 A 
ATOM    102  F   UNL     1      -4.610   2.793  13.934  1.00  0.00    -0.205 F 
ATOM    103  C   UNL     1      -7.970   3.451  15.228  1.00  0.00     0.022 A 
BRANCH 101 104
ATOM    104  S   UNL     1      -5.743   4.916  15.861  1.00  0.00     0.127 S 
ATOM    105  O   UNL     1      -6.186   6.085  15.104  1.00  0.00    -0.237 OA
ATOM    106  O   UNL     1      -6.297   4.820  17.212  1.00  0.00    -0.237 OA
ATOM    107  O   UNL     1      -4.321   4.613  15.770  1.00  0.00    -0.744 OA
ENDBRANCH 101 104
ENDBRANCH  74  97
ENDBRANCH  48  49
ENDBRANCH  41  43
ENDBRANCH  40  41
ENDBRANCH  39  40
ENDBRANCH  38  39
ENDBRANCH  37  38
ENDBRANCH   1  37
TORSDOF 22
