REMARK SMILES Nc1c(CC(=O)OCCOCCOC(=O)c2ccc(-c3c4nc(c(-c5cccc(S(=O)(=O)[O-])c5F)c5ccc([nH]5)c(-c5cccc(S(=O)(=O)[O-])c5F)c5nc(c(-c6cccc(S(=O)(=O)[O-])c6F)c6ccc3[nH]6)C=C5)C=C4)cc2)cccc1C(=O)c1ccc(Br)cc1
REMARK SMILES IDX 10 1 9 2 8 3 7 4 5 5 6 6 4 7 3 8 2 9 82 10 79 11 81 12 80 13
REMARK SMILES IDX 1 14 83 17 84 18 85 19 86 20 91 21 87 22 90 23 88 24 89 25
REMARK SMILES IDX 11 26 12 27 13 28 14 29 15 30 16 31 17 32 78 33 18 34 77 35
REMARK SMILES IDX 19 36 20 37 21 38 71 39 22 40 76 41 70 42 72 43 23 44 75 45
REMARK SMILES IDX 69 46 68 47 24 49 56 50 36 51 55 52 37 53 40 54 54 55 73 56
REMARK SMILES IDX 38 57 39 58 53 60 74 61 41 62 25 63 26 64 34 65 27 66 29 67
REMARK SMILES IDX 35 68 28 69 30 70 31 71 32 72 33 73 57 74 58 75 66 76 59 77
REMARK SMILES IDX 61 78 67 79 60 80 62 81 63 82 64 83 65 84 42 85 43 86 51 87
REMARK SMILES IDX 44 88 46 89 52 90 45 91 47 92 48 93 49 94 50 95
REMARK H PARENT 1 15 1 16 72 48 40 59
REMARK Flexibility Score: inf
ROOT
ATOM      1  O   UNL     1      -1.271  -4.787   2.605  1.00  0.00    -0.374 OA
ENDROOT
BRANCH   1   2
ATOM      2  C   UNL     1      -0.320  -4.212   3.507  1.00  0.00     0.202 C 
BRANCH   2   3
ATOM      3  C   UNL     1       1.087  -3.992   2.941  1.00  0.00     0.261 C 
BRANCH   3   4
ATOM      4  O   UNL     1       1.067  -3.050   1.853  1.00  0.00    -0.463 OA
BRANCH   4   5
ATOM      5  C   UNL     1       1.664  -3.456   0.706  1.00  0.00     0.310 C 
ATOM      6  O   UNL     1       2.342  -4.474   0.596  1.00  0.00    -0.252 OA
BRANCH   5   7
ATOM      7  C   UNL     1       1.373  -2.584  -0.491  1.00  0.00     0.160 C 
BRANCH   7   8
ATOM      8  C   UNL     1       0.622  -1.280  -0.293  1.00  0.00    -0.013 A 
ATOM      9  C   UNL     1       1.264  -0.111   0.175  1.00  0.00     0.047 A 
ATOM     10  C   UNL     1       0.570   1.120   0.054  1.00  0.00     0.046 A 
ATOM     11  C   UNL     1      -0.737  -1.231  -0.666  1.00  0.00     0.006 A 
ATOM     12  C   UNL     1      -0.792   1.136  -0.295  1.00  0.00     0.014 A 
ATOM     13  C   UNL     1      -1.451  -0.040  -0.627  1.00  0.00     0.001 A 
BRANCH   9  14
ATOM     14  N   UNL     1       2.594  -0.189   0.595  1.00  0.00    -0.398 N 
ATOM     15  H   UNL     1       3.037  -1.066   0.665  1.00  0.00     0.156 HD
ATOM     16  H   UNL     1       3.088   0.632   0.821  1.00  0.00     0.156 HD
ENDBRANCH   9  14
BRANCH  10  17
ATOM     17  C   UNL     1       1.185   2.467   0.260  1.00  0.00     0.195 C 
ATOM     18  O   UNL     1       0.497   3.409   0.646  1.00  0.00    -0.289 OA
BRANCH  17  19
ATOM     19  C   UNL     1       2.614   2.722  -0.029  1.00  0.00     0.023 A 
ATOM     20  C   UNL     1       3.371   3.402   0.931  1.00  0.00     0.013 A 
ATOM     21  C   UNL     1       3.216   2.249  -1.202  1.00  0.00     0.013 A 
ATOM     22  C   UNL     1       4.747   3.546   0.753  1.00  0.00     0.016 A 
ATOM     23  C   UNL     1       4.593   2.398  -1.379  1.00  0.00     0.016 A 
ATOM     24  C   UNL     1       5.353   3.033  -0.394  1.00  0.00     0.018 A 
ATOM     25  Br  UNL     1       7.226   3.177  -0.611  1.00  0.00    -0.051 Br
ENDBRANCH  17  19
ENDBRANCH  10  17
ENDBRANCH   7   8
ENDBRANCH   5   7
ENDBRANCH   4   5
ENDBRANCH   3   4
ENDBRANCH   2   3
ENDBRANCH   1   2
BRANCH   1  26
ATOM     26  C   UNL     1      -1.807  -3.928   1.599  1.00  0.00     0.202 C 
BRANCH  26  27
ATOM     27  C   UNL     1      -2.881  -2.930   2.046  1.00  0.00     0.261 C 
BRANCH  27  28
ATOM     28  O   UNL     1      -2.391  -1.998   3.023  1.00  0.00    -0.460 OA
BRANCH  28  29
ATOM     29  C   UNL     1      -2.981  -2.102   4.235  1.00  0.00     0.338 C 
ATOM     30  O   UNL     1      -3.943  -2.811   4.521  1.00  0.00    -0.246 OA
BRANCH  29  31
ATOM     31  C   UNL     1      -2.225  -1.372   5.268  1.00  0.00     0.060 A 
ATOM     32  C   UNL     1      -1.965  -2.061   6.459  1.00  0.00     0.016 A 
ATOM     33  C   UNL     1      -1.872  -0.026   5.137  1.00  0.00     0.016 A 
ATOM     34  C   UNL     1      -1.441  -1.385   7.556  1.00  0.00     0.010 A 
ATOM     35  C   UNL     1      -1.342   0.653   6.245  1.00  0.00     0.010 A 
ATOM     36  C   UNL     1      -1.181  -0.011   7.474  1.00  0.00    -0.014 A 
BRANCH  36  37
ATOM     37  C   UNL     1      -0.917   0.728   8.735  1.00  0.00     0.031 A 
ATOM     38  C   UNL     1      -2.044   1.480   9.393  1.00  0.00     0.074 A 
ATOM     39  C   UNL     1       0.285   0.658   9.334  1.00  0.00     0.049 A 
ATOM     40  N   UNL     1      -2.073   2.075  10.557  1.00  0.00    -0.248 NA
ATOM     41  C   UNL     1      -3.308   1.569   8.643  1.00  0.00     0.031 C 
ATOM     42  C   UNL     1       1.457  -0.031   8.797  1.00  0.00     0.029 A 
ATOM     43  N   UNL     1       0.716   1.175  10.530  1.00  0.00    -0.354 N 
ATOM     44  C   UNL     1      -3.347   2.619  10.675  1.00  0.00     0.074 A 
ATOM     45  C   UNL     1      -4.055   2.305   9.454  1.00  0.00     0.031 C 
ATOM     46  C   UNL     1       2.479   0.114   9.657  1.00  0.00     0.029 A 
ATOM     47  C   UNL     1       2.036   0.906  10.803  1.00  0.00     0.049 A 
ATOM     48  H   UNL     1       0.135   1.690  11.135  1.00  0.00     0.167 HD
ATOM     49  C   UNL     1      -3.890   3.294  11.716  1.00  0.00     0.034 A 
ATOM     50  C   UNL     1       2.797   1.256  11.859  1.00  0.00     0.034 A 
ATOM     51  C   UNL     1      -3.197   3.585  12.941  1.00  0.00     0.049 A 
ATOM     52  C   UNL     1       2.169   2.006  13.005  1.00  0.00     0.074 A 
ATOM     53  C   UNL     1      -3.678   4.219  14.073  1.00  0.00     0.029 A 
ATOM     54  N   UNL     1      -1.871   3.269  13.193  1.00  0.00    -0.354 N 
ATOM     55  N   UNL     1       0.922   2.384  13.161  1.00  0.00    -0.248 NA
ATOM     56  C   UNL     1       3.042   2.340  14.140  1.00  0.00     0.031 C 
ATOM     57  C   UNL     1      -2.636   4.303  15.003  1.00  0.00     0.029 A 
ATOM     58  C   UNL     1      -1.512   3.704  14.457  1.00  0.00     0.049 A 
ATOM     59  H   UNL     1      -1.273   2.803  12.565  1.00  0.00     0.167 HD
ATOM     60  C   UNL     1       0.856   2.972  14.420  1.00  0.00     0.074 A 
ATOM     61  C   UNL     1       2.181   2.875  14.996  1.00  0.00     0.031 C 
ATOM     62  C   UNL     1      -0.202   3.557  15.037  1.00  0.00     0.034 A 
BRANCH  49  63
ATOM     63  C   UNL     1      -5.326   3.731  11.588  1.00  0.00     0.023 A 
ATOM     64  C   UNL     1      -6.354   2.771  11.694  1.00  0.00     0.012 A 
ATOM     65  C   UNL     1      -5.662   5.087  11.414  1.00  0.00     0.148 A 
ATOM     66  C   UNL     1      -7.692   3.150  11.600  1.00  0.00     0.002 A 
ATOM     67  C   UNL     1      -7.000   5.462  11.359  1.00  0.00     0.091 A 
ATOM     68  F   UNL     1      -4.671   5.981  11.289  1.00  0.00    -0.205 F 
ATOM     69  C   UNL     1      -8.015   4.495  11.443  1.00  0.00     0.022 A 
BRANCH  67  70
ATOM     70  S   UNL     1      -7.517   7.178  11.228  1.00  0.00     0.127 S 
ATOM     71  O   UNL     1      -7.982   7.241   9.844  1.00  0.00    -0.237 OA
ATOM     72  O   UNL     1      -8.580   7.258  12.232  1.00  0.00    -0.237 OA
ATOM     73  O   UNL     1      -6.337   7.975  11.532  1.00  0.00    -0.744 OA
ENDBRANCH  67  70
ENDBRANCH  49  63
BRANCH  50  74
ATOM     74  C   UNL     1       4.229   0.845  11.909  1.00  0.00     0.023 A 
ATOM     75  C   UNL     1       4.646  -0.126  12.839  1.00  0.00     0.012 A 
ATOM     76  C   UNL     1       5.174   1.394  11.020  1.00  0.00     0.148 A 
ATOM     77  C   UNL     1       5.982  -0.523  12.902  1.00  0.00     0.002 A 
ATOM     78  C   UNL     1       6.492   0.953  11.050  1.00  0.00     0.091 A 
ATOM     79  F   UNL     1       4.763   2.334  10.156  1.00  0.00    -0.205 F 
ATOM     80  C   UNL     1       6.902   0.007  12.001  1.00  0.00     0.022 A 
BRANCH  78  81
ATOM     81  S   UNL     1       7.705   1.484   9.836  1.00  0.00     0.127 S 
ATOM     82  O   UNL     1       8.528   2.404  10.617  1.00  0.00    -0.237 OA
ATOM     83  O   UNL     1       8.356   0.222   9.484  1.00  0.00    -0.237 OA
ATOM     84  O   UNL     1       6.935   2.080   8.752  1.00  0.00    -0.744 OA
ENDBRANCH  78  81
ENDBRANCH  50  74
BRANCH  62  85
ATOM     85  C   UNL     1       0.022   4.128  16.413  1.00  0.00     0.023 A 
ATOM     86  C   UNL     1       0.765   5.317  16.560  1.00  0.00     0.012 A 
ATOM     87  C   UNL     1      -0.553   3.529  17.551  1.00  0.00     0.148 A 
ATOM     88  C   UNL     1       0.960   5.881  17.820  1.00  0.00     0.002 A 
ATOM     89  C   UNL     1      -0.393   4.122  18.799  1.00  0.00     0.091 A 
ATOM     90  F   UNL     1      -1.240   2.388  17.397  1.00  0.00    -0.205 F 
ATOM     91  C   UNL     1       0.373   5.291  18.937  1.00  0.00     0.022 A 
BRANCH  89  92
ATOM     92  S   UNL     1      -1.193   3.476  20.272  1.00  0.00     0.127 S 
ATOM     93  O   UNL     1      -0.095   2.762  20.921  1.00  0.00    -0.237 OA
ATOM     94  O   UNL     1      -1.618   4.695  20.961  1.00  0.00    -0.237 OA
ATOM     95  O   UNL     1      -2.290   2.646  19.793  1.00  0.00    -0.744 OA
ENDBRANCH  89  92
ENDBRANCH  62  85
ENDBRANCH  36  37
ENDBRANCH  29  31
ENDBRANCH  28  29
ENDBRANCH  27  28
ENDBRANCH  26  27
ENDBRANCH   1  26
TORSDOF 21
