REMARK SMILES O=C(OCCOCCOC(=O)[C@@H]1CC=CC[C@H]1C(=O)N1CC[NH+](Cc2ccc3c(c2)OCO3)CC1)c1ccc(-c2c3nc(c(-c4cccc(S(=O)(=O)[O-])c4F)c4ccc([nH]4)c(-c4cccc(S(=O)(=O)[O-])c4F)c4nc(c(-c5cccc(S(=O)(=O)[O-])c5F)c5ccc2[nH]5)C=C4)C=C3)cc1
REMARK SMILES IDX 6 1 5 2 4 3 3 4 2 5 1 6 36 7 37 8 98 9 38 10 97 11 39 12
REMARK SMILES IDX 40 13 41 14 91 15 42 16 96 17 90 18 92 19 43 20 95 21 89 22
REMARK SMILES IDX 88 23 44 25 76 26 56 27 75 28 57 29 60 30 74 31 93 32 58 33
REMARK SMILES IDX 59 34 73 36 94 37 61 38 45 39 46 40 54 41 47 42 49 43 55 44
REMARK SMILES IDX 48 45 50 46 51 47 52 48 53 49 77 50 78 51 86 52 79 53 81 54
REMARK SMILES IDX 87 55 80 56 82 57 83 58 84 59 85 60 62 61 63 62 71 63 64 64
REMARK SMILES IDX 66 65 72 66 65 67 67 68 68 69 69 70 70 71 7 72 8 73 9 74
REMARK SMILES IDX 10 75 11 76 12 77 13 78 17 79 14 80 16 81 15 82 18 83 19 84
REMARK SMILES IDX 20 85 21 86 35 87 22 88 34 89 23 90 24 92 25 93 26 94 30 95
REMARK SMILES IDX 27 96 29 97 28 98 31 99 33 100 32 101
REMARK H PARENT 92 24 60 35 23 91
REMARK Flexibility Score: inf
ROOT
ATOM      1  O   UNL     1       6.503  -1.591  -1.322  1.00  0.00    -0.374 OA
ENDROOT
BRANCH   1   2
ATOM      2  C   UNL     1       5.175  -1.207  -0.965  1.00  0.00     0.202 C 
BRANCH   2   3
ATOM      3  C   UNL     1       4.963  -0.817   0.499  1.00  0.00     0.261 C 
BRANCH   3   4
ATOM      4  O   UNL     1       5.810   0.292   0.842  1.00  0.00    -0.460 OA
BRANCH   4   5
ATOM      5  C   UNL     1       6.984   0.264   1.518  1.00  0.00     0.338 C 
ATOM      6  O   UNL     1       7.578   1.323   1.712  1.00  0.00    -0.246 OA
BRANCH   5   7
ATOM      7  C   UNL     1       7.580  -0.992   2.059  1.00  0.00     0.060 A 
ATOM      8  C   UNL     1       7.426  -2.254   1.483  1.00  0.00     0.016 A 
ATOM      9  C   UNL     1       8.408  -0.878   3.187  1.00  0.00     0.016 A 
ATOM     10  C   UNL     1       7.974  -3.386   2.053  1.00  0.00     0.010 A 
ATOM     11  C   UNL     1       9.010  -2.010   3.744  1.00  0.00     0.010 A 
ATOM     12  C   UNL     1       8.759  -3.270   3.192  1.00  0.00    -0.014 A 
BRANCH  12  13
ATOM     13  C   UNL     1       9.167  -4.522   3.841  1.00  0.00     0.031 A 
ATOM     14  C   UNL     1       8.409  -4.962   5.053  1.00  0.00     0.074 A 
ATOM     15  C   UNL     1      10.078  -5.307   3.239  1.00  0.00     0.049 A 
ATOM     16  N   UNL     1       8.555  -6.040   5.770  1.00  0.00    -0.248 NA
ATOM     17  C   UNL     1       7.322  -4.075   5.508  1.00  0.00     0.031 C 
ATOM     18  C   UNL     1      10.760  -4.991   1.980  1.00  0.00     0.029 A 
ATOM     19  N   UNL     1      10.559  -6.540   3.579  1.00  0.00    -0.354 N 
ATOM     20  C   UNL     1       7.626  -5.932   6.796  1.00  0.00     0.074 A 
ATOM     21  C   UNL     1       6.899  -4.700   6.595  1.00  0.00     0.031 C 
ATOM     22  C   UNL     1      11.560  -6.016   1.646  1.00  0.00     0.029 A 
ATOM     23  C   UNL     1      11.492  -7.026   2.695  1.00  0.00     0.049 A 
ATOM     24  H   UNL     1      10.266  -7.031   4.381  1.00  0.00     0.167 HD
ATOM     25  C   UNL     1       7.415  -6.787   7.820  1.00  0.00     0.034 A 
ATOM     26  C   UNL     1      12.222  -8.155   2.753  1.00  0.00     0.034 A 
ATOM     27  C   UNL     1       8.148  -8.011   7.977  1.00  0.00     0.049 A 
ATOM     28  C   UNL     1      11.996  -9.068   3.928  1.00  0.00     0.074 A 
ATOM     29  C   UNL     1       8.069  -8.944   8.992  1.00  0.00     0.029 A 
ATOM     30  N   UNL     1       9.108  -8.465   7.082  1.00  0.00    -0.354 N 
ATOM     31  N   UNL     1      11.120  -8.958   4.899  1.00  0.00    -0.248 NA
ATOM     32  C   UNL     1      12.845 -10.261   4.013  1.00  0.00     0.031 C 
ATOM     33  C   UNL     1       9.002  -9.951   8.722  1.00  0.00     0.029 A 
ATOM     34  C   UNL     1       9.637  -9.663   7.521  1.00  0.00     0.049 A 
ATOM     35  H   UNL     1       9.373  -8.001   6.255  1.00  0.00     0.167 HD
ATOM     36  C   UNL     1      11.288 -10.083   5.695  1.00  0.00     0.074 A 
ATOM     37  C   UNL     1      12.340 -10.869   5.078  1.00  0.00     0.031 C 
ATOM     38  C   UNL     1      10.647 -10.433   6.838  1.00  0.00     0.034 A 
BRANCH  25  39
ATOM     39  C   UNL     1       6.403  -6.378   8.854  1.00  0.00     0.023 A 
ATOM     40  C   UNL     1       5.024  -6.419   8.561  1.00  0.00     0.012 A 
ATOM     41  C   UNL     1       6.829  -5.902  10.109  1.00  0.00     0.148 A 
ATOM     42  C   UNL     1       4.089  -5.953   9.486  1.00  0.00     0.002 A 
ATOM     43  C   UNL     1       5.890  -5.477  11.040  1.00  0.00     0.091 A 
ATOM     44  F   UNL     1       8.145  -5.836  10.354  1.00  0.00    -0.205 F 
ATOM     45  C   UNL     1       4.521  -5.488  10.726  1.00  0.00     0.022 A 
BRANCH  43  46
ATOM     46  S   UNL     1       6.349  -4.910  12.681  1.00  0.00     0.127 S 
ATOM     47  O   UNL     1       6.105  -3.472  12.575  1.00  0.00    -0.237 OA
ATOM     48  O   UNL     1       5.399  -5.628  13.531  1.00  0.00    -0.237 OA
ATOM     49  O   UNL     1       7.740  -5.299  12.864  1.00  0.00    -0.744 OA
ENDBRANCH  43  46
ENDBRANCH  25  39
BRANCH  26  50
ATOM     50  C   UNL     1      13.203  -8.479   1.677  1.00  0.00     0.023 A 
ATOM     51  C   UNL     1      12.988  -9.596   0.848  1.00  0.00     0.012 A 
ATOM     52  C   UNL     1      14.334  -7.668   1.451  1.00  0.00     0.148 A 
ATOM     53  C   UNL     1      13.891  -9.913  -0.168  1.00  0.00     0.002 A 
ATOM     54  C   UNL     1      15.200  -7.958   0.403  1.00  0.00     0.091 A 
ATOM     55  F   UNL     1      14.537  -6.619   2.261  1.00  0.00    -0.205 F 
ATOM     56  C   UNL     1      14.990  -9.089  -0.398  1.00  0.00     0.022 A 
BRANCH  54  57
ATOM     57  S   UNL     1      16.571  -6.882  -0.037  1.00  0.00     0.127 S 
ATOM     58  O   UNL     1      17.721  -7.671   0.395  1.00  0.00    -0.237 OA
ATOM     59  O   UNL     1      16.413  -6.767  -1.488  1.00  0.00    -0.237 OA
ATOM     60  O   UNL     1      16.345  -5.641   0.690  1.00  0.00    -0.744 OA
ENDBRANCH  54  57
ENDBRANCH  26  50
BRANCH  38  61
ATOM     61  C   UNL     1      11.034 -11.743   7.464  1.00  0.00     0.023 A 
ATOM     62  C   UNL     1      12.257 -11.861   8.151  1.00  0.00     0.012 A 
ATOM     63  C   UNL     1      10.136 -12.827   7.445  1.00  0.00     0.148 A 
ATOM     64  C   UNL     1      12.594 -13.053   8.788  1.00  0.00     0.002 A 
ATOM     65  C   UNL     1      10.454 -13.992   8.127  1.00  0.00     0.091 A 
ATOM     66  F   UNL     1       8.988 -12.697   6.763  1.00  0.00    -0.205 F 
ATOM     67  C   UNL     1      11.688 -14.112   8.789  1.00  0.00     0.022 A 
BRANCH  65  68
ATOM     68  S   UNL     1       9.294 -15.354   8.271  1.00  0.00     0.127 S 
ATOM     69  O   UNL     1       9.833 -16.308   7.304  1.00  0.00    -0.237 OA
ATOM     70  O   UNL     1       9.448 -15.750   9.671  1.00  0.00    -0.237 OA
ATOM     71  O   UNL     1       7.987 -14.798   7.946  1.00  0.00    -0.744 OA
ENDBRANCH  65  68
ENDBRANCH  38  61
ENDBRANCH  12  13
ENDBRANCH   5   7
ENDBRANCH   4   5
ENDBRANCH   3   4
ENDBRANCH   2   3
ENDBRANCH   1   2
BRANCH   1  72
ATOM     72  C   UNL     1       7.415  -0.522  -1.617  1.00  0.00     0.202 C 
BRANCH  72  73
ATOM     73  C   UNL     1       8.075  -0.788  -2.969  1.00  0.00     0.261 C 
BRANCH  73  74
ATOM     74  O   UNL     1       7.012  -0.897  -3.926  1.00  0.00    -0.463 OA
BRANCH  74  75
ATOM     75  C   UNL     1       6.586  -2.173  -4.144  1.00  0.00     0.310 C 
ATOM     76  O   UNL     1       7.275  -3.178  -4.029  1.00  0.00    -0.252 OA
BRANCH  75  77
ATOM     77  C   UNL     1       5.093  -2.163  -4.407  1.00  0.00     0.115 C 
ATOM     78  C   UNL     1       4.526  -3.574  -4.165  1.00  0.00     0.043 C 
ATOM     79  C   UNL     1       4.787  -1.599  -5.791  1.00  0.00     0.097 C 
ATOM     80  C   UNL     1       3.167  -3.791  -4.751  1.00  0.00    -0.030 C 
ATOM     81  C   UNL     1       3.322  -1.784  -6.228  1.00  0.00     0.041 C 
ATOM     82  C   UNL     1       2.633  -2.991  -5.679  1.00  0.00    -0.030 C 
BRANCH  79  83
ATOM     83  C   UNL     1       5.168  -0.129  -6.038  1.00  0.00     0.227 C 
ATOM     84  O   UNL     1       6.056   0.133  -6.855  1.00  0.00    -0.275 OA
ATOM     85  N   UNL     1       4.356   0.878  -5.514  1.00  0.00    -0.331 N 
ATOM     86  C   UNL     1       4.190   2.051  -6.362  1.00  0.00     0.181 C 
ATOM     87  C   UNL     1       4.309   1.172  -4.082  1.00  0.00     0.181 C 
ATOM     88  C   UNL     1       3.024   2.958  -5.929  1.00  0.00     0.284 C 
ATOM     89  C   UNL     1       3.153   2.107  -3.665  1.00  0.00     0.284 C 
ATOM     90  N   UNL     1       2.941   3.292  -4.503  1.00  0.00    -0.328 N 
ATOM     91  H   UNL     1       1.976   3.581  -4.342  1.00  0.00     0.348 HD
BRANCH  90  92
ATOM     92  C   UNL     1       3.631   4.514  -4.079  1.00  0.00     0.299 C 
BRANCH  92  93
ATOM     93  C   UNL     1       5.133   4.441  -3.940  1.00  0.00     0.010 A 
ATOM     94  C   UNL     1       5.970   4.609  -5.066  1.00  0.00     0.013 A 
ATOM     95  C   UNL     1       5.712   4.151  -2.692  1.00  0.00     0.060 A 
ATOM     96  C   UNL     1       7.348   4.387  -4.984  1.00  0.00     0.051 A 
ATOM     97  C   UNL     1       7.075   3.950  -2.639  1.00  0.00     0.166 A 
ATOM     98  C   UNL     1       7.867   4.047  -3.756  1.00  0.00     0.165 A 
ATOM     99  O   UNL     1       7.779   3.606  -1.530  1.00  0.00    -0.454 OA
ATOM    100  O   UNL     1       9.170   3.762  -3.493  1.00  0.00    -0.454 OA
ATOM    101  C   UNL     1       9.103   3.459  -2.082  1.00  0.00     0.468 C 
ENDBRANCH  92  93
ENDBRANCH  90  92
ENDBRANCH  79  83
ENDBRANCH  75  77
ENDBRANCH  74  75
ENDBRANCH  73  74
ENDBRANCH  72  73
ENDBRANCH   1  72
TORSDOF 20
