REMARK SMILES Cc1ccccc1/[NH+]=C1\S[C@@H](CC(=O)Nc2ccc(C(=O)OCCOCCOC(=O)c3ccc(-c4c5nc(c(-c6cccc(S(=O)(=O)[O-])c6F)c6ccc([nH]6)c(-c6cccc(S(=O)(=O)[O-])c6F)c6nc(c(-c7cccc(S(=O)(=O)[O-])c7F)c7ccc4[nH]7)C=C6)C=C5)cc3)cc2)C(=O)N1C
REMARK SMILES IDX 24 1 23 2 22 3 20 4 21 5 19 6 16 7 17 8 95 9 18 10 94 11
REMARK SMILES IDX 15 12 13 13 14 14 12 16 11 17 8 18 9 19 10 21 98 22 96 23
REMARK SMILES IDX 99 24 97 25 7 26 1 27 2 28 3 29 4 30 6 31 5 32 25 33 26 34
REMARK SMILES IDX 27 35 28 36 29 37 30 38 31 39 32 40 93 41 33 42 92 43 34 44
REMARK SMILES IDX 35 45 36 46 86 47 37 48 91 49 85 50 87 51 38 52 90 53 84 54
REMARK SMILES IDX 83 55 39 57 71 58 51 59 70 60 52 61 55 62 69 63 88 64 53 65
REMARK SMILES IDX 54 66 68 68 89 69 56 70 40 71 41 72 49 73 42 74 44 75 50 76
REMARK SMILES IDX 43 77 45 78 46 79 47 80 48 81 72 82 73 83 81 84 74 85 76 86
REMARK SMILES IDX 82 87 75 88 77 89 78 90 79 91 80 92 57 93 58 94 66 95 59 96
REMARK SMILES IDX 61 97 67 98 60 99 62 100 63 101 64 102 65 103
REMARK H PARENT 15 15 8 20 87 56 55 67
REMARK Flexibility Score: inf
ROOT
ATOM      1  C   UNL     1       3.783   8.203  -1.657  1.00  0.00     0.202 C 
ENDROOT
BRANCH   1   2
ATOM      2  C   UNL     1       3.567   6.864  -2.271  1.00  0.00     0.261 C 
BRANCH   2   3
ATOM      3  O   UNL     1       4.595   5.920  -1.838  1.00  0.00    -0.460 OA
BRANCH   3   4
ATOM      4  C   UNL     1       5.917   5.938  -2.186  1.00  0.00     0.338 C 
ATOM      5  O   UNL     1       6.480   6.447  -3.138  1.00  0.00    -0.246 OA
BRANCH   4   6
ATOM      6  C   UNL     1       6.647   5.218  -1.129  1.00  0.00     0.060 A 
ATOM      7  C   UNL     1       7.823   3.749   0.900  1.00  0.00     0.041 A 
ATOM      8  C   UNL     1       6.621   4.402   1.109  1.00  0.00     0.027 A 
ATOM      9  C   UNL     1       8.566   4.008  -0.246  1.00  0.00     0.027 A 
ATOM     10  C   UNL     1       6.000   5.074   0.091  1.00  0.00     0.018 A 
ATOM     11  C   UNL     1       7.966   4.753  -1.278  1.00  0.00     0.018 A 
BRANCH   7  12
ATOM     12  N   UNL     1       8.164   2.764   1.834  1.00  0.00    -0.326 N 
ATOM     13  C   UNL     1       7.242   1.839   2.312  1.00  0.00     0.226 C 
ATOM     14  O   UNL     1       7.392   1.282   3.398  1.00  0.00    -0.275 OA
ATOM     15  H   UNL     1       9.090   2.724   2.164  1.00  0.00     0.169 HD
BRANCH  13  16
ATOM     16  C   UNL     1       6.176   1.376   1.314  1.00  0.00     0.128 C 
BRANCH  16  17
ATOM     17  C   UNL     1       4.705   1.572   1.628  1.00  0.00     0.183 C 
ATOM     18  N   UNL     1       1.192   2.014   0.850  1.00  0.00    -0.234 N 
ATOM     19  C   UNL     1       2.450   2.257   0.802  1.00  0.00     0.319 C 
ATOM     20  H   UNL     1       0.660   2.706   1.305  1.00  0.00     0.313 HD
ATOM     21  S   UNL     1       3.761   1.428   0.053  1.00  0.00    -0.022 SA
ATOM     22  N   UNL     1       3.003   3.264   1.536  1.00  0.00    -0.193 N 
ATOM     23  C   UNL     1       4.150   2.876   2.203  1.00  0.00     0.324 C 
ATOM     24  C   UNL     1       2.349   4.539   1.758  1.00  0.00     0.301 C 
ATOM     25  O   UNL     1       4.570   3.411   3.224  1.00  0.00    -0.245 OA
BRANCH  18  26
ATOM     26  C   UNL     1       0.440   0.928   0.361  1.00  0.00     0.128 A 
ATOM     27  C   UNL     1       2.113  -1.056   0.581  1.00  0.00     0.049 C 
ATOM     28  C   UNL     1       0.769  -0.448   0.309  1.00  0.00    -0.004 A 
ATOM     29  C   UNL     1      -0.229  -1.392  -0.031  1.00  0.00     0.008 A 
ATOM     30  C   UNL     1      -1.547  -1.018  -0.250  1.00  0.00     0.001 A 
ATOM     31  C   UNL     1      -0.905   1.271   0.112  1.00  0.00     0.052 A 
ATOM     32  C   UNL     1      -1.889   0.320  -0.177  1.00  0.00     0.004 A 
ENDBRANCH  18  26
ENDBRANCH  16  17
ENDBRANCH  13  16
ENDBRANCH   7  12
ENDBRANCH   4   6
ENDBRANCH   3   4
ENDBRANCH   2   3
ENDBRANCH   1   2
BRANCH   1  33
ATOM     33  O   UNL     1       5.089   8.532  -2.072  1.00  0.00    -0.374 OA
BRANCH  33  34
ATOM     34  C   UNL     1       5.771   9.491  -1.312  1.00  0.00     0.202 C 
BRANCH  34  35
ATOM     35  C   UNL     1       5.144  10.858  -1.536  1.00  0.00     0.261 C 
BRANCH  35  36
ATOM     36  O   UNL     1       5.231  11.182  -2.942  1.00  0.00    -0.460 OA
BRANCH  36  37
ATOM     37  C   UNL     1       4.084  10.956  -3.654  1.00  0.00     0.338 C 
ATOM     38  O   UNL     1       2.996  11.412  -3.340  1.00  0.00    -0.246 OA
BRANCH  37  39
ATOM     39  C   UNL     1       4.302   9.891  -4.685  1.00  0.00     0.060 A 
ATOM     40  C   UNL     1       3.196   9.219  -5.237  1.00  0.00     0.016 A 
ATOM     41  C   UNL     1       5.578   9.360  -4.863  1.00  0.00     0.016 A 
ATOM     42  C   UNL     1       3.340   7.929  -5.779  1.00  0.00     0.010 A 
ATOM     43  C   UNL     1       5.704   8.069  -5.352  1.00  0.00     0.010 A 
ATOM     44  C   UNL     1       4.581   7.309  -5.736  1.00  0.00    -0.014 A 
BRANCH  44  45
ATOM     45  C   UNL     1       4.848   5.890  -6.030  1.00  0.00     0.031 A 
ATOM     46  C   UNL     1       5.686   5.588  -7.206  1.00  0.00     0.074 A 
ATOM     47  C   UNL     1       4.616   4.891  -5.138  1.00  0.00     0.049 A 
ATOM     48  N   UNL     1       5.961   4.395  -7.603  1.00  0.00    -0.248 NA
ATOM     49  C   UNL     1       6.244   6.620  -8.080  1.00  0.00     0.031 C 
ATOM     50  C   UNL     1       5.403   3.668  -4.930  1.00  0.00     0.029 A 
ATOM     51  N   UNL     1       3.645   4.778  -4.141  1.00  0.00    -0.354 N 
ATOM     52  C   UNL     1       7.016   4.506  -8.471  1.00  0.00     0.074 A 
ATOM     53  C   UNL     1       6.997   5.879  -8.897  1.00  0.00     0.031 C 
ATOM     54  C   UNL     1       4.760   2.846  -4.080  1.00  0.00     0.029 A 
ATOM     55  C   UNL     1       3.451   3.431  -3.834  1.00  0.00     0.049 A 
ATOM     56  H   UNL     1       3.171   5.531  -3.720  1.00  0.00     0.167 HD
ATOM     57  C   UNL     1       7.894   3.469  -8.544  1.00  0.00     0.034 A 
ATOM     58  C   UNL     1       2.232   2.839  -3.922  1.00  0.00     0.034 A 
ATOM     59  C   UNL     1       7.362   2.274  -7.837  1.00  0.00     0.049 A 
ATOM     60  C   UNL     1       2.360   1.723  -4.905  1.00  0.00     0.074 A 
ATOM     61  C   UNL     1       7.760   1.574  -6.710  1.00  0.00     0.029 A 
ATOM     62  N   UNL     1       6.078   1.797  -8.146  1.00  0.00    -0.354 N 
ATOM     63  N   UNL     1       3.271   1.741  -5.838  1.00  0.00    -0.248 NA
ATOM     64  C   UNL     1       1.641   0.458  -4.835  1.00  0.00     0.031 C 
ATOM     65  C   UNL     1       6.675   0.741  -6.300  1.00  0.00     0.029 A 
ATOM     66  C   UNL     1       5.624   0.895  -7.195  1.00  0.00     0.049 A 
ATOM     67  H   UNL     1       5.563   2.069  -8.940  1.00  0.00     0.167 HD
ATOM     68  C   UNL     1       3.368   0.514  -6.399  1.00  0.00     0.074 A 
ATOM     69  C   UNL     1       2.290  -0.248  -5.780  1.00  0.00     0.031 C 
ATOM     70  C   UNL     1       4.326   0.221  -7.321  1.00  0.00     0.034 A 
BRANCH  57  71
ATOM     71  C   UNL     1       9.333   3.582  -9.056  1.00  0.00     0.023 A 
ATOM     72  C   UNL     1      10.118   2.409  -9.025  1.00  0.00     0.012 A 
ATOM     73  C   UNL     1      10.013   4.754  -9.493  1.00  0.00     0.148 A 
ATOM     74  C   UNL     1      11.472   2.392  -9.397  1.00  0.00     0.002 A 
ATOM     75  C   UNL     1      11.341   4.724  -9.934  1.00  0.00     0.091 A 
ATOM     76  F   UNL     1       9.429   5.948  -9.415  1.00  0.00    -0.205 F 
ATOM     77  C   UNL     1      12.080   3.544  -9.871  1.00  0.00     0.022 A 
BRANCH  75  78
ATOM     78  S   UNL     1      12.181   6.175 -10.612  1.00  0.00     0.127 S 
ATOM     79  O   UNL     1      13.279   6.366  -9.664  1.00  0.00    -0.237 OA
ATOM     80  O   UNL     1      12.596   5.703 -11.933  1.00  0.00    -0.237 OA
ATOM     81  O   UNL     1      11.199   7.252 -10.636  1.00  0.00    -0.744 OA
ENDBRANCH  75  78
ENDBRANCH  57  71
BRANCH  58  82
ATOM     82  C   UNL     1       1.089   3.769  -3.678  1.00  0.00     0.023 A 
ATOM     83  C   UNL     1       0.866   4.159  -2.332  1.00  0.00     0.012 A 
ATOM     84  C   UNL     1       0.554   4.574  -4.701  1.00  0.00     0.148 A 
ATOM     85  C   UNL     1       0.242   5.370  -2.014  1.00  0.00     0.002 A 
ATOM     86  C   UNL     1      -0.036   5.800  -4.378  1.00  0.00     0.091 A 
ATOM     87  F   UNL     1       0.685   4.167  -5.969  1.00  0.00    -0.205 F 
ATOM     88  C   UNL     1      -0.160   6.214  -3.040  1.00  0.00     0.022 A 
BRANCH  86  89
ATOM     89  S   UNL     1      -0.547   6.986  -5.631  1.00  0.00     0.127 S 
ATOM     90  O   UNL     1      -1.997   6.814  -5.623  1.00  0.00    -0.237 OA
ATOM     91  O   UNL     1      -0.081   8.254  -5.063  1.00  0.00    -0.237 OA
ATOM     92  O   UNL     1       0.137   6.589  -6.851  1.00  0.00    -0.744 OA
ENDBRANCH  86  89
ENDBRANCH  58  82
BRANCH  70  93
ATOM     93  C   UNL     1       4.059  -0.761  -8.428  1.00  0.00     0.023 A 
ATOM     94  C   UNL     1       2.746  -1.194  -8.720  1.00  0.00     0.012 A 
ATOM     95  C   UNL     1       5.070  -1.103  -9.350  1.00  0.00     0.148 A 
ATOM     96  C   UNL     1       2.456  -1.984  -9.829  1.00  0.00     0.002 A 
ATOM     97  C   UNL     1       4.753  -1.782 -10.519  1.00  0.00     0.091 A 
ATOM     98  F   UNL     1       6.344  -0.771  -9.104  1.00  0.00    -0.205 F 
ATOM     99  C   UNL     1       3.458  -2.256 -10.745  1.00  0.00     0.022 A 
BRANCH  97 100
ATOM    100  S   UNL     1       5.938  -1.925 -11.859  1.00  0.00     0.127 S 
ATOM    101  O   UNL     1       6.402  -3.300 -11.697  1.00  0.00    -0.237 OA
ATOM    102  O   UNL     1       5.097  -1.696 -13.036  1.00  0.00    -0.237 OA
ATOM    103  O   UNL     1       6.928  -0.884 -11.621  1.00  0.00    -0.744 OA
ENDBRANCH  97 100
ENDBRANCH  70  93
ENDBRANCH  44  45
ENDBRANCH  37  39
ENDBRANCH  36  37
ENDBRANCH  35  36
ENDBRANCH  34  35
ENDBRANCH  33  34
ENDBRANCH   1  33
TORSDOF 21
