REMARK SMILES CSc1ccc(Cl)c(C(=O)N[C@@H](CO)C(=O)OCCOCCOC(=O)c2ccc(-c3c4nc(c(-c5cccc(S(=O)(=O)[O-])c5F)c5ccc([nH]5)c(-c5cccc(S(=O)(=O)[O-])c5F)c5nc(c(-c6cccc(S(=O)(=O)[O-])c6F)c6ccc3[nH]6)C=C5)C=C4)cc2)c1
REMARK SMILES IDX 20 1 19 2 18 3 17 4 15 5 16 6 12 7 11 8 9 9 10 10 8 12 3 13
REMARK SMILES IDX 4 14 89 15 5 16 6 17 7 18 2 19 1 20 13 21 14 22 21 24 22 25
REMARK SMILES IDX 23 26 24 27 25 28 26 29 27 30 88 31 28 32 87 33 29 34 30 35
REMARK SMILES IDX 31 36 81 37 32 38 86 39 80 40 82 41 33 42 85 43 79 44 78 45
REMARK SMILES IDX 34 47 66 48 46 49 65 50 47 51 50 52 64 53 83 54 48 55 49 56
REMARK SMILES IDX 63 58 84 59 51 60 35 61 36 62 44 63 37 64 39 65 45 66 38 67
REMARK SMILES IDX 40 68 41 69 42 70 43 71 67 72 68 73 76 74 69 75 71 76 77 77
REMARK SMILES IDX 70 78 72 79 73 80 74 81 75 82 52 83 53 84 61 85 54 86 56 87
REMARK SMILES IDX 62 88 55 89 57 90 58 91 59 92 60 93
REMARK H PARENT 11 11 14 23 82 46 50 57
REMARK Flexibility Score: inf
ROOT
ATOM      1  O   UNL     1      -1.753   5.461   7.432  1.00  0.00    -0.374 OA
ENDROOT
BRANCH   1   2
ATOM      2  C   UNL     1      -1.578   6.675   8.159  1.00  0.00     0.202 C 
BRANCH   2   3
ATOM      3  C   UNL     1      -0.147   7.206   8.305  1.00  0.00     0.261 C 
BRANCH   3   4
ATOM      4  O   UNL     1       0.581   7.173   7.067  1.00  0.00    -0.462 OA
BRANCH   4   5
ATOM      5  C   UNL     1       1.805   6.587   7.155  1.00  0.00     0.331 C 
ATOM      6  O   UNL     1       2.367   6.298   8.209  1.00  0.00    -0.250 OA
BRANCH   5   7
ATOM      7  C   UNL     1       2.382   6.173   5.794  1.00  0.00     0.218 C 
BRANCH   7   8
ATOM      8  N   UNL     1       1.659   6.472   4.551  1.00  0.00    -0.337 N 
ATOM      9  C   UNL     1       1.596   5.830   3.334  1.00  0.00     0.253 C 
ATOM     10  O   UNL     1       1.257   6.534   2.378  1.00  0.00    -0.269 OA
ATOM     11  H   UNL     1       1.113   7.291   4.596  1.00  0.00     0.164 HD
BRANCH   9  12
ATOM     12  C   UNL     1       1.720   4.348   3.094  1.00  0.00     0.059 A 
ATOM     13  C   UNL     1       0.801   2.507   1.699  1.00  0.00     0.008 A 
ATOM     14  C   UNL     1       1.469   1.583   2.489  1.00  0.00     0.016 A 
ATOM     15  C   UNL     1       0.888   3.868   2.045  1.00  0.00     0.030 A 
ATOM     16  C   UNL     1       2.342   2.026   3.477  1.00  0.00     0.022 A 
ATOM     17  C   UNL     1       2.537   3.397   3.716  1.00  0.00     0.053 A 
ATOM     18  Cl  UNL     1       3.990   3.730   4.583  1.00  0.00    -0.083 Cl
BRANCH  13  19
ATOM     19  S   UNL     1      -0.147   2.033   0.259  1.00  0.00    -0.130 SA
ATOM     20  C   UNL     1       0.694   0.506  -0.268  1.00  0.00     0.091 C 
ENDBRANCH  13  19
ENDBRANCH   9  12
ENDBRANCH   7   8
BRANCH   7  21
ATOM     21  C   UNL     1       3.786   6.793   5.701  1.00  0.00     0.193 C 
BRANCH  21  22
ATOM     22  O   UNL     1       3.707   8.217   5.612  1.00  0.00    -0.394 OA
ATOM     23  H   UNL     1       3.211   8.464   4.816  1.00  0.00     0.210 HD
ENDBRANCH  21  22
ENDBRANCH   7  21
ENDBRANCH   5   7
ENDBRANCH   4   5
ENDBRANCH   3   4
ENDBRANCH   2   3
ENDBRANCH   1   2
BRANCH   1  24
ATOM     24  C   UNL     1      -1.507   5.484   6.024  1.00  0.00     0.202 C 
BRANCH  24  25
ATOM     25  C   UNL     1      -2.337   6.440   5.155  1.00  0.00     0.261 C 
BRANCH  25  26
ATOM     26  O   UNL     1      -2.107   7.832   5.448  1.00  0.00    -0.460 OA
BRANCH  26  27
ATOM     27  C   UNL     1      -3.220   8.527   5.798  1.00  0.00     0.338 C 
ATOM     28  O   UNL     1      -4.362   8.104   5.856  1.00  0.00    -0.246 OA
BRANCH  27  29
ATOM     29  C   UNL     1      -2.860   9.867   6.298  1.00  0.00     0.060 A 
ATOM     30  C   UNL     1      -3.196  10.181   7.622  1.00  0.00     0.016 A 
ATOM     31  C   UNL     1      -2.329  10.840   5.451  1.00  0.00     0.016 A 
ATOM     32  C   UNL     1      -3.041  11.484   8.091  1.00  0.00     0.010 A 
ATOM     33  C   UNL     1      -2.183  12.150   5.922  1.00  0.00     0.010 A 
ATOM     34  C   UNL     1      -2.572  12.486   7.232  1.00  0.00    -0.014 A 
BRANCH  34  35
ATOM     35  C   UNL     1      -2.619  13.903   7.670  1.00  0.00     0.031 A 
ATOM     36  C   UNL     1      -3.764  14.774   7.226  1.00  0.00     0.074 A 
ATOM     37  C   UNL     1      -1.660  14.405   8.469  1.00  0.00     0.049 A 
ATOM     38  N   UNL     1      -4.008  16.027   7.509  1.00  0.00    -0.248 NA
ATOM     39  C   UNL     1      -4.766  14.151   6.346  1.00  0.00     0.031 C 
ATOM     40  C   UNL     1      -0.500  13.665   8.961  1.00  0.00     0.029 A 
ATOM     41  N   UNL     1      -1.503  15.665   8.990  1.00  0.00    -0.354 N 
ATOM     42  C   UNL     1      -5.176  16.351   6.828  1.00  0.00     0.074 A 
ATOM     43  C   UNL     1      -5.585  15.165   6.106  1.00  0.00     0.031 C 
ATOM     44  C   UNL     1       0.265  14.492   9.694  1.00  0.00     0.029 A 
ATOM     45  C   UNL     1      -0.344  15.821   9.712  1.00  0.00     0.049 A 
ATOM     46  H   UNL     1      -2.158  16.388   8.859  1.00  0.00     0.167 HD
ATOM     47  C   UNL     1      -5.858  17.521   6.820  1.00  0.00     0.034 A 
ATOM     48  C   UNL     1       0.172  16.914  10.310  1.00  0.00     0.034 A 
ATOM     49  C   UNL     1      -5.463  18.692   7.555  1.00  0.00     0.049 A 
ATOM     50  C   UNL     1      -0.604  18.205  10.281  1.00  0.00     0.074 A 
ATOM     51  C   UNL     1      -6.113  19.910   7.646  1.00  0.00     0.029 A 
ATOM     52  N   UNL     1      -4.311  18.796   8.319  1.00  0.00    -0.354 N 
ATOM     53  N   UNL     1      -1.774  18.455   9.743  1.00  0.00    -0.248 NA
ATOM     54  C   UNL     1      -0.007  19.356  10.975  1.00  0.00     0.031 C 
ATOM     55  C   UNL     1      -5.345  20.757   8.453  1.00  0.00     0.029 A 
ATOM     56  C   UNL     1      -4.227  20.059   8.879  1.00  0.00     0.049 A 
ATOM     57  H   UNL     1      -3.650  18.077   8.444  1.00  0.00     0.167 HD
ATOM     58  C   UNL     1      -2.070  19.775  10.065  1.00  0.00     0.074 A 
ATOM     59  C   UNL     1      -0.964  20.268  10.861  1.00  0.00     0.031 C 
ATOM     60  C   UNL     1      -3.152  20.517   9.722  1.00  0.00     0.034 A 
BRANCH  47  61
ATOM     61  C   UNL     1      -7.130  17.581   6.017  1.00  0.00     0.023 A 
ATOM     62  C   UNL     1      -8.286  16.937   6.502  1.00  0.00     0.012 A 
ATOM     63  C   UNL     1      -7.200  18.319   4.819  1.00  0.00     0.148 A 
ATOM     64  C   UNL     1      -9.486  17.003   5.794  1.00  0.00     0.002 A 
ATOM     65  C   UNL     1      -8.409  18.412   4.139  1.00  0.00     0.091 A 
ATOM     66  F   UNL     1      -6.084  18.904   4.362  1.00  0.00    -0.205 F 
ATOM     67  C   UNL     1      -9.550  17.748   4.620  1.00  0.00     0.022 A 
BRANCH  65  68
ATOM     68  S   UNL     1      -8.609  19.407   2.657  1.00  0.00     0.127 S 
ATOM     69  O   UNL     1      -8.689  18.380   1.620  1.00  0.00    -0.237 OA
ATOM     70  O   UNL     1      -9.867  20.107   2.919  1.00  0.00    -0.237 OA
ATOM     71  O   UNL     1      -7.438  20.271   2.595  1.00  0.00    -0.744 OA
ENDBRANCH  65  68
ENDBRANCH  47  61
BRANCH  48  72
ATOM     72  C   UNL     1       1.469  16.820  11.036  1.00  0.00     0.023 A 
ATOM     73  C   UNL     1       1.487  16.908  12.441  1.00  0.00     0.012 A 
ATOM     74  C   UNL     1       2.680  16.622  10.345  1.00  0.00     0.148 A 
ATOM     75  C   UNL     1       2.690  16.828  13.144  1.00  0.00     0.002 A 
ATOM     76  C   UNL     1       3.869  16.491  11.054  1.00  0.00     0.091 A 
ATOM     77  F   UNL     1       2.646  16.562   9.006  1.00  0.00    -0.205 F 
ATOM     78  C   UNL     1       3.878  16.609  12.452  1.00  0.00     0.022 A 
BRANCH  76  79
ATOM     79  S   UNL     1       5.424  16.084  10.252  1.00  0.00     0.127 S 
ATOM     80  O   UNL     1       6.133  17.360  10.309  1.00  0.00    -0.237 OA
ATOM     81  O   UNL     1       5.957  15.044  11.132  1.00  0.00    -0.237 OA
ATOM     82  O   UNL     1       5.064  15.616   8.921  1.00  0.00    -0.744 OA
ENDBRANCH  76  79
ENDBRANCH  48  72
BRANCH  60  83
ATOM     83  C   UNL     1      -3.223  21.933  10.231  1.00  0.00     0.023 A 
ATOM     84  C   UNL     1      -2.396  22.922   9.664  1.00  0.00     0.012 A 
ATOM     85  C   UNL     1      -4.163  22.299  11.215  1.00  0.00     0.148 A 
ATOM     86  C   UNL     1      -2.483  24.248  10.088  1.00  0.00     0.002 A 
ATOM     87  C   UNL     1      -4.275  23.630  11.601  1.00  0.00     0.091 A 
ATOM     88  F   UNL     1      -4.927  21.340  11.759  1.00  0.00    -0.205 F 
ATOM     89  C   UNL     1      -3.429  24.604  11.046  1.00  0.00     0.022 A 
BRANCH  87  90
ATOM     90  S   UNL     1      -5.531  24.187  12.759  1.00  0.00     0.127 S 
ATOM     91  O   UNL     1      -4.751  24.362  13.983  1.00  0.00    -0.237 OA
ATOM     92  O   UNL     1      -5.992  25.434  12.147  1.00  0.00    -0.237 OA
ATOM     93  O   UNL     1      -6.533  23.131  12.797  1.00  0.00    -0.744 OA
ENDBRANCH  87  90
ENDBRANCH  60  83
ENDBRANCH  34  35
ENDBRANCH  27  29
ENDBRANCH  26  27
ENDBRANCH  25  26
ENDBRANCH  24  25
ENDBRANCH   1  24
TORSDOF 22
