REMARK SMILES C[C@](NC(=O)C[C@@H]1CCCCO1)(C(=O)OCCOCCOC(=O)c1ccc(-c2c3nc(c(-c4cccc(S(=O)(=O)[O-])c4F)c4ccc([nH]4)c(-c4cccc(S(=O)(=O)[O-])c4F)c4nc(c(-c5cccc(S(=O)(=O)[O-])c5F)c5ccc2[nH]5)C=C4)C=C3)cc1)c1ccccc1
REMARK SMILES IDX 18 1 17 2 16 3 15 4 13 5 14 6 2 7 1 8 87 9 88 10 92 11 89 12
REMARK SMILES IDX 91 13 90 14 3 15 4 16 5 18 6 19 7 20 8 21 12 22 9 23 11 24
REMARK SMILES IDX 10 25 19 26 20 27 21 28 22 29 23 30 24 31 25 32 86 33 26 34
REMARK SMILES IDX 85 35 27 36 28 37 29 38 79 39 30 40 84 41 78 42 80 43 31 44
REMARK SMILES IDX 83 45 77 46 76 47 32 49 64 50 44 51 63 52 45 53 48 54 62 55
REMARK SMILES IDX 81 56 46 57 47 58 61 60 82 61 49 62 33 63 34 64 42 65 35 66
REMARK SMILES IDX 37 67 43 68 36 69 38 70 39 71 40 72 41 73 65 74 66 75 74 76
REMARK SMILES IDX 67 77 69 78 75 79 68 80 70 81 71 82 72 83 73 84 50 85 51 86
REMARK SMILES IDX 59 87 52 88 54 89 60 90 53 91 55 92 56 93 57 94 58 95
REMARK H PARENT 3 17 80 48 48 59
REMARK Flexibility Score: inf
ROOT
ATOM      1  O   UNL     1      -3.598   2.075  -0.663  1.00  0.00    -0.374 OA
ENDROOT
BRANCH   1   2
ATOM      2  C   UNL     1      -3.757   0.697  -1.020  1.00  0.00     0.202 C 
BRANCH   2   3
ATOM      3  C   UNL     1      -2.943   0.300  -2.256  1.00  0.00     0.261 C 
BRANCH   3   4
ATOM      4  O   UNL     1      -1.546   0.211  -1.915  1.00  0.00    -0.461 OA
BRANCH   4   5
ATOM      5  C   UNL     1      -0.693   0.067  -2.967  1.00  0.00     0.336 C 
ATOM      6  O   UNL     1      -1.062   0.007  -4.136  1.00  0.00    -0.249 OA
BRANCH   5   7
ATOM      7  C   UNL     1       0.818   0.086  -2.514  1.00  0.00     0.161 C 
ATOM      8  C   UNL     1       1.487  -1.049  -3.300  1.00  0.00     0.053 C 
BRANCH   7   9
ATOM      9  C   UNL     1       1.358   1.496  -2.900  1.00  0.00    -0.012 A 
ATOM     10  C   UNL     1       2.382   1.698  -3.838  1.00  0.00     0.007 A 
ATOM     11  C   UNL     1       0.781   2.648  -2.321  1.00  0.00     0.007 A 
ATOM     12  C   UNL     1       2.779   2.989  -4.205  1.00  0.00     0.000 A 
ATOM     13  C   UNL     1       1.184   3.936  -2.678  1.00  0.00     0.000 A 
ATOM     14  C   UNL     1       2.178   4.105  -3.631  1.00  0.00     0.000 A 
ENDBRANCH   7   9
BRANCH   7  15
ATOM     15  N   UNL     1       1.029  -0.047  -1.039  1.00  0.00    -0.337 N 
ATOM     16  C   UNL     1       1.339  -0.980  -0.112  1.00  0.00     0.223 C 
ATOM     17  H   UNL     1       0.900   0.826  -0.604  1.00  0.00     0.164 HD
ATOM     18  O   UNL     1       1.391  -0.537   1.042  1.00  0.00    -0.275 OA
BRANCH  16  19
ATOM     19  C   UNL     1       1.725  -2.420  -0.390  1.00  0.00     0.132 C 
BRANCH  19  20
ATOM     20  C   UNL     1       0.799  -3.554   0.093  1.00  0.00     0.127 C 
ATOM     21  C   UNL     1      -0.357  -3.933  -0.822  1.00  0.00     0.033 C 
ATOM     22  O   UNL     1       0.338  -3.423   1.426  1.00  0.00    -0.378 OA
ATOM     23  C   UNL     1      -1.375  -2.826  -0.871  1.00  0.00     0.005 C 
ATOM     24  C   UNL     1      -0.785  -2.589   1.662  1.00  0.00     0.160 C 
ATOM     25  C   UNL     1      -1.728  -2.277   0.500  1.00  0.00     0.029 C 
ENDBRANCH  19  20
ENDBRANCH  16  19
ENDBRANCH   7  15
ENDBRANCH   5   7
ENDBRANCH   4   5
ENDBRANCH   3   4
ENDBRANCH   2   3
ENDBRANCH   1   2
BRANCH   1  26
ATOM     26  C   UNL     1      -2.373   2.405  -0.011  1.00  0.00     0.202 C 
BRANCH  26  27
ATOM     27  C   UNL     1      -2.434   2.427   1.515  1.00  0.00     0.261 C 
BRANCH  27  28
ATOM     28  O   UNL     1      -2.691   1.122   2.053  1.00  0.00    -0.460 OA
BRANCH  28  29
ATOM     29  C   UNL     1      -3.987   0.897   2.360  1.00  0.00     0.338 C 
ATOM     30  O   UNL     1      -4.919   1.684   2.223  1.00  0.00    -0.246 OA
BRANCH  29  31
ATOM     31  C   UNL     1      -4.188  -0.487   2.825  1.00  0.00     0.060 A 
ATOM     32  C   UNL     1      -5.389  -1.110   2.472  1.00  0.00     0.016 A 
ATOM     33  C   UNL     1      -3.285  -1.126   3.680  1.00  0.00     0.016 A 
ATOM     34  C   UNL     1      -5.741  -2.324   3.055  1.00  0.00     0.010 A 
ATOM     35  C   UNL     1      -3.630  -2.359   4.247  1.00  0.00     0.010 A 
ATOM     36  C   UNL     1      -4.891  -2.925   3.994  1.00  0.00    -0.014 A 
BRANCH  36  37
ATOM     37  C   UNL     1      -5.436  -4.008   4.853  1.00  0.00     0.031 A 
ATOM     38  C   UNL     1      -5.829  -3.679   6.272  1.00  0.00     0.074 A 
ATOM     39  C   UNL     1      -5.653  -5.243   4.365  1.00  0.00     0.049 A 
ATOM     40  N   UNL     1      -6.433  -4.428   7.159  1.00  0.00    -0.248 NA
ATOM     41  C   UNL     1      -5.496  -2.329   6.759  1.00  0.00     0.031 C 
ATOM     42  C   UNL     1      -5.304  -5.695   3.019  1.00  0.00     0.029 A 
ATOM     43  N   UNL     1      -6.226  -6.343   4.952  1.00  0.00    -0.354 N 
ATOM     44  C   UNL     1      -6.523  -3.654   8.311  1.00  0.00     0.074 A 
ATOM     45  C   UNL     1      -5.888  -2.388   8.022  1.00  0.00     0.031 C 
ATOM     46  C   UNL     1      -5.676  -6.981   2.881  1.00  0.00     0.029 A 
ATOM     47  C   UNL     1      -6.284  -7.442   4.128  1.00  0.00     0.049 A 
ATOM     48  H   UNL     1      -6.564  -6.346   5.877  1.00  0.00     0.167 HD
ATOM     49  C   UNL     1      -7.109  -3.951   9.494  1.00  0.00     0.034 A 
ATOM     50  C   UNL     1      -6.785  -8.674   4.351  1.00  0.00     0.034 A 
ATOM     51  C   UNL     1      -7.787  -5.186   9.770  1.00  0.00     0.049 A 
ATOM     52  C   UNL     1      -7.460  -8.969   5.668  1.00  0.00     0.074 A 
ATOM     53  C   UNL     1      -8.466  -5.559  10.915  1.00  0.00     0.029 A 
ATOM     54  N   UNL     1      -7.870  -6.252   8.889  1.00  0.00    -0.354 N 
ATOM     55  N   UNL     1      -7.667  -8.174   6.689  1.00  0.00    -0.248 NA
ATOM     56  C   UNL     1      -8.013 -10.321   5.842  1.00  0.00     0.031 C 
ATOM     57  C   UNL     1      -8.950  -6.858  10.732  1.00  0.00     0.029 A 
ATOM     58  C   UNL     1      -8.589  -7.285   9.464  1.00  0.00     0.049 A 
ATOM     59  H   UNL     1      -7.477  -6.272   7.986  1.00  0.00     0.167 HD
ATOM     60  C   UNL     1      -8.414  -8.910   7.603  1.00  0.00     0.074 A 
ATOM     61  C   UNL     1      -8.636 -10.212   7.008  1.00  0.00     0.031 C 
ATOM     62  C   UNL     1      -8.866  -8.547   8.830  1.00  0.00     0.034 A 
BRANCH  49  63
ATOM     63  C   UNL     1      -7.078  -2.896  10.569  1.00  0.00     0.023 A 
ATOM     64  C   UNL     1      -7.895  -1.754  10.447  1.00  0.00     0.012 A 
ATOM     65  C   UNL     1      -6.271  -3.052  11.713  1.00  0.00     0.148 A 
ATOM     66  C   UNL     1      -7.883  -0.765  11.430  1.00  0.00     0.002 A 
ATOM     67  C   UNL     1      -6.298  -2.083  12.709  1.00  0.00     0.091 A 
ATOM     68  F   UNL     1      -5.482  -4.132  11.797  1.00  0.00    -0.205 F 
ATOM     69  C   UNL     1      -7.093  -0.934  12.564  1.00  0.00     0.022 A 
BRANCH  67  70
ATOM     70  S   UNL     1      -5.374  -2.251  14.240  1.00  0.00     0.127 S 
ATOM     71  O   UNL     1      -4.285  -1.297  14.035  1.00  0.00    -0.237 OA
ATOM     72  O   UNL     1      -6.360  -1.843  15.243  1.00  0.00    -0.237 OA
ATOM     73  O   UNL     1      -4.979  -3.650  14.316  1.00  0.00    -0.744 OA
ENDBRANCH  67  70
ENDBRANCH  49  63
BRANCH  50  74
ATOM     74  C   UNL     1      -6.751  -9.702   3.272  1.00  0.00     0.023 A 
ATOM     75  C   UNL     1      -7.954 -10.098   2.655  1.00  0.00     0.012 A 
ATOM     76  C   UNL     1      -5.540 -10.285   2.852  1.00  0.00     0.148 A 
ATOM     77  C   UNL     1      -7.957 -11.080   1.664  1.00  0.00     0.002 A 
ATOM     78  C   UNL     1      -5.544 -11.226   1.828  1.00  0.00     0.091 A 
ATOM     79  F   UNL     1      -4.408  -9.908   3.462  1.00  0.00    -0.205 F 
ATOM     80  C   UNL     1      -6.753 -11.638   1.245  1.00  0.00     0.022 A 
BRANCH  78  81
ATOM     81  S   UNL     1      -4.031 -11.909   1.141  1.00  0.00     0.127 S 
ATOM     82  O   UNL     1      -4.066 -13.280   1.644  1.00  0.00    -0.237 OA
ATOM     83  O   UNL     1      -4.264 -11.774  -0.297  1.00  0.00    -0.237 OA
ATOM     84  O   UNL     1      -2.955 -11.072   1.654  1.00  0.00    -0.744 OA
ENDBRANCH  78  81
ENDBRANCH  50  74
BRANCH  62  85
ATOM     85  C   UNL     1      -9.695  -9.543   9.599  1.00  0.00     0.023 A 
ATOM     86  C   UNL     1      -9.082 -10.672  10.176  1.00  0.00     0.012 A 
ATOM     87  C   UNL     1     -11.069  -9.315   9.819  1.00  0.00     0.148 A 
ATOM     88  C   UNL     1      -9.828 -11.577  10.931  1.00  0.00     0.002 A 
ATOM     89  C   UNL     1     -11.796 -10.195  10.612  1.00  0.00     0.091 A 
ATOM     90  F   UNL     1     -11.642  -8.247   9.246  1.00  0.00    -0.205 F 
ATOM     91  C   UNL     1     -11.181 -11.332  11.159  1.00  0.00     0.022 A 
BRANCH  89  92
ATOM     92  S   UNL     1     -13.517  -9.894  11.035  1.00  0.00     0.127 S 
ATOM     93  O   UNL     1     -14.213 -10.772  10.097  1.00  0.00    -0.237 OA
ATOM     94  O   UNL     1     -13.579 -10.324  12.433  1.00  0.00    -0.237 OA
ATOM     95  O   UNL     1     -13.726  -8.466  10.838  1.00  0.00    -0.744 OA
ENDBRANCH  89  92
ENDBRANCH  62  85
ENDBRANCH  36  37
ENDBRANCH  29  31
ENDBRANCH  28  29
ENDBRANCH  27  28
ENDBRANCH  26  27
ENDBRANCH   1  26
TORSDOF 21
