REMARK SMILES Cc1ccc(NC(=O)C[C@H]2SC[C@H](C(=O)OCCOCCOC(=O)c3ccc(-c4c5nc(c(-c6cccc(S(=O)(=O)[O-])c6F)c6ccc([nH]6)c(-c6cccc(S(=O)(=O)[O-])c6F)c6nc(c(-c7cccc(S(=O)(=O)[O-])c7F)c7ccc4[nH]7)C=C6)C=C5)cc3)NC2=O)cc1
REMARK SMILES IDX 19 1 18 2 17 3 16 4 14 5 15 6 13 7 10 8 11 9 89 10 12 11
REMARK SMILES IDX 88 12 90 13 9 15 7 16 6 17 8 19 5 20 1 21 2 22 3 23 92 24
REMARK SMILES IDX 4 25 91 26 20 27 21 28 22 29 23 30 24 31 25 32 26 33 87 34
REMARK SMILES IDX 27 35 86 36 28 37 29 38 30 39 80 40 31 41 85 42 79 43 81 44
REMARK SMILES IDX 32 45 84 46 78 47 77 48 33 50 65 51 45 52 64 53 46 54 49 55
REMARK SMILES IDX 63 56 82 57 47 58 48 59 62 61 83 62 50 63 34 64 35 65 43 66
REMARK SMILES IDX 36 67 38 68 44 69 37 70 39 71 40 72 41 73 42 74 66 75 67 76
REMARK SMILES IDX 75 77 68 78 70 79 76 80 69 81 71 82 72 83 73 84 74 85 51 86
REMARK SMILES IDX 52 87 60 88 53 89 55 90 61 91 54 92 56 93 57 94 58 95 59 96
REMARK H PARENT 88 14 6 18 81 49 49 60
REMARK Flexibility Score: inf
ROOT
ATOM      1  O   UNL     1      -6.720  -2.354  -4.860  1.00  0.00    -0.374 OA
ENDROOT
BRANCH   1   2
ATOM      2  C   UNL     1      -7.367  -1.976  -3.653  1.00  0.00     0.202 C 
BRANCH   2   3
ATOM      3  C   UNL     1      -7.180  -3.140  -2.714  1.00  0.00     0.261 C 
BRANCH   3   4
ATOM      4  O   UNL     1      -5.771  -3.300  -2.435  1.00  0.00    -0.462 OA
BRANCH   4   5
ATOM      5  C   UNL     1      -4.971  -3.803  -3.425  1.00  0.00     0.329 C 
ATOM      6  O   UNL     1      -5.279  -4.653  -4.245  1.00  0.00    -0.250 OA
BRANCH   5   7
ATOM      7  C   UNL     1      -3.578  -3.228  -3.350  1.00  0.00     0.202 C 
ATOM      8  C   UNL     1      -1.341  -2.510  -1.525  1.00  0.00     0.145 C 
ATOM      9  S   UNL     1      -1.962  -1.123  -2.557  1.00  0.00    -0.145 SA
ATOM     10  C   UNL     1      -1.422  -3.826  -2.311  1.00  0.00     0.234 C 
ATOM     11  C   UNL     1      -3.623  -1.807  -2.787  1.00  0.00     0.107 C 
ATOM     12  N   UNL     1      -2.680  -4.184  -2.718  1.00  0.00    -0.341 N 
ATOM     13  O   UNL     1      -0.483  -4.587  -2.515  1.00  0.00    -0.274 OA
ATOM     14  H   UNL     1      -2.985  -5.110  -2.580  1.00  0.00     0.164 HD
BRANCH   8  15
ATOM     15  C   UNL     1      -0.003  -2.136  -0.899  1.00  0.00     0.124 C 
BRANCH  15  16
ATOM     16  C   UNL     1       0.931  -3.279  -0.582  1.00  0.00     0.226 C 
ATOM     17  N   UNL     1       0.541  -4.386   0.106  1.00  0.00    -0.326 N 
ATOM     18  H   UNL     1       1.186  -5.127   0.035  1.00  0.00     0.169 HD
ATOM     19  O   UNL     1       2.103  -3.223  -0.973  1.00  0.00    -0.275 OA
BRANCH  17  20
ATOM     20  C   UNL     1      -0.574  -4.707   0.893  1.00  0.00     0.041 A 
ATOM     21  C   UNL     1      -3.810  -6.009   3.442  1.00  0.00     0.044 C 
ATOM     22  C   UNL     1      -2.702  -5.564   2.535  1.00  0.00    -0.051 A 
ATOM     23  C   UNL     1      -2.444  -4.202   2.350  1.00  0.00     0.005 A 
ATOM     24  C   UNL     1      -1.896  -6.497   1.881  1.00  0.00     0.005 A 
ATOM     25  C   UNL     1      -1.379  -3.776   1.544  1.00  0.00     0.026 A 
ATOM     26  C   UNL     1      -0.838  -6.070   1.074  1.00  0.00     0.026 A 
ENDBRANCH  17  20
ENDBRANCH  15  16
ENDBRANCH   8  15
ENDBRANCH   5   7
ENDBRANCH   4   5
ENDBRANCH   3   4
ENDBRANCH   2   3
ENDBRANCH   1   2
BRANCH   1  27
ATOM     27  C   UNL     1      -6.616  -1.384  -5.878  1.00  0.00     0.202 C 
BRANCH  27  28
ATOM     28  C   UNL     1      -7.966  -0.817  -6.317  1.00  0.00     0.261 C 
BRANCH  28  29
ATOM     29  O   UNL     1      -8.737  -1.857  -6.949  1.00  0.00    -0.460 OA
BRANCH  29  30
ATOM     30  C   UNL     1      -9.714  -2.404  -6.171  1.00  0.00     0.338 C 
ATOM     31  O   UNL     1     -10.606  -1.754  -5.644  1.00  0.00    -0.246 OA
BRANCH  30  32
ATOM     32  C   UNL     1      -9.389  -3.830  -5.875  1.00  0.00     0.060 A 
ATOM     33  C   UNL     1     -10.049  -4.503  -4.832  1.00  0.00     0.016 A 
ATOM     34  C   UNL     1      -8.247  -4.395  -6.443  1.00  0.00     0.016 A 
ATOM     35  C   UNL     1      -9.482  -5.651  -4.256  1.00  0.00     0.010 A 
ATOM     36  C   UNL     1      -7.655  -5.481  -5.823  1.00  0.00     0.010 A 
ATOM     37  C   UNL     1      -8.239  -6.087  -4.695  1.00  0.00    -0.014 A 
BRANCH  37  38
ATOM     38  C   UNL     1      -7.436  -7.154  -4.090  1.00  0.00     0.031 A 
ATOM     39  C   UNL     1      -7.249  -8.393  -4.873  1.00  0.00     0.074 A 
ATOM     40  C   UNL     1      -6.622  -6.935  -3.027  1.00  0.00     0.049 A 
ATOM     41  N   UNL     1      -6.605  -9.423  -4.444  1.00  0.00    -0.248 NA
ATOM     42  C   UNL     1      -7.837  -8.601  -6.196  1.00  0.00     0.031 C 
ATOM     43  C   UNL     1      -5.302  -7.534  -2.804  1.00  0.00     0.029 A 
ATOM     44  N   UNL     1      -6.759  -6.070  -1.939  1.00  0.00    -0.354 N 
ATOM     45  C   UNL     1      -6.367 -10.224  -5.532  1.00  0.00     0.074 A 
ATOM     46  C   UNL     1      -7.314  -9.786  -6.522  1.00  0.00     0.031 C 
ATOM     47  C   UNL     1      -4.843  -7.185  -1.591  1.00  0.00     0.029 A 
ATOM     48  C   UNL     1      -5.923  -6.505  -0.902  1.00  0.00     0.049 A 
ATOM     49  H   UNL     1      -7.348  -5.282  -1.906  1.00  0.00     0.167 HD
ATOM     50  C   UNL     1      -5.269 -11.028  -5.510  1.00  0.00     0.034 A 
ATOM     51  C   UNL     1      -6.420  -6.795   0.331  1.00  0.00     0.034 A 
ATOM     52  C   UNL     1      -4.665 -11.059  -4.157  1.00  0.00     0.049 A 
ATOM     53  C   UNL     1      -6.234  -8.257   0.637  1.00  0.00     0.074 A 
ATOM     54  C   UNL     1      -3.477 -10.583  -3.627  1.00  0.00     0.029 A 
ATOM     55  N   UNL     1      -5.452 -11.426  -3.059  1.00  0.00    -0.354 N 
ATOM     56  N   UNL     1      -5.797  -9.101  -0.255  1.00  0.00    -0.248 NA
ATOM     57  C   UNL     1      -6.464  -8.900   1.924  1.00  0.00     0.031 C 
ATOM     58  C   UNL     1      -3.595 -10.585  -2.204  1.00  0.00     0.029 A 
ATOM     59  C   UNL     1      -4.832 -11.108  -1.858  1.00  0.00     0.049 A 
ATOM     60  H   UNL     1      -6.335 -11.856  -3.129  1.00  0.00     0.167 HD
ATOM     61  C   UNL     1      -5.761 -10.359   0.243  1.00  0.00     0.074 A 
ATOM     62  C   UNL     1      -6.142 -10.177   1.637  1.00  0.00     0.031 C 
ATOM     63  C   UNL     1      -5.465 -11.420  -0.568  1.00  0.00     0.034 A 
BRANCH  50  64
ATOM     64  C   UNL     1      -4.603 -11.640  -6.743  1.00  0.00     0.023 A 
ATOM     65  C   UNL     1      -3.441 -12.414  -6.528  1.00  0.00     0.012 A 
ATOM     66  C   UNL     1      -4.969 -11.464  -8.106  1.00  0.00     0.148 A 
ATOM     67  C   UNL     1      -2.696 -12.972  -7.578  1.00  0.00     0.002 A 
ATOM     68  C   UNL     1      -4.271 -12.080  -9.150  1.00  0.00     0.091 A 
ATOM     69  F   UNL     1      -5.948 -10.626  -8.442  1.00  0.00    -0.205 F 
ATOM     70  C   UNL     1      -3.121 -12.823  -8.890  1.00  0.00     0.022 A 
BRANCH  68  71
ATOM     71  S   UNL     1      -4.801 -11.970 -10.874  1.00  0.00     0.127 S 
ATOM     72  O   UNL     1      -3.673 -11.281 -11.502  1.00  0.00    -0.237 OA
ATOM     73  O   UNL     1      -4.936 -13.378 -11.248  1.00  0.00    -0.237 OA
ATOM     74  O   UNL     1      -6.053 -11.223 -10.879  1.00  0.00    -0.744 OA
ENDBRANCH  68  71
ENDBRANCH  50  64
BRANCH  51  75
ATOM     75  C   UNL     1      -7.529  -5.879   0.734  1.00  0.00     0.023 A 
ATOM     76  C   UNL     1      -7.153  -4.550   1.065  1.00  0.00     0.012 A 
ATOM     77  C   UNL     1      -8.859  -6.124   0.343  1.00  0.00     0.148 A 
ATOM     78  C   UNL     1      -8.046  -3.484   0.921  1.00  0.00     0.002 A 
ATOM     79  C   UNL     1      -9.723  -5.046   0.139  1.00  0.00     0.091 A 
ATOM     80  F   UNL     1      -9.229  -7.386   0.093  1.00  0.00    -0.205 F 
ATOM     81  C   UNL     1      -9.317  -3.729   0.419  1.00  0.00     0.022 A 
BRANCH  79  82
ATOM     82  S   UNL     1     -11.304  -5.222  -0.704  1.00  0.00     0.127 S 
ATOM     83  O   UNL     1     -12.248  -5.016   0.391  1.00  0.00    -0.237 OA
ATOM     84  O   UNL     1     -11.247  -4.128  -1.677  1.00  0.00    -0.237 OA
ATOM     85  O   UNL     1     -11.293  -6.552  -1.292  1.00  0.00    -0.744 OA
ENDBRANCH  79  82
ENDBRANCH  51  75
BRANCH  63  86
ATOM     86  C   UNL     1      -5.744 -12.858  -0.202  1.00  0.00     0.023 A 
ATOM     87  C   UNL     1      -6.652 -13.207   0.817  1.00  0.00     0.012 A 
ATOM     88  C   UNL     1      -5.226 -13.917  -0.987  1.00  0.00     0.148 A 
ATOM     89  C   UNL     1      -6.977 -14.536   1.096  1.00  0.00     0.002 A 
ATOM     90  C   UNL     1      -5.655 -15.223  -0.792  1.00  0.00     0.091 A 
ATOM     91  F   UNL     1      -4.299 -13.668  -1.922  1.00  0.00    -0.205 F 
ATOM     92  C   UNL     1      -6.499 -15.544   0.273  1.00  0.00     0.022 A 
BRANCH  90  93
ATOM     93  S   UNL     1      -5.292 -16.510  -1.991  1.00  0.00     0.127 S 
ATOM     94  O   UNL     1      -4.183 -17.213  -1.348  1.00  0.00    -0.237 OA
ATOM     95  O   UNL     1      -6.550 -17.258  -2.029  1.00  0.00    -0.237 OA
ATOM     96  O   UNL     1      -4.976 -15.810  -3.228  1.00  0.00    -0.744 OA
ENDBRANCH  90  93
ENDBRANCH  63  86
ENDBRANCH  37  38
ENDBRANCH  30  32
ENDBRANCH  29  30
ENDBRANCH  28  29
ENDBRANCH  27  28
ENDBRANCH   1  27
TORSDOF 20
