REMARK SMILES [NH3+][C@H]1C=C[C@H](C(=O)N2CCCc3c(C(=O)OCCOCCOC(=O)c4ccc(-c5c6nc(c(-c7cccc(S(=O)(=O)[O-])c7F)c7ccc([nH]7)c(-c7cccc(S(=O)(=O)[O-])c7F)c7nc(c(-c8cccc(S(=O)(=O)[O-])c8F)c8ccc5[nH]8)C=C7)C=C6)cc4)cccc32)C1
REMARK SMILES IDX 19 1 18 2 17 3 16 4 14 5 15 6 13 7 8 8 9 9 91 10 10 11 12 12
REMARK SMILES IDX 90 13 11 14 89 15 88 16 6 17 7 18 5 19 2 20 3 21 92 22 4 23
REMARK SMILES IDX 1 24 20 28 21 29 22 30 23 31 24 32 25 33 26 34 87 35 27 36
REMARK SMILES IDX 86 37 28 38 29 39 30 40 80 41 31 42 85 43 79 44 81 45 32 46
REMARK SMILES IDX 84 47 78 48 77 49 33 51 65 52 45 53 64 54 46 55 49 56 63 57
REMARK SMILES IDX 82 58 47 59 48 60 62 62 83 63 50 64 34 65 35 66 43 67 36 68
REMARK SMILES IDX 38 69 44 70 37 71 39 72 40 73 41 74 42 75 66 76 67 77 75 78
REMARK SMILES IDX 68 79 70 80 76 81 69 82 71 83 72 84 73 85 74 86 51 87 52 88
REMARK SMILES IDX 60 89 53 90 55 91 61 92 54 93 56 94 57 95 58 96 59 97
REMARK H PARENT 1 25 1 26 1 27 81 50 49 61
REMARK Flexibility Score: inf
ROOT
ATOM      1  O   UNL     1      -7.658  -8.985   1.470  1.00  0.00    -0.374 OA
ENDROOT
BRANCH   1   2
ATOM      2  C   UNL     1      -6.906 -10.053   0.886  1.00  0.00     0.202 C 
BRANCH   2   3
ATOM      3  C   UNL     1      -6.392  -9.788  -0.530  1.00  0.00     0.261 C 
BRANCH   3   4
ATOM      4  O   UNL     1      -5.379  -8.770  -0.486  1.00  0.00    -0.460 OA
BRANCH   4   5
ATOM      5  C   UNL     1      -5.586  -7.692  -1.270  1.00  0.00     0.338 C 
ATOM      6  O   UNL     1      -6.436  -7.583  -2.144  1.00  0.00    -0.246 OA
BRANCH   5   7
ATOM      7  C   UNL     1      -4.785  -6.535  -0.788  1.00  0.00     0.065 A 
ATOM      8  N   UNL     1      -1.351  -5.319   0.059  1.00  0.00    -0.312 N 
ATOM      9  C   UNL     1      -0.597  -6.498  -0.354  1.00  0.00     0.126 C 
ATOM     10  C   UNL     1      -2.775  -5.363  -0.088  1.00  0.00     0.048 A 
ATOM     11  C   UNL     1      -1.245  -7.748   0.204  1.00  0.00     0.027 C 
ATOM     12  C   UNL     1      -3.424  -6.581  -0.400  1.00  0.00    -0.010 A 
ATOM     13  C   UNL     1      -3.521  -4.170  -0.046  1.00  0.00     0.027 A 
ATOM     14  C   UNL     1      -2.662  -7.887  -0.341  1.00  0.00     0.040 C 
ATOM     15  C   UNL     1      -4.874  -4.149  -0.362  1.00  0.00     0.003 A 
ATOM     16  C   UNL     1      -5.495  -5.322  -0.757  1.00  0.00     0.016 A 
BRANCH   8  17
ATOM     17  C   UNL     1      -0.697  -4.174   0.516  1.00  0.00     0.234 C 
ATOM     18  O   UNL     1      -1.089  -3.516   1.483  1.00  0.00    -0.274 OA
BRANCH  17  19
ATOM     19  C   UNL     1       0.451  -3.675  -0.377  1.00  0.00     0.108 C 
ATOM     20  C   UNL     1       0.564  -1.278   0.049  1.00  0.00     0.205 C 
ATOM     21  C   UNL     1      -0.093  -1.558  -1.262  1.00  0.00     0.033 C 
ATOM     22  C   UNL     1       1.301  -2.601   0.315  1.00  0.00     0.087 C 
ATOM     23  C   UNL     1      -0.153  -2.874  -1.504  1.00  0.00    -0.012 C 
BRANCH  20  24
ATOM     24  N   UNL     1       1.470  -0.146  -0.028  1.00  0.00    -0.352 N 
ATOM     25  H   UNL     1       0.937   0.705  -0.205  1.00  0.00     0.345 HD
ATOM     26  H   UNL     1       2.136  -0.294  -0.786  1.00  0.00     0.345 HD
ATOM     27  H   UNL     1       1.975  -0.053   0.854  1.00  0.00     0.345 HD
ENDBRANCH  20  24
ENDBRANCH  17  19
ENDBRANCH   8  17
ENDBRANCH   5   7
ENDBRANCH   4   5
ENDBRANCH   3   4
ENDBRANCH   2   3
ENDBRANCH   1   2
BRANCH   1  28
ATOM     28  C   UNL     1      -6.913  -7.895   2.018  1.00  0.00     0.202 C 
BRANCH  28  29
ATOM     29  C   UNL     1      -6.352  -8.102   3.429  1.00  0.00     0.261 C 
BRANCH  29  30
ATOM     30  O   UNL     1      -5.330  -9.113   3.459  1.00  0.00    -0.460 OA
BRANCH  30  31
ATOM     31  C   UNL     1      -5.708 -10.284   4.023  1.00  0.00     0.338 C 
ATOM     32  O   UNL     1      -6.780 -10.531   4.560  1.00  0.00    -0.246 OA
BRANCH  31  33
ATOM     33  C   UNL     1      -4.699 -11.325   3.754  1.00  0.00     0.060 A 
ATOM     34  C   UNL     1      -5.157 -12.550   3.251  1.00  0.00     0.016 A 
ATOM     35  C   UNL     1      -3.346 -11.139   4.046  1.00  0.00     0.016 A 
ATOM     36  C   UNL     1      -4.274 -13.615   3.096  1.00  0.00     0.010 A 
ATOM     37  C   UNL     1      -2.461 -12.212   3.895  1.00  0.00     0.010 A 
ATOM     38  C   UNL     1      -2.929 -13.465   3.459  1.00  0.00    -0.014 A 
BRANCH  38  39
ATOM     39  C   UNL     1      -2.055 -14.661   3.523  1.00  0.00     0.031 A 
ATOM     40  C   UNL     1      -1.789 -15.300   4.859  1.00  0.00     0.074 A 
ATOM     41  C   UNL     1      -1.517 -15.181   2.406  1.00  0.00     0.049 A 
ATOM     42  N   UNL     1      -1.067 -16.352   5.145  1.00  0.00    -0.248 NA
ATOM     43  C   UNL     1      -2.419 -14.666   6.030  1.00  0.00     0.031 C 
ATOM     44  C   UNL     1      -1.705 -14.657   1.054  1.00  0.00     0.029 A 
ATOM     45  N   UNL     1      -0.687 -16.261   2.236  1.00  0.00    -0.354 N 
ATOM     46  C   UNL     1      -1.133 -16.493   6.526  1.00  0.00     0.074 A 
ATOM     47  C   UNL     1      -1.951 -15.408   7.023  1.00  0.00     0.031 C 
ATOM     48  C   UNL     1      -0.996 -15.407   0.194  1.00  0.00     0.029 A 
ATOM     49  C   UNL     1      -0.289 -16.450   0.934  1.00  0.00     0.049 A 
ATOM     50  H   UNL     1      -0.404 -16.844   2.977  1.00  0.00     0.167 HD
ATOM     51  C   UNL     1      -0.579 -17.448   7.310  1.00  0.00     0.034 A 
ATOM     52  C   UNL     1       0.556 -17.357   0.405  1.00  0.00     0.034 A 
ATOM     53  C   UNL     1       0.214 -18.539   6.812  1.00  0.00     0.049 A 
ATOM     54  C   UNL     1       1.180 -18.395   1.302  1.00  0.00     0.074 A 
ATOM     55  C   UNL     1       0.775 -19.588   7.519  1.00  0.00     0.029 A 
ATOM     56  N   UNL     1       0.571 -18.716   5.484  1.00  0.00    -0.354 N 
ATOM     57  N   UNL     1       1.004 -18.590   2.587  1.00  0.00    -0.248 NA
ATOM     58  C   UNL     1       2.093 -19.358   0.669  1.00  0.00     0.031 C 
ATOM     59  C   UNL     1       1.492 -20.386   6.621  1.00  0.00     0.029 A 
ATOM     60  C   UNL     1       1.356 -19.848   5.351  1.00  0.00     0.049 A 
ATOM     61  H   UNL     1       0.304 -18.124   4.745  1.00  0.00     0.167 HD
ATOM     62  C   UNL     1       1.749 -19.721   2.907  1.00  0.00     0.074 A 
ATOM     63  C   UNL     1       2.366 -20.175   1.678  1.00  0.00     0.031 C 
ATOM     64  C   UNL     1       1.918 -20.322   4.111  1.00  0.00     0.034 A 
BRANCH  51  65
ATOM     65  C   UNL     1      -0.837 -17.368   8.791  1.00  0.00     0.023 A 
ATOM     66  C   UNL     1      -2.115 -17.689   9.295  1.00  0.00     0.012 A 
ATOM     67  C   UNL     1       0.190 -17.015   9.687  1.00  0.00     0.148 A 
ATOM     68  C   UNL     1      -2.375 -17.626  10.663  1.00  0.00     0.002 A 
ATOM     69  C   UNL     1      -0.066 -16.995  11.054  1.00  0.00     0.091 A 
ATOM     70  F   UNL     1       1.390 -16.687   9.189  1.00  0.00    -0.205 F 
ATOM     71  C   UNL     1      -1.349 -17.289  11.542  1.00  0.00     0.022 A 
BRANCH  69  72
ATOM     72  S   UNL     1       1.212 -16.646  12.267  1.00  0.00     0.127 S 
ATOM     73  O   UNL     1       0.868 -15.285  12.675  1.00  0.00    -0.237 OA
ATOM     74  O   UNL     1       0.963 -17.668  13.284  1.00  0.00    -0.237 OA
ATOM     75  O   UNL     1       2.479 -16.790  11.563  1.00  0.00    -0.744 OA
ENDBRANCH  69  72
ENDBRANCH  51  65
BRANCH  52  76
ATOM     76  C   UNL     1       0.821 -17.359  -1.061  1.00  0.00     0.023 A 
ATOM     77  C   UNL     1       0.332 -18.418  -1.851  1.00  0.00     0.012 A 
ATOM     78  C   UNL     1       1.536 -16.315  -1.679  1.00  0.00     0.148 A 
ATOM     79  C   UNL     1       0.573 -18.450  -3.225  1.00  0.00     0.002 A 
ATOM     80  C   UNL     1       1.726 -16.326  -3.056  1.00  0.00     0.091 A 
ATOM     81  F   UNL     1       2.010 -15.326  -0.907  1.00  0.00    -0.205 F 
ATOM     82  C   UNL     1       1.260 -17.400  -3.829  1.00  0.00     0.022 A 
BRANCH  80  83
ATOM     83  S   UNL     1       2.486 -14.954  -3.933  1.00  0.00     0.127 S 
ATOM     84  O   UNL     1       3.769 -15.525  -4.329  1.00  0.00    -0.237 OA
ATOM     85  O   UNL     1       1.542 -14.736  -5.029  1.00  0.00    -0.237 OA
ATOM     86  O   UNL     1       2.548 -13.860  -2.972  1.00  0.00    -0.744 OA
ENDBRANCH  80  83
ENDBRANCH  52  76
BRANCH  64  87
ATOM     87  C   UNL     1       2.772 -21.562   4.163  1.00  0.00     0.023 A 
ATOM     88  C   UNL     1       4.171 -21.456   4.033  1.00  0.00     0.012 A 
ATOM     89  C   UNL     1       2.195 -22.823   4.415  1.00  0.00     0.148 A 
ATOM     90  C   UNL     1       4.979 -22.590   4.121  1.00  0.00     0.002 A 
ATOM     91  C   UNL     1       3.011 -23.941   4.549  1.00  0.00     0.091 A 
ATOM     92  F   UNL     1       0.861 -22.908   4.516  1.00  0.00    -0.205 F 
ATOM     93  C   UNL     1       4.401 -23.828   4.391  1.00  0.00     0.022 A 
BRANCH  91  94
ATOM     94  S   UNL     1       2.361 -25.557   4.992  1.00  0.00     0.127 S 
ATOM     95  O   UNL     1       2.434 -26.267   3.716  1.00  0.00    -0.237 OA
ATOM     96  O   UNL     1       3.318 -26.013   6.000  1.00  0.00    -0.237 OA
ATOM     97  O   UNL     1       1.017 -25.320   5.502  1.00  0.00    -0.744 OA
ENDBRANCH  91  94
ENDBRANCH  64  87
ENDBRANCH  38  39
ENDBRANCH  31  33
ENDBRANCH  30  31
ENDBRANCH  29  30
ENDBRANCH  28  29
ENDBRANCH   1  28
TORSDOF 20
