REMARK SMILES COc1cccc(C(=O)Nc2cccc(C(=O)OCCOCCOC(=O)c3ccc(-c4c5nc(c(-c6cccc(S(=O)(=O)[O-])c6F)c6ccc([nH]6)c(-c6cccc(S(=O)(=O)[O-])c6F)c6nc(c(-c7cccc(S(=O)(=O)[O-])c7F)c7ccc4[nH]7)C=C6)C=C5)cc3)c2C)c1
REMARK SMILES IDX 21 1 20 2 19 3 18 4 16 5 17 6 15 7 11 8 12 9 90 10 13 11
REMARK SMILES IDX 91 12 14 13 10 14 8 15 9 16 7 18 3 19 4 20 92 21 5 22 6 23
REMARK SMILES IDX 2 24 1 25 22 26 23 27 24 28 25 29 26 30 27 31 28 32 89 33
REMARK SMILES IDX 29 34 88 35 30 36 31 37 32 38 82 39 33 40 87 41 81 42 83 43
REMARK SMILES IDX 34 44 86 45 80 46 79 47 35 49 67 50 47 51 66 52 48 53 51 54
REMARK SMILES IDX 65 55 84 56 49 57 50 58 64 60 85 61 52 62 36 63 37 64 45 65
REMARK SMILES IDX 38 66 40 67 46 68 39 69 41 70 42 71 43 72 44 73 68 74 69 75
REMARK SMILES IDX 77 76 70 77 72 78 78 79 71 80 73 81 74 82 75 83 76 84 53 85
REMARK SMILES IDX 54 86 62 87 55 88 57 89 63 90 56 91 58 92 59 93 60 94 61 95
REMARK H PARENT 10 17 83 48 51 59
REMARK Flexibility Score: inf
ROOT
ATOM      1  O   UNL     1       2.354   4.364  -2.932  1.00  0.00    -0.374 OA
ENDROOT
BRANCH   1   2
ATOM      2  C   UNL     1       1.486   4.713  -1.850  1.00  0.00     0.202 C 
BRANCH   2   3
ATOM      3  C   UNL     1       0.820   3.563  -1.092  1.00  0.00     0.261 C 
BRANCH   3   4
ATOM      4  O   UNL     1       1.796   2.853  -0.312  1.00  0.00    -0.460 OA
BRANCH   4   5
ATOM      5  C   UNL     1       2.001   1.569  -0.662  1.00  0.00     0.338 C 
ATOM      6  O   UNL     1       1.381   0.947  -1.517  1.00  0.00    -0.246 OA
BRANCH   5   7
ATOM      7  C   UNL     1       3.198   0.979   0.003  1.00  0.00     0.065 A 
ATOM      8  C   UNL     1       4.473   0.328   1.933  1.00  0.00     0.045 A 
ATOM      9  C   UNL     1       5.170  -0.613   1.159  1.00  0.00     0.026 A 
ATOM     10  C   UNL     1       3.616   1.261   1.318  1.00  0.00    -0.013 A 
ATOM     11  C   UNL     1       4.874  -0.773  -0.188  1.00  0.00     0.003 A 
ATOM     12  C   UNL     1       3.245   2.547   2.013  1.00  0.00     0.047 C 
ATOM     13  C   UNL     1       3.846  -0.025  -0.743  1.00  0.00     0.016 A 
BRANCH   8  14
ATOM     14  N   UNL     1       4.608   0.163   3.323  1.00  0.00    -0.322 N 
ATOM     15  C   UNL     1       3.667   0.229   4.335  1.00  0.00     0.255 C 
ATOM     16  O   UNL     1       4.043   0.066   5.496  1.00  0.00    -0.269 OA
ATOM     17  H   UNL     1       5.525  -0.030   3.627  1.00  0.00     0.170 HD
BRANCH  15  18
ATOM     18  C   UNL     1       2.214   0.425   4.073  1.00  0.00     0.043 A 
ATOM     19  C   UNL     1       0.228   0.169   2.704  1.00  0.00     0.119 A 
ATOM     20  C   UNL     1      -0.433   1.084   3.530  1.00  0.00     0.046 A 
ATOM     21  C   UNL     1       1.537  -0.205   3.013  1.00  0.00     0.060 A 
ATOM     22  C   UNL     1       0.199   1.628   4.648  1.00  0.00     0.005 A 
ATOM     23  C   UNL     1       1.526   1.304   4.918  1.00  0.00     0.014 A 
BRANCH  19  24
ATOM     24  O   UNL     1      -0.505  -0.235   1.624  1.00  0.00    -0.497 OA
ATOM     25  C   UNL     1       0.078  -1.138   0.697  1.00  0.00     0.278 C 
ENDBRANCH  19  24
ENDBRANCH  15  18
ENDBRANCH   8  14
ENDBRANCH   5   7
ENDBRANCH   4   5
ENDBRANCH   3   4
ENDBRANCH   2   3
ENDBRANCH   1   2
BRANCH   1  26
ATOM     26  C   UNL     1       3.598   3.740  -2.627  1.00  0.00     0.202 C 
BRANCH  26  27
ATOM     27  C   UNL     1       4.731   4.610  -2.072  1.00  0.00     0.261 C 
BRANCH  27  28
ATOM     28  O   UNL     1       4.361   5.368  -0.912  1.00  0.00    -0.460 OA
BRANCH  28  29
ATOM     29  C   UNL     1       4.136   6.678  -1.167  1.00  0.00     0.338 C 
ATOM     30  O   UNL     1       4.278   7.253  -2.243  1.00  0.00    -0.246 OA
BRANCH  29  31
ATOM     31  C   UNL     1       3.524   7.343  -0.006  1.00  0.00     0.060 A 
ATOM     32  C   UNL     1       2.360   8.083  -0.241  1.00  0.00     0.016 A 
ATOM     33  C   UNL     1       4.120   7.335   1.258  1.00  0.00     0.016 A 
ATOM     34  C   UNL     1       1.829   8.882   0.764  1.00  0.00     0.010 A 
ATOM     35  C   UNL     1       3.585   8.143   2.269  1.00  0.00     0.010 A 
ATOM     36  C   UNL     1       2.469   8.959   2.009  1.00  0.00    -0.014 A 
BRANCH  36  37
ATOM     37  C   UNL     1       2.040  10.015   2.956  1.00  0.00     0.031 A 
ATOM     38  C   UNL     1       2.827  11.295   3.035  1.00  0.00     0.074 A 
ATOM     39  C   UNL     1       0.918   9.864   3.683  1.00  0.00     0.049 A 
ATOM     40  N   UNL     1       2.559  12.390   3.698  1.00  0.00    -0.248 NA
ATOM     41  C   UNL     1       4.081  11.352   2.265  1.00  0.00     0.031 C 
ATOM     42  C   UNL     1       0.081   8.666   3.703  1.00  0.00     0.029 A 
ATOM     43  N   UNL     1       0.295  10.728   4.546  1.00  0.00    -0.354 N 
ATOM     44  C   UNL     1       3.614  13.258   3.441  1.00  0.00     0.074 A 
ATOM     45  C   UNL     1       4.538  12.556   2.578  1.00  0.00     0.031 C 
ATOM     46  C   UNL     1      -0.943   8.866   4.550  1.00  0.00     0.029 A 
ATOM     47  C   UNL     1      -0.832  10.203   5.131  1.00  0.00     0.049 A 
ATOM     48  H   UNL     1       0.623  11.638   4.729  1.00  0.00     0.167 HD
ATOM     49  C   UNL     1       3.786  14.533   3.863  1.00  0.00     0.034 A 
ATOM     50  C   UNL     1      -1.679  10.742   6.031  1.00  0.00     0.034 A 
ATOM     51  C   UNL     1       2.853  15.240   4.699  1.00  0.00     0.049 A 
ATOM     52  C   UNL     1      -1.474  12.169   6.469  1.00  0.00     0.074 A 
ATOM     53  C   UNL     1       2.910  16.552   5.135  1.00  0.00     0.029 A 
ATOM     54  N   UNL     1       1.698  14.692   5.234  1.00  0.00    -0.354 N 
ATOM     55  N   UNL     1      -0.553  13.024   6.097  1.00  0.00    -0.248 NA
ATOM     56  C   UNL     1      -2.456  12.719   7.415  1.00  0.00     0.031 C 
ATOM     57  C   UNL     1       1.798  16.791   5.951  1.00  0.00     0.029 A 
ATOM     58  C   UNL     1       1.038  15.634   6.005  1.00  0.00     0.049 A 
ATOM     59  H   UNL     1       1.392  13.768   5.088  1.00  0.00     0.167 HD
ATOM     60  C   UNL     1      -0.860  14.220   6.738  1.00  0.00     0.074 A 
ATOM     61  C   UNL     1      -2.071  13.985   7.497  1.00  0.00     0.031 C 
ATOM     62  C   UNL     1      -0.192  15.401   6.716  1.00  0.00     0.034 A 
BRANCH  49  63
ATOM     63  C   UNL     1       5.017  15.264   3.394  1.00  0.00     0.023 A 
ATOM     64  C   UNL     1       5.094  15.710   2.060  1.00  0.00     0.012 A 
ATOM     65  C   UNL     1       6.068  15.558   4.284  1.00  0.00     0.148 A 
ATOM     66  C   UNL     1       6.210  16.416   1.610  1.00  0.00     0.002 A 
ATOM     67  C   UNL     1       7.159  16.296   3.840  1.00  0.00     0.091 A 
ATOM     68  F   UNL     1       5.987  15.102   5.542  1.00  0.00    -0.205 F 
ATOM     69  C   UNL     1       7.236  16.718   2.502  1.00  0.00     0.022 A 
BRANCH  67  70
ATOM     70  S   UNL     1       8.496  16.798   4.930  1.00  0.00     0.127 S 
ATOM     71  O   UNL     1       9.586  15.936   4.475  1.00  0.00    -0.237 OA
ATOM     72  O   UNL     1       8.656  18.212   4.591  1.00  0.00    -0.237 OA
ATOM     73  O   UNL     1       8.024  16.548   6.284  1.00  0.00    -0.744 OA
ENDBRANCH  67  70
ENDBRANCH  49  63
BRANCH  50  74
ATOM     74  C   UNL     1      -2.833   9.944   6.531  1.00  0.00     0.023 A 
ATOM     75  C   UNL     1      -4.143  10.300   6.158  1.00  0.00     0.012 A 
ATOM     76  C   UNL     1      -2.635   8.821   7.357  1.00  0.00     0.148 A 
ATOM     77  C   UNL     1      -5.237   9.569   6.623  1.00  0.00     0.002 A 
ATOM     78  C   UNL     1      -3.724   8.064   7.769  1.00  0.00     0.091 A 
ATOM     79  F   UNL     1      -1.382   8.511   7.720  1.00  0.00    -0.205 F 
ATOM     80  C   UNL     1      -5.028   8.445   7.418  1.00  0.00     0.022 A 
BRANCH  78  81
ATOM     81  S   UNL     1      -3.529   6.525   8.676  1.00  0.00     0.127 S 
ATOM     82  O   UNL     1      -3.934   6.918  10.023  1.00  0.00    -0.237 OA
ATOM     83  O   UNL     1      -4.468   5.642   7.982  1.00  0.00    -0.237 OA
ATOM     84  O   UNL     1      -2.130   6.153   8.512  1.00  0.00    -0.744 OA
ENDBRANCH  78  81
ENDBRANCH  50  74
BRANCH  62  85
ATOM     85  C   UNL     1      -0.766  16.538   7.523  1.00  0.00     0.023 A 
ATOM     86  C   UNL     1      -0.697  16.500   8.930  1.00  0.00     0.012 A 
ATOM     87  C   UNL     1      -1.329  17.664   6.890  1.00  0.00     0.148 A 
ATOM     88  C   UNL     1      -1.218  17.543   9.695  1.00  0.00     0.002 A 
ATOM     89  C   UNL     1      -1.803  18.722   7.658  1.00  0.00     0.091 A 
ATOM     90  F   UNL     1      -1.406  17.677   5.551  1.00  0.00    -0.205 F 
ATOM     91  C   UNL     1      -1.761  18.657   9.060  1.00  0.00     0.022 A 
BRANCH  89  92
ATOM     92  S   UNL     1      -2.430  20.231   6.912  1.00  0.00     0.127 S 
ATOM     93  O   UNL     1      -3.874  20.016   6.970  1.00  0.00    -0.237 OA
ATOM     94  O   UNL     1      -1.931  21.265   7.820  1.00  0.00    -0.237 OA
ATOM     95  O   UNL     1      -1.849  20.278   5.576  1.00  0.00    -0.744 OA
ENDBRANCH  89  92
ENDBRANCH  62  85
ENDBRANCH  36  37
ENDBRANCH  29  31
ENDBRANCH  28  29
ENDBRANCH  27  28
ENDBRANCH  26  27
ENDBRANCH   1  26
TORSDOF 20
