REMARK SMILES Cc1cc(C)cc(Oc2nc3ccccn3c(=O)c2/C=C2\SC(=S)N(CCC(=O)OCCOCCOC(=O)c3ccc(-c4c5nc(c(-c6cccc(S(=O)(=O)[O-])c6F)c6ccc([nH]6)c(-c6cccc(S(=O)(=O)[O-])c6F)c6nc(c(-c7cccc(S(=O)(=O)[O-])c7F)c7ccc4[nH]7)C=C6)C=C5)cc3)C2=O)c1
REMARK SMILES IDX 32 1 31 2 30 3 28 4 29 5 27 6 26 7 25 8 20 9 21 10 22 11
REMARK SMILES IDX 102 12 23 13 103 14 24 15 19 16 9 17 10 18 11 19 17 20 12 21
REMARK SMILES IDX 16 22 18 23 13 24 15 25 14 26 8 27 7 28 1 29 2 30 3 31
REMARK SMILES IDX 104 32 4 33 5 34 6 35 33 36 34 37 35 38 36 39 37 40 38 41
REMARK SMILES IDX 39 42 40 43 101 44 41 45 100 46 42 47 43 48 44 49 94 50
REMARK SMILES IDX 45 51 99 52 93 53 95 54 46 55 98 56 92 57 91 58 47 60 79 61
REMARK SMILES IDX 59 62 78 63 60 64 63 65 77 66 96 67 61 68 62 69 76 71 97 72
REMARK SMILES IDX 64 73 48 74 49 75 57 76 50 77 52 78 58 79 51 80 53 81 54 82
REMARK SMILES IDX 55 83 56 84 80 85 81 86 89 87 82 88 84 89 90 90 83 91 85 92
REMARK SMILES IDX 86 93 87 94 88 95 65 96 66 97 74 98 67 99 69 100 75 101
REMARK SMILES IDX 68 102 70 103 71 104 72 105 73 106
REMARK H PARENT 95 59 63 70
REMARK Flexibility Score: inf
ROOT
ATOM      1  C   UNL     1      -0.706  -0.657   5.215  1.00  0.00     0.202 C 
ENDROOT
BRANCH   1   2
ATOM      2  C   UNL     1      -0.909   0.481   4.199  1.00  0.00     0.261 C 
BRANCH   2   3
ATOM      3  O   UNL     1       0.324   1.043   3.703  1.00  0.00    -0.463 OA
BRANCH   3   4
ATOM      4  C   UNL     1       0.795   2.160   4.303  1.00  0.00     0.307 C 
ATOM      5  O   UNL     1       0.223   2.783   5.189  1.00  0.00    -0.252 OA
BRANCH   4   6
ATOM      6  C   UNL     1       2.132   2.584   3.734  1.00  0.00     0.144 C 
BRANCH   6   7
ATOM      7  C   UNL     1       3.328   1.708   4.125  1.00  0.00     0.139 C 
BRANCH   7   8
ATOM      8  N   UNL     1       3.658   0.660   3.148  1.00  0.00    -0.292 N 
ATOM      9  C   UNL     1       2.472  -2.360   1.645  1.00  0.00     0.041 C 
ATOM     10  C   UNL     1       3.292  -1.372   2.022  1.00  0.00     0.081 C 
ATOM     11  S   UNL     1       4.745  -0.808   1.316  1.00  0.00    -0.054 SA
ATOM     12  C   UNL     1       2.925  -0.504   3.148  1.00  0.00     0.266 C 
ATOM     13  C   UNL     1       4.728   0.671   2.277  1.00  0.00     0.148 C 
ATOM     14  O   UNL     1       2.110  -0.836   3.994  1.00  0.00    -0.268 OA
ATOM     15  S   UNL     1       5.886   1.859   2.094  1.00  0.00    -0.052 S 
BRANCH   9  16
ATOM     16  C   UNL     1       2.680  -3.268   0.535  1.00  0.00     0.104 A 
ATOM     17  C   UNL     1       1.844  -3.397  -0.517  1.00  0.00     0.234 A 
ATOM     18  N   UNL     1       2.027  -4.336  -1.491  1.00  0.00    -0.194 NA
ATOM     19  C   UNL     1       2.986  -5.193  -1.387  1.00  0.00     0.143 A 
ATOM     20  C   UNL     1       3.822  -4.232   0.630  1.00  0.00     0.269 A 
ATOM     21  C   UNL     1       3.134  -6.249  -2.425  1.00  0.00     0.048 A 
ATOM     22  N   UNL     1       3.904  -5.198  -0.352  1.00  0.00    -0.267 N 
ATOM     23  O   UNL     1       4.588  -4.172   1.598  1.00  0.00    -0.268 OA
ATOM     24  C   UNL     1       4.104  -7.163  -2.316  1.00  0.00     0.005 A 
ATOM     25  C   UNL     1       4.896  -6.170  -0.278  1.00  0.00     0.096 A 
ATOM     26  C   UNL     1       5.015  -7.128  -1.204  1.00  0.00     0.019 A 
BRANCH  17  27
ATOM     27  O   UNL     1       0.619  -2.730  -0.625  1.00  0.00    -0.438 OA
BRANCH  27  28
ATOM     28  C   UNL     1       0.475  -1.374  -0.499  1.00  0.00     0.130 A 
ATOM     29  C   UNL     1       2.447   1.855  -0.464  1.00  0.00     0.044 C 
ATOM     30  C   UNL     1       1.301   0.895  -0.397  1.00  0.00    -0.047 A 
ATOM     31  C   UNL     1       0.009   1.345  -0.095  1.00  0.00     0.007 A 
ATOM     32  C   UNL     1       1.509  -0.461  -0.662  1.00  0.00     0.050 A 
ATOM     33  C   UNL     1      -1.068   0.450  -0.046  1.00  0.00    -0.047 A 
ATOM     34  C   UNL     1      -2.464   0.968   0.135  1.00  0.00     0.044 C 
ATOM     35  C   UNL     1      -0.819  -0.916  -0.225  1.00  0.00     0.050 A 
ENDBRANCH  27  28
ENDBRANCH  17  27
ENDBRANCH   9  16
ENDBRANCH   7   8
ENDBRANCH   6   7
ENDBRANCH   4   6
ENDBRANCH   3   4
ENDBRANCH   2   3
ENDBRANCH   1   2
BRANCH   1  36
ATOM     36  O   UNL     1      -0.352  -0.254   6.542  1.00  0.00    -0.374 OA
BRANCH  36  37
ATOM     37  C   UNL     1       1.042  -0.073   6.779  1.00  0.00     0.202 C 
BRANCH  37  38
ATOM     38  C   UNL     1       1.833  -1.313   7.231  1.00  0.00     0.261 C 
BRANCH  38  39
ATOM     39  O   UNL     1       1.915  -2.340   6.228  1.00  0.00    -0.460 OA
BRANCH  39  40
ATOM     40  C   UNL     1       0.965  -3.300   6.302  1.00  0.00     0.338 C 
ATOM     41  O   UNL     1       0.157  -3.452   7.204  1.00  0.00    -0.246 OA
BRANCH  40  42
ATOM     42  C   UNL     1       0.914  -4.088   5.045  1.00  0.00     0.060 A 
ATOM     43  C   UNL     1      -0.350  -4.416   4.539  1.00  0.00     0.016 A 
ATOM     44  C   UNL     1       2.055  -4.545   4.389  1.00  0.00     0.016 A 
ATOM     45  C   UNL     1      -0.483  -5.239   3.413  1.00  0.00     0.010 A 
ATOM     46  C   UNL     1       1.915  -5.362   3.255  1.00  0.00     0.010 A 
ATOM     47  C   UNL     1       0.648  -5.747   2.764  1.00  0.00    -0.014 A 
BRANCH  47  48
ATOM     48  C   UNL     1       0.534  -6.766   1.669  1.00  0.00     0.031 A 
ATOM     49  C   UNL     1       1.170  -8.125   1.866  1.00  0.00     0.074 A 
ATOM     50  C   UNL     1      -0.103  -6.523   0.502  1.00  0.00     0.049 A 
ATOM     51  N   UNL     1       1.281  -9.120   1.022  1.00  0.00    -0.248 NA
ATOM     52  C   UNL     1       1.750  -8.403   3.192  1.00  0.00     0.031 C 
ATOM     53  C   UNL     1      -0.819  -5.297   0.154  1.00  0.00     0.029 A 
ATOM     54  N   UNL     1      -0.189  -7.282  -0.648  1.00  0.00    -0.354 N 
ATOM     55  C   UNL     1       1.924 -10.138   1.718  1.00  0.00     0.074 A 
ATOM     56  C   UNL     1       2.268  -9.608   3.018  1.00  0.00     0.031 C 
ATOM     57  C   UNL     1      -1.161  -5.334  -1.147  1.00  0.00     0.029 A 
ATOM     58  C   UNL     1      -0.705  -6.591  -1.726  1.00  0.00     0.049 A 
ATOM     59  H   UNL     1       0.090  -8.225  -0.694  1.00  0.00     0.167 HD
ATOM     60  C   UNL     1       2.144 -11.422   1.349  1.00  0.00     0.034 A 
ATOM     61  C   UNL     1      -0.777  -6.913  -3.035  1.00  0.00     0.034 A 
ATOM     62  C   UNL     1       1.770 -11.979   0.080  1.00  0.00     0.049 A 
ATOM     63  C   UNL     1      -0.397  -8.305  -3.471  1.00  0.00     0.074 A 
ATOM     64  C   UNL     1       1.879 -13.290  -0.349  1.00  0.00     0.029 A 
ATOM     65  N   UNL     1       1.221 -11.261  -0.968  1.00  0.00    -0.354 N 
ATOM     66  N   UNL     1       0.086  -9.291  -2.757  1.00  0.00    -0.248 NA
ATOM     67  C   UNL     1      -0.659  -8.659  -4.876  1.00  0.00     0.031 C 
ATOM     68  C   UNL     1       1.429 -13.358  -1.671  1.00  0.00     0.029 A 
ATOM     69  C   UNL     1       1.001 -12.097  -2.049  1.00  0.00     0.049 A 
ATOM     70  H   UNL     1       1.017 -10.298  -0.947  1.00  0.00     0.167 HD
ATOM     71  C   UNL     1       0.084 -10.403  -3.593  1.00  0.00     0.074 A 
ATOM     72  C   UNL     1      -0.415  -9.962  -4.877  1.00  0.00     0.031 C 
ATOM     73  C   UNL     1       0.442 -11.679  -3.308  1.00  0.00     0.034 A 
BRANCH  60  74
ATOM     74  C   UNL     1       2.755 -12.342   2.374  1.00  0.00     0.023 A 
ATOM     75  C   UNL     1       1.993 -12.731   3.496  1.00  0.00     0.012 A 
ATOM     76  C   UNL     1       4.048 -12.869   2.200  1.00  0.00     0.148 A 
ATOM     77  C   UNL     1       2.522 -13.598   4.449  1.00  0.00     0.002 A 
ATOM     78  C   UNL     1       4.551 -13.772   3.129  1.00  0.00     0.091 A 
ATOM     79  F   UNL     1       4.760 -12.475   1.134  1.00  0.00    -0.205 F 
ATOM     80  C   UNL     1       3.796 -14.126   4.260  1.00  0.00     0.022 A 
BRANCH  78  81
ATOM     81  S   UNL     1       6.146 -14.572   2.938  1.00  0.00     0.127 S 
ATOM     82  O   UNL     1       6.895 -14.009   4.061  1.00  0.00    -0.237 OA
ATOM     83  O   UNL     1       5.798 -15.985   3.084  1.00  0.00    -0.237 OA
ATOM     84  O   UNL     1       6.632 -14.195   1.618  1.00  0.00    -0.744 OA
ENDBRANCH  78  81
ENDBRANCH  60  74
BRANCH  61  85
ATOM     85  C   UNL     1      -1.300  -5.942  -4.045  1.00  0.00     0.023 A 
ATOM     86  C   UNL     1      -2.584  -6.137  -4.590  1.00  0.00     0.012 A 
ATOM     87  C   UNL     1      -0.510  -4.876  -4.523  1.00  0.00     0.148 A 
ATOM     88  C   UNL     1      -3.052  -5.322  -5.622  1.00  0.00     0.002 A 
ATOM     89  C   UNL     1      -1.001  -4.037  -5.519  1.00  0.00     0.091 A 
ATOM     90  F   UNL     1       0.727  -4.732  -4.037  1.00  0.00    -0.205 F 
ATOM     91  C   UNL     1      -2.265  -4.270  -6.082  1.00  0.00     0.022 A 
BRANCH  89  92
ATOM     92  S   UNL     1      -0.088  -2.620  -6.147  1.00  0.00     0.127 S 
ATOM     93  O   UNL     1       0.173  -3.023  -7.528  1.00  0.00    -0.237 OA
ATOM     94  O   UNL     1      -1.068  -1.544  -5.999  1.00  0.00    -0.237 OA
ATOM     95  O   UNL     1       1.091  -2.492  -5.303  1.00  0.00    -0.744 OA
ENDBRANCH  89  92
ENDBRANCH  61  85
BRANCH  73  96
ATOM     96  C   UNL     1       0.227 -12.732  -4.364  1.00  0.00     0.023 A 
ATOM     97  C   UNL     1       1.031 -12.760  -5.520  1.00  0.00     0.012 A 
ATOM     98  C   UNL     1      -0.734 -13.746  -4.168  1.00  0.00     0.148 A 
ATOM     99  C   UNL     1       0.858 -13.758  -6.480  1.00  0.00     0.002 A 
ATOM    100  C   UNL     1      -0.862 -14.768  -5.100  1.00  0.00     0.091 A 
ATOM    101  F   UNL     1      -1.503 -13.694  -3.070  1.00  0.00    -0.205 F 
ATOM    102  C   UNL     1      -0.078 -14.768  -6.264  1.00  0.00     0.022 A 
BRANCH 100 103
ATOM    103  S   UNL     1      -1.964 -16.166  -4.856  1.00  0.00     0.127 S 
ATOM    104  O   UNL     1      -2.991 -15.916  -5.867  1.00  0.00    -0.237 OA
ATOM    105  O   UNL     1      -1.089 -17.303  -5.144  1.00  0.00    -0.237 OA
ATOM    106  O   UNL     1      -2.418 -16.087  -3.474  1.00  0.00    -0.744 OA
ENDBRANCH 100 103
ENDBRANCH  73  96
ENDBRANCH  47  48
ENDBRANCH  40  42
ENDBRANCH  39  40
ENDBRANCH  38  39
ENDBRANCH  37  38
ENDBRANCH  36  37
ENDBRANCH   1  36
TORSDOF 22
