REMARK SMILES Cc1ccc(-c2nc(NC(=O)[C@H]3[C@@H](C(=O)OCCOCCOC(=O)c4ccc(-c5c6nc(c(-c7cccc(S(=O)(=O)[O-])c7F)c7ccc([nH]7)c(-c7cccc(S(=O)(=O)[O-])c7F)c7nc(c(-c8cccc(S(=O)(=O)[O-])c8F)c8ccc5[nH]8)C=C7)C=C6)cc4)[C@@H]4CC[C@H]3O4)sc2C)cc1
REMARK SMILES IDX 19 1 18 2 17 3 16 4 14 5 15 6 13 7 12 8 91 9 88 10 90 11
REMARK SMILES IDX 92 12 89 13 10 14 9 15 11 17 8 18 6 19 7 20 94 21 93 22
REMARK SMILES IDX 95 23 5 24 1 25 2 26 3 27 97 28 4 29 96 30 20 31 21 32 22 33
REMARK SMILES IDX 23 34 24 35 25 36 26 37 87 38 27 39 86 40 28 41 29 42 30 43
REMARK SMILES IDX 80 44 31 45 85 46 79 47 81 48 32 49 84 50 78 51 77 52 33 54
REMARK SMILES IDX 65 55 45 56 64 57 46 58 49 59 63 60 82 61 47 62 48 63 62 65
REMARK SMILES IDX 83 66 50 67 34 68 35 69 43 70 36 71 38 72 44 73 37 74 39 75
REMARK SMILES IDX 40 76 41 77 42 78 66 79 67 80 75 81 68 82 70 83 76 84 69 85
REMARK SMILES IDX 71 86 72 87 73 88 74 89 51 90 52 91 60 92 53 93 55 94 61 95
REMARK SMILES IDX 54 96 56 97 57 98 58 99 59 100
REMARK H PARENT 9 16 81 53 49 64
REMARK Flexibility Score: inf
ROOT
ATOM      1  O   UNL     1      -7.820   2.306  -2.579  1.00  0.00    -0.374 OA
ENDROOT
BRANCH   1   2
ATOM      2  C   UNL     1      -6.957   1.353  -1.948  1.00  0.00     0.202 C 
BRANCH   2   3
ATOM      3  C   UNL     1      -7.048   1.402  -0.388  1.00  0.00     0.261 C 
BRANCH   3   4
ATOM      4  O   UNL     1      -8.188   1.090   0.576  1.00  0.00    -0.463 OA
BRANCH   4   5
ATOM      5  C   UNL     1      -9.233   0.482   1.156  1.00  0.00     0.312 C 
ATOM      6  O   UNL     1      -9.699   0.835   2.241  1.00  0.00    -0.252 OA
BRANCH   5   7
ATOM      7  C   UNL     1      -9.782  -0.759   0.583  1.00  0.00     0.143 C 
ATOM      8  C   UNL     1      -9.337  -0.938  -0.806  1.00  0.00     0.124 C 
ATOM      9  C   UNL     1     -10.250  -2.091  -1.220  1.00  0.00     0.132 C 
ATOM     10  C   UNL     1     -11.296  -1.084   0.404  1.00  0.00     0.133 C 
ATOM     11  C   UNL     1     -10.507  -3.213  -0.179  1.00  0.00     0.035 C 
ATOM     12  O   UNL     1     -11.474  -1.331  -1.042  1.00  0.00    -0.373 OA
ATOM     13  C   UNL     1     -11.540  -2.543   0.758  1.00  0.00     0.036 C 
BRANCH   8  14
ATOM     14  C   UNL     1      -9.683   0.228  -1.767  1.00  0.00     0.232 C 
ATOM     15  N   UNL     1      -9.980   1.543  -1.558  1.00  0.00    -0.302 N 
ATOM     16  H   UNL     1      -9.847   1.976  -2.432  1.00  0.00     0.172 HD
ATOM     17  O   UNL     1      -9.478  -0.093  -2.959  1.00  0.00    -0.274 OA
BRANCH  15  18
ATOM     18  C   UNL     1     -10.378   2.562  -0.711  1.00  0.00     0.190 A 
ATOM     19  C   UNL     1     -10.286   4.682   0.081  1.00  0.00     0.086 A 
ATOM     20  N   UNL     1      -9.856   3.763  -0.880  1.00  0.00    -0.220 NA
ATOM     21  C   UNL     1     -11.390   4.231   0.775  1.00  0.00     0.031 A 
ATOM     22  S   UNL     1     -11.696   2.553   0.359  1.00  0.00    -0.101 S 
ATOM     23  C   UNL     1     -12.174   4.937   1.819  1.00  0.00     0.059 C 
BRANCH  19  24
ATOM     24  C   UNL     1      -9.406   5.824   0.491  1.00  0.00     0.001 A 
ATOM     25  C   UNL     1      -5.618   8.893   1.703  1.00  0.00     0.044 C 
ATOM     26  C   UNL     1      -6.276   7.594   1.246  1.00  0.00    -0.051 A 
ATOM     27  C   UNL     1      -6.985   7.654  -0.410  1.00  0.00     0.004 A 
ATOM     28  C   UNL     1      -7.069   6.610   2.539  1.00  0.00     0.004 A 
ATOM     29  C   UNL     1      -8.519   6.728  -0.795  1.00  0.00     0.010 A 
ATOM     30  C   UNL     1      -8.723   5.859   2.189  1.00  0.00     0.010 A 
ENDBRANCH  19  24
ENDBRANCH  15  18
ENDBRANCH   8  14
ENDBRANCH   5   7
ENDBRANCH   4   5
ENDBRANCH   3   4
ENDBRANCH   2   3
ENDBRANCH   1   2
BRANCH   1  31
ATOM     31  C   UNL     1      -8.069   2.297  -3.989  1.00  0.00     0.202 C 
BRANCH  31  32
ATOM     32  C   UNL     1      -6.902   2.105  -4.950  1.00  0.00     0.261 C 
BRANCH  32  33
ATOM     33  O   UNL     1      -6.153   3.321  -5.152  1.00  0.00    -0.460 OA
BRANCH  33  34
ATOM     34  C   UNL     1      -5.024   3.465  -4.388  1.00  0.00     0.338 C 
ATOM     35  O   UNL     1      -4.009   2.826  -4.591  1.00  0.00    -0.246 OA
BRANCH  34  36
ATOM     36  C   UNL     1      -5.284   4.433  -3.270  1.00  0.00     0.060 A 
ATOM     37  C   UNL     1      -4.444   4.648  -2.168  1.00  0.00     0.016 A 
ATOM     38  C   UNL     1      -6.569   4.893  -3.182  1.00  0.00     0.016 A 
ATOM     39  C   UNL     1      -4.961   5.191  -0.947  1.00  0.00     0.010 A 
ATOM     40  C   UNL     1      -7.088   5.006  -1.918  1.00  0.00     0.010 A 
ATOM     41  C   UNL     1      -6.346   5.328  -0.773  1.00  0.00    -0.014 A 
BRANCH  41  42
ATOM     42  C   UNL     1      -7.231   5.718   0.627  1.00  0.00     0.031 A 
ATOM     43  C   UNL     1      -8.351   7.503   1.111  1.00  0.00     0.074 A 
ATOM     44  C   UNL     1      -7.150   4.366   1.220  1.00  0.00     0.049 A 
ATOM     45  N   UNL     1      -8.558   8.090   2.346  1.00  0.00    -0.248 NA
ATOM     46  C   UNL     1      -9.285   8.609   0.280  1.00  0.00     0.031 C 
ATOM     47  C   UNL     1      -8.197   3.582   1.970  1.00  0.00     0.029 A 
ATOM     48  N   UNL     1      -6.014   3.569   1.557  1.00  0.00    -0.354 N 
ATOM     49  C   UNL     1      -9.711   8.764   2.494  1.00  0.00     0.074 A 
ATOM     50  C   UNL     1     -10.076   9.187   1.182  1.00  0.00     0.031 C 
ATOM     51  C   UNL     1      -7.689   2.778   2.881  1.00  0.00     0.029 A 
ATOM     52  C   UNL     1      -6.281   2.827   2.715  1.00  0.00     0.049 A 
ATOM     53  H   UNL     1      -5.170   3.543   1.051  1.00  0.00     0.167 HD
ATOM     54  C   UNL     1     -10.307   8.811   3.719  1.00  0.00     0.034 A 
ATOM     55  C   UNL     1      -5.559   2.281   3.706  1.00  0.00     0.034 A 
ATOM     56  C   UNL     1      -9.976   7.665   4.629  1.00  0.00     0.049 A 
ATOM     57  C   UNL     1      -5.964   2.954   4.997  1.00  0.00     0.074 A 
ATOM     58  C   UNL     1     -10.692   6.519   4.965  1.00  0.00     0.029 A 
ATOM     59  N   UNL     1      -8.696   7.454   5.179  1.00  0.00    -0.354 N 
ATOM     60  N   UNL     1      -6.830   3.950   5.045  1.00  0.00    -0.248 NA
ATOM     61  C   UNL     1      -5.454   2.605   6.314  1.00  0.00     0.031 C 
ATOM     62  C   UNL     1      -9.823   5.595   5.623  1.00  0.00     0.029 A 
ATOM     63  C   UNL     1      -8.575   6.181   5.784  1.00  0.00     0.049 A 
ATOM     64  H   UNL     1      -7.969   8.117   5.146  1.00  0.00     0.167 HD
ATOM     65  C   UNL     1      -6.848   4.493   6.295  1.00  0.00     0.074 A 
ATOM     66  C   UNL     1      -6.026   3.562   7.068  1.00  0.00     0.031 C 
ATOM     67  C   UNL     1      -7.394   5.727   6.568  1.00  0.00     0.034 A 
BRANCH  54  68
ATOM     68  C   UNL     1     -11.456   9.770   3.884  1.00  0.00     0.023 A 
ATOM     69  C   UNL     1     -12.467   9.550   4.828  1.00  0.00     0.012 A 
ATOM     70  C   UNL     1     -11.553  10.956   3.112  1.00  0.00     0.148 A 
ATOM     71  C   UNL     1     -13.571  10.412   4.916  1.00  0.00     0.002 A 
ATOM     72  C   UNL     1     -12.717  11.707   3.080  1.00  0.00     0.091 A 
ATOM     73  F   UNL     1     -10.488  11.397   2.424  1.00  0.00    -0.205 F 
ATOM     74  C   UNL     1     -13.727  11.454   4.003  1.00  0.00     0.022 A 
BRANCH  72  75
ATOM     75  S   UNL     1     -13.018  12.844   1.717  1.00  0.00     0.127 S 
ATOM     76  O   UNL     1     -14.453  12.671   1.474  1.00  0.00    -0.237 OA
ATOM     77  O   UNL     1     -12.646  14.136   2.281  1.00  0.00    -0.237 OA
ATOM     78  O   UNL     1     -12.184  12.354   0.623  1.00  0.00    -0.744 OA
ENDBRANCH  72  75
ENDBRANCH  54  68
BRANCH  55  79
ATOM     79  C   UNL     1      -4.490   1.384   3.235  1.00  0.00     0.023 A 
ATOM     80  C   UNL     1      -4.910   0.103   2.771  1.00  0.00     0.012 A 
ATOM     81  C   UNL     1      -3.406   1.998   2.610  1.00  0.00     0.148 A 
ATOM     82  C   UNL     1      -4.366  -0.457   1.607  1.00  0.00     0.002 A 
ATOM     83  C   UNL     1      -2.960   1.497   1.391  1.00  0.00     0.091 A 
ATOM     84  F   UNL     1      -2.977   3.167   3.104  1.00  0.00    -0.205 F 
ATOM     85  C   UNL     1      -3.435   0.277   0.881  1.00  0.00     0.022 A 
BRANCH  83  86
ATOM     86  S   UNL     1      -2.075   2.588   0.274  1.00  0.00     0.127 S 
ATOM     87  O   UNL     1      -0.689   2.202   0.508  1.00  0.00    -0.237 OA
ATOM     88  O   UNL     1      -2.620   2.201  -1.026  1.00  0.00    -0.237 OA
ATOM     89  O   UNL     1      -2.458   3.926   0.704  1.00  0.00    -0.744 OA
ENDBRANCH  83  86
ENDBRANCH  55  79
BRANCH  67  90
ATOM     90  C   UNL     1      -6.826   6.581   7.690  1.00  0.00     0.023 A 
ATOM     91  C   UNL     1      -5.540   6.348   8.233  1.00  0.00     0.012 A 
ATOM     92  C   UNL     1      -7.475   7.759   8.113  1.00  0.00     0.148 A 
ATOM     93  C   UNL     1      -4.960   7.187   9.186  1.00  0.00     0.002 A 
ATOM     94  C   UNL     1      -6.830   8.669   8.944  1.00  0.00     0.091 A 
ATOM     95  F   UNL     1      -8.735   8.007   7.730  1.00  0.00    -0.205 F 
ATOM     96  C   UNL     1      -5.593   8.371   9.517  1.00  0.00     0.022 A 
BRANCH  94  97
ATOM     97  S   UNL     1      -7.470  10.335   9.140  1.00  0.00     0.127 S 
ATOM     98  O   UNL     1      -8.221  10.222  10.387  1.00  0.00    -0.237 OA
ATOM     99  O   UNL     1      -6.243  11.130   9.232  1.00  0.00    -0.237 OA
ATOM    100  O   UNL     1      -8.247  10.578   7.933  1.00  0.00    -0.744 OA
ENDBRANCH  94  97
ENDBRANCH  67  90
ENDBRANCH  41  42
ENDBRANCH  34  36
ENDBRANCH  33  34
ENDBRANCH  32  33
ENDBRANCH  31  32
ENDBRANCH   1  31
TORSDOF 20
