REMARK SMILES CCc1c(C)nc(Nc2cc(Cl)ccc2C)nc1OCC(=O)OCCOCCOC(=O)c1ccc(-c2c3nc(c(-c4cccc(S(=O)(=O)[O-])c4F)c4ccc([nH]4)c(-c4cccc(S(=O)(=O)[O-])c4F)c4nc(c(-c5cccc(S(=O)(=O)[O-])c5F)c5ccc2[nH]5)C=C4)C=C3)cc1
REMARK SMILES IDX 25 1 24 2 23 3 21 4 22 5 20 6 19 7 18 8 3 9 4 10 5 11 6 12
REMARK SMILES IDX 17 13 7 14 2 15 1 16 8 17 9 19 10 20 15 21 11 22 14 23 16 24
REMARK SMILES IDX 12 25 13 26 26 27 27 28 28 29 29 30 30 31 31 32 32 33 33 34
REMARK SMILES IDX 94 35 34 36 93 37 35 38 36 39 37 40 87 41 38 42 92 43 86 44
REMARK SMILES IDX 88 45 39 46 91 47 85 48 84 49 40 51 72 52 52 53 71 54 53 55
REMARK SMILES IDX 56 56 70 57 89 58 54 59 55 60 69 62 90 63 57 64 41 65 42 66
REMARK SMILES IDX 50 67 43 68 45 69 51 70 44 71 46 72 47 73 48 74 49 75 73 76
REMARK SMILES IDX 74 77 82 78 75 79 77 80 83 81 76 82 78 83 79 84 80 85 81 86
REMARK SMILES IDX 58 87 59 88 67 89 60 90 62 91 68 92 61 93 63 94 64 95 65 96
REMARK SMILES IDX 66 97
REMARK H PARENT 8 18 88 50 56 61
REMARK Flexibility Score: inf
ROOT
ATOM      1  C   UNL     1       2.182  -0.627   2.532  1.00  0.00     0.202 C 
ENDROOT
BRANCH   1   2
ATOM      2  C   UNL     1       0.678  -0.319   2.528  1.00  0.00     0.261 C 
BRANCH   2   3
ATOM      3  O   UNL     1      -0.018  -1.228   1.643  1.00  0.00    -0.461 OA
BRANCH   3   4
ATOM      4  C   UNL     1      -1.109  -0.719   1.016  1.00  0.00     0.344 C 
ATOM      5  O   UNL     1      -1.603   0.379   1.252  1.00  0.00    -0.248 OA
BRANCH   4   6
ATOM      6  C   UNL     1      -1.690  -1.664  -0.038  1.00  0.00     0.353 C 
BRANCH   6   7
ATOM      7  O   UNL     1      -0.944  -2.673  -0.665  1.00  0.00    -0.465 OA
BRANCH   7   8
ATOM      8  C   UNL     1      -0.031  -2.567  -1.654  1.00  0.00     0.222 A 
ATOM      9  C   UNL     1       0.436  -1.453  -2.348  1.00  0.00     0.035 A 
ATOM     10  C   UNL     1       1.558  -1.721  -3.150  1.00  0.00     0.050 A 
ATOM     11  C   UNL     1       2.450  -0.669  -3.747  1.00  0.00     0.067 C 
ATOM     12  N   UNL     1       2.047  -2.965  -3.358  1.00  0.00    -0.218 NA
ATOM     13  N   UNL     1       0.466  -3.812  -1.875  1.00  0.00    -0.177 NA
ATOM     14  C   UNL     1       1.472  -3.989  -2.733  1.00  0.00     0.230 A 
BRANCH   9  15
ATOM     15  C   UNL     1      -0.190  -0.080  -2.380  1.00  0.00     0.040 C 
ATOM     16  C   UNL     1       0.394   1.015  -1.495  1.00  0.00     0.009 C 
ENDBRANCH   9  15
BRANCH  14  17
ATOM     17  N   UNL     1       1.950  -5.286  -2.913  1.00  0.00    -0.324 N 
ATOM     18  H   UNL     1       1.412  -5.998  -2.497  1.00  0.00     0.170 HD
BRANCH  17  19
ATOM     19  C   UNL     1       3.091  -5.713  -3.606  1.00  0.00     0.045 A 
ATOM     20  C   UNL     1       2.925  -6.445  -4.791  1.00  0.00     0.047 A 
ATOM     21  C   UNL     1       4.399  -5.530  -3.108  1.00  0.00    -0.027 A 
ATOM     22  C   UNL     1       4.032  -6.881  -5.521  1.00  0.00     0.043 A 
ATOM     23  C   UNL     1       5.505  -5.959  -3.865  1.00  0.00     0.007 A 
ATOM     24  C   UNL     1       4.661  -4.862  -1.790  1.00  0.00     0.046 C 
ATOM     25  Cl  UNL     1       3.802  -7.738  -6.997  1.00  0.00    -0.084 Cl
ATOM     26  C   UNL     1       5.322  -6.624  -5.074  1.00  0.00     0.021 A 
ENDBRANCH  17  19
ENDBRANCH  14  17
ENDBRANCH   7   8
ENDBRANCH   6   7
ENDBRANCH   4   6
ENDBRANCH   3   4
ENDBRANCH   2   3
ENDBRANCH   1   2
BRANCH   1  27
ATOM     27  O   UNL     1       2.907  -0.151   1.388  1.00  0.00    -0.374 OA
BRANCH  27  28
ATOM     28  C   UNL     1       2.597  -0.777   0.151  1.00  0.00     0.202 C 
BRANCH  28  29
ATOM     29  C   UNL     1       3.362  -2.035  -0.218  1.00  0.00     0.261 C 
BRANCH  29  30
ATOM     30  O   UNL     1       3.497  -2.921   0.868  1.00  0.00    -0.460 OA
BRANCH  30  31
ATOM     31  C   UNL     1       4.682  -2.783   1.484  1.00  0.00     0.338 C 
ATOM     32  O   UNL     1       5.657  -2.137   1.125  1.00  0.00    -0.246 OA
BRANCH  31  33
ATOM     33  C   UNL     1       4.537  -3.401   2.791  1.00  0.00     0.060 A 
ATOM     34  C   UNL     1       4.999  -2.657   3.875  1.00  0.00     0.016 A 
ATOM     35  C   UNL     1       3.952  -4.665   2.937  1.00  0.00     0.016 A 
ATOM     36  C   UNL     1       4.990  -3.238   5.122  1.00  0.00     0.010 A 
ATOM     37  C   UNL     1       3.924  -5.240   4.194  1.00  0.00     0.010 A 
ATOM     38  C   UNL     1       4.515  -4.550   5.261  1.00  0.00    -0.014 A 
BRANCH  38  39
ATOM     39  C   UNL     1       4.860  -5.253   6.498  1.00  0.00     0.031 A 
ATOM     40  C   UNL     1       6.049  -6.165   6.474  1.00  0.00     0.074 A 
ATOM     41  C   UNL     1       4.181  -4.953   7.614  1.00  0.00     0.049 A 
ATOM     42  N   UNL     1       6.638  -6.769   7.466  1.00  0.00    -0.248 NA
ATOM     43  C   UNL     1       6.665  -6.430   5.159  1.00  0.00     0.031 C 
ATOM     44  C   UNL     1       3.022  -4.060   7.678  1.00  0.00     0.029 A 
ATOM     45  N   UNL     1       4.382  -5.347   8.902  1.00  0.00    -0.354 N 
ATOM     46  C   UNL     1       7.679  -7.494   6.898  1.00  0.00     0.074 A 
ATOM     47  C   UNL     1       7.628  -7.282   5.472  1.00  0.00     0.031 C 
ATOM     48  C   UNL     1       2.617  -3.967   8.955  1.00  0.00     0.029 A 
ATOM     49  C   UNL     1       3.478  -4.807   9.781  1.00  0.00     0.049 A 
ATOM     50  H   UNL     1       5.104  -5.958   9.176  1.00  0.00     0.167 HD
ATOM     51  C   UNL     1       8.606  -8.250   7.526  1.00  0.00     0.034 A 
ATOM     52  C   UNL     1       3.373  -4.986  11.108  1.00  0.00     0.034 A 
ATOM     53  C   UNL     1       8.624  -8.425   8.952  1.00  0.00     0.049 A 
ATOM     54  C   UNL     1       4.416  -5.837  11.777  1.00  0.00     0.074 A 
ATOM     55  C   UNL     1       9.508  -9.153   9.723  1.00  0.00     0.029 A 
ATOM     56  N   UNL     1       7.698  -7.861   9.820  1.00  0.00    -0.354 N 
ATOM     57  N   UNL     1       5.448  -6.450  11.244  1.00  0.00    -0.248 NA
ATOM     58  C   UNL     1       4.309  -5.986  13.231  1.00  0.00     0.031 C 
ATOM     59  C   UNL     1       9.095  -9.055  11.056  1.00  0.00     0.029 A 
ATOM     60  C   UNL     1       7.981  -8.230  11.120  1.00  0.00     0.049 A 
ATOM     61  H   UNL     1       6.949  -7.283   9.548  1.00  0.00     0.167 HD
ATOM     62  C   UNL     1       6.133  -7.034  12.299  1.00  0.00     0.074 A 
ATOM     63  C   UNL     1       5.411  -6.669  13.505  1.00  0.00     0.031 C 
ATOM     64  C   UNL     1       7.244  -7.813  12.287  1.00  0.00     0.034 A 
BRANCH  51  65
ATOM     65  C   UNL     1       9.656  -8.922   6.681  1.00  0.00     0.023 A 
ATOM     66  C   UNL     1      10.658  -8.152   6.054  1.00  0.00     0.012 A 
ATOM     67  C   UNL     1       9.667 -10.321   6.527  1.00  0.00     0.148 A 
ATOM     68  C   UNL     1      11.635  -8.760   5.266  1.00  0.00     0.002 A 
ATOM     69  C   UNL     1      10.671 -10.925   5.779  1.00  0.00     0.091 A 
ATOM     70  F   UNL     1       8.689 -11.034   7.103  1.00  0.00    -0.205 F 
ATOM     71  C   UNL     1      11.648 -10.146   5.138  1.00  0.00     0.022 A 
BRANCH  69  72
ATOM     72  S   UNL     1      10.819 -12.707   5.611  1.00  0.00     0.127 S 
ATOM     73  O   UNL     1      10.562 -12.892   4.183  1.00  0.00    -0.237 OA
ATOM     74  O   UNL     1      12.205 -12.937   6.016  1.00  0.00    -0.237 OA
ATOM     75  O   UNL     1       9.819 -13.281   6.500  1.00  0.00    -0.744 OA
ENDBRANCH  69  72
ENDBRANCH  51  65
BRANCH  52  76
ATOM     76  C   UNL     1       2.284  -4.316  11.868  1.00  0.00     0.023 A 
ATOM     77  C   UNL     1       2.591  -3.304  12.797  1.00  0.00     0.012 A 
ATOM     78  C   UNL     1       0.935  -4.655  11.643  1.00  0.00     0.148 A 
ATOM     79  C   UNL     1       1.577  -2.670  13.516  1.00  0.00     0.002 A 
ATOM     80  C   UNL     1      -0.073  -3.979  12.318  1.00  0.00     0.091 A 
ATOM     81  F   UNL     1       0.663  -5.627  10.761  1.00  0.00    -0.205 F 
ATOM     82  C   UNL     1       0.246  -2.999  13.270  1.00  0.00     0.022 A 
BRANCH  80  83
ATOM     83  S   UNL     1      -1.811  -4.245  11.956  1.00  0.00     0.127 S 
ATOM     84  O   UNL     1      -2.252  -4.984  13.136  1.00  0.00    -0.237 OA
ATOM     85  O   UNL     1      -2.315  -2.874  11.861  1.00  0.00    -0.237 OA
ATOM     86  O   UNL     1      -1.841  -4.979  10.698  1.00  0.00    -0.744 OA
ENDBRANCH  80  83
ENDBRANCH  52  76
BRANCH  64  87
ATOM     87  C   UNL     1       7.747  -8.286  13.622  1.00  0.00     0.023 A 
ATOM     88  C   UNL     1       7.018  -9.250  14.347  1.00  0.00     0.012 A 
ATOM     89  C   UNL     1       8.962  -7.798  14.138  1.00  0.00     0.148 A 
ATOM     90  C   UNL     1       7.463  -9.676  15.596  1.00  0.00     0.002 A 
ATOM     91  C   UNL     1       9.429  -8.273  15.355  1.00  0.00     0.091 A 
ATOM     92  F   UNL     1       9.630  -6.870  13.438  1.00  0.00    -0.205 F 
ATOM     93  C   UNL     1       8.672  -9.197  16.094  1.00  0.00     0.022 A 
BRANCH  91  94
ATOM     94  S   UNL     1      11.025  -7.792  16.018  1.00  0.00     0.127 S 
ATOM     95  O   UNL     1      10.638  -6.875  17.088  1.00  0.00    -0.237 OA
ATOM     96  O   UNL     1      11.569  -9.071  16.475  1.00  0.00    -0.237 OA
ATOM     97  O   UNL     1      11.754  -7.191  14.909  1.00  0.00    -0.744 OA
ENDBRANCH  91  94
ENDBRANCH  64  87
ENDBRANCH  38  39
ENDBRANCH  31  33
ENDBRANCH  30  31
ENDBRANCH  29  30
ENDBRANCH  28  29
ENDBRANCH  27  28
ENDBRANCH   1  27
TORSDOF 22
