REMARK SMILES Cc1cc(Cl)c(C)c2c1O[C@H](C(F)(F)F)C(C(=O)OCCOCCOC(=O)c1ccc(-c3c4nc(c(-c5cccc(S(=O)(=O)[O-])c5F)c5ccc([nH]5)c(-c5cccc(S(=O)(=O)[O-])c5F)c5nc(c(-c6cccc(S(=O)(=O)[O-])c6F)c6ccc3[nH]6)C=C5)C=C4)cc1)=C2
REMARK SMILES IDX 23 1 22 2 21 3 20 4 19 5 17 6 18 7 16 8 1 9 2 10 3 11 9 12
REMARK SMILES IDX 4 13 8 14 10 15 5 16 6 17 91 18 11 19 7 20 12 21 13 22 14 23
REMARK SMILES IDX 15 24 24 25 25 26 26 27 27 28 28 29 29 30 90 31 30 32 89 33
REMARK SMILES IDX 31 34 32 35 33 36 83 37 34 38 88 39 82 40 84 41 35 42 87 43
REMARK SMILES IDX 81 44 80 45 36 47 68 48 48 49 67 50 49 51 52 52 66 53 85 54
REMARK SMILES IDX 50 55 51 56 65 58 86 59 53 60 37 61 38 62 46 63 39 64 41 65
REMARK SMILES IDX 47 66 40 67 42 68 43 69 44 70 45 71 69 72 70 73 78 74 71 75
REMARK SMILES IDX 73 76 79 77 72 78 74 79 75 80 76 81 77 82 54 83 55 84 63 85
REMARK SMILES IDX 56 86 58 87 64 88 57 89 59 90 60 91 61 92 62 93
REMARK H PARENT 84 46 52 57
REMARK Flexibility Score: inf
ROOT
ATOM      1  C   UNL     1       0.970  -7.674   2.289  1.00  0.00     0.202 C 
ENDROOT
BRANCH   1   2
ATOM      2  O   UNL     1       1.951  -8.708   2.180  1.00  0.00    -0.374 OA
BRANCH   2   3
ATOM      3  C   UNL     1       3.219  -8.487   2.795  1.00  0.00     0.202 C 
BRANCH   3   4
ATOM      4  C   UNL     1       4.206  -7.587   2.045  1.00  0.00     0.261 C 
BRANCH   4   5
ATOM      5  O   UNL     1       3.647  -6.292   1.776  1.00  0.00    -0.460 OA
BRANCH   5   6
ATOM      6  C   UNL     1       3.396  -6.048   0.470  1.00  0.00     0.338 C 
ATOM      7  O   UNL     1       3.691  -6.759  -0.480  1.00  0.00    -0.246 OA
BRANCH   6   8
ATOM      8  C   UNL     1       2.565  -4.837   0.336  1.00  0.00     0.087 C 
ATOM      9  C   UNL     1       0.847  -0.051   0.174  1.00  0.00     0.048 C 
ATOM     10  C   UNL     1       0.487  -1.334  -0.522  1.00  0.00    -0.007 A 
ATOM     11  C   UNL     1      -0.467  -1.329  -1.545  1.00  0.00     0.028 A 
ATOM     12  C   UNL     1       1.098  -2.545  -0.171  1.00  0.00     0.131 A 
ATOM     13  C   UNL     1      -0.820  -2.511  -2.203  1.00  0.00     0.045 A 
ATOM     14  C   UNL     1       0.788  -3.729  -0.861  1.00  0.00     0.022 A 
ATOM     15  O   UNL     1       1.977  -2.491   0.878  1.00  0.00    -0.475 OA
ATOM     16  Cl  UNL     1      -2.015  -2.377  -3.448  1.00  0.00    -0.084 Cl
ATOM     17  C   UNL     1      -0.209  -3.732  -1.869  1.00  0.00    -0.021 A 
ATOM     18  C   UNL     1       1.570  -4.922  -0.556  1.00  0.00     0.027 C 
ATOM     19  C   UNL     1       2.867  -3.608   1.138  1.00  0.00     0.316 C 
ATOM     20  C   UNL     1      -0.591  -5.023  -2.553  1.00  0.00     0.047 C 
BRANCH  19  21
ATOM     21  C   UNL     1       4.313  -3.123   0.966  1.00  0.00     0.430 C 
ATOM     22  F   UNL     1       4.530  -1.983   1.663  1.00  0.00    -0.167 F 
ATOM     23  F   UNL     1       5.204  -4.037   1.410  1.00  0.00    -0.167 F 
ATOM     24  F   UNL     1       4.601  -2.869  -0.332  1.00  0.00    -0.167 F 
ENDBRANCH  19  21
ENDBRANCH   6   8
ENDBRANCH   5   6
ENDBRANCH   4   5
ENDBRANCH   3   4
ENDBRANCH   2   3
ENDBRANCH   1   2
BRANCH   1  25
ATOM     25  C   UNL     1       0.316  -7.460   3.660  1.00  0.00     0.261 C 
BRANCH  25  26
ATOM     26  O   UNL     1       1.240  -6.936   4.631  1.00  0.00    -0.460 OA
BRANCH  26  27
ATOM     27  C   UNL     1       1.503  -7.764   5.670  1.00  0.00     0.338 C 
ATOM     28  O   UNL     1       0.997  -8.857   5.888  1.00  0.00    -0.246 OA
BRANCH  27  29
ATOM     29  C   UNL     1       2.654  -7.259   6.438  1.00  0.00     0.060 A 
ATOM     30  C   UNL     1       3.772  -8.095   6.558  1.00  0.00     0.016 A 
ATOM     31  C   UNL     1       2.608  -6.031   7.099  1.00  0.00     0.016 A 
ATOM     32  C   UNL     1       4.833  -7.724   7.379  1.00  0.00     0.010 A 
ATOM     33  C   UNL     1       3.670  -5.666   7.934  1.00  0.00     0.010 A 
ATOM     34  C   UNL     1       4.770  -6.527   8.104  1.00  0.00    -0.014 A 
BRANCH  34  35
ATOM     35  C   UNL     1       5.786  -6.256   9.149  1.00  0.00     0.031 A 
ATOM     36  C   UNL     1       5.458  -6.569  10.583  1.00  0.00     0.074 A 
ATOM     37  C   UNL     1       6.997  -5.772   8.819  1.00  0.00     0.049 A 
ATOM     38  N   UNL     1       6.199  -6.424  11.650  1.00  0.00    -0.248 NA
ATOM     39  C   UNL     1       4.120  -7.125  10.851  1.00  0.00     0.031 C 
ATOM     40  C   UNL     1       7.436  -5.454   7.461  1.00  0.00     0.029 A 
ATOM     41  N   UNL     1       8.077  -5.457   9.605  1.00  0.00    -0.354 N 
ATOM     42  C   UNL     1       5.419  -6.861  12.715  1.00  0.00     0.074 A 
ATOM     43  C   UNL     1       4.138  -7.253  12.171  1.00  0.00     0.031 C 
ATOM     44  C   UNL     1       8.693  -4.979   7.510  1.00  0.00     0.029 A 
ATOM     45  C   UNL     1       9.138  -4.938   8.902  1.00  0.00     0.049 A 
ATOM     46  H   UNL     1       8.090  -5.590  10.580  1.00  0.00     0.167 HD
ATOM     47  C   UNL     1       5.750  -6.952  14.024  1.00  0.00     0.034 A 
ATOM     48  C   UNL     1      10.329  -4.476   9.335  1.00  0.00     0.034 A 
ATOM     49  C   UNL     1       7.031  -6.578  14.559  1.00  0.00     0.049 A 
ATOM     50  C   UNL     1      10.649  -4.535  10.807  1.00  0.00     0.074 A 
ATOM     51  C   UNL     1       7.466  -6.652  15.870  1.00  0.00     0.029 A 
ATOM     52  N   UNL     1       8.079  -6.058  13.817  1.00  0.00    -0.354 N 
ATOM     53  N   UNL     1       9.938  -5.040  11.787  1.00  0.00    -0.248 NA
ATOM     54  C   UNL     1      11.945  -3.984  11.232  1.00  0.00     0.031 C 
ATOM     55  C   UNL     1       8.771  -6.156  15.924  1.00  0.00     0.029 A 
ATOM     56  C   UNL     1       9.158  -5.796  14.643  1.00  0.00     0.049 A 
ATOM     57  H   UNL     1       8.059  -5.899  12.845  1.00  0.00     0.167 HD
ATOM     58  C   UNL     1      10.712  -4.898  12.934  1.00  0.00     0.074 A 
ATOM     59  C   UNL     1      11.955  -4.279  12.525  1.00  0.00     0.031 C 
ATOM     60  C   UNL     1      10.412  -5.232  14.214  1.00  0.00     0.034 A 
BRANCH  47  61
ATOM     61  C   UNL     1       4.732  -7.529  14.971  1.00  0.00     0.023 A 
ATOM     62  C   UNL     1       4.493  -8.917  14.961  1.00  0.00     0.012 A 
ATOM     63  C   UNL     1       4.091  -6.722  15.931  1.00  0.00     0.148 A 
ATOM     64  C   UNL     1       3.618  -9.493  15.881  1.00  0.00     0.002 A 
ATOM     65  C   UNL     1       3.253  -7.309  16.872  1.00  0.00     0.091 A 
ATOM     66  F   UNL     1       4.320  -5.401  15.910  1.00  0.00    -0.205 F 
ATOM     67  C   UNL     1       3.009  -8.692  16.843  1.00  0.00     0.022 A 
BRANCH  65  68
ATOM     68  S   UNL     1       2.480  -6.380  18.201  1.00  0.00     0.127 S 
ATOM     69  O   UNL     1       1.065  -6.472  17.841  1.00  0.00    -0.237 OA
ATOM     70  O   UNL     1       2.861  -7.158  19.380  1.00  0.00    -0.237 OA
ATOM     71  O   UNL     1       3.048  -5.041  18.142  1.00  0.00    -0.744 OA
ENDBRANCH  65  68
ENDBRANCH  47  61
BRANCH  48  72
ATOM     72  C   UNL     1      11.333  -3.968   8.355  1.00  0.00     0.023 A 
ATOM     73  C   UNL     1      12.522  -4.694   8.147  1.00  0.00     0.012 A 
ATOM     74  C   UNL     1      11.110  -2.791   7.614  1.00  0.00     0.148 A 
ATOM     75  C   UNL     1      13.480  -4.246   7.236  1.00  0.00     0.002 A 
ATOM     76  C   UNL     1      12.042  -2.380   6.669  1.00  0.00     0.091 A 
ATOM     77  F   UNL     1       9.983  -2.101   7.842  1.00  0.00    -0.205 F 
ATOM     78  C   UNL     1      13.235  -3.097   6.489  1.00  0.00     0.022 A 
BRANCH  76  79
ATOM     79  S   UNL     1      11.753  -0.988   5.570  1.00  0.00     0.127 S 
ATOM     80  O   UNL     1      12.706  -0.004   6.076  1.00  0.00    -0.237 OA
ATOM     81  O   UNL     1      12.088  -1.559   4.265  1.00  0.00    -0.237 OA
ATOM     82  O   UNL     1      10.346  -0.647   5.732  1.00  0.00    -0.744 OA
ENDBRANCH  76  79
ENDBRANCH  48  72
BRANCH  60  83
ATOM     83  C   UNL     1      11.440  -4.957  15.281  1.00  0.00     0.023 A 
ATOM     84  C   UNL     1      11.662  -3.632  15.705  1.00  0.00     0.012 A 
ATOM     85  C   UNL     1      12.089  -6.016  15.950  1.00  0.00     0.148 A 
ATOM     86  C   UNL     1      12.528  -3.362  16.764  1.00  0.00     0.002 A 
ATOM     87  C   UNL     1      12.911  -5.742  17.037  1.00  0.00     0.091 A 
ATOM     88  F   UNL     1      11.874  -7.269  15.524  1.00  0.00    -0.205 F 
ATOM     89  C   UNL     1      13.140  -4.416  17.439  1.00  0.00     0.022 A 
BRANCH  87  90
ATOM     90  S   UNL     1      13.658  -7.037  18.035  1.00  0.00     0.127 S 
ATOM     91  O   UNL     1      15.072  -6.901  17.689  1.00  0.00    -0.237 OA
ATOM     92  O   UNL     1      13.320  -6.613  19.395  1.00  0.00    -0.237 OA
ATOM     93  O   UNL     1      13.030  -8.282  17.615  1.00  0.00    -0.744 OA
ENDBRANCH  87  90
ENDBRANCH  60  83
ENDBRANCH  34  35
ENDBRANCH  27  29
ENDBRANCH  26  27
ENDBRANCH  25  26
ENDBRANCH   1  25
TORSDOF 18
