REMARK SMILES Cc1cc(C(=O)OCCOCCOC(=O)c2ccc(-c3c4nc(c(-c5cccc(S(=O)(=O)[O-])c5F)c5ccc([nH]5)c(-c5cccc(S(=O)(=O)[O-])c5F)c5nc(c(-c6cccc(S(=O)(=O)[O-])c6F)c6ccc3[nH]6)C=C5)C=C4)cc2)cc(S(=O)(=O)NNC(=O)c2c[nH]c3ccccc23)c1C
REMARK SMILES IDX 9 1 8 2 7 3 5 4 6 5 4 6 1 7 2 8 3 9 97 10 80 11 98 12 79 13
REMARK SMILES IDX 81 14 82 15 83 16 84 17 85 19 86 20 87 22 88 23 89 24 96 25
REMARK SMILES IDX 90 26 91 27 95 28 92 30 94 31 93 32 10 33 11 34 12 35 13 36
REMARK SMILES IDX 14 37 15 38 16 39 17 40 78 41 18 42 77 43 19 44 20 45 21 46
REMARK SMILES IDX 71 47 22 48 76 49 70 50 72 51 23 52 75 53 69 54 68 55 24 57
REMARK SMILES IDX 56 58 36 59 55 60 37 61 40 62 54 63 73 64 38 65 39 66 53 68
REMARK SMILES IDX 74 69 41 70 25 71 26 72 34 73 27 74 29 75 35 76 28 77 30 78
REMARK SMILES IDX 31 79 32 80 33 81 57 82 58 83 66 84 59 85 61 86 67 87 60 88
REMARK SMILES IDX 62 89 63 90 64 91 65 92 42 93 43 94 51 95 44 96 46 97 52 98
REMARK SMILES IDX 45 99 47 100 48 101 49 102 50 103
REMARK H PARENT 84 18 85 21 90 29 72 56 40 67
REMARK Flexibility Score: inf
ROOT
ATOM      1  C   UNL     1      -5.427   2.801  -0.374  1.00  0.00     0.202 C 
ENDROOT
BRANCH   1   2
ATOM      2  C   UNL     1      -4.553   2.776   0.888  1.00  0.00     0.261 C 
BRANCH   2   3
ATOM      3  O   UNL     1      -3.285   2.139   0.690  1.00  0.00    -0.460 OA
BRANCH   3   4
ATOM      4  C   UNL     1      -3.182   0.890   1.216  1.00  0.00     0.338 C 
ATOM      5  O   UNL     1      -4.011   0.296   1.877  1.00  0.00    -0.246 OA
BRANCH   4   6
ATOM      6  C   UNL     1      -1.946   0.240   0.717  1.00  0.00     0.061 A 
ATOM      7  C   UNL     1       1.662   1.159  -0.004  1.00  0.00     0.044 C 
ATOM      8  C   UNL     1       0.412   0.325   0.131  1.00  0.00    -0.046 A 
ATOM      9  C   UNL     1      -0.764   0.966   0.549  1.00  0.00     0.019 A 
ATOM     10  C   UNL     1       0.393  -1.073  -0.109  1.00  0.00    -0.028 A 
ATOM     11  C   UNL     1      -0.847  -1.772  -0.051  1.00  0.00     0.088 A 
ATOM     12  C   UNL     1       1.683  -1.822  -0.350  1.00  0.00     0.046 C 
ATOM     13  C   UNL     1      -2.002  -1.123   0.389  1.00  0.00     0.037 A 
BRANCH  11  14
ATOM     14  S   UNL     1      -0.926  -3.468  -0.620  1.00  0.00     0.257 S 
ATOM     15  O   UNL     1      -0.479  -3.477  -2.002  1.00  0.00    -0.205 OA
ATOM     16  O   UNL     1      -0.290  -4.284   0.387  1.00  0.00    -0.205 OA
BRANCH  14  17
ATOM     17  N   UNL     1      -2.557  -3.972  -0.630  1.00  0.00    -0.123 NA
ATOM     18  H   UNL     1      -3.012  -3.511   0.158  1.00  0.00     0.167 HD
BRANCH  17  19
ATOM     19  N   UNL     1      -3.396  -3.725  -1.807  1.00  0.00    -0.273 N 
ATOM     20  C   UNL     1      -4.360  -4.633  -2.232  1.00  0.00     0.268 C 
ATOM     21  H   UNL     1      -3.273  -2.889  -2.313  1.00  0.00     0.186 HD
ATOM     22  O   UNL     1      -5.543  -4.305  -2.297  1.00  0.00    -0.268 OA
BRANCH  20  23
ATOM     23  C   UNL     1      -3.841  -5.822  -2.928  1.00  0.00     0.066 A 
ATOM     24  C   UNL     1      -2.528  -6.051  -3.303  1.00  0.00     0.097 A 
ATOM     25  C   UNL     1      -4.552  -6.639  -3.871  1.00  0.00     0.012 A 
ATOM     26  N   UNL     1      -2.572  -6.018  -4.671  1.00  0.00    -0.360 N 
ATOM     27  C   UNL     1      -3.773  -6.585  -5.035  1.00  0.00     0.046 A 
ATOM     28  C   UNL     1      -5.797  -7.295  -3.937  1.00  0.00     0.011 A 
ATOM     29  H   UNL     1      -1.882  -5.660  -5.276  1.00  0.00     0.166 HD
ATOM     30  C   UNL     1      -4.209  -7.048  -6.275  1.00  0.00     0.027 A 
ATOM     31  C   UNL     1      -6.191  -7.885  -5.149  1.00  0.00     0.001 A 
ATOM     32  C   UNL     1      -5.427  -7.726  -6.306  1.00  0.00     0.002 A 
ENDBRANCH  20  23
ENDBRANCH  17  19
ENDBRANCH  14  17
ENDBRANCH  11  14
ENDBRANCH   4   6
ENDBRANCH   3   4
ENDBRANCH   2   3
ENDBRANCH   1   2
BRANCH   1  33
ATOM     33  O   UNL     1      -5.633   1.585  -1.087  1.00  0.00    -0.374 OA
BRANCH  33  34
ATOM     34  C   UNL     1      -4.550   1.048  -1.841  1.00  0.00     0.202 C 
BRANCH  34  35
ATOM     35  C   UNL     1      -4.065   1.787  -3.094  1.00  0.00     0.261 C 
BRANCH  35  36
ATOM     36  O   UNL     1      -3.648   3.138  -2.849  1.00  0.00    -0.460 OA
BRANCH  36  37
ATOM     37  C   UNL     1      -4.454   4.076  -3.409  1.00  0.00     0.338 C 
ATOM     38  O   UNL     1      -5.446   3.885  -4.088  1.00  0.00    -0.246 OA
BRANCH  37  39
ATOM     39  C   UNL     1      -4.057   5.420  -2.958  1.00  0.00     0.060 A 
ATOM     40  C   UNL     1      -4.997   6.171  -2.241  1.00  0.00     0.016 A 
ATOM     41  C   UNL     1      -2.835   5.977  -3.335  1.00  0.00     0.016 A 
ATOM     42  C   UNL     1      -4.732   7.503  -1.933  1.00  0.00     0.010 A 
ATOM     43  C   UNL     1      -2.575   7.316  -3.029  1.00  0.00     0.010 A 
ATOM     44  C   UNL     1      -3.536   8.095  -2.358  1.00  0.00    -0.014 A 
BRANCH  44  45
ATOM     45  C   UNL     1      -3.340   9.555  -2.197  1.00  0.00     0.031 A 
ATOM     46  C   UNL     1      -3.508  10.458  -3.388  1.00  0.00     0.074 A 
ATOM     47  C   UNL     1      -3.012  10.069  -0.998  1.00  0.00     0.049 A 
ATOM     48  N   UNL     1      -3.347  11.753  -3.473  1.00  0.00    -0.248 NA
ATOM     49  C   UNL     1      -3.905   9.817  -4.653  1.00  0.00     0.031 C 
ATOM     50  C   UNL     1      -2.825   9.295   0.228  1.00  0.00     0.029 A 
ATOM     51  N   UNL     1      -2.754  11.364  -0.623  1.00  0.00    -0.354 N 
ATOM     52  C   UNL     1      -3.594  12.080  -4.801  1.00  0.00     0.074 A 
ATOM     53  C   UNL     1      -3.904  10.846  -5.490  1.00  0.00     0.031 C 
ATOM     54  C   UNL     1      -2.452  10.127   1.216  1.00  0.00     0.029 A 
ATOM     55  C   UNL     1      -2.349  11.484   0.685  1.00  0.00     0.049 A 
ATOM     56  H   UNL     1      -2.849  12.131  -1.231  1.00  0.00     0.167 HD
ATOM     57  C   UNL     1      -3.578  13.299  -5.391  1.00  0.00     0.034 A 
ATOM     58  C   UNL     1      -1.918  12.563   1.369  1.00  0.00     0.034 A 
ATOM     59  C   UNL     1      -3.289  14.526  -4.698  1.00  0.00     0.049 A 
ATOM     60  C   UNL     1      -1.885  13.904   0.682  1.00  0.00     0.074 A 
ATOM     61  C   UNL     1      -3.301  15.818  -5.196  1.00  0.00     0.029 A 
ATOM     62  N   UNL     1      -2.925  14.616  -3.364  1.00  0.00    -0.354 N 
ATOM     63  N   UNL     1      -2.239  14.214  -0.542  1.00  0.00    -0.248 NA
ATOM     64  C   UNL     1      -1.424  15.049   1.480  1.00  0.00     0.031 C 
ATOM     65  C   UNL     1      -2.912  16.685  -4.170  1.00  0.00     0.029 A 
ATOM     66  C   UNL     1      -2.692  15.938  -3.025  1.00  0.00     0.049 A 
ATOM     67  H   UNL     1      -2.844  13.852  -2.748  1.00  0.00     0.167 HD
ATOM     68  C   UNL     1      -2.078  15.592  -0.649  1.00  0.00     0.074 A 
ATOM     69  C   UNL     1      -1.615  16.059   0.641  1.00  0.00     0.031 C 
ATOM     70  C   UNL     1      -2.282  16.396  -1.722  1.00  0.00     0.034 A 
BRANCH  57  71
ATOM     71  C   UNL     1      -3.904  13.374  -6.859  1.00  0.00     0.023 A 
ATOM     72  C   UNL     1      -5.233  13.185  -7.290  1.00  0.00     0.012 A 
ATOM     73  C   UNL     1      -2.910  13.696  -7.804  1.00  0.00     0.148 A 
ATOM     74  C   UNL     1      -5.562  13.287  -8.642  1.00  0.00     0.002 A 
ATOM     75  C   UNL     1      -3.254  13.839  -9.143  1.00  0.00     0.091 A 
ATOM     76  F   UNL     1      -1.649  13.852  -7.377  1.00  0.00    -0.205 F 
ATOM     77  C   UNL     1      -4.577  13.624  -9.565  1.00  0.00     0.022 A 
BRANCH  75  78
ATOM     78  S   UNL     1      -2.074  14.347 -10.399  1.00  0.00     0.127 S 
ATOM     79  O   UNL     1      -1.931  13.120 -11.182  1.00  0.00    -0.237 OA
ATOM     80  O   UNL     1      -2.794  15.424 -11.079  1.00  0.00    -0.237 OA
ATOM     81  O   UNL     1      -0.880  14.772  -9.681  1.00  0.00    -0.744 OA
ENDBRANCH  75  78
ENDBRANCH  57  71
BRANCH  58  82
ATOM     82  C   UNL     1      -1.504  12.427   2.794  1.00  0.00     0.023 A 
ATOM     83  C   UNL     1      -2.282  13.020   3.805  1.00  0.00     0.012 A 
ATOM     84  C   UNL     1      -0.349  11.703   3.151  1.00  0.00     0.148 A 
ATOM     85  C   UNL     1      -1.900  12.925   5.144  1.00  0.00     0.002 A 
ATOM     86  C   UNL     1      -0.006  11.563   4.490  1.00  0.00     0.091 A 
ATOM     87  F   UNL     1       0.388  11.160   2.172  1.00  0.00    -0.205 F 
ATOM     88  C   UNL     1      -0.769  12.189   5.487  1.00  0.00     0.022 A 
BRANCH  86  89
ATOM     89  S   UNL     1       1.357  10.525   5.029  1.00  0.00     0.127 S 
ATOM     90  O   UNL     1       2.329  11.517   5.479  1.00  0.00    -0.237 OA
ATOM     91  O   UNL     1       0.735   9.741   6.097  1.00  0.00    -0.237 OA
ATOM     92  O   UNL     1       1.742   9.745   3.861  1.00  0.00    -0.744 OA
ENDBRANCH  86  89
ENDBRANCH  58  82
BRANCH  70  93
ATOM     93  C   UNL     1      -2.044  17.874  -1.546  1.00  0.00     0.023 A 
ATOM     94  C   UNL     1      -0.729  18.365  -1.429  1.00  0.00     0.012 A 
ATOM     95  C   UNL     1      -3.121  18.783  -1.575  1.00  0.00     0.148 A 
ATOM     96  C   UNL     1      -0.490  19.734  -1.310  1.00  0.00     0.002 A 
ATOM     97  C   UNL     1      -2.873  20.149  -1.507  1.00  0.00     0.091 A 
ATOM     98  F   UNL     1      -4.366  18.296  -1.670  1.00  0.00    -0.205 F 
ATOM     99  C   UNL     1      -1.560  20.625  -1.361  1.00  0.00     0.022 A 
BRANCH  97 100
ATOM    100  S   UNL     1      -4.176  21.375  -1.662  1.00  0.00     0.127 S 
ATOM    101  O   UNL     1      -4.257  21.898  -0.300  1.00  0.00    -0.237 OA
ATOM    102  O   UNL     1      -3.611  22.305  -2.641  1.00  0.00    -0.237 OA
ATOM    103  O   UNL     1      -5.354  20.654  -2.124  1.00  0.00    -0.744 OA
ENDBRANCH  97 100
ENDBRANCH  70  93
ENDBRANCH  44  45
ENDBRANCH  37  39
ENDBRANCH  36  37
ENDBRANCH  35  36
ENDBRANCH  34  35
ENDBRANCH  33  34
ENDBRANCH   1  33
TORSDOF 21
