REMARK SMILES COc1cc(CNc2ccc(N3CCOCC3)c(C(=O)OCCOCCOC(=O)c3ccc(-c4c5nc(c(-c6cccc(S(=O)(=O)[O-])c6F)c6ccc([nH]6)c(-c6cccc(S(=O)(=O)[O-])c6F)c6nc(c(-c7cccc(S(=O)(=O)[O-])c7F)c7ccc4[nH]7)C=C6)C=C5)cc3)c2)cc(Br)c1OC
REMARK SMILES IDX 23 1 22 2 21 3 19 4 20 5 18 6 8 7 9 8 93 9 10 10 11 11 7 12
REMARK SMILES IDX 6 14 5 15 3 16 4 17 97 18 95 19 94 20 96 21 2 22 1 23 98 24
REMARK SMILES IDX 99 25 12 26 13 27 17 28 14 29 16 30 15 31 24 32 25 33 26 34
REMARK SMILES IDX 27 35 28 36 29 37 30 38 31 39 92 40 32 41 91 42 33 43 34 44
REMARK SMILES IDX 35 45 85 46 36 47 90 48 84 49 86 50 37 51 89 52 83 53 82 54
REMARK SMILES IDX 38 56 70 57 50 58 69 59 51 60 54 61 68 62 87 63 52 64 53 65
REMARK SMILES IDX 67 67 88 68 55 69 39 70 40 71 48 72 41 73 43 74 49 75 42 76
REMARK SMILES IDX 44 77 45 78 46 79 47 80 71 81 72 82 80 83 73 84 75 85 81 86
REMARK SMILES IDX 74 87 76 88 77 89 78 90 79 91 56 92 57 93 65 94 58 95 60 96
REMARK SMILES IDX 66 97 59 98 61 99 62 100 63 101 64 102
REMARK H PARENT 7 13 86 55 54 66
REMARK Flexibility Score: inf
ROOT
ATOM      1  C   UNL     1      11.247   3.162  -2.564  1.00  0.00     0.202 C 
ENDROOT
BRANCH   1   2
ATOM      2  C   UNL     1      10.195   2.124  -2.960  1.00  0.00     0.261 C 
BRANCH   2   3
ATOM      3  O   UNL     1       9.018   2.280  -2.155  1.00  0.00    -0.460 OA
BRANCH   3   4
ATOM      4  C   UNL     1       8.531   1.145  -1.597  1.00  0.00     0.340 C 
ATOM      5  O   UNL     1       8.886   0.003  -1.845  1.00  0.00    -0.246 OA
BRANCH   4   6
ATOM      6  C   UNL     1       7.522   1.515  -0.583  1.00  0.00     0.085 A 
ATOM      7  C   UNL     1       5.448   2.724  -0.142  1.00  0.00     0.035 A 
ATOM      8  C   UNL     1       5.465   2.179   1.146  1.00  0.00     0.028 A 
ATOM      9  C   UNL     1       6.497   2.388  -0.992  1.00  0.00     0.043 A 
ATOM     10  C   UNL     1       6.500   1.332   1.571  1.00  0.00     0.029 A 
ATOM     11  C   UNL     1       7.555   0.984   0.721  1.00  0.00     0.052 A 
BRANCH   7  12
ATOM     12  N   UNL     1       4.379   3.499  -0.536  1.00  0.00    -0.381 N 
ATOM     13  H   UNL     1       3.857   3.949   0.167  1.00  0.00     0.160 HD
BRANCH  12  14
ATOM     14  C   UNL     1       3.966   3.701  -1.920  1.00  0.00     0.149 C 
BRANCH  14  15
ATOM     15  C   UNL     1       2.510   3.321  -2.047  1.00  0.00    -0.024 A 
ATOM     16  C   UNL     1       0.724   1.707  -1.733  1.00  0.00     0.162 A 
ATOM     17  C   UNL     1       2.077   2.050  -1.661  1.00  0.00     0.056 A 
ATOM     18  C   UNL     1      -0.237   2.607  -2.251  1.00  0.00     0.174 A 
ATOM     19  C   UNL     1       0.208   3.871  -2.675  1.00  0.00     0.064 A 
ATOM     20  C   UNL     1       1.572   4.213  -2.573  1.00  0.00     0.025 A 
ATOM     21  Br  UNL     1      -0.877   5.287  -3.340  1.00  0.00    -0.047 Br
BRANCH  16  22
ATOM     22  O   UNL     1       0.298   0.448  -1.364  1.00  0.00    -0.493 OA
ATOM     23  C   UNL     1       0.783   0.033  -0.091  1.00  0.00     0.278 C 
ENDBRANCH  16  22
BRANCH  18  24
ATOM     24  O   UNL     1      -1.510   2.103  -2.191  1.00  0.00    -0.492 OA
ATOM     25  C   UNL     1      -2.558   2.671  -2.951  1.00  0.00     0.278 C 
ENDBRANCH  18  24
ENDBRANCH  14  15
ENDBRANCH  12  14
ENDBRANCH   7  12
BRANCH  11  26
ATOM     26  N   UNL     1       8.560   0.182   1.206  1.00  0.00    -0.366 N 
ATOM     27  C   UNL     1       9.781   0.724   1.795  1.00  0.00     0.145 C 
ATOM     28  C   UNL     1       8.474  -1.277   1.158  1.00  0.00     0.145 C 
ATOM     29  C   UNL     1      10.993   0.090   1.094  1.00  0.00     0.181 C 
ATOM     30  C   UNL     1       9.779  -1.873   0.592  1.00  0.00     0.181 C 
ATOM     31  O   UNL     1      10.955  -1.344   1.239  1.00  0.00    -0.378 OA
ENDBRANCH  11  26
ENDBRANCH   4   6
ENDBRANCH   3   4
ENDBRANCH   2   3
ENDBRANCH   1   2
BRANCH   1  32
ATOM     32  O   UNL     1      11.795   3.084  -1.245  1.00  0.00    -0.374 OA
BRANCH  32  33
ATOM     33  C   UNL     1      10.937   3.404  -0.155  1.00  0.00     0.202 C 
BRANCH  33  34
ATOM     34  C   UNL     1      10.613   4.870   0.158  1.00  0.00     0.261 C 
BRANCH  34  35
ATOM     35  O   UNL     1      10.274   5.648  -0.986  1.00  0.00    -0.460 OA
BRANCH  35  36
ATOM     36  C   UNL     1      11.320   6.327  -1.516  1.00  0.00     0.338 C 
ATOM     37  O   UNL     1      12.464   6.386  -1.094  1.00  0.00    -0.246 OA
BRANCH  36  38
ATOM     38  C   UNL     1      10.904   6.855  -2.822  1.00  0.00     0.060 A 
ATOM     39  C   UNL     1      11.632   6.457  -3.950  1.00  0.00     0.016 A 
ATOM     40  C   UNL     1       9.809   7.713  -2.931  1.00  0.00     0.016 A 
ATOM     41  C   UNL     1      11.271   6.932  -5.205  1.00  0.00     0.010 A 
ATOM     42  C   UNL     1       9.461   8.201  -4.188  1.00  0.00     0.010 A 
ATOM     43  C   UNL     1      10.203   7.828  -5.322  1.00  0.00    -0.014 A 
BRANCH  43  44
ATOM     44  C   UNL     1       9.929   8.483  -6.617  1.00  0.00     0.031 A 
ATOM     45  C   UNL     1      10.401   9.890  -6.823  1.00  0.00     0.074 A 
ATOM     46  C   UNL     1       9.227   7.840  -7.565  1.00  0.00     0.049 A 
ATOM     47  N   UNL     1      10.185  10.693  -7.829  1.00  0.00    -0.248 NA
ATOM     48  C   UNL     1      11.218  10.473  -5.746  1.00  0.00     0.031 C 
ATOM     49  C   UNL     1       8.725   6.471  -7.459  1.00  0.00     0.029 A 
ATOM     50  N   UNL     1       8.779   8.274  -8.786  1.00  0.00    -0.354 N 
ATOM     51  C   UNL     1      10.800  11.891  -7.490  1.00  0.00     0.074 A 
ATOM     52  C   UNL     1      11.399  11.710  -6.186  1.00  0.00     0.031 C 
ATOM     53  C   UNL     1       7.995   6.192  -8.552  1.00  0.00     0.029 A 
ATOM     54  C   UNL     1       7.950   7.374  -9.410  1.00  0.00     0.049 A 
ATOM     55  H   UNL     1       9.026   9.143  -9.176  1.00  0.00     0.167 HD
ATOM     56  C   UNL     1      10.860  13.037  -8.206  1.00  0.00     0.034 A 
ATOM     57  C   UNL     1       7.202   7.510 -10.523  1.00  0.00     0.034 A 
ATOM     58  C   UNL     1      10.267  13.197  -9.505  1.00  0.00     0.049 A 
ATOM     59  C   UNL     1       7.259   8.805 -11.287  1.00  0.00     0.074 A 
ATOM     60  C   UNL     1      10.333  14.289 -10.351  1.00  0.00     0.029 A 
ATOM     61  N   UNL     1       9.473  12.249 -10.133  1.00  0.00    -0.354 N 
ATOM     62  N   UNL     1       7.958   9.884 -11.029  1.00  0.00    -0.248 NA
ATOM     63  C   UNL     1       6.444   8.896 -12.507  1.00  0.00     0.031 C 
ATOM     64  C   UNL     1       9.538  14.020 -11.469  1.00  0.00     0.029 A 
ATOM     65  C   UNL     1       9.012  12.743 -11.340  1.00  0.00     0.049 A 
ATOM     66  H   UNL     1       9.269  11.356  -9.774  1.00  0.00     0.167 HD
ATOM     67  C   UNL     1       7.685  10.774 -12.062  1.00  0.00     0.074 A 
ATOM     68  C   UNL     1       6.776  10.097 -12.964  1.00  0.00     0.031 C 
ATOM     69  C   UNL     1       8.134  12.041 -12.242  1.00  0.00     0.034 A 
BRANCH  56  70
ATOM     70  C   UNL     1      11.583  14.206  -7.596  1.00  0.00     0.023 A 
ATOM     71  C   UNL     1      12.987  14.184  -7.475  1.00  0.00     0.012 A 
ATOM     72  C   UNL     1      10.871  15.348  -7.180  1.00  0.00     0.148 A 
ATOM     73  C   UNL     1      13.668  15.267  -6.918  1.00  0.00     0.002 A 
ATOM     74  C   UNL     1      11.559  16.441  -6.670  1.00  0.00     0.091 A 
ATOM     75  F   UNL     1       9.534  15.338  -7.279  1.00  0.00    -0.205 F 
ATOM     76  C   UNL     1      12.956  16.397  -6.527  1.00  0.00     0.022 A 
BRANCH  74  77
ATOM     77  S   UNL     1      10.740  17.971  -6.212  1.00  0.00     0.127 S 
ATOM     78  O   UNL     1      10.879  17.955  -4.756  1.00  0.00    -0.237 OA
ATOM     79  O   UNL     1      11.562  18.973  -6.891  1.00  0.00    -0.237 OA
ATOM     80  O   UNL     1       9.376  17.863  -6.709  1.00  0.00    -0.744 OA
ENDBRANCH  74  77
ENDBRANCH  56  70
BRANCH  57  81
ATOM     81  C   UNL     1       6.331   6.386 -10.966  1.00  0.00     0.023 A 
ATOM     82  C   UNL     1       6.644   5.679 -12.142  1.00  0.00     0.012 A 
ATOM     83  C   UNL     1       5.214   5.992 -10.202  1.00  0.00     0.148 A 
ATOM     84  C   UNL     1       5.846   4.613 -12.561  1.00  0.00     0.002 A 
ATOM     85  C   UNL     1       4.460   4.894 -10.593  1.00  0.00     0.091 A 
ATOM     86  F   UNL     1       4.926   6.689  -9.094  1.00  0.00    -0.205 F 
ATOM     87  C   UNL     1       4.763   4.213 -11.782  1.00  0.00     0.022 A 
BRANCH  85  88
ATOM     88  S   UNL     1       3.136   4.226  -9.579  1.00  0.00     0.127 S 
ATOM     89  O   UNL     1       1.959   4.519 -10.394  1.00  0.00    -0.237 OA
ATOM     90  O   UNL     1       3.501   2.811  -9.506  1.00  0.00    -0.237 OA
ATOM     91  O   UNL     1       3.215   4.933  -8.308  1.00  0.00    -0.744 OA
ENDBRANCH  85  88
ENDBRANCH  57  81
BRANCH  69  92
ATOM     92  C   UNL     1       7.668  12.784 -13.467  1.00  0.00     0.023 A 
ATOM     93  C   UNL     1       6.344  13.260 -13.535  1.00  0.00     0.012 A 
ATOM     94  C   UNL     1       8.572  13.098 -14.502  1.00  0.00     0.148 A 
ATOM     95  C   UNL     1       5.920  14.018 -14.625  1.00  0.00     0.002 A 
ATOM     96  C   UNL     1       8.156  13.897 -15.559  1.00  0.00     0.091 A 
ATOM     97  F   UNL     1       9.824  12.625 -14.421  1.00  0.00    -0.205 F 
ATOM     98  C   UNL     1       6.828  14.348 -15.629  1.00  0.00     0.022 A 
BRANCH  96  99
ATOM     99  S   UNL     1       9.275  14.457 -16.848  1.00  0.00     0.127 S 
ATOM    100  O   UNL     1       8.741  13.773 -18.024  1.00  0.00    -0.237 OA
ATOM    101  O   UNL     1       9.061  15.904 -16.834  1.00  0.00    -0.237 OA
ATOM    102  O   UNL     1      10.608  14.034 -16.439  1.00  0.00    -0.744 OA
ENDBRANCH  96  99
ENDBRANCH  69  92
ENDBRANCH  43  44
ENDBRANCH  36  38
ENDBRANCH  35  36
ENDBRANCH  34  35
ENDBRANCH  33  34
ENDBRANCH  32  33
ENDBRANCH   1  32
TORSDOF 23
