REMARK SMILES O=C(OCCOCCOC(=O)[C@]1(CCc2cccnc2)CCC[NH2+]C1)c1ccc(-c2c3nc(c(-c4cccc(S(=O)(=O)[O-])c4F)c4ccc([nH]4)c(-c4cccc(S(=O)(=O)[O-])c4F)c4nc(c(-c5cccc(S(=O)(=O)[O-])c5F)c5ccc2[nH]5)C=C4)C=C3)cc1
REMARK SMILES IDX 6 1 5 2 4 3 3 4 2 5 1 6 26 7 27 8 88 9 28 10 87 11 29 12
REMARK SMILES IDX 30 13 31 14 81 15 32 16 86 17 80 18 82 19 33 20 85 21 79 22
REMARK SMILES IDX 78 23 34 25 66 26 46 27 65 28 47 29 50 30 64 31 83 32 48 33
REMARK SMILES IDX 49 34 63 36 84 37 51 38 35 39 36 40 44 41 37 42 39 43 45 44
REMARK SMILES IDX 38 45 40 46 41 47 42 48 43 49 67 50 68 51 76 52 69 53 71 54
REMARK SMILES IDX 77 55 70 56 72 57 73 58 74 59 75 60 52 61 53 62 61 63 54 64
REMARK SMILES IDX 56 65 62 66 55 67 57 68 58 69 59 70 60 71 7 72 8 73 9 74
REMARK SMILES IDX 10 75 11 76 12 77 21 78 25 79 22 80 24 81 23 82 13 85 14 86
REMARK SMILES IDX 15 87 16 88 20 89 17 90 19 91 18 92
REMARK H PARENT 82 24 50 35 24 83 24 84
REMARK Flexibility Score: inf
ROOT
ATOM      1  O   UNL     1       4.719   1.668   1.060  1.00  0.00    -0.374 OA
ENDROOT
BRANCH   1   2
ATOM      2  C   UNL     1       5.160   0.529  -0.045  1.00  0.00     0.202 C 
BRANCH   2   3
ATOM      3  C   UNL     1       3.980  -1.003  -1.085  1.00  0.00     0.261 C 
BRANCH   3   4
ATOM      4  O   UNL     1       2.724  -1.977  -0.301  1.00  0.00    -0.460 OA
BRANCH   4   5
ATOM      5  C   UNL     1       1.626  -1.557   0.471  1.00  0.00     0.338 C 
ATOM      6  O   UNL     1       0.618  -1.022   0.030  1.00  0.00    -0.246 OA
BRANCH   5   7
ATOM      7  C   UNL     1       1.877  -1.751   1.970  1.00  0.00     0.060 A 
ATOM      8  C   UNL     1       2.290  -0.645   2.706  1.00  0.00     0.016 A 
ATOM      9  C   UNL     1       2.120  -2.999   2.527  1.00  0.00     0.016 A 
ATOM     10  C   UNL     1       3.380  -0.792   3.573  1.00  0.00     0.010 A 
ATOM     11  C   UNL     1       2.982  -3.119   3.646  1.00  0.00     0.010 A 
ATOM     12  C   UNL     1       3.775  -2.035   4.078  1.00  0.00    -0.014 A 
BRANCH  12  13
ATOM     13  C   UNL     1       5.042  -2.211   4.900  1.00  0.00     0.031 A 
ATOM     14  C   UNL     1       5.894  -3.472   4.751  1.00  0.00     0.074 A 
ATOM     15  C   UNL     1       5.501  -1.260   5.754  1.00  0.00     0.049 A 
ATOM     16  N   UNL     1       6.750  -4.004   5.590  1.00  0.00    -0.248 NA
ATOM     17  C   UNL     1       5.761  -4.243   3.500  1.00  0.00     0.031 C 
ATOM     18  C   UNL     1       4.934   0.076   5.952  1.00  0.00     0.029 A 
ATOM     19  N   UNL     1       6.556  -1.278   6.651  1.00  0.00    -0.354 N 
ATOM     20  C   UNL     1       7.150  -5.218   5.030  1.00  0.00     0.074 A 
ATOM     21  C   UNL     1       6.476  -5.331   3.757  1.00  0.00     0.031 C 
ATOM     22  C   UNL     1       5.648   0.756   6.853  1.00  0.00     0.029 A 
ATOM     23  C   UNL     1       6.583  -0.162   7.465  1.00  0.00     0.049 A 
ATOM     24  H   UNL     1       7.215  -2.008   6.704  1.00  0.00     0.167 HD
ATOM     25  C   UNL     1       7.984  -6.159   5.543  1.00  0.00     0.034 A 
ATOM     26  C   UNL     1       7.161   0.075   8.660  1.00  0.00     0.034 A 
ATOM     27  C   UNL     1       8.694  -5.996   6.786  1.00  0.00     0.049 A 
ATOM     28  C   UNL     1       7.987  -1.011   9.272  1.00  0.00     0.074 A 
ATOM     29  C   UNL     1       9.541  -6.885   7.425  1.00  0.00     0.029 A 
ATOM     30  N   UNL     1       8.646  -4.856   7.576  1.00  0.00    -0.354 N 
ATOM     31  N   UNL     1       8.269  -2.197   8.793  1.00  0.00    -0.248 NA
ATOM     32  C   UNL     1       8.579  -0.727  10.584  1.00  0.00     0.031 C 
ATOM     33  C   UNL     1       9.967  -6.301   8.622  1.00  0.00     0.029 A 
ATOM     34  C   UNL     1       9.439  -5.022   8.698  1.00  0.00     0.049 A 
ATOM     35  H   UNL     1       8.125  -4.048   7.368  1.00  0.00     0.167 HD
ATOM     36  C   UNL     1       9.103  -2.790   9.729  1.00  0.00     0.074 A 
ATOM     37  C   UNL     1       9.300  -1.819  10.787  1.00  0.00     0.031 C 
ATOM     38  C   UNL     1       9.649  -4.029   9.719  1.00  0.00     0.034 A 
BRANCH  25  39
ATOM     39  C   UNL     1       8.146  -7.466   4.797  1.00  0.00     0.023 A 
ATOM     40  C   UNL     1       8.849  -7.521   3.576  1.00  0.00     0.012 A 
ATOM     41  C   UNL     1       7.639  -8.665   5.347  1.00  0.00     0.148 A 
ATOM     42  C   UNL     1       9.005  -8.732   2.897  1.00  0.00     0.002 A 
ATOM     43  C   UNL     1       7.842  -9.874   4.690  1.00  0.00     0.091 A 
ATOM     44  F   UNL     1       6.968  -8.600   6.505  1.00  0.00    -0.205 F 
ATOM     45  C   UNL     1       8.511  -9.908   3.457  1.00  0.00     0.022 A 
BRANCH  43  46
ATOM     46  S   UNL     1       7.309 -11.454   5.364  1.00  0.00     0.127 S 
ATOM     47  O   UNL     1       6.319 -11.877   4.374  1.00  0.00    -0.237 OA
ATOM     48  O   UNL     1       8.552 -12.226   5.350  1.00  0.00    -0.237 OA
ATOM     49  O   UNL     1       6.776 -11.171   6.689  1.00  0.00    -0.744 OA
ENDBRANCH  43  46
ENDBRANCH  25  39
BRANCH  26  50
ATOM     50  C   UNL     1       6.875   1.343   9.402  1.00  0.00     0.023 A 
ATOM     51  C   UNL     1       7.913   2.256   9.667  1.00  0.00     0.012 A 
ATOM     52  C   UNL     1       5.567   1.653   9.840  1.00  0.00     0.148 A 
ATOM     53  C   UNL     1       7.663   3.431  10.379  1.00  0.00     0.002 A 
ATOM     54  C   UNL     1       5.312   2.859  10.482  1.00  0.00     0.091 A 
ATOM     55  F   UNL     1       4.589   0.768   9.602  1.00  0.00    -0.205 F 
ATOM     56  C   UNL     1       6.363   3.740  10.774  1.00  0.00     0.022 A 
BRANCH  54  57
ATOM     57  S   UNL     1       3.648   3.398  10.896  1.00  0.00     0.127 S 
ATOM     58  O   UNL     1       3.658   3.303  12.354  1.00  0.00    -0.237 OA
ATOM     59  O   UNL     1       3.632   4.763  10.368  1.00  0.00    -0.237 OA
ATOM     60  O   UNL     1       2.752   2.479  10.208  1.00  0.00    -0.744 OA
ENDBRANCH  54  57
ENDBRANCH  26  50
BRANCH  38  61
ATOM     61  C   UNL     1      10.577  -4.368  10.851  1.00  0.00     0.023 A 
ATOM     62  C   UNL     1      10.079  -4.544  12.157  1.00  0.00     0.012 A 
ATOM     63  C   UNL     1      11.954  -4.524  10.604  1.00  0.00     0.148 A 
ATOM     64  C   UNL     1      10.949  -4.817  13.211  1.00  0.00     0.002 A 
ATOM     65  C   UNL     1      12.804  -4.861  11.646  1.00  0.00     0.091 A 
ATOM     66  F   UNL     1      12.405  -4.331   9.356  1.00  0.00    -0.205 F 
ATOM     67  C   UNL     1      12.308  -4.987  12.953  1.00  0.00     0.022 A 
BRANCH  65  68
ATOM     68  S   UNL     1      14.547  -5.201  11.389  1.00  0.00     0.127 S 
ATOM     69  O   UNL     1      15.174  -4.069  12.070  1.00  0.00    -0.237 OA
ATOM     70  O   UNL     1      14.709  -6.488  12.065  1.00  0.00    -0.237 OA
ATOM     71  O   UNL     1      14.743  -5.244   9.946  1.00  0.00    -0.744 OA
ENDBRANCH  65  68
ENDBRANCH  38  61
ENDBRANCH  12  13
ENDBRANCH   5   7
ENDBRANCH   4   5
ENDBRANCH   3   4
ENDBRANCH   2   3
ENDBRANCH   1   2
BRANCH   1  72
ATOM     72  C   UNL     1       3.435   2.269   1.357  1.00  0.00     0.202 C 
BRANCH  72  73
ATOM     73  C   UNL     1       3.086   3.656   0.802  1.00  0.00     0.261 C 
BRANCH  73  74
ATOM     74  O   UNL     1       3.434   3.790  -0.571  1.00  0.00    -0.463 OA
BRANCH  74  75
ATOM     75  C   UNL     1       4.779   3.930  -0.690  1.00  0.00     0.317 C 
ATOM     76  O   UNL     1       5.551   3.945   0.262  1.00  0.00    -0.251 OA
BRANCH  75  77
ATOM     77  C   UNL     1       5.210   4.185  -2.123  1.00  0.00     0.117 C 
ATOM     78  C   UNL     1       6.746   4.380  -2.081  1.00  0.00     0.030 C 
ATOM     79  C   UNL     1       4.555   5.527  -2.530  1.00  0.00     0.279 C 
ATOM     80  C   UNL     1       7.162   5.624  -1.260  1.00  0.00     0.063 C 
ATOM     81  N   UNL     1       4.868   6.605  -1.601  1.00  0.00    -0.345 N 
ATOM     82  C   UNL     1       6.301   6.863  -1.524  1.00  0.00     0.260 C 
ATOM     83  H   UNL     1       4.397   7.454  -1.913  1.00  0.00     0.346 HD
ATOM     84  H   UNL     1       4.548   6.323  -0.675  1.00  0.00     0.346 HD
BRANCH  77  85
ATOM     85  C   UNL     1       4.718   3.118  -3.160  1.00  0.00     0.029 C 
BRANCH  85  86
ATOM     86  C   UNL     1       5.316   1.708  -3.201  1.00  0.00     0.038 C 
BRANCH  86  87
ATOM     87  C   UNL     1       4.846   0.699  -2.180  1.00  0.00    -0.030 A 
ATOM     88  C   UNL     1       6.042  -0.541  -1.780  1.00  0.00     0.007 A 
ATOM     89  C   UNL     1       3.496   0.954  -1.098  1.00  0.00     0.114 A 
ATOM     90  C   UNL     1       5.973  -1.514  -0.331  1.00  0.00     0.020 A 
ATOM     91  N   UNL     1       3.406  -0.017   0.405  1.00  0.00    -0.264 NA
ATOM     92  C   UNL     1       4.673  -1.246   0.776  1.00  0.00     0.111 A 
ENDBRANCH  86  87
ENDBRANCH  85  86
ENDBRANCH  77  85
ENDBRANCH  75  77
ENDBRANCH  74  75
ENDBRANCH  73  74
ENDBRANCH  72  73
ENDBRANCH   1  72
TORSDOF 20
