REMARK SMILES Cc1nc2cc(S(=O)(=O)N3CCC(C(=O)OCCOCCOC(=O)c4ccc(-c5c6nc(c(-c7cccc(S(=O)(=O)[O-])c7F)c7ccc([nH]7)c(-c7cccc(S(=O)(=O)[O-])c7F)c7nc(c(-c8cccc(S(=O)(=O)[O-])c8F)c8ccc5[nH]8)C=C7)C=C6)cc4)CC3)ccc2n1C1CCCC1
REMARK SMILES IDX 19 1 18 2 17 3 16 4 14 5 15 6 13 7 10 8 11 9 89 10 12 11
REMARK SMILES IDX 88 12 7 13 8 14 9 15 6 16 1 17 2 18 3 19 93 20 4 21 92 22
REMARK SMILES IDX 5 23 91 24 90 25 94 26 95 27 98 28 96 29 97 30 20 31 21 32
REMARK SMILES IDX 22 33 23 34 24 35 25 36 26 37 87 38 27 39 86 40 28 41 29 42
REMARK SMILES IDX 30 43 80 44 31 45 85 46 79 47 81 48 32 49 84 50 78 51 77 52
REMARK SMILES IDX 33 54 65 55 45 56 64 57 46 58 49 59 63 60 82 61 47 62 48 63
REMARK SMILES IDX 62 65 83 66 50 67 34 68 35 69 43 70 36 71 38 72 44 73 37 74
REMARK SMILES IDX 39 75 40 76 41 77 42 78 66 79 67 80 75 81 68 82 70 83 76 84
REMARK SMILES IDX 69 85 71 86 72 87 73 88 74 89 51 90 52 91 60 92 53 93 55 94
REMARK SMILES IDX 61 95 54 96 56 97 57 98 58 99 59 100
REMARK H PARENT 81 53 49 64
REMARK Flexibility Score: inf
ROOT
ATOM      1  O   UNL     1      -2.337  -2.259  12.839  1.00  0.00    -0.374 OA
ENDROOT
BRANCH   1   2
ATOM      2  C   UNL     1      -3.023  -3.460  13.178  1.00  0.00     0.202 C 
BRANCH   2   3
ATOM      3  C   UNL     1      -3.775  -4.235  12.091  1.00  0.00     0.261 C 
BRANCH   3   4
ATOM      4  O   UNL     1      -2.972  -4.504  10.937  1.00  0.00    -0.463 OA
BRANCH   4   5
ATOM      5  C   UNL     1      -3.224  -3.689   9.886  1.00  0.00     0.309 C 
ATOM      6  O   UNL     1      -4.059  -2.793   9.855  1.00  0.00    -0.252 OA
BRANCH   5   7
ATOM      7  C   UNL     1      -2.358  -4.001   8.694  1.00  0.00     0.102 C 
ATOM      8  N   UNL     1      -0.906  -5.306   6.602  1.00  0.00    -0.198 NA
ATOM      9  C   UNL     1      -0.149  -4.660   7.705  1.00  0.00     0.103 C 
ATOM     10  C   UNL     1      -2.376  -5.119   6.491  1.00  0.00     0.103 C 
ATOM     11  C   UNL     1      -0.948  -4.498   8.989  1.00  0.00     0.032 C 
ATOM     12  C   UNL     1      -3.060  -5.038   7.838  1.00  0.00     0.032 C 
BRANCH   8  13
ATOM     13  S   UNL     1      -0.076  -5.410   5.108  1.00  0.00     0.243 S 
ATOM     14  O   UNL     1      -0.853  -6.274   4.237  1.00  0.00    -0.207 OA
ATOM     15  O   UNL     1       1.316  -5.671   5.390  1.00  0.00    -0.207 OA
BRANCH  13  16
ATOM     16  C   UNL     1      -0.139  -3.784   4.373  1.00  0.00     0.085 A 
ATOM     17  C   UNL     1       1.010   0.083  -0.036  1.00  0.00     0.088 C 
ATOM     18  C   UNL     1       0.593  -0.722   1.141  1.00  0.00     0.106 A 
ATOM     19  N   UNL     1       0.761  -2.028   1.216  1.00  0.00    -0.233 NA
ATOM     20  N   UNL     1       0.032  -0.229   2.306  1.00  0.00    -0.325 N 
ATOM     21  C   UNL     1       0.331  -2.400   2.458  1.00  0.00     0.090 A 
ATOM     22  C   UNL     1      -0.138  -1.298   3.165  1.00  0.00     0.068 A 
ATOM     23  C   UNL     1       0.332  -3.668   3.057  1.00  0.00     0.052 A 
ATOM     24  C   UNL     1      -0.626  -1.405   4.469  1.00  0.00     0.030 A 
ATOM     25  C   UNL     1      -0.620  -2.667   5.057  1.00  0.00     0.024 A 
BRANCH  20  26
ATOM     26  C   UNL     1      -0.249   1.158   2.625  1.00  0.00     0.089 C 
ATOM     27  C   UNL     1      -1.696   1.466   3.022  1.00  0.00     0.025 C 
ATOM     28  C   UNL     1       0.588   1.713   3.781  1.00  0.00     0.025 C 
ATOM     29  C   UNL     1      -1.605   2.816   3.719  1.00  0.00     0.002 C 
ATOM     30  C   UNL     1      -0.207   2.893   4.330  1.00  0.00     0.002 C 
ENDBRANCH  20  26
ENDBRANCH  13  16
ENDBRANCH   8  13
ENDBRANCH   5   7
ENDBRANCH   4   5
ENDBRANCH   3   4
ENDBRANCH   2   3
ENDBRANCH   1   2
BRANCH   1  31
ATOM     31  C   UNL     1      -1.123  -2.357  12.097  1.00  0.00     0.202 C 
BRANCH  31  32
ATOM     32  C   UNL     1       0.070  -3.141  12.681  1.00  0.00     0.261 C 
BRANCH  32  33
ATOM     33  O   UNL     1      -0.219  -4.536  12.837  1.00  0.00    -0.460 OA
BRANCH  33  34
ATOM     34  C   UNL     1       0.204  -5.077  14.017  1.00  0.00     0.338 C 
ATOM     35  O   UNL     1       1.129  -4.695  14.709  1.00  0.00    -0.246 OA
BRANCH  34  36
ATOM     36  C   UNL     1      -0.912  -5.927  14.481  1.00  0.00     0.060 A 
ATOM     37  C   UNL     1      -1.503  -6.853  13.617  1.00  0.00     0.016 A 
ATOM     38  C   UNL     1      -1.566  -5.500  15.650  1.00  0.00     0.016 A 
ATOM     39  C   UNL     1      -2.805  -7.265  13.875  1.00  0.00     0.010 A 
ATOM     40  C   UNL     1      -2.882  -5.886  15.879  1.00  0.00     0.010 A 
ATOM     41  C   UNL     1      -3.517  -6.729  14.966  1.00  0.00    -0.014 A 
BRANCH  41  42
ATOM     42  C   UNL     1      -4.848  -7.270  15.252  1.00  0.00     0.031 A 
ATOM     43  C   UNL     1      -4.753  -8.689  15.687  1.00  0.00     0.074 A 
ATOM     44  C   UNL     1      -6.020  -6.594  15.268  1.00  0.00     0.049 A 
ATOM     45  N   UNL     1      -5.131  -9.737  15.031  1.00  0.00    -0.248 NA
ATOM     46  C   UNL     1      -3.966  -8.985  16.896  1.00  0.00     0.031 C 
ATOM     47  C   UNL     1      -6.223  -5.147  15.157  1.00  0.00     0.029 A 
ATOM     48  N   UNL     1      -7.290  -7.052  15.510  1.00  0.00    -0.354 N 
ATOM     49  C   UNL     1      -4.849 -10.808  15.875  1.00  0.00     0.074 A 
ATOM     50  C   UNL     1      -3.961 -10.318  16.896  1.00  0.00     0.031 C 
ATOM     51  C   UNL     1      -7.470  -4.830  15.584  1.00  0.00     0.029 A 
ATOM     52  C   UNL     1      -8.203  -6.052  15.861  1.00  0.00     0.049 A 
ATOM     53  H   UNL     1      -7.538  -8.002  15.442  1.00  0.00     0.167 HD
ATOM     54  C   UNL     1      -5.602 -11.939  15.860  1.00  0.00     0.034 A 
ATOM     55  C   UNL     1      -9.441  -6.233  16.392  1.00  0.00     0.034 A 
ATOM     56  C   UNL     1      -6.488 -11.979  14.735  1.00  0.00     0.049 A 
ATOM     57  C   UNL     1      -9.880  -7.588  16.003  1.00  0.00     0.074 A 
ATOM     58  C   UNL     1      -6.414 -12.300  13.399  1.00  0.00     0.029 A 
ATOM     59  N   UNL     1      -7.615 -11.225  14.919  1.00  0.00    -0.354 N 
ATOM     60  N   UNL     1     -10.111  -7.941  14.771  1.00  0.00    -0.248 NA
ATOM     61  C   UNL     1      -9.798  -8.674  16.973  1.00  0.00     0.031 C 
ATOM     62  C   UNL     1      -7.470 -11.584  12.759  1.00  0.00     0.029 A 
ATOM     63  C   UNL     1      -8.184 -10.883  13.725  1.00  0.00     0.049 A 
ATOM     64  H   UNL     1      -7.970 -10.963  15.800  1.00  0.00     0.167 HD
ATOM     65  C   UNL     1      -9.752  -9.271  14.748  1.00  0.00     0.074 A 
ATOM     66  C   UNL     1      -9.756  -9.711  16.135  1.00  0.00     0.031 C 
ATOM     67  C   UNL     1      -9.140  -9.805  13.658  1.00  0.00     0.034 A 
BRANCH  54  68
ATOM     68  C   UNL     1      -5.882 -12.750  17.095  1.00  0.00     0.023 A 
ATOM     69  C   UNL     1      -6.277 -14.093  16.955  1.00  0.00     0.012 A 
ATOM     70  C   UNL     1      -6.012 -12.161  18.375  1.00  0.00     0.148 A 
ATOM     71  C   UNL     1      -6.737 -14.830  18.054  1.00  0.00     0.002 A 
ATOM     72  C   UNL     1      -6.395 -12.914  19.476  1.00  0.00     0.091 A 
ATOM     73  F   UNL     1      -5.882 -10.834  18.500  1.00  0.00    -0.205 F 
ATOM     74  C   UNL     1      -6.772 -14.249  19.319  1.00  0.00     0.022 A 
BRANCH  72  75
ATOM     75  S   UNL     1      -6.432 -12.222  21.133  1.00  0.00     0.127 S 
ATOM     76  O   UNL     1      -7.865 -12.195  21.409  1.00  0.00    -0.237 OA
ATOM     77  O   UNL     1      -5.672 -13.220  21.886  1.00  0.00    -0.237 OA
ATOM     78  O   UNL     1      -5.775 -10.926  21.024  1.00  0.00    -0.744 OA
ENDBRANCH  72  75
ENDBRANCH  54  68
BRANCH  55  79
ATOM     79  C   UNL     1     -10.215  -5.479  17.419  1.00  0.00     0.023 A 
ATOM     80  C   UNL     1     -11.581  -5.796  17.616  1.00  0.00     0.012 A 
ATOM     81  C   UNL     1      -9.558  -4.752  18.432  1.00  0.00     0.148 A 
ATOM     82  C   UNL     1     -12.235  -5.498  18.819  1.00  0.00     0.002 A 
ATOM     83  C   UNL     1     -10.215  -4.453  19.626  1.00  0.00     0.091 A 
ATOM     84  F   UNL     1      -8.265  -4.445  18.268  1.00  0.00    -0.205 F 
ATOM     85  C   UNL     1     -11.544  -4.848  19.833  1.00  0.00     0.022 A 
BRANCH  83  86
ATOM     86  S   UNL     1      -9.389  -3.627  20.993  1.00  0.00     0.127 S 
ATOM     87  O   UNL     1     -10.375  -2.617  21.379  1.00  0.00    -0.237 OA
ATOM     88  O   UNL     1      -9.223  -4.717  21.950  1.00  0.00    -0.237 OA
ATOM     89  O   UNL     1      -8.159  -3.079  20.435  1.00  0.00    -0.744 OA
ENDBRANCH  83  86
ENDBRANCH  55  79
BRANCH  67  90
ATOM     90  C   UNL     1      -9.370  -9.146  12.338  1.00  0.00     0.023 A 
ATOM     91  C   UNL     1      -8.760  -7.938  11.951  1.00  0.00     0.012 A 
ATOM     92  C   UNL     1     -10.156  -9.853  11.417  1.00  0.00     0.148 A 
ATOM     93  C   UNL     1      -8.928  -7.453  10.649  1.00  0.00     0.002 A 
ATOM     94  C   UNL     1     -10.293  -9.388  10.120  1.00  0.00     0.091 A 
ATOM     95  F   UNL     1     -10.730 -10.994  11.827  1.00  0.00    -0.205 F 
ATOM     96  C   UNL     1      -9.681  -8.186   9.730  1.00  0.00     0.022 A 
BRANCH  94  97
ATOM     97  S   UNL     1     -11.178 -10.329   8.878  1.00  0.00     0.127 S 
ATOM     98  O   UNL     1     -12.315  -9.457   8.589  1.00  0.00    -0.237 OA
ATOM     99  O   UNL     1     -10.188 -10.424   7.805  1.00  0.00    -0.237 OA
ATOM    100  O   UNL     1     -11.517 -11.604   9.497  1.00  0.00    -0.744 OA
ENDBRANCH  94  97
ENDBRANCH  67  90
ENDBRANCH  41  42
ENDBRANCH  34  36
ENDBRANCH  33  34
ENDBRANCH  32  33
ENDBRANCH  31  32
ENDBRANCH   1  31
TORSDOF 20
