REMARK SMILES O=C(C[C@H]1C[C@H]2CC[C@@H](C1)N2C(=O)NCCC1CC1)OCCOCCOC(=O)c1ccc(-c2c3nc(c(-c4cccc(S(=O)(=O)[O-])c4F)c4ccc([nH]4)c(-c4cccc(S(=O)(=O)[O-])c4F)c4nc(c(-c5cccc(S(=O)(=O)[O-])c5F)c5ccc2[nH]5)C=C4)C=C3)cc1
REMARK SMILES IDX 22 1 21 2 20 3 2 4 1 5 3 6 4 7 5 8 10 9 6 10 9 11 7 12 11 13
REMARK SMILES IDX 8 14 12 15 13 16 14 17 15 19 16 20 17 21 18 22 19 23 23 24
REMARK SMILES IDX 24 25 25 26 26 27 27 28 28 29 29 30 30 31 91 32 31 33 90 34
REMARK SMILES IDX 32 35 33 36 34 37 84 38 35 39 89 40 83 41 85 42 36 43 88 44
REMARK SMILES IDX 82 45 81 46 37 48 69 49 49 50 68 51 50 52 53 53 67 54 86 55
REMARK SMILES IDX 51 56 52 57 66 59 87 60 54 61 38 62 39 63 47 64 40 65 42 66
REMARK SMILES IDX 48 67 41 68 43 69 44 70 45 71 46 72 70 73 71 74 79 75 72 76
REMARK SMILES IDX 74 77 80 78 73 79 75 80 76 81 77 82 78 83 55 84 56 85 64 86
REMARK SMILES IDX 57 87 59 88 65 89 58 90 60 91 61 92 62 93 63 94
REMARK H PARENT 14 18 85 47 53 58
REMARK Flexibility Score: inf
ROOT
ATOM      1  C   UNL     1       4.549  -1.543  -1.369  1.00  0.00     0.202 C 
ENDROOT
BRANCH   1   2
ATOM      2  C   UNL     1       3.642  -1.364  -0.151  1.00  0.00     0.261 C 
BRANCH   2   3
ATOM      3  O   UNL     1       2.406  -0.628  -0.349  1.00  0.00    -0.463 OA
BRANCH   3   4
ATOM      4  C   UNL     1       2.064   0.633  -0.654  1.00  0.00     0.306 C 
ATOM      5  O   UNL     1       0.875   0.949  -0.615  1.00  0.00    -0.252 OA
BRANCH   4   6
ATOM      6  C   UNL     1       3.085   1.643  -1.096  1.00  0.00     0.126 C 
BRANCH   6   7
ATOM      7  C   UNL     1       3.962   2.384  -0.073  1.00  0.00     0.004 C 
ATOM      8  C   UNL     1       3.366   3.565   0.755  1.00  0.00     0.029 C 
ATOM      9  C   UNL     1       4.749   1.430   0.810  1.00  0.00     0.029 C 
ATOM     10  C   UNL     1       3.214   3.311   2.291  1.00  0.00     0.087 C 
ATOM     11  C   UNL     1       4.111   1.200   2.200  1.00  0.00     0.087 C 
ATOM     12  C   UNL     1       2.002   2.404   2.486  1.00  0.00     0.027 C 
ATOM     13  N   UNL     1       4.326   2.486   2.791  1.00  0.00    -0.319 N 
ATOM     14  C   UNL     1       2.606   1.008   2.427  1.00  0.00     0.027 C 
BRANCH  13  15
ATOM     15  C   UNL     1       5.456   2.964   3.380  1.00  0.00     0.317 C 
ATOM     16  O   UNL     1       5.544   4.149   3.713  1.00  0.00    -0.249 OA
ATOM     17  N   UNL     1       6.554   2.184   3.584  1.00  0.00    -0.338 N 
ATOM     18  H   UNL     1       7.290   2.704   3.980  1.00  0.00     0.165 HD
BRANCH  17  19
ATOM     19  C   UNL     1       6.947   0.783   3.376  1.00  0.00     0.118 C 
BRANCH  19  20
ATOM     20  C   UNL     1       8.259   0.600   2.614  1.00  0.00     0.025 C 
BRANCH  20  21
ATOM     21  C   UNL     1       9.474   0.662   3.486  1.00  0.00    -0.009 C 
ATOM     22  C   UNL     1      10.764   0.087   2.953  1.00  0.00     0.004 C 
ATOM     23  C   UNL     1      10.620   1.570   3.133  1.00  0.00     0.004 C 
ENDBRANCH  20  21
ENDBRANCH  19  20
ENDBRANCH  17  19
ENDBRANCH  13  15
ENDBRANCH   6   7
ENDBRANCH   4   6
ENDBRANCH   3   4
ENDBRANCH   2   3
ENDBRANCH   1   2
BRANCH   1  24
ATOM     24  O   UNL     1       4.013  -2.109  -2.561  1.00  0.00    -0.374 OA
BRANCH  24  25
ATOM     25  C   UNL     1       2.715  -2.683  -2.538  1.00  0.00     0.202 C 
BRANCH  25  26
ATOM     26  C   UNL     1       2.606  -4.127  -2.021  1.00  0.00     0.261 C 
BRANCH  26  27
ATOM     27  O   UNL     1       3.060  -4.335  -0.670  1.00  0.00    -0.460 OA
BRANCH  27  28
ATOM     28  C   UNL     1       4.343  -4.757  -0.548  1.00  0.00     0.338 C 
ATOM     29  O   UNL     1       5.120  -4.974  -1.462  1.00  0.00    -0.246 OA
BRANCH  28  30
ATOM     30  C   UNL     1       4.765  -4.804   0.876  1.00  0.00     0.060 A 
ATOM     31  C   UNL     1       6.050  -4.336   1.183  1.00  0.00     0.016 A 
ATOM     32  C   UNL     1       3.984  -5.397   1.873  1.00  0.00     0.016 A 
ATOM     33  C   UNL     1       6.592  -4.540   2.454  1.00  0.00     0.010 A 
ATOM     34  C   UNL     1       4.533  -5.609   3.148  1.00  0.00     0.010 A 
ATOM     35  C   UNL     1       5.861  -5.234   3.427  1.00  0.00    -0.014 A 
BRANCH  35  36
ATOM     36  C   UNL     1       6.567  -5.749   4.632  1.00  0.00     0.031 A 
ATOM     37  C   UNL     1       7.058  -7.177   4.629  1.00  0.00     0.074 A 
ATOM     38  C   UNL     1       6.816  -4.964   5.697  1.00  0.00     0.049 A 
ATOM     39  N   UNL     1       7.728  -7.828   5.545  1.00  0.00    -0.248 NA
ATOM     40  C   UNL     1       6.753  -7.975   3.429  1.00  0.00     0.031 C 
ATOM     41  C   UNL     1       6.396  -3.572   5.841  1.00  0.00     0.029 A 
ATOM     42  N   UNL     1       7.469  -5.242   6.874  1.00  0.00    -0.354 N 
ATOM     43  C   UNL     1       7.916  -9.110   5.040  1.00  0.00     0.074 A 
ATOM     44  C   UNL     1       7.268  -9.154   3.748  1.00  0.00     0.031 C 
ATOM     45  C   UNL     1       6.772  -3.127   7.053  1.00  0.00     0.029 A 
ATOM     46  C   UNL     1       7.454  -4.203   7.774  1.00  0.00     0.049 A 
ATOM     47  H   UNL     1       7.908  -6.105   7.056  1.00  0.00     0.167 HD
ATOM     48  C   UNL     1       8.590 -10.153   5.583  1.00  0.00     0.034 A 
ATOM     49  C   UNL     1       7.921  -4.131   9.037  1.00  0.00     0.034 A 
ATOM     50  C   UNL     1       9.245 -10.120   6.862  1.00  0.00     0.049 A 
ATOM     51  C   UNL     1       8.654  -5.310   9.629  1.00  0.00     0.074 A 
ATOM     52  C   UNL     1       9.967 -11.122   7.487  1.00  0.00     0.029 A 
ATOM     53  N   UNL     1       9.253  -9.030   7.718  1.00  0.00    -0.354 N 
ATOM     54  N   UNL     1       8.927  -6.472   9.085  1.00  0.00    -0.248 NA
ATOM     55  C   UNL     1       9.181  -5.151  10.993  1.00  0.00     0.031 C 
ATOM     56  C   UNL     1      10.402 -10.642   8.727  1.00  0.00     0.029 A 
ATOM     57  C   UNL     1       9.968  -9.334   8.864  1.00  0.00     0.049 A 
ATOM     58  H   UNL     1       8.816  -8.167   7.537  1.00  0.00     0.167 HD
ATOM     59  C   UNL     1       9.681  -7.167  10.027  1.00  0.00     0.074 A 
ATOM     60  C   UNL     1       9.848  -6.285  11.162  1.00  0.00     0.031 C 
ATOM     61  C   UNL     1      10.175  -8.429   9.966  1.00  0.00     0.034 A 
BRANCH  48  62
ATOM     62  C   UNL     1       8.693 -11.414   4.764  1.00  0.00     0.023 A 
ATOM     63  C   UNL     1       9.554 -11.441   3.648  1.00  0.00     0.012 A 
ATOM     64  C   UNL     1       7.987 -12.579   5.121  1.00  0.00     0.148 A 
ATOM     65  C   UNL     1       9.689 -12.598   2.882  1.00  0.00     0.002 A 
ATOM     66  C   UNL     1       8.157 -13.741   4.376  1.00  0.00     0.091 A 
ATOM     67  F   UNL     1       7.157 -12.526   6.172  1.00  0.00    -0.205 F 
ATOM     68  C   UNL     1       8.999 -13.749   3.252  1.00  0.00     0.022 A 
BRANCH  66  69
ATOM     69  S   UNL     1       7.368 -15.295   4.809  1.00  0.00     0.127 S 
ATOM     70  O   UNL     1       6.382 -15.433   3.737  1.00  0.00    -0.237 OA
ATOM     71  O   UNL     1       8.484 -16.238   4.736  1.00  0.00    -0.237 OA
ATOM     72  O   UNL     1       6.817 -15.107   6.144  1.00  0.00    -0.744 OA
ENDBRANCH  66  69
ENDBRANCH  48  62
BRANCH  49  73
ATOM     73  C   UNL     1       7.738  -2.882   9.831  1.00  0.00     0.023 A 
ATOM     74  C   UNL     1       8.853  -2.086  10.155  1.00  0.00     0.012 A 
ATOM     75  C   UNL     1       6.460  -2.483  10.267  1.00  0.00     0.148 A 
ATOM     76  C   UNL     1       8.703  -0.931  10.926  1.00  0.00     0.002 A 
ATOM     77  C   UNL     1       6.310  -1.303  10.986  1.00  0.00     0.091 A 
ATOM     78  F   UNL     1       5.414  -3.267   9.972  1.00  0.00    -0.205 F 
ATOM     79  C   UNL     1       7.431  -0.534  11.331  1.00  0.00     0.022 A 
BRANCH  77  80
ATOM     80  S   UNL     1       4.694  -0.658  11.433  1.00  0.00     0.127 S 
ATOM     81  O   UNL     1       4.630  -0.972  12.857  1.00  0.00    -0.237 OA
ATOM     82  O   UNL     1       4.837   0.764  11.119  1.00  0.00    -0.237 OA
ATOM     83  O   UNL     1       3.748  -1.365  10.579  1.00  0.00    -0.744 OA
ENDBRANCH  77  80
ENDBRANCH  49  73
BRANCH  61  84
ATOM     84  C   UNL     1      10.970  -8.929  11.146  1.00  0.00     0.023 A 
ATOM     85  C   UNL     1      10.312  -9.242  12.351  1.00  0.00     0.012 A 
ATOM     86  C   UNL     1      12.359  -9.145  11.043  1.00  0.00     0.148 A 
ATOM     87  C   UNL     1      11.027  -9.724  13.448  1.00  0.00     0.002 A 
ATOM     88  C   UNL     1      13.059  -9.669  12.125  1.00  0.00     0.091 A 
ATOM     89  F   UNL     1      12.976  -8.824   9.896  1.00  0.00    -0.205 F 
ATOM     90  C   UNL     1      12.397  -9.947  13.332  1.00  0.00     0.022 A 
BRANCH  88  91
ATOM     91  S   UNL     1      14.807 -10.071  12.029  1.00  0.00     0.127 S 
ATOM     92  O   UNL     1      15.414  -8.938  12.725  1.00  0.00    -0.237 OA
ATOM     93  O   UNL     1      14.879 -11.341  12.754  1.00  0.00    -0.237 OA
ATOM     94  O   UNL     1      15.111 -10.175  10.608  1.00  0.00    -0.744 OA
ENDBRANCH  88  91
ENDBRANCH  61  84
ENDBRANCH  35  36
ENDBRANCH  28  30
ENDBRANCH  27  28
ENDBRANCH  26  27
ENDBRANCH  25  26
ENDBRANCH  24  25
ENDBRANCH   1  24
TORSDOF 22
