REMARK SMILES Cc1ccccc1NC(=S)NN1C(=O)CS[C@H]1c1ccccc1C(=O)OCCOCCOC(=O)c1ccc(-c2c3nc(c(-c4cccc(S(=O)(=O)[O-])c4F)c4ccc([nH]4)c(-c4cccc(S(=O)(=O)[O-])c4F)c4nc(c(-c5cccc(S(=O)(=O)[O-])c5F)c5ccc2[nH]5)C=C4)C=C3)cc1
REMARK SMILES IDX 28 1 27 2 26 3 24 4 25 5 23 6 18 7 19 8 20 9 22 10 21 11
REMARK SMILES IDX 17 12 12 13 13 14 14 15 15 16 16 17 11 18 9 20 10 21 8 22
REMARK SMILES IDX 7 24 1 25 2 26 3 27 4 28 6 29 5 30 29 31 30 32 31 33 32 34
REMARK SMILES IDX 33 35 34 36 35 37 36 38 97 39 37 40 96 41 38 42 39 43 40 44
REMARK SMILES IDX 90 45 41 46 95 47 89 48 91 49 42 50 94 51 88 52 87 53 43 55
REMARK SMILES IDX 75 56 55 57 74 58 56 59 59 60 73 61 92 62 57 63 58 64 72 66
REMARK SMILES IDX 93 67 60 68 44 69 45 70 53 71 46 72 48 73 54 74 47 75 49 76
REMARK SMILES IDX 50 77 51 78 52 79 76 80 77 81 85 82 78 83 80 84 86 85 79 86
REMARK SMILES IDX 81 87 82 88 83 89 84 90 61 91 62 92 70 93 63 94 65 95 71 96
REMARK SMILES IDX 64 97 66 98 67 99 68 100 69 101
REMARK H PARENT 11 19 8 23 91 54 59 65
REMARK Flexibility Score: inf
ROOT
ATOM      1  C   UNL     1      -1.931   2.195  -2.674  1.00  0.00     0.202 C 
ENDROOT
BRANCH   1   2
ATOM      2  C   UNL     1      -2.029   1.648  -0.788  1.00  0.00     0.261 C 
BRANCH   2   3
ATOM      3  O   UNL     1      -2.442   2.675   0.604  1.00  0.00    -0.460 OA
BRANCH   3   4
ATOM      4  C   UNL     1      -3.219   3.761   1.126  1.00  0.00     0.338 C 
ATOM      5  O   UNL     1      -3.025   4.124   2.288  1.00  0.00    -0.246 OA
BRANCH   4   6
ATOM      6  C   UNL     1      -4.358   4.680   0.492  1.00  0.00     0.066 A 
ATOM      7  C   UNL     1      -5.386   4.302  -0.414  1.00  0.00     0.001 A 
ATOM      8  C   UNL     1      -6.613   4.983  -0.458  1.00  0.00     0.008 A 
ATOM      9  C   UNL     1      -6.684   6.266   0.040  1.00  0.00     0.000 A 
ATOM     10  C   UNL     1      -4.424   6.026   0.899  1.00  0.00     0.016 A 
ATOM     11  C   UNL     1      -5.546   6.828   0.609  1.00  0.00     0.001 A 
BRANCH   7  12
ATOM     12  C   UNL     1      -5.014   3.545  -1.667  1.00  0.00     0.197 C 
ATOM     13  N   UNL     1      -3.861   2.825  -1.322  1.00  0.00    -0.236 N 
ATOM     14  C   UNL     1      -4.464   1.725  -0.450  1.00  0.00     0.252 C 
ATOM     15  O   UNL     1      -4.327   1.353   0.707  1.00  0.00    -0.272 OA
ATOM     16  C   UNL     1      -5.357   0.955  -1.365  1.00  0.00     0.174 C 
ATOM     17  S   UNL     1      -6.218   2.276  -2.227  1.00  0.00    -0.120 SA
BRANCH  13  18
ATOM     18  N   UNL     1      -2.398   3.842  -1.267  1.00  0.00    -0.270 N 
ATOM     19  H   UNL     1      -2.611   4.756  -1.564  1.00  0.00     0.191 HD
BRANCH  18  20
ATOM     20  C   UNL     1      -0.893   3.738  -0.897  1.00  0.00     0.189 C 
ATOM     21  S   UNL     1      -0.566   5.289  -0.289  1.00  0.00    -0.039 S 
BRANCH  20  22
ATOM     22  N   UNL     1       0.197   2.548  -1.091  1.00  0.00    -0.331 N 
ATOM     23  H   UNL     1       1.047   2.897  -0.737  1.00  0.00     0.169 HD
BRANCH  22  24
ATOM     24  C   UNL     1       0.533   0.942  -1.640  1.00  0.00     0.043 A 
ATOM     25  C   UNL     1       3.190   0.397  -1.184  1.00  0.00     0.046 C 
ATOM     26  C   UNL     1       1.749   0.162  -1.541  1.00  0.00    -0.028 A 
ATOM     27  C   UNL     1       1.750  -1.319  -1.695  1.00  0.00     0.005 A 
ATOM     28  C   UNL     1       0.679  -2.091  -2.052  1.00  0.00     0.000 A 
ATOM     29  C   UNL     1      -0.457   0.010  -2.116  1.00  0.00     0.026 A 
ATOM     30  C   UNL     1      -0.427  -1.390  -2.355  1.00  0.00     0.002 A 
ENDBRANCH  22  24
ENDBRANCH  20  22
ENDBRANCH  18  20
ENDBRANCH  13  18
ENDBRANCH   7  12
ENDBRANCH   4   6
ENDBRANCH   3   4
ENDBRANCH   2   3
ENDBRANCH   1   2
BRANCH   1  31
ATOM     31  O   UNL     1      -0.852   3.032  -3.273  1.00  0.00    -0.374 OA
BRANCH  31  32
ATOM     32  C   UNL     1      -1.144   4.350  -3.795  1.00  0.00     0.202 C 
BRANCH  32  33
ATOM     33  C   UNL     1      -0.084   4.765  -4.833  1.00  0.00     0.261 C 
BRANCH  33  34
ATOM     34  O   UNL     1       1.108   5.217  -4.148  1.00  0.00    -0.460 OA
BRANCH  34  35
ATOM     35  C   UNL     1       2.047   4.266  -3.859  1.00  0.00     0.338 C 
ATOM     36  O   UNL     1       2.240   3.259  -4.491  1.00  0.00    -0.246 OA
BRANCH  35  37
ATOM     37  C   UNL     1       2.645   4.577  -2.506  1.00  0.00     0.060 A 
ATOM     38  C   UNL     1       3.305   3.573  -1.810  1.00  0.00     0.016 A 
ATOM     39  C   UNL     1       2.370   5.729  -1.796  1.00  0.00     0.016 A 
ATOM     40  C   UNL     1       3.321   3.551  -0.378  1.00  0.00     0.010 A 
ATOM     41  C   UNL     1       2.419   5.699  -0.383  1.00  0.00     0.010 A 
ATOM     42  C   UNL     1       2.659   4.512   0.348  1.00  0.00    -0.014 A 
BRANCH  42  43
ATOM     43  C   UNL     1       2.125   4.373   1.768  1.00  0.00     0.031 A 
ATOM     44  C   UNL     1       2.613   5.419   2.760  1.00  0.00     0.074 A 
ATOM     45  C   UNL     1       1.077   3.625   2.300  1.00  0.00     0.049 A 
ATOM     46  N   UNL     1       2.232   5.515   3.999  1.00  0.00    -0.248 NA
ATOM     47  C   UNL     1       3.595   6.452   2.421  1.00  0.00     0.031 C 
ATOM     48  C   UNL     1       0.107   4.341   3.152  1.00  0.00     0.029 A 
ATOM     49  N   UNL     1       0.403   2.368   2.186  1.00  0.00    -0.354 N 
ATOM     50  C   UNL     1       2.477   6.806   4.385  1.00  0.00     0.074 A 
ATOM     51  C   UNL     1       3.515   7.250   3.492  1.00  0.00     0.031 C 
ATOM     52  C   UNL     1      -0.776   3.517   3.699  1.00  0.00     0.029 A 
ATOM     53  C   UNL     1      -0.514   2.170   3.287  1.00  0.00     0.049 A 
ATOM     54  H   UNL     1       0.544   1.723   1.456  1.00  0.00     0.167 HD
ATOM     55  C   UNL     1       1.639   7.430   5.261  1.00  0.00     0.034 A 
ATOM     56  C   UNL     1      -1.006   1.092   4.001  1.00  0.00     0.034 A 
ATOM     57  C   UNL     1       0.628   6.543   5.875  1.00  0.00     0.049 A 
ATOM     58  C   UNL     1      -1.274   1.325   5.468  1.00  0.00     0.074 A 
ATOM     59  C   UNL     1      -0.757   6.569   5.907  1.00  0.00     0.029 A 
ATOM     60  N   UNL     1       1.002   5.359   6.515  1.00  0.00    -0.354 N 
ATOM     61  N   UNL     1      -1.444   2.479   6.033  1.00  0.00    -0.248 NA
ATOM     62  C   UNL     1      -1.122   0.251   6.468  1.00  0.00     0.031 C 
ATOM     63  C   UNL     1      -1.210   5.413   6.592  1.00  0.00     0.029 A 
ATOM     64  C   UNL     1      -0.108   4.669   6.984  1.00  0.00     0.049 A 
ATOM     65  H   UNL     1       1.933   5.054   6.620  1.00  0.00     0.167 HD
ATOM     66  C   UNL     1      -0.770   2.376   7.223  1.00  0.00     0.074 A 
ATOM     67  C   UNL     1      -0.846   0.970   7.563  1.00  0.00     0.031 C 
ATOM     68  C   UNL     1       0.026   3.388   7.681  1.00  0.00     0.034 A 
BRANCH  55  69
ATOM     69  C   UNL     1       1.591   8.939   5.497  1.00  0.00     0.023 A 
ATOM     70  C   UNL     1       0.827   9.396   6.598  1.00  0.00     0.012 A 
ATOM     71  C   UNL     1       2.173   9.950   4.693  1.00  0.00     0.148 A 
ATOM     72  C   UNL     1       0.664  10.754   6.895  1.00  0.00     0.002 A 
ATOM     73  C   UNL     1       2.097  11.301   5.050  1.00  0.00     0.091 A 
ATOM     74  F   UNL     1       2.717   9.643   3.512  1.00  0.00    -0.205 F 
ATOM     75  C   UNL     1       1.327  11.708   6.141  1.00  0.00     0.022 A 
BRANCH  73  76
ATOM     76  S   UNL     1       3.005  12.588   4.171  1.00  0.00     0.127 S 
ATOM     77  O   UNL     1       1.927  13.378   3.576  1.00  0.00    -0.237 OA
ATOM     78  O   UNL     1       3.723  13.260   5.254  1.00  0.00    -0.237 OA
ATOM     79  O   UNL     1       3.866  11.902   3.215  1.00  0.00    -0.744 OA
ENDBRANCH  73  76
ENDBRANCH  55  69
BRANCH  56  80
ATOM     80  C   UNL     1      -0.699  -0.307   3.603  1.00  0.00     0.023 A 
ATOM     81  C   UNL     1      -1.393  -0.758   2.482  1.00  0.00     0.012 A 
ATOM     82  C   UNL     1       0.647  -0.609   3.800  1.00  0.00     0.148 A 
ATOM     83  C   UNL     1      -0.634  -1.007   1.364  1.00  0.00     0.002 A 
ATOM     84  C   UNL     1       1.405  -0.625   2.676  1.00  0.00     0.091 A 
ATOM     85  F   UNL     1       1.171  -0.561   5.030  1.00  0.00    -0.205 F 
ATOM     86  C   UNL     1       0.746  -0.791   1.458  1.00  0.00     0.022 A 
BRANCH  84  87
ATOM     87  S   UNL     1       3.071   0.038   2.737  1.00  0.00     0.127 S 
ATOM     88  O   UNL     1       3.869  -1.163   2.502  1.00  0.00    -0.237 OA
ATOM     89  O   UNL     1       3.087   0.995   1.635  1.00  0.00    -0.237 OA
ATOM     90  O   UNL     1       3.211   0.636   4.057  1.00  0.00    -0.744 OA
ENDBRANCH  84  87
ENDBRANCH  56  80
BRANCH  68  91
ATOM     91  C   UNL     1       0.985   3.196   8.828  1.00  0.00     0.023 A 
ATOM     92  C   UNL     1       1.598   1.956   9.115  1.00  0.00     0.012 A 
ATOM     93  C   UNL     1       1.324   4.285   9.655  1.00  0.00     0.148 A 
ATOM     94  C   UNL     1       2.361   1.760  10.270  1.00  0.00     0.002 A 
ATOM     95  C   UNL     1       2.172   4.112  10.743  1.00  0.00     0.091 A 
ATOM     96  F   UNL     1       0.785   5.489   9.413  1.00  0.00    -0.205 F 
ATOM     97  C   UNL     1       2.646   2.842  11.088  1.00  0.00     0.022 A 
BRANCH  95  98
ATOM     98  S   UNL     1       2.756   5.515  11.695  1.00  0.00     0.127 S 
ATOM     99  O   UNL     1       1.810   5.539  12.809  1.00  0.00    -0.237 OA
ATOM    100  O   UNL     1       4.114   5.107  12.062  1.00  0.00    -0.237 OA
ATOM    101  O   UNL     1       2.702   6.651  10.785  1.00  0.00    -0.744 OA
ENDBRANCH  95  98
ENDBRANCH  68  91
ENDBRANCH  42  43
ENDBRANCH  35  37
ENDBRANCH  34  35
ENDBRANCH  33  34
ENDBRANCH  32  33
ENDBRANCH  31  32
ENDBRANCH   1  31
TORSDOF 22
