REMARK SMILES Cc1cc(C)c2c(c1)C=C(C(=O)OCCOCCOC(=O)c1ccc(-c3c4nc(c(-c5cccc(S(=O)(=O)[O-])c5F)c5ccc([nH]5)c(-c5cccc(S(=O)(=O)[O-])c5F)c5nc(c(-c6cccc(S(=O)(=O)[O-])c6F)c6ccc3[nH]6)C=C5)C=C4)cc1)[C@@H](C(F)(F)F)O2
REMARK SMILES IDX 17 1 16 2 15 3 14 4 13 5 11 6 12 7 10 8 1 9 2 10 3 11 8 12
REMARK SMILES IDX 4 13 7 14 5 15 6 16 9 17 90 18 85 19 86 20 87 21 88 22 89 23
REMARK SMILES IDX 18 24 19 25 20 26 21 27 22 28 23 29 84 30 24 31 83 32 25 33
REMARK SMILES IDX 26 34 27 35 77 36 28 37 82 38 76 39 78 40 29 41 81 42 75 43
REMARK SMILES IDX 74 44 30 46 62 47 42 48 61 49 43 50 46 51 60 52 79 53 44 54
REMARK SMILES IDX 45 55 59 57 80 58 47 59 31 60 32 61 40 62 33 63 35 64 41 65
REMARK SMILES IDX 34 66 36 67 37 68 38 69 39 70 63 71 64 72 72 73 65 74 67 75
REMARK SMILES IDX 73 76 66 77 68 78 69 79 70 80 71 81 48 82 49 83 57 84 50 85
REMARK SMILES IDX 52 86 58 87 51 88 53 89 54 90 55 91 56 92
REMARK H PARENT 78 45 46 56
REMARK Flexibility Score: inf
ROOT
ATOM      1  C   UNL     1      -4.012   0.846  -6.390  1.00  0.00     0.202 C 
ENDROOT
BRANCH   1   2
ATOM      2  O   UNL     1      -3.845   1.645  -7.562  1.00  0.00    -0.374 OA
BRANCH   2   3
ATOM      3  C   UNL     1      -3.486   0.978  -8.772  1.00  0.00     0.202 C 
BRANCH   3   4
ATOM      4  C   UNL     1      -2.014   0.585  -8.930  1.00  0.00     0.261 C 
BRANCH   4   5
ATOM      5  O   UNL     1      -1.586  -0.288  -7.872  1.00  0.00    -0.460 OA
BRANCH   5   6
ATOM      6  C   UNL     1      -0.672   0.246  -7.033  1.00  0.00     0.338 C 
ATOM      7  O   UNL     1      -0.105   1.325  -7.157  1.00  0.00    -0.246 OA
BRANCH   6   8
ATOM      8  C   UNL     1      -0.535  -0.598  -5.832  1.00  0.00     0.087 C 
ATOM      9  C   UNL     1       0.841  -0.025   0.130  1.00  0.00     0.044 C 
ATOM     10  C   UNL     1       0.485  -0.748  -1.135  1.00  0.00    -0.050 A 
ATOM     11  C   UNL     1       0.596  -2.142  -1.213  1.00  0.00     0.010 A 
ATOM     12  C   UNL     1       0.118  -0.033  -2.277  1.00  0.00     0.015 A 
ATOM     13  C   UNL     1       0.314  -2.825  -2.408  1.00  0.00    -0.008 A 
ATOM     14  C   UNL     1      -0.146  -0.700  -3.478  1.00  0.00     0.018 A 
ATOM     15  C   UNL     1       0.466  -4.319  -2.473  1.00  0.00     0.048 C 
ATOM     16  C   UNL     1      -0.072  -2.093  -3.541  1.00  0.00     0.130 A 
ATOM     17  C   UNL     1      -0.424   0.067  -4.676  1.00  0.00     0.027 C 
ATOM     18  O   UNL     1      -0.370  -2.800  -4.674  1.00  0.00    -0.475 OA
ATOM     19  C   UNL     1      -0.490  -2.096  -5.943  1.00  0.00     0.316 C 
BRANCH  19  20
ATOM     20  C   UNL     1       0.629  -2.582  -6.875  1.00  0.00     0.430 C 
ATOM     21  F   UNL     1       0.683  -3.934  -6.915  1.00  0.00    -0.167 F 
ATOM     22  F   UNL     1       0.442  -2.156  -8.145  1.00  0.00    -0.167 F 
ATOM     23  F   UNL     1       1.843  -2.138  -6.474  1.00  0.00    -0.167 F 
ENDBRANCH  19  20
ENDBRANCH   6   8
ENDBRANCH   5   6
ENDBRANCH   4   5
ENDBRANCH   3   4
ENDBRANCH   2   3
ENDBRANCH   1   2
BRANCH   1  24
ATOM     24  C   UNL     1      -5.281  -0.010  -6.293  1.00  0.00     0.261 C 
BRANCH  24  25
ATOM     25  O   UNL     1      -5.319  -1.051  -7.284  1.00  0.00    -0.460 OA
BRANCH  25  26
ATOM     26  C   UNL     1      -6.269  -0.889  -8.233  1.00  0.00     0.338 C 
ATOM     27  O   UNL     1      -7.115  -0.003  -8.286  1.00  0.00    -0.246 OA
BRANCH  26  28
ATOM     28  C   UNL     1      -6.054  -1.833  -9.342  1.00  0.00     0.060 A 
ATOM     29  C   UNL     1      -5.949  -1.300 -10.634  1.00  0.00     0.016 A 
ATOM     30  C   UNL     1      -6.060  -3.214  -9.139  1.00  0.00     0.016 A 
ATOM     31  C   UNL     1      -5.917  -2.147 -11.738  1.00  0.00     0.010 A 
ATOM     32  C   UNL     1      -6.043  -4.063 -10.249  1.00  0.00     0.010 A 
ATOM     33  C   UNL     1      -6.019  -3.531 -11.552  1.00  0.00    -0.014 A 
BRANCH  33  34
ATOM     34  C   UNL     1      -6.299  -4.406 -12.714  1.00  0.00     0.031 A 
ATOM     35  C   UNL     1      -7.724  -4.803 -12.988  1.00  0.00     0.074 A 
ATOM     36  C   UNL     1      -5.308  -4.829 -13.517  1.00  0.00     0.049 A 
ATOM     37  N   UNL     1      -8.199  -5.610 -13.898  1.00  0.00    -0.248 NA
ATOM     38  C   UNL     1      -8.752  -4.206 -12.117  1.00  0.00     0.031 C 
ATOM     39  C   UNL     1      -3.898  -4.477 -13.375  1.00  0.00     0.029 A 
ATOM     40  N   UNL     1      -5.342  -5.665 -14.604  1.00  0.00    -0.354 N 
ATOM     41  C   UNL     1      -9.574  -5.637 -13.700  1.00  0.00     0.074 A 
ATOM     42  C   UNL     1      -9.859  -4.775 -12.574  1.00  0.00     0.031 C 
ATOM     43  C   UNL     1      -3.193  -5.114 -14.326  1.00  0.00     0.029 A 
ATOM     44  C   UNL     1      -4.099  -5.941 -15.122  1.00  0.00     0.049 A 
ATOM     45  H   UNL     1      -6.176  -6.032 -14.978  1.00  0.00     0.167 HD
ATOM     46  C   UNL     1     -10.518  -6.306 -14.402  1.00  0.00     0.034 A 
ATOM     47  C   UNL     1      -3.736  -6.783 -16.110  1.00  0.00     0.034 A 
ATOM     48  C   UNL     1     -10.233  -7.152 -15.530  1.00  0.00     0.049 A 
ATOM     49  C   UNL     1      -4.801  -7.561 -16.841  1.00  0.00     0.074 A 
ATOM     50  C   UNL     1     -11.121  -7.867 -16.313  1.00  0.00     0.029 A 
ATOM     51  N   UNL     1      -8.965  -7.399 -16.032  1.00  0.00    -0.354 N 
ATOM     52  N   UNL     1      -6.103  -7.523 -16.690  1.00  0.00    -0.248 NA
ATOM     53  C   UNL     1      -4.346  -8.480 -17.895  1.00  0.00     0.031 C 
ATOM     54  C   UNL     1     -10.387  -8.562 -17.280  1.00  0.00     0.029 A 
ATOM     55  C   UNL     1      -9.044  -8.263 -17.111  1.00  0.00     0.049 A 
ATOM     56  H   UNL     1      -8.132  -7.018 -15.674  1.00  0.00     0.167 HD
ATOM     57  C   UNL     1      -6.625  -8.394 -17.642  1.00  0.00     0.074 A 
ATOM     58  C   UNL     1      -5.498  -8.919 -18.386  1.00  0.00     0.031 C 
ATOM     59  C   UNL     1      -7.916  -8.745 -17.867  1.00  0.00     0.034 A 
BRANCH  46  60
ATOM     60  C   UNL     1     -11.956  -6.122 -13.994  1.00  0.00     0.023 A 
ATOM     61  C   UNL     1     -12.612  -4.912 -14.298  1.00  0.00     0.012 A 
ATOM     62  C   UNL     1     -12.674  -7.162 -13.373  1.00  0.00     0.148 A 
ATOM     63  C   UNL     1     -13.955  -4.731 -13.970  1.00  0.00     0.002 A 
ATOM     64  C   UNL     1     -14.024  -6.990 -13.087  1.00  0.00     0.091 A 
ATOM     65  F   UNL     1     -12.024  -8.295 -13.069  1.00  0.00    -0.205 F 
ATOM     66  C   UNL     1     -14.663  -5.773 -13.377  1.00  0.00     0.022 A 
BRANCH  64  67
ATOM     67  S   UNL     1     -15.043  -8.295 -12.392  1.00  0.00     0.127 S 
ATOM     68  O   UNL     1     -15.319  -7.772 -11.054  1.00  0.00    -0.237 OA
ATOM     69  O   UNL     1     -16.195  -8.299 -13.294  1.00  0.00    -0.237 OA
ATOM     70  O   UNL     1     -14.233  -9.504 -12.433  1.00  0.00    -0.744 OA
ENDBRANCH  64  67
ENDBRANCH  46  60
BRANCH  47  71
ATOM     71  C   UNL     1      -2.300  -6.904 -16.491  1.00  0.00     0.023 A 
ATOM     72  C   UNL     1      -1.874  -6.414 -17.741  1.00  0.00     0.012 A 
ATOM     73  C   UNL     1      -1.351  -7.466 -15.614  1.00  0.00     0.148 A 
ATOM     74  C   UNL     1      -0.533  -6.499 -18.119  1.00  0.00     0.002 A 
ATOM     75  C   UNL     1      -0.009  -7.495 -15.973  1.00  0.00     0.091 A 
ATOM     76  F   UNL     1      -1.780  -7.947 -14.439  1.00  0.00    -0.205 F 
ATOM     77  C   UNL     1       0.401  -7.027 -17.231  1.00  0.00     0.022 A 
BRANCH  75  78
ATOM     78  S   UNL     1       1.282  -8.030 -14.843  1.00  0.00     0.127 S 
ATOM     79  O   UNL     1       1.736  -9.268 -15.472  1.00  0.00    -0.237 OA
ATOM     80  O   UNL     1       2.227  -6.917 -14.919  1.00  0.00    -0.237 OA
ATOM     81  O   UNL     1       0.633  -8.182 -13.548  1.00  0.00    -0.744 OA
ENDBRANCH  75  78
ENDBRANCH  47  71
BRANCH  59  82
ATOM     82  C   UNL     1      -8.188  -9.745 -18.963  1.00  0.00     0.023 A 
ATOM     83  C   UNL     1      -7.839 -11.097 -18.771  1.00  0.00     0.012 A 
ATOM     84  C   UNL     1      -8.858  -9.368 -20.144  1.00  0.00     0.148 A 
ATOM     85  C   UNL     1      -8.120 -12.050 -19.749  1.00  0.00     0.002 A 
ATOM     86  C   UNL     1      -9.180 -10.332 -21.093  1.00  0.00     0.091 A 
ATOM     87  F   UNL     1      -9.168  -8.075 -20.321  1.00  0.00    -0.205 F 
ATOM     88  C   UNL     1      -8.800 -11.670 -20.903  1.00  0.00     0.022 A 
BRANCH  86  89
ATOM     89  S   UNL     1     -10.145  -9.947 -22.559  1.00  0.00     0.127 S 
ATOM     90  O   UNL     1      -9.112  -9.898 -23.593  1.00  0.00    -0.237 OA
ATOM     91  O   UNL     1     -11.047 -11.096 -22.653  1.00  0.00    -0.237 OA
ATOM     92  O   UNL     1     -10.811  -8.684 -22.273  1.00  0.00    -0.744 OA
ENDBRANCH  86  89
ENDBRANCH  59  82
ENDBRANCH  33  34
ENDBRANCH  26  28
ENDBRANCH  25  26
ENDBRANCH  24  25
ENDBRANCH   1  24
TORSDOF 18
