REMARK SMILES O=C(OCCOCCOC(=O)[C@@H]1C[N@@H+](CCOc2ccc(F)cc2)C[C@H]1C1CC1)c1ccc(-c2c3nc(c(-c4cccc(S(=O)(=O)[O-])c4F)c4ccc([nH]4)c(-c4cccc(S(=O)(=O)[O-])c4F)c4nc(c(-c5cccc(S(=O)(=O)[O-])c5F)c5ccc2[nH]5)C=C4)C=C3)cc1
REMARK SMILES IDX 7 1 6 2 5 3 4 4 3 5 2 6 1 7 30 8 31 9 92 10 32 11 91 12
REMARK SMILES IDX 33 13 34 14 35 15 85 16 36 17 90 18 84 19 86 20 37 21 89 22
REMARK SMILES IDX 83 23 82 24 38 26 70 27 50 28 69 29 51 30 54 31 68 32 87 33
REMARK SMILES IDX 52 34 53 35 67 37 88 38 55 39 39 40 40 41 48 42 41 43 43 44
REMARK SMILES IDX 49 45 42 46 44 47 45 48 46 49 47 50 71 51 72 52 80 53 73 54
REMARK SMILES IDX 75 55 81 56 74 57 76 58 77 59 78 60 79 61 56 62 57 63 65 64
REMARK SMILES IDX 58 65 60 66 66 67 59 68 61 69 62 70 63 71 64 72 8 73 9 74
REMARK SMILES IDX 10 75 11 76 12 77 13 78 26 79 14 80 25 81 27 83 28 84 29 85
REMARK SMILES IDX 15 86 16 87 17 88 18 89 19 90 24 91 20 92 23 93 21 94 22 95
REMARK H PARENT 86 25 54 36 14 82
REMARK Flexibility Score: inf
ROOT
ATOM      1  C   UNL     1       1.740   1.104  -2.640  1.00  0.00     0.202 C 
ENDROOT
BRANCH   1   2
ATOM      2  O   UNL     1       2.691   1.079  -1.578  1.00  0.00    -0.374 OA
BRANCH   2   3
ATOM      3  C   UNL     1       3.293  -0.193  -1.382  1.00  0.00     0.202 C 
BRANCH   3   4
ATOM      4  C   UNL     1       3.454  -0.677   0.062  1.00  0.00     0.261 C 
BRANCH   4   5
ATOM      5  O   UNL     1       2.214  -0.558   0.760  1.00  0.00    -0.460 OA
BRANCH   5   6
ATOM      6  C   UNL     1       1.660   0.648   1.081  1.00  0.00     0.338 C 
ATOM      7  O   UNL     1       0.461   0.760   1.196  1.00  0.00    -0.246 OA
BRANCH   6   8
ATOM      8  C   UNL     1       2.567   1.761   1.508  1.00  0.00     0.060 A 
ATOM      9  C   UNL     1       3.755   2.108   0.862  1.00  0.00     0.016 A 
ATOM     10  C   UNL     1       2.169   2.507   2.623  1.00  0.00     0.016 A 
ATOM     11  C   UNL     1       4.594   3.070   1.359  1.00  0.00     0.010 A 
ATOM     12  C   UNL     1       2.966   3.558   3.080  1.00  0.00     0.010 A 
ATOM     13  C   UNL     1       4.185   3.824   2.446  1.00  0.00    -0.014 A 
BRANCH  13  14
ATOM     14  C   UNL     1       5.141   4.828   2.911  1.00  0.00     0.031 A 
ATOM     15  C   UNL     1       5.859   4.562   4.188  1.00  0.00     0.074 A 
ATOM     16  C   UNL     1       5.461   5.840   2.082  1.00  0.00     0.049 A 
ATOM     17  N   UNL     1       6.681   5.333   4.833  1.00  0.00    -0.248 NA
ATOM     18  C   UNL     1       5.633   3.247   4.820  1.00  0.00     0.031 C 
ATOM     19  C   UNL     1       4.897   6.042   0.740  1.00  0.00     0.029 A 
ATOM     20  N   UNL     1       6.358   6.860   2.217  1.00  0.00    -0.354 N 
ATOM     21  C   UNL     1       7.000   4.640   5.991  1.00  0.00     0.074 A 
ATOM     22  C   UNL     1       6.325   3.365   5.943  1.00  0.00     0.031 C 
ATOM     23  C   UNL     1       5.482   7.103   0.168  1.00  0.00     0.029 A 
ATOM     24  C   UNL     1       6.369   7.719   1.143  1.00  0.00     0.049 A 
ATOM     25  H   UNL     1       6.940   6.969   3.003  1.00  0.00     0.167 HD
ATOM     26  C   UNL     1       7.780   5.067   7.004  1.00  0.00     0.034 A 
ATOM     27  C   UNL     1       6.979   8.910   1.006  1.00  0.00     0.034 A 
ATOM     28  C   UNL     1       8.457   6.330   6.968  1.00  0.00     0.049 A 
ATOM     29  C   UNL     1       7.792   9.385   2.177  1.00  0.00     0.074 A 
ATOM     30  C   UNL     1       9.245   6.912   7.939  1.00  0.00     0.029 A 
ATOM     31  N   UNL     1       8.420   7.205   5.889  1.00  0.00    -0.354 N 
ATOM     32  N   UNL     1       8.066   8.752   3.295  1.00  0.00    -0.248 NA
ATOM     33  C   UNL     1       8.369  10.729   2.087  1.00  0.00     0.031 C 
ATOM     34  C   UNL     1       9.664   8.154   7.454  1.00  0.00     0.029 A 
ATOM     35  C   UNL     1       9.165   8.331   6.170  1.00  0.00     0.049 A 
ATOM     36  H   UNL     1       7.934   7.044   5.048  1.00  0.00     0.167 HD
ATOM     37  C   UNL     1       8.852   9.614   4.042  1.00  0.00     0.074 A 
ATOM     38  C   UNL     1       9.039  10.804   3.230  1.00  0.00     0.031 C 
ATOM     39  C   UNL     1       9.353   9.460   5.292  1.00  0.00     0.034 A 
BRANCH  26  40
ATOM     40  C   UNL     1       7.887   4.198   8.221  1.00  0.00     0.023 A 
ATOM     41  C   UNL     1       8.668   3.027   8.199  1.00  0.00     0.012 A 
ATOM     42  C   UNL     1       7.220   4.566   9.406  1.00  0.00     0.148 A 
ATOM     43  C   UNL     1       8.771   2.226   9.336  1.00  0.00     0.002 A 
ATOM     44  C   UNL     1       7.363   3.788  10.546  1.00  0.00     0.091 A 
ATOM     45  F   UNL     1       6.455   5.667   9.391  1.00  0.00    -0.205 F 
ATOM     46  C   UNL     1       8.129   2.611  10.511  1.00  0.00     0.022 A 
BRANCH  44  47
ATOM     47  S   UNL     1       6.629   4.232  12.123  1.00  0.00     0.127 S 
ATOM     48  O   UNL     1       5.763   3.081  12.382  1.00  0.00    -0.237 OA
ATOM     49  O   UNL     1       7.804   4.318  12.989  1.00  0.00    -0.237 OA
ATOM     50  O   UNL     1       5.928   5.489  11.906  1.00  0.00    -0.744 OA
ENDBRANCH  44  47
ENDBRANCH  26  40
BRANCH  27  51
ATOM     51  C   UNL     1       6.798   9.720  -0.233  1.00  0.00     0.023 A 
ATOM     52  C   UNL     1       7.905   9.998  -1.055  1.00  0.00     0.012 A 
ATOM     53  C   UNL     1       5.524  10.185  -0.626  1.00  0.00     0.148 A 
ATOM     54  C   UNL     1       7.752  10.738  -2.230  1.00  0.00     0.002 A 
ATOM     55  C   UNL     1       5.369  10.869  -1.827  1.00  0.00     0.091 A 
ATOM     56  F   UNL     1       4.479   9.936   0.176  1.00  0.00    -0.205 F 
ATOM     57  C   UNL     1       6.485  11.162  -2.622  1.00  0.00     0.022 A 
BRANCH  55  58
ATOM     58  S   UNL     1       3.755  11.331  -2.471  1.00  0.00     0.127 S 
ATOM     59  O   UNL     1       3.762  12.779  -2.282  1.00  0.00    -0.237 OA
ATOM     60  O   UNL     1       3.847  10.892  -3.864  1.00  0.00    -0.237 OA
ATOM     61  O   UNL     1       2.788  10.591  -1.674  1.00  0.00    -0.744 OA
ENDBRANCH  55  58
ENDBRANCH  27  51
BRANCH  39  62
ATOM     62  C   UNL     1      10.164  10.591   5.849  1.00  0.00     0.023 A 
ATOM     63  C   UNL     1       9.509  11.741   6.326  1.00  0.00     0.012 A 
ATOM     64  C   UNL     1      11.548  10.434   6.045  1.00  0.00     0.148 A 
ATOM     65  C   UNL     1      10.229  12.729   6.993  1.00  0.00     0.002 A 
ATOM     66  C   UNL     1      12.246  11.393   6.761  1.00  0.00     0.091 A 
ATOM     67  F   UNL     1      12.140   9.331   5.564  1.00  0.00    -0.205 F 
ATOM     68  C   UNL     1      11.591  12.545   7.228  1.00  0.00     0.022 A 
BRANCH  66  69
ATOM     69  S   UNL     1      13.967  11.179   7.223  1.00  0.00     0.127 S 
ATOM     70  O   UNL     1      14.618  12.221   6.430  1.00  0.00    -0.237 OA
ATOM     71  O   UNL     1      13.933  11.437   8.663  1.00  0.00    -0.237 OA
ATOM     72  O   UNL     1      14.318   9.813   6.859  1.00  0.00    -0.744 OA
ENDBRANCH  66  69
ENDBRANCH  39  62
ENDBRANCH  13  14
ENDBRANCH   6   8
ENDBRANCH   5   6
ENDBRANCH   4   5
ENDBRANCH   3   4
ENDBRANCH   2   3
ENDBRANCH   1   2
BRANCH   1  73
ATOM     73  C   UNL     1       2.338   1.092  -4.059  1.00  0.00     0.261 C 
BRANCH  73  74
ATOM     74  O   UNL     1       3.182  -0.061  -4.298  1.00  0.00    -0.463 OA
BRANCH  74  75
ATOM     75  C   UNL     1       4.477   0.180  -4.662  1.00  0.00     0.315 C 
ATOM     76  O   UNL     1       4.931   1.284  -4.933  1.00  0.00    -0.252 OA
BRANCH  75  77
ATOM     77  C   UNL     1       5.343  -1.075  -4.663  1.00  0.00     0.163 C 
ATOM     78  C   UNL     1       5.112  -1.984  -5.876  1.00  0.00     0.278 C 
ATOM     79  C   UNL     1       5.060  -1.960  -3.460  1.00  0.00     0.067 C 
ATOM     80  N   UNL     1       5.124  -3.381  -5.376  1.00  0.00    -0.331 N 
ATOM     81  C   UNL     1       4.505  -3.241  -4.077  1.00  0.00     0.267 C 
ATOM     82  H   UNL     1       4.622  -4.023  -5.990  1.00  0.00     0.348 HD
BRANCH  79  83
ATOM     83  C   UNL     1       6.144  -2.159  -2.434  1.00  0.00    -0.001 C 
ATOM     84  C   UNL     1       7.576  -1.675  -2.534  1.00  0.00     0.004 C 
ATOM     85  C   UNL     1       6.671  -1.093  -1.495  1.00  0.00     0.004 C 
ENDBRANCH  79  83
BRANCH  80  86
ATOM     86  C   UNL     1       6.437  -4.067  -5.393  1.00  0.00     0.304 C 
BRANCH  86  87
ATOM     87  C   UNL     1       7.100  -4.772  -4.154  1.00  0.00     0.290 C 
BRANCH  87  88
ATOM     88  O   UNL     1       6.403  -5.921  -3.634  1.00  0.00    -0.488 OA
BRANCH  88  89
ATOM     89  C   UNL     1       5.936  -5.809  -2.344  1.00  0.00     0.119 A 
ATOM     90  C   UNL     1       4.580  -6.115  -2.174  1.00  0.00     0.049 A 
ATOM     91  C   UNL     1       6.674  -5.327  -1.256  1.00  0.00     0.049 A 
ATOM     92  C   UNL     1       3.917  -5.754  -1.000  1.00  0.00     0.043 A 
ATOM     93  C   UNL     1       6.012  -4.995  -0.062  1.00  0.00     0.043 A 
ATOM     94  C   UNL     1       4.635  -5.173   0.037  1.00  0.00     0.123 A 
ATOM     95  F   UNL     1       3.987  -4.745   1.128  1.00  0.00    -0.207 F 
ENDBRANCH  88  89
ENDBRANCH  87  88
ENDBRANCH  86  87
ENDBRANCH  80  86
ENDBRANCH  75  77
ENDBRANCH  74  75
ENDBRANCH  73  74
ENDBRANCH   1  73
TORSDOF 22
