REMARK SMILES COc1ccc(C(=O)OCCOCCOC(=O)c2ccc(-c3c4nc(c(-c5cccc(S(=O)(=O)[O-])c5F)c5ccc([nH]5)c(-c5cccc(S(=O)(=O)[O-])c5F)c5nc(c(-c6cccc(S(=O)(=O)[O-])c6F)c6ccc3[nH]6)C=C5)C=C4)cc2)cc1NC(=S)NC(=O)c1cccc(C)c1OC
REMARK SMILES IDX 11 1 10 2 9 3 7 4 8 5 6 6 3 7 4 8 82 9 5 10 81 11 2 12 1 13
REMARK SMILES IDX 83 14 84 16 85 17 86 18 87 19 88 21 89 22 90 23 95 24 91 25
REMARK SMILES IDX 93 26 92 27 94 28 96 29 97 30 12 31 13 32 14 33 15 34 16 35
REMARK SMILES IDX 17 36 18 37 19 38 80 39 20 40 79 41 21 42 22 43 23 44 73 45
REMARK SMILES IDX 24 46 78 47 72 48 74 49 25 50 77 51 71 52 70 53 26 55 58 56
REMARK SMILES IDX 38 57 57 58 39 59 42 60 56 61 75 62 40 63 41 64 55 66 76 67
REMARK SMILES IDX 43 68 27 69 28 70 36 71 29 72 31 73 37 74 30 75 32 76 33 77
REMARK SMILES IDX 34 78 35 79 59 80 60 81 68 82 61 83 63 84 69 85 62 86 64 87
REMARK SMILES IDX 65 88 66 89 67 90 44 91 45 92 53 93 46 94 48 95 54 96 47 97
REMARK SMILES IDX 49 98 50 99 51 100 52 101
REMARK H PARENT 83 15 86 20 74 54 42 65
REMARK Flexibility Score: inf
ROOT
ATOM      1  C   UNL     1       3.084   9.075  -0.284  1.00  0.00     0.202 C 
ENDROOT
BRANCH   1   2
ATOM      2  C   UNL     1       2.525   8.064   0.749  1.00  0.00     0.261 C 
BRANCH   2   3
ATOM      3  O   UNL     1       2.519   6.709   0.198  1.00  0.00    -0.460 OA
BRANCH   3   4
ATOM      4  C   UNL     1       1.381   5.711   0.305  1.00  0.00     0.338 C 
ATOM      5  O   UNL     1       0.630   6.320   1.110  1.00  0.00    -0.246 OA
BRANCH   4   6
ATOM      6  C   UNL     1       1.260   3.825  -0.736  1.00  0.00     0.062 A 
ATOM      7  C   UNL     1       1.326   0.907  -1.313  1.00  0.00     0.142 A 
ATOM      8  C   UNL     1       0.144   1.579  -1.499  1.00  0.00     0.049 A 
ATOM      9  C   UNL     1       2.464   1.657  -1.171  1.00  0.00     0.084 A 
ATOM     10  C   UNL     1       0.111   2.956  -1.179  1.00  0.00     0.019 A 
ATOM     11  C   UNL     1       2.330   3.010  -1.333  1.00  0.00     0.045 A 
BRANCH   7  12
ATOM     12  O   UNL     1       1.338  -0.450  -1.323  1.00  0.00    -0.495 OA
ATOM     13  C   UNL     1       1.097  -0.925   0.003  1.00  0.00     0.278 C 
ENDBRANCH   7  12
BRANCH   9  14
ATOM     14  N   UNL     1       3.725   1.135  -0.887  1.00  0.00    -0.329 N 
ATOM     15  H   UNL     1       3.778   0.157  -0.985  1.00  0.00     0.169 HD
BRANCH  14  16
ATOM     16  C   UNL     1       4.893   1.705  -0.504  1.00  0.00     0.177 C 
ATOM     17  S   UNL     1       6.214   0.674  -0.397  1.00  0.00    -0.040 S 
BRANCH  16  18
ATOM     18  N   UNL     1       5.118   3.035  -0.168  1.00  0.00    -0.299 N 
ATOM     19  C   UNL     1       4.578   4.335   0.038  1.00  0.00     0.261 C 
ATOM     20  H   UNL     1       6.084   3.113   0.003  1.00  0.00     0.172 HD
ATOM     21  O   UNL     1       5.330   5.305   0.101  1.00  0.00    -0.269 OA
BRANCH  19  22
ATOM     22  C   UNL     1       3.131   4.600   0.066  1.00  0.00     0.082 A 
ATOM     23  C   UNL     1       2.427   5.413  -1.456  1.00  0.00     0.018 A 
ATOM     24  C   UNL     1       2.001   3.962   1.314  1.00  0.00     0.134 A 
ATOM     25  C   UNL     1       0.621   5.658  -1.607  1.00  0.00     0.001 A 
ATOM     26  C   UNL     1       0.210   4.147   1.119  1.00  0.00    -0.008 A 
ATOM     27  C   UNL     1      -0.490   5.074  -0.296  1.00  0.00     0.007 A 
ATOM     28  C   UNL     1      -0.690   3.260   1.935  1.00  0.00     0.048 C 
BRANCH  24  29
ATOM     29  O   UNL     1       2.316   3.246   2.436  1.00  0.00    -0.496 OA
ATOM     30  C   UNL     1       3.682   3.024   2.724  1.00  0.00     0.278 C 
ENDBRANCH  24  29
ENDBRANCH  19  22
ENDBRANCH  16  18
ENDBRANCH  14  16
ENDBRANCH   9  14
ENDBRANCH   4   6
ENDBRANCH   3   4
ENDBRANCH   2   3
ENDBRANCH   1   2
BRANCH   1  31
ATOM     31  O   UNL     1       2.238   9.534  -1.352  1.00  0.00    -0.374 OA
BRANCH  31  32
ATOM     32  C   UNL     1       1.851   8.546  -2.293  1.00  0.00     0.202 C 
BRANCH  32  33
ATOM     33  C   UNL     1       2.830   8.155  -3.416  1.00  0.00     0.261 C 
BRANCH  33  34
ATOM     34  O   UNL     1       4.146   7.810  -2.951  1.00  0.00    -0.460 OA
BRANCH  34  35
ATOM     35  C   UNL     1       5.027   8.835  -3.029  1.00  0.00     0.338 C 
ATOM     36  O   UNL     1       4.822   9.928  -3.533  1.00  0.00    -0.246 OA
BRANCH  35  37
ATOM     37  C   UNL     1       6.262   8.553  -2.275  1.00  0.00     0.060 A 
ATOM     38  C   UNL     1       6.601   9.474  -1.278  1.00  0.00     0.016 A 
ATOM     39  C   UNL     1       7.146   7.533  -2.629  1.00  0.00     0.016 A 
ATOM     40  C   UNL     1       7.862   9.439  -0.694  1.00  0.00     0.010 A 
ATOM     41  C   UNL     1       8.415   7.497  -2.034  1.00  0.00     0.010 A 
ATOM     42  C   UNL     1       8.799   8.482  -1.103  1.00  0.00    -0.014 A 
BRANCH  42  43
ATOM     43  C   UNL     1      10.203   8.595  -0.629  1.00  0.00     0.031 A 
ATOM     44  C   UNL     1      11.285   9.025  -1.586  1.00  0.00     0.074 A 
ATOM     45  C   UNL     1      10.506   8.356   0.661  1.00  0.00     0.049 A 
ATOM     46  N   UNL     1      12.569   9.159  -1.375  1.00  0.00    -0.248 NA
ATOM     47  C   UNL     1      10.870   9.345  -2.963  1.00  0.00     0.031 C 
ATOM     48  C   UNL     1       9.547   7.959   1.691  1.00  0.00     0.029 A 
ATOM     49  N   UNL     1      11.711   8.393   1.319  1.00  0.00    -0.354 N 
ATOM     50  C   UNL     1      13.121   9.535  -2.594  1.00  0.00     0.074 A 
ATOM     51  C   UNL     1      12.033   9.608  -3.544  1.00  0.00     0.031 C 
ATOM     52  C   UNL     1      10.203   7.769   2.848  1.00  0.00     0.029 A 
ATOM     53  C   UNL     1      11.631   7.980   2.628  1.00  0.00     0.049 A 
ATOM     54  H   UNL     1      12.550   8.687   0.895  1.00  0.00     0.167 HD
ATOM     55  C   UNL     1      14.416   9.797  -2.893  1.00  0.00     0.034 A 
ATOM     56  C   UNL     1      12.602   7.753   3.536  1.00  0.00     0.034 A 
ATOM     57  C   UNL     1      15.495   9.736  -1.942  1.00  0.00     0.049 A 
ATOM     58  C   UNL     1      14.038   8.005   3.157  1.00  0.00     0.074 A 
ATOM     59  C   UNL     1      16.831  10.036  -2.144  1.00  0.00     0.029 A 
ATOM     60  N   UNL     1      15.373   9.323  -0.626  1.00  0.00    -0.354 N 
ATOM     61  N   UNL     1      14.530   8.450   2.027  1.00  0.00    -0.248 NA
ATOM     62  C   UNL     1      15.053   7.752   4.191  1.00  0.00     0.031 C 
ATOM     63  C   UNL     1      17.528   9.735  -0.971  1.00  0.00     0.029 A 
ATOM     64  C   UNL     1      16.614   9.330  -0.013  1.00  0.00     0.049 A 
ATOM     65  H   UNL     1      14.529   9.062  -0.191  1.00  0.00     0.167 HD
ATOM     66  C   UNL     1      15.900   8.573   2.229  1.00  0.00     0.074 A 
ATOM     67  C   UNL     1      16.158   8.175   3.596  1.00  0.00     0.031 C 
ATOM     68  C   UNL     1      16.859   8.975   1.360  1.00  0.00     0.034 A 
BRANCH  55  69
ATOM     69  C   UNL     1      14.762  10.162  -4.314  1.00  0.00     0.023 A 
ATOM     70  C   UNL     1      14.390  11.415  -4.839  1.00  0.00     0.012 A 
ATOM     71  C   UNL     1      15.554   9.294  -5.093  1.00  0.00     0.148 A 
ATOM     72  C   UNL     1      14.779  11.788  -6.126  1.00  0.00     0.002 A 
ATOM     73  C   UNL     1      15.980   9.691  -6.353  1.00  0.00     0.091 A 
ATOM     74  F   UNL     1      15.888   8.102  -4.578  1.00  0.00    -0.205 F 
ATOM     75  C   UNL     1      15.584  10.933  -6.876  1.00  0.00     0.022 A 
BRANCH  73  76
ATOM     76  S   UNL     1      17.085   8.698  -7.362  1.00  0.00     0.127 S 
ATOM     77  O   UNL     1      16.237   8.392  -8.514  1.00  0.00    -0.237 OA
ATOM     78  O   UNL     1      18.172   9.637  -7.638  1.00  0.00    -0.237 OA
ATOM     79  O   UNL     1      17.458   7.550  -6.548  1.00  0.00    -0.744 OA
ENDBRANCH  73  76
ENDBRANCH  55  69
BRANCH  56  80
ATOM     80  C   UNL     1      12.261   7.231   4.890  1.00  0.00     0.023 A 
ATOM     81  C   UNL     1      12.522   8.010   6.034  1.00  0.00     0.012 A 
ATOM     82  C   UNL     1      11.715   5.942   5.049  1.00  0.00     0.148 A 
ATOM     83  C   UNL     1      12.300   7.494   7.311  1.00  0.00     0.002 A 
ATOM     84  C   UNL     1      11.435   5.459   6.320  1.00  0.00     0.091 A 
ATOM     85  F   UNL     1      11.482   5.211   3.950  1.00  0.00    -0.205 F 
ATOM     86  C   UNL     1      11.750   6.223   7.454  1.00  0.00     0.022 A 
BRANCH  84  87
ATOM     87  S   UNL     1      10.618   3.884   6.592  1.00  0.00     0.127 S 
ATOM     88  O   UNL     1      11.675   3.107   7.234  1.00  0.00    -0.237 OA
ATOM     89  O   UNL     1       9.513   4.267   7.471  1.00  0.00    -0.237 OA
ATOM     90  O   UNL     1      10.205   3.417   5.276  1.00  0.00    -0.744 OA
ENDBRANCH  84  87
ENDBRANCH  56  80
BRANCH  68  91
ATOM     91  C   UNL     1      18.273   9.084   1.871  1.00  0.00     0.023 A 
ATOM     92  C   UNL     1      19.007   7.930   2.211  1.00  0.00     0.012 A 
ATOM     93  C   UNL     1      18.895  10.346   1.958  1.00  0.00     0.148 A 
ATOM     94  C   UNL     1      20.319   8.035   2.673  1.00  0.00     0.002 A 
ATOM     95  C   UNL     1      20.220  10.439   2.360  1.00  0.00     0.091 A 
ATOM     96  F   UNL     1      18.177  11.434   1.641  1.00  0.00    -0.205 F 
ATOM     97  C   UNL     1      20.929   9.287   2.736  1.00  0.00     0.022 A 
BRANCH  95  98
ATOM     98  S   UNL     1      21.116  11.995   2.381  1.00  0.00     0.127 S 
ATOM     99  O   UNL     1      21.351  12.182   3.812  1.00  0.00    -0.237 OA
ATOM    100  O   UNL     1      22.312  11.670   1.604  1.00  0.00    -0.237 OA
ATOM    101  O   UNL     1      20.237  12.979   1.765  1.00  0.00    -0.744 OA
ENDBRANCH  95  98
ENDBRANCH  68  91
ENDBRANCH  42  43
ENDBRANCH  35  37
ENDBRANCH  34  35
ENDBRANCH  33  34
ENDBRANCH  32  33
ENDBRANCH  31  32
ENDBRANCH   1  31
TORSDOF 23
