REMARK SMILES Cc1ccc(C(=O)N2CCCC[C@@H]2C(=O)OCCOCCOC(=O)c2ccc(-c3c4nc(c(-c5cccc(S(=O)(=O)[O-])c5F)c5ccc([nH]5)c(-c5cccc(S(=O)(=O)[O-])c5F)c5nc(c(-c6cccc(S(=O)(=O)[O-])c6F)c6ccc3[nH]6)C=C5)C=C4)cc2)cc1S(=O)(=O)N1CCCCC1
REMARK SMILES IDX 18 1 17 2 16 3 14 4 15 5 13 6 8 7 9 8 10 9 12 10 11 11 6 12
REMARK SMILES IDX 7 13 5 14 1 15 2 16 3 17 89 18 4 19 88 20 90 21 91 22 92 23
REMARK SMILES IDX 93 24 94 25 98 26 95 27 97 28 96 29 19 30 20 31 21 32 22 33
REMARK SMILES IDX 23 34 24 35 25 36 26 37 87 38 27 39 86 40 28 41 29 42 30 43
REMARK SMILES IDX 80 44 31 45 85 46 79 47 81 48 32 49 84 50 78 51 77 52 33 54
REMARK SMILES IDX 65 55 45 56 64 57 46 58 49 59 63 60 82 61 47 62 48 63 62 65
REMARK SMILES IDX 83 66 50 67 34 68 35 69 43 70 36 71 38 72 44 73 37 74 39 75
REMARK SMILES IDX 40 76 41 77 42 78 66 79 67 80 75 81 68 82 70 83 76 84 69 85
REMARK SMILES IDX 71 86 72 87 73 88 74 89 51 90 52 91 60 92 53 93 55 94 61 95
REMARK SMILES IDX 54 96 56 97 57 98 58 99 59 100
REMARK H PARENT 81 53 49 64
REMARK Flexibility Score: inf
ROOT
ATOM      1  C   UNL     1      -4.503   1.628  -4.256  1.00  0.00     0.202 C 
ENDROOT
BRANCH   1   2
ATOM      2  C   UNL     1      -4.304   0.675  -3.069  1.00  0.00     0.261 C 
BRANCH   2   3
ATOM      3  O   UNL     1      -4.634   1.319  -1.805  1.00  0.00    -0.462 OA
BRANCH   3   4
ATOM      4  C   UNL     1      -3.747   2.227  -1.287  1.00  0.00     0.328 C 
ATOM      5  O   UNL     1      -2.570   2.340  -1.602  1.00  0.00    -0.250 OA
BRANCH   4   6
ATOM      6  C   UNL     1      -4.450   3.274  -0.389  1.00  0.00     0.195 C 
ATOM      7  N   UNL     1      -4.728   3.043   1.065  1.00  0.00    -0.325 N 
ATOM      8  C   UNL     1      -6.100   3.018   1.572  1.00  0.00     0.121 C 
ATOM      9  C   UNL     1      -7.201   3.155   0.543  1.00  0.00     0.022 C 
ATOM     10  C   UNL     1      -5.648   3.796  -1.228  1.00  0.00     0.037 C 
ATOM     11  C   UNL     1      -6.830   4.268  -0.415  1.00  0.00     0.005 C 
BRANCH   7  12
ATOM     12  C   UNL     1      -3.763   3.246   2.085  1.00  0.00     0.254 C 
ATOM     13  O   UNL     1      -4.061   3.560   3.238  1.00  0.00    -0.269 OA
BRANCH  12  14
ATOM     14  C   UNL     1      -2.396   2.751   1.880  1.00  0.00     0.041 A 
ATOM     15  C   UNL     1       0.395   0.660   0.026  1.00  0.00     0.046 C 
ATOM     16  C   UNL     1      -0.260   1.402   1.086  1.00  0.00    -0.031 A 
ATOM     17  C   UNL     1      -1.228   0.711   1.820  1.00  0.00     0.005 A 
ATOM     18  C   UNL     1      -0.119   2.773   1.024  1.00  0.00     0.086 A 
ATOM     19  C   UNL     1      -2.317   1.404   2.239  1.00  0.00     0.014 A 
ATOM     20  C   UNL     1      -1.274   3.482   1.380  1.00  0.00     0.035 A 
BRANCH  18  21
ATOM     21  S   UNL     1       1.427   3.514   0.267  1.00  0.00     0.243 S 
ATOM     22  O   UNL     1       1.095   3.770  -1.121  1.00  0.00    -0.207 OA
ATOM     23  O   UNL     1       1.744   4.605   1.171  1.00  0.00    -0.207 OA
BRANCH  21  24
ATOM     24  N   UNL     1       2.832   2.405   0.303  1.00  0.00    -0.198 NA
ATOM     25  C   UNL     1       3.208   1.635   1.938  1.00  0.00     0.102 C 
ATOM     26  C   UNL     1       3.808   1.996  -1.257  1.00  0.00     0.102 C 
ATOM     27  C   UNL     1       4.630   0.218   2.076  1.00  0.00     0.017 C 
ATOM     28  C   UNL     1       5.133   0.493  -1.221  1.00  0.00     0.017 C 
ATOM     29  C   UNL     1       5.600  -0.340   0.481  1.00  0.00     0.003 C 
ENDBRANCH  21  24
ENDBRANCH  18  21
ENDBRANCH  12  14
ENDBRANCH   7  12
ENDBRANCH   4   6
ENDBRANCH   3   4
ENDBRANCH   2   3
ENDBRANCH   1   2
BRANCH   1  30
ATOM     30  O   UNL     1      -3.426   2.557  -4.252  1.00  0.00    -0.374 OA
BRANCH  30  31
ATOM     31  C   UNL     1      -3.563   3.735  -5.028  1.00  0.00     0.202 C 
BRANCH  31  32
ATOM     32  C   UNL     1      -3.543   3.514  -6.545  1.00  0.00     0.261 C 
BRANCH  32  33
ATOM     33  O   UNL     1      -2.283   2.943  -6.929  1.00  0.00    -0.460 OA
BRANCH  33  34
ATOM     34  C   UNL     1      -2.358   1.633  -7.284  1.00  0.00     0.338 C 
ATOM     35  O   UNL     1      -3.107   1.192  -8.140  1.00  0.00    -0.246 OA
BRANCH  34  36
ATOM     36  C   UNL     1      -1.554   0.810  -6.340  1.00  0.00     0.060 A 
ATOM     37  C   UNL     1      -1.688  -0.586  -6.356  1.00  0.00     0.016 A 
ATOM     38  C   UNL     1      -0.851   1.425  -5.302  1.00  0.00     0.016 A 
ATOM     39  C   UNL     1      -1.192  -1.355  -5.296  1.00  0.00     0.010 A 
ATOM     40  C   UNL     1      -0.427   0.670  -4.221  1.00  0.00     0.010 A 
ATOM     41  C   UNL     1      -0.592  -0.729  -4.200  1.00  0.00    -0.014 A 
BRANCH  41  42
ATOM     42  C   UNL     1      -0.206  -1.471  -2.950  1.00  0.00     0.031 A 
ATOM     43  C   UNL     1       1.184  -1.135  -2.390  1.00  0.00     0.074 A 
ATOM     44  C   UNL     1      -1.307  -1.553  -2.176  1.00  0.00     0.049 A 
ATOM     45  N   UNL     1       1.713  -1.194  -1.194  1.00  0.00    -0.248 NA
ATOM     46  C   UNL     1       2.133  -0.684  -3.384  1.00  0.00     0.031 C 
ATOM     47  C   UNL     1      -1.817  -0.587  -1.229  1.00  0.00     0.029 A 
ATOM     48  N   UNL     1      -2.340  -2.458  -2.250  1.00  0.00    -0.354 N 
ATOM     49  C   UNL     1       2.880  -0.365  -1.123  1.00  0.00     0.074 A 
ATOM     50  C   UNL     1       3.078  -0.176  -2.612  1.00  0.00     0.031 C 
ATOM     51  C   UNL     1      -2.835  -1.086  -0.527  1.00  0.00     0.029 A 
ATOM     52  C   UNL     1      -3.129  -2.362  -1.106  1.00  0.00     0.049 A 
ATOM     53  H   UNL     1      -2.498  -3.079  -2.997  1.00  0.00     0.167 HD
ATOM     54  C   UNL     1       3.524   0.232   0.186  1.00  0.00     0.034 A 
ATOM     55  C   UNL     1      -3.656  -3.374  -0.394  1.00  0.00     0.034 A 
ATOM     56  C   UNL     1       2.566  -0.747   1.323  1.00  0.00     0.049 A 
ATOM     57  C   UNL     1      -2.639  -3.795   0.637  1.00  0.00     0.074 A 
ATOM     58  C   UNL     1       2.018  -0.605   2.638  1.00  0.00     0.029 A 
ATOM     59  N   UNL     1       2.108  -2.099   1.062  1.00  0.00    -0.354 N 
ATOM     60  N   UNL     1      -1.468  -3.239   0.852  1.00  0.00    -0.248 NA
ATOM     61  C   UNL     1      -2.942  -4.869   1.575  1.00  0.00     0.031 C 
ATOM     62  C   UNL     1       0.978  -1.501   2.884  1.00  0.00     0.029 A 
ATOM     63  C   UNL     1       1.101  -2.502   1.962  1.00  0.00     0.049 A 
ATOM     64  H   UNL     1       2.459  -2.668   0.340  1.00  0.00     0.167 HD
ATOM     65  C   UNL     1      -0.801  -3.981   1.800  1.00  0.00     0.074 A 
ATOM     66  C   UNL     1      -1.806  -4.920   2.284  1.00  0.00     0.031 C 
ATOM     67  C   UNL     1       0.516  -3.823   2.155  1.00  0.00     0.034 A 
BRANCH  54  68
ATOM     68  C   UNL     1       4.952   1.710   0.575  1.00  0.00     0.023 A 
ATOM     69  C   UNL     1       5.339   2.527   1.826  1.00  0.00     0.012 A 
ATOM     70  C   UNL     1       6.145   2.331  -0.233  1.00  0.00     0.148 A 
ATOM     71  C   UNL     1       6.106   3.725   2.056  1.00  0.00     0.002 A 
ATOM     72  C   UNL     1       6.801   3.612  -0.117  1.00  0.00     0.091 A 
ATOM     73  F   UNL     1       7.072   1.486  -0.755  1.00  0.00    -0.205 F 
ATOM     74  C   UNL     1       6.732   4.353   1.029  1.00  0.00     0.022 A 
BRANCH  72  75
ATOM     75  S   UNL     1       7.930   4.173  -1.409  1.00  0.00     0.127 S 
ATOM     76  O   UNL     1       7.954   5.625  -1.220  1.00  0.00    -0.237 OA
ATOM     77  O   UNL     1       9.181   3.502  -1.068  1.00  0.00    -0.237 OA
ATOM     78  O   UNL     1       7.276   3.742  -2.641  1.00  0.00    -0.744 OA
ENDBRANCH  72  75
ENDBRANCH  54  68
BRANCH  55  79
ATOM     79  C   UNL     1      -4.558  -4.174  -1.275  1.00  0.00     0.023 A 
ATOM     80  C   UNL     1      -5.800  -3.529  -1.526  1.00  0.00     0.012 A 
ATOM     81  C   UNL     1      -3.974  -4.925  -2.301  1.00  0.00     0.148 A 
ATOM     82  C   UNL     1      -6.296  -3.421  -2.829  1.00  0.00     0.002 A 
ATOM     83  C   UNL     1      -4.413  -4.715  -3.610  1.00  0.00     0.091 A 
ATOM     84  F   UNL     1      -2.832  -5.576  -2.038  1.00  0.00    -0.205 F 
ATOM     85  C   UNL     1      -5.563  -3.958  -3.882  1.00  0.00     0.022 A 
BRANCH  83  86
ATOM     86  S   UNL     1      -3.253  -5.028  -4.954  1.00  0.00     0.127 S 
ATOM     87  O   UNL     1      -3.500  -6.434  -5.248  1.00  0.00    -0.237 OA
ATOM     88  O   UNL     1      -3.679  -4.090  -5.992  1.00  0.00    -0.237 OA
ATOM     89  O   UNL     1      -1.966  -4.693  -4.354  1.00  0.00    -0.744 OA
ENDBRANCH  83  86
ENDBRANCH  55  79
BRANCH  67  90
ATOM     90  C   UNL     1       1.240  -4.803   3.082  1.00  0.00     0.023 A 
ATOM     91  C   UNL     1       0.912  -6.174   3.095  1.00  0.00     0.012 A 
ATOM     92  C   UNL     1       2.346  -4.415   3.884  1.00  0.00     0.148 A 
ATOM     93  C   UNL     1       1.595  -7.095   3.900  1.00  0.00     0.002 A 
ATOM     94  C   UNL     1       3.097  -5.352   4.587  1.00  0.00     0.091 A 
ATOM     95  F   UNL     1       2.672  -3.126   4.022  1.00  0.00    -0.205 F 
ATOM     96  C   UNL     1       2.708  -6.690   4.623  1.00  0.00     0.022 A 
BRANCH  94  97
ATOM     97  S   UNL     1       4.678  -4.902   5.322  1.00  0.00     0.127 S 
ATOM     98  O   UNL     1       4.319  -4.707   6.724  1.00  0.00    -0.237 OA
ATOM     99  O   UNL     1       5.489  -6.093   5.058  1.00  0.00    -0.237 OA
ATOM    100  O   UNL     1       5.119  -3.714   4.604  1.00  0.00    -0.744 OA
ENDBRANCH  94  97
ENDBRANCH  67  90
ENDBRANCH  41  42
ENDBRANCH  34  36
ENDBRANCH  33  34
ENDBRANCH  32  33
ENDBRANCH  31  32
ENDBRANCH  30  31
ENDBRANCH   1  30
TORSDOF 21
