REMARK SMILES CCc1c(C(=O)NCC(=O)OCCOCCOC(=O)c2ccc(-c3c4nc(c(-c5cccc(S(=O)(=O)[O-])c5F)c5ccc([nH]5)c(-c5cccc(S(=O)(=O)[O-])c5F)c5nc(c(-c6cccc(S(=O)(=O)[O-])c6F)c6ccc3[nH]6)C=C5)C=C4)cc2)nnn1-c1ccc(Cl)cc1
REMARK SMILES IDX 14 1 13 2 12 3 11 4 9 5 10 6 8 7 7 8 5 9 6 10 4 12 3 13
REMARK SMILES IDX 85 14 83 15 84 16 2 17 1 18 86 19 87 20 92 21 88 22 91 23
REMARK SMILES IDX 89 24 90 25 15 26 16 27 17 28 18 29 19 30 20 31 21 32 82 33
REMARK SMILES IDX 22 34 81 35 23 36 24 37 25 38 75 39 26 40 80 41 74 42 76 43
REMARK SMILES IDX 27 44 79 45 73 46 72 47 28 49 60 50 40 51 59 52 41 53 44 54
REMARK SMILES IDX 58 55 77 56 42 57 43 58 57 60 78 61 45 62 29 63 30 64 38 65
REMARK SMILES IDX 31 66 33 67 39 68 32 69 34 70 35 71 36 72 37 73 61 74 62 75
REMARK SMILES IDX 70 76 63 77 65 78 71 79 64 80 66 81 67 82 68 83 69 84 46 85
REMARK SMILES IDX 47 86 55 87 48 88 50 89 56 90 49 91 51 92 52 93 53 94 54 95
REMARK H PARENT 7 11 76 48 44 59
REMARK Flexibility Score: inf
ROOT
ATOM      1  O   UNL     1      -3.929   1.766  -2.125  1.00  0.00    -0.374 OA
ENDROOT
BRANCH   1   2
ATOM      2  C   UNL     1      -4.516   1.242  -0.935  1.00  0.00     0.202 C 
BRANCH   2   3
ATOM      3  C   UNL     1      -3.712   0.367   0.036  1.00  0.00     0.261 C 
BRANCH   3   4
ATOM      4  O   UNL     1      -2.582   1.037   0.614  1.00  0.00    -0.462 OA
BRANCH   4   5
ATOM      5  C   UNL     1      -1.390   0.700   0.062  1.00  0.00     0.325 C 
ATOM      6  O   UNL     1      -1.248  -0.151  -0.815  1.00  0.00    -0.250 OA
BRANCH   5   7
ATOM      7  C   UNL     1      -0.262   1.655   0.433  1.00  0.00     0.239 C 
BRANCH   7   8
ATOM      8  N   UNL     1      -0.212   2.261   1.731  1.00  0.00    -0.340 N 
ATOM      9  C   UNL     1       0.453   1.936   2.881  1.00  0.00     0.274 C 
ATOM     10  O   UNL     1       0.537   2.873   3.679  1.00  0.00    -0.267 OA
ATOM     11  H   UNL     1      -0.766   3.071   1.811  1.00  0.00     0.164 HD
BRANCH   9  12
ATOM     12  C   UNL     1       0.984   0.611   3.245  1.00  0.00     0.174 A 
ATOM     13  C   UNL     1       1.266  -0.612   2.620  1.00  0.00     0.077 A 
ATOM     14  N   UNL     1       1.643  -1.441   3.678  1.00  0.00    -0.217 N 
ATOM     15  N   UNL     1       1.228   0.448   4.600  1.00  0.00    -0.124 NA
ATOM     16  N   UNL     1       1.523  -0.808   4.849  1.00  0.00    -0.061 NA
BRANCH  13  17
ATOM     17  C   UNL     1       1.064  -1.177   1.254  1.00  0.00     0.055 C 
ATOM     18  C   UNL     1       2.111  -0.778   0.226  1.00  0.00     0.011 C 
ENDBRANCH  13  17
BRANCH  14  19
ATOM     19  C   UNL     1       1.944  -2.822   3.655  1.00  0.00     0.067 A 
ATOM     20  C   UNL     1       1.316  -3.662   4.584  1.00  0.00     0.030 A 
ATOM     21  C   UNL     1       2.801  -3.352   2.686  1.00  0.00     0.030 A 
ATOM     22  C   UNL     1       1.480  -5.044   4.479  1.00  0.00     0.023 A 
ATOM     23  C   UNL     1       2.973  -4.732   2.595  1.00  0.00     0.023 A 
ATOM     24  C   UNL     1       2.297  -5.572   3.479  1.00  0.00     0.041 A 
ATOM     25  Cl  UNL     1       2.469  -7.277   3.327  1.00  0.00    -0.084 Cl
ENDBRANCH  14  19
ENDBRANCH   9  12
ENDBRANCH   7   8
ENDBRANCH   5   7
ENDBRANCH   4   5
ENDBRANCH   3   4
ENDBRANCH   2   3
ENDBRANCH   1   2
BRANCH   1  26
ATOM     26  C   UNL     1      -2.737   2.543  -2.139  1.00  0.00     0.202 C 
BRANCH  26  27
ATOM     27  C   UNL     1      -2.648   3.875  -1.395  1.00  0.00     0.261 C 
BRANCH  27  28
ATOM     28  O   UNL     1      -3.060   3.754  -0.049  1.00  0.00    -0.460 OA
BRANCH  28  29
ATOM     29  C   UNL     1      -4.362   4.089   0.113  1.00  0.00     0.338 C 
ATOM     30  O   UNL     1      -5.146   4.409  -0.759  1.00  0.00    -0.246 OA
BRANCH  29  31
ATOM     31  C   UNL     1      -4.710   4.055   1.542  1.00  0.00     0.060 A 
ATOM     32  C   UNL     1      -6.012   4.489   1.797  1.00  0.00     0.016 A 
ATOM     33  C   UNL     1      -3.668   4.193   2.463  1.00  0.00     0.016 A 
ATOM     34  C   UNL     1      -6.164   5.453   2.755  1.00  0.00     0.010 A 
ATOM     35  C   UNL     1      -3.815   5.167   3.409  1.00  0.00     0.010 A 
ATOM     36  C   UNL     1      -5.020   5.867   3.435  1.00  0.00    -0.014 A 
BRANCH  36  37
ATOM     37  C   UNL     1      -5.098   7.085   4.197  1.00  0.00     0.031 A 
ATOM     38  C   UNL     1      -5.679   6.851   5.532  1.00  0.00     0.074 A 
ATOM     39  C   UNL     1      -4.553   8.221   3.722  1.00  0.00     0.049 A 
ATOM     40  N   UNL     1      -6.828   7.234   5.981  1.00  0.00    -0.248 NA
ATOM     41  C   UNL     1      -4.999   5.856   6.378  1.00  0.00     0.031 C 
ATOM     42  C   UNL     1      -3.711   8.398   2.531  1.00  0.00     0.029 A 
ATOM     43  N   UNL     1      -4.493   9.438   4.315  1.00  0.00    -0.354 N 
ATOM     44  C   UNL     1      -6.873   6.724   7.275  1.00  0.00     0.074 A 
ATOM     45  C   UNL     1      -5.904   5.666   7.335  1.00  0.00     0.031 C 
ATOM     46  C   UNL     1      -3.007   9.547   2.660  1.00  0.00     0.029 A 
ATOM     47  C   UNL     1      -3.432  10.221   3.874  1.00  0.00     0.049 A 
ATOM     48  H   UNL     1      -5.140   9.740   4.993  1.00  0.00     0.167 HD
ATOM     49  C   UNL     1      -7.415   7.438   8.296  1.00  0.00     0.034 A 
ATOM     50  C   UNL     1      -2.870  11.250   4.560  1.00  0.00     0.034 A 
ATOM     51  C   UNL     1      -8.264   8.495   7.813  1.00  0.00     0.049 A 
ATOM     52  C   UNL     1      -3.838  11.652   5.615  1.00  0.00     0.074 A 
ATOM     53  C   UNL     1      -9.392   8.554   7.020  1.00  0.00     0.029 A 
ATOM     54  N   UNL     1      -7.737   9.765   7.821  1.00  0.00    -0.354 N 
ATOM     55  N   UNL     1      -5.012  12.159   5.357  1.00  0.00    -0.248 NA
ATOM     56  C   UNL     1      -3.698  11.034   6.926  1.00  0.00     0.031 C 
ATOM     57  C   UNL     1      -9.221   9.725   6.225  1.00  0.00     0.029 A 
ATOM     58  C   UNL     1      -8.031  10.344   6.615  1.00  0.00     0.049 A 
ATOM     59  H   UNL     1      -7.239  10.183   8.560  1.00  0.00     0.167 HD
ATOM     60  C   UNL     1      -5.867  11.541   6.263  1.00  0.00     0.074 A 
ATOM     61  C   UNL     1      -4.988  10.932   7.262  1.00  0.00     0.031 C 
ATOM     62  C   UNL     1      -7.179  11.310   5.956  1.00  0.00     0.034 A 
BRANCH  49  63
ATOM     63  C   UNL     1      -6.850   7.445   9.698  1.00  0.00     0.023 A 
ATOM     64  C   UNL     1      -7.629   8.060  10.697  1.00  0.00     0.012 A 
ATOM     65  C   UNL     1      -5.509   7.131  10.034  1.00  0.00     0.148 A 
ATOM     66  C   UNL     1      -7.090   8.386  11.946  1.00  0.00     0.002 A 
ATOM     67  C   UNL     1      -5.005   7.376  11.303  1.00  0.00     0.091 A 
ATOM     68  F   UNL     1      -4.649   6.729   9.095  1.00  0.00    -0.205 F 
ATOM     69  C   UNL     1      -5.780   8.035  12.254  1.00  0.00     0.022 A 
BRANCH  67  70
ATOM     70  S   UNL     1      -3.331   6.896  11.750  1.00  0.00     0.127 S 
ATOM     71  O   UNL     1      -2.639   8.180  11.703  1.00  0.00    -0.237 OA
ATOM     72  O   UNL     1      -3.526   6.343  13.091  1.00  0.00    -0.237 OA
ATOM     73  O   UNL     1      -2.933   5.909  10.754  1.00  0.00    -0.744 OA
ENDBRANCH  67  70
ENDBRANCH  49  63
BRANCH  50  74
ATOM     74  C   UNL     1      -1.437  11.635   4.614  1.00  0.00     0.023 A 
ATOM     75  C   UNL     1      -1.066  12.925   5.044  1.00  0.00     0.012 A 
ATOM     76  C   UNL     1      -0.417  10.663   4.487  1.00  0.00     0.148 A 
ATOM     77  C   UNL     1       0.269  13.231   5.344  1.00  0.00     0.002 A 
ATOM     78  C   UNL     1       0.909  10.976   4.766  1.00  0.00     0.091 A 
ATOM     79  F   UNL     1      -0.759   9.404   4.184  1.00  0.00    -0.205 F 
ATOM     80  C   UNL     1       1.256  12.258   5.207  1.00  0.00     0.022 A 
BRANCH  78  81
ATOM     81  S   UNL     1       2.230   9.767   4.602  1.00  0.00     0.127 S 
ATOM     82  O   UNL     1       3.231  10.514   3.838  1.00  0.00    -0.237 OA
ATOM     83  O   UNL     1       2.586   9.516   5.995  1.00  0.00    -0.237 OA
ATOM     84  O   UNL     1       1.649   8.643   3.878  1.00  0.00    -0.744 OA
ENDBRANCH  78  81
ENDBRANCH  50  74
BRANCH  62  85
ATOM     85  C   UNL     1      -7.722  11.906   4.678  1.00  0.00     0.023 A 
ATOM     86  C   UNL     1      -7.285  11.478   3.405  1.00  0.00     0.012 A 
ATOM     87  C   UNL     1      -8.830  12.763   4.758  1.00  0.00     0.148 A 
ATOM     88  C   UNL     1      -7.926  11.909   2.240  1.00  0.00     0.002 A 
ATOM     89  C   UNL     1      -9.492  13.155   3.600  1.00  0.00     0.091 A 
ATOM     90  F   UNL     1      -9.244  13.147   5.975  1.00  0.00    -0.205 F 
ATOM     91  C   UNL     1      -9.038  12.739   2.338  1.00  0.00     0.022 A 
BRANCH  89  92
ATOM     92  S   UNL     1     -11.008  14.113   3.661  1.00  0.00     0.127 S 
ATOM     93  O   UNL     1     -10.568  15.412   3.155  1.00  0.00    -0.237 OA
ATOM     94  O   UNL     1     -11.884  13.368   2.756  1.00  0.00    -0.237 OA
ATOM     95  O   UNL     1     -11.439  14.099   5.053  1.00  0.00    -0.744 OA
ENDBRANCH  89  92
ENDBRANCH  62  85
ENDBRANCH  36  37
ENDBRANCH  29  31
ENDBRANCH  28  29
ENDBRANCH  27  28
ENDBRANCH  26  27
ENDBRANCH   1  26
TORSDOF 21
