REMARK SMILES C/C(=N\[NH+]=C1\NC(=O)[C@H](CC(=O)OCCOCCOC(=O)c2ccc(-c3c4nc(c(-c5cccc(S(=O)(=O)[O-])c5F)c5ccc([nH]5)c(-c5cccc(S(=O)(=O)[O-])c5F)c5nc(c(-c6cccc(S(=O)(=O)[O-])c6F)c6ccc3[nH]6)C=C5)C=C4)cc2)S1)c1ccc([N+](=O)[O-])cc1
REMARK SMILES IDX 15 1 14 2 13 3 11 4 12 5 10 6 9 7 4 8 5 9 6 11 85 12 7 13
REMARK SMILES IDX 8 15 3 16 1 17 2 18 86 19 87 20 94 21 88 22 93 23 89 24
REMARK SMILES IDX 90 25 91 26 92 27 16 28 17 29 18 30 19 31 20 32 21 33 22 34
REMARK SMILES IDX 23 35 84 36 24 37 83 38 25 39 26 40 27 41 77 42 28 43 82 44
REMARK SMILES IDX 76 45 78 46 29 47 81 48 75 49 74 50 30 52 62 53 42 54 61 55
REMARK SMILES IDX 43 56 46 57 60 58 79 59 44 60 45 61 59 63 80 64 47 65 31 66
REMARK SMILES IDX 32 67 40 68 33 69 35 70 41 71 34 72 36 73 37 74 38 75 39 76
REMARK SMILES IDX 63 77 64 78 72 79 65 80 67 81 73 82 66 83 68 84 69 85 70 86
REMARK SMILES IDX 71 87 48 88 49 89 57 90 50 91 52 92 58 93 51 94 53 95 54 96
REMARK SMILES IDX 55 97 56 98
REMARK H PARENT 4 10 6 14 78 51 46 62
REMARK Flexibility Score: inf
ROOT
ATOM      1  C   UNL     1      -3.640  -2.962   6.246  1.00  0.00     0.202 C 
ENDROOT
BRANCH   1   2
ATOM      2  C   UNL     1      -4.822  -2.488   5.399  1.00  0.00     0.261 C 
BRANCH   2   3
ATOM      3  O   UNL     1      -4.405  -2.092   4.082  1.00  0.00    -0.463 OA
BRANCH   3   4
ATOM      4  C   UNL     1      -4.308  -0.770   3.829  1.00  0.00     0.307 C 
ATOM      5  O   UNL     1      -4.553   0.126   4.626  1.00  0.00    -0.252 OA
BRANCH   4   6
ATOM      6  C   UNL     1      -3.884  -0.512   2.406  1.00  0.00     0.150 C 
BRANCH   6   7
ATOM      7  C   UNL     1      -2.500  -1.032   2.060  1.00  0.00     0.184 C 
ATOM      8  N   UNL     1      -0.571  -1.807  -1.194  1.00  0.00    -0.142 N 
ATOM      9  C   UNL     1      -1.346  -1.663  -0.172  1.00  0.00     0.337 C 
ATOM     10  H   UNL     1      -0.232  -2.689  -1.472  1.00  0.00     0.343 HD
ATOM     11  N   UNL     1      -1.756  -2.732   0.543  1.00  0.00    -0.202 N 
ATOM     12  S   UNL     1      -1.936  -0.188   0.535  1.00  0.00    -0.020 SA
ATOM     13  C   UNL     1      -2.399  -2.516   1.726  1.00  0.00     0.322 C 
ATOM     14  H   UNL     1      -1.596  -3.647   0.217  1.00  0.00     0.316 HD
ATOM     15  O   UNL     1      -2.733  -3.431   2.465  1.00  0.00    -0.246 OA
BRANCH   8  16
ATOM     16  N   UNL     1      -0.242  -0.640  -1.881  1.00  0.00    -0.090 NA
ATOM     17  C   UNL     1       1.601  -0.327  -0.220  1.00  0.00     0.071 C 
ATOM     18  C   UNL     1       0.795   0.025  -1.458  1.00  0.00     0.088 C 
BRANCH  18  19
ATOM     19  C   UNL     1       1.164   1.276  -2.193  1.00  0.00    -0.000 A 
ATOM     20  C   UNL     1       0.171   1.962  -2.911  1.00  0.00     0.017 A 
ATOM     21  C   UNL     1       2.474   1.771  -2.184  1.00  0.00     0.017 A 
ATOM     22  C   UNL     1       0.477   3.138  -3.604  1.00  0.00     0.086 A 
ATOM     23  C   UNL     1       2.790   2.942  -2.880  1.00  0.00     0.086 A 
ATOM     24  C   UNL     1       1.789   3.624  -3.584  1.00  0.00     0.269 A 
BRANCH  24  25
ATOM     25  N   UNL     1       2.124   4.858  -4.305  1.00  0.00     0.062 N 
ATOM     26  O   UNL     1       1.216   5.431  -4.925  1.00  0.00    -0.258 OA
ATOM     27  O   UNL     1       3.295   5.261  -4.246  1.00  0.00    -0.258 OA
ENDBRANCH  24  25
ENDBRANCH  18  19
ENDBRANCH   8  16
ENDBRANCH   6   7
ENDBRANCH   4   6
ENDBRANCH   3   4
ENDBRANCH   2   3
ENDBRANCH   1   2
BRANCH   1  28
ATOM     28  O   UNL     1      -2.765  -1.934   6.715  1.00  0.00    -0.374 OA
BRANCH  28  29
ATOM     29  C   UNL     1      -1.715  -1.554   5.828  1.00  0.00     0.202 C 
BRANCH  29  30
ATOM     30  C   UNL     1      -0.463  -2.440   5.849  1.00  0.00     0.261 C 
BRANCH  30  31
ATOM     31  O   UNL     1      -0.709  -3.722   5.244  1.00  0.00    -0.460 OA
BRANCH  31  32
ATOM     32  C   UNL     1      -0.865  -4.743   6.117  1.00  0.00     0.338 C 
ATOM     33  O   UNL     1      -0.705  -4.698   7.332  1.00  0.00    -0.246 OA
BRANCH  32  34
ATOM     34  C   UNL     1      -1.447  -5.918   5.441  1.00  0.00     0.060 A 
ATOM     35  C   UNL     1      -2.531  -6.551   6.065  1.00  0.00     0.016 A 
ATOM     36  C   UNL     1      -0.912  -6.434   4.259  1.00  0.00     0.016 A 
ATOM     37  C   UNL     1      -3.043  -7.739   5.548  1.00  0.00     0.010 A 
ATOM     38  C   UNL     1      -1.423  -7.630   3.745  1.00  0.00     0.010 A 
ATOM     39  C   UNL     1      -2.459  -8.310   4.412  1.00  0.00    -0.014 A 
BRANCH  39  40
ATOM     40  C   UNL     1      -2.804  -9.698   4.019  1.00  0.00     0.031 A 
ATOM     41  C   UNL     1      -1.840 -10.802   4.361  1.00  0.00     0.074 A 
ATOM     42  C   UNL     1      -3.944  -9.974   3.361  1.00  0.00     0.049 A 
ATOM     43  N   UNL     1      -1.878 -12.067   4.036  1.00  0.00    -0.248 NA
ATOM     44  C   UNL     1      -0.671 -10.425   5.173  1.00  0.00     0.031 C 
ATOM     45  C   UNL     1      -4.968  -8.998   2.998  1.00  0.00     0.029 A 
ATOM     46  N   UNL     1      -4.412 -11.161   2.855  1.00  0.00    -0.354 N 
ATOM     47  C   UNL     1      -0.722 -12.629   4.565  1.00  0.00     0.074 A 
ATOM     48  C   UNL     1       0.001 -11.565   5.227  1.00  0.00     0.031 C 
ATOM     49  C   UNL     1      -5.930  -9.619   2.293  1.00  0.00     0.029 A 
ATOM     50  C   UNL     1      -5.571 -11.026   2.127  1.00  0.00     0.049 A 
ATOM     51  H   UNL     1      -3.962 -12.025   2.998  1.00  0.00     0.167 HD
ATOM     52  C   UNL     1      -0.303 -13.915   4.513  1.00  0.00     0.034 A 
ATOM     53  C   UNL     1      -6.245 -11.928   1.385  1.00  0.00     0.034 A 
ATOM     54  C   UNL     1      -1.035 -14.973   3.872  1.00  0.00     0.049 A 
ATOM     55  C   UNL     1      -5.741 -13.347   1.312  1.00  0.00     0.074 A 
ATOM     56  C   UNL     1      -0.716 -16.317   3.798  1.00  0.00     0.029 A 
ATOM     57  N   UNL     1      -2.227 -14.806   3.185  1.00  0.00    -0.354 N 
ATOM     58  N   UNL     1      -4.693 -13.883   1.891  1.00  0.00    -0.248 NA
ATOM     59  C   UNL     1      -6.528 -14.294   0.507  1.00  0.00     0.031 C 
ATOM     60  C   UNL     1      -1.698 -16.957   3.036  1.00  0.00     0.029 A 
ATOM     61  C   UNL     1      -2.652 -16.019   2.674  1.00  0.00     0.049 A 
ATOM     62  H   UNL     1      -2.701 -13.950   3.076  1.00  0.00     0.167 HD
ATOM     63  C   UNL     1      -4.724 -15.235   1.563  1.00  0.00     0.074 A 
ATOM     64  C   UNL     1      -5.896 -15.438   0.738  1.00  0.00     0.031 C 
ATOM     65  C   UNL     1      -3.857 -16.218   1.909  1.00  0.00     0.034 A 
BRANCH  52  66
ATOM     66  C   UNL     1       1.006 -14.252   5.176  1.00  0.00     0.023 A 
ATOM     67  C   UNL     1       1.101 -14.258   6.583  1.00  0.00     0.012 A 
ATOM     68  C   UNL     1       2.130 -14.612   4.407  1.00  0.00     0.148 A 
ATOM     69  C   UNL     1       2.303 -14.580   7.212  1.00  0.00     0.002 A 
ATOM     70  C   UNL     1       3.311 -14.978   5.042  1.00  0.00     0.091 A 
ATOM     71  F   UNL     1       2.027 -14.578   3.071  1.00  0.00    -0.205 F 
ATOM     72  C   UNL     1       3.403 -14.950   6.443  1.00  0.00     0.022 A 
BRANCH  70  73
ATOM     73  S   UNL     1       4.757 -15.547   4.141  1.00  0.00     0.127 S 
ATOM     74  O   UNL     1       5.678 -14.426   4.325  1.00  0.00    -0.237 OA
ATOM     75  O   UNL     1       5.119 -16.760   4.876  1.00  0.00    -0.237 OA
ATOM     76  O   UNL     1       4.315 -15.774   2.773  1.00  0.00    -0.744 OA
ENDBRANCH  70  73
ENDBRANCH  52  66
BRANCH  53  77
ATOM     77  C   UNL     1      -7.486 -11.524   0.666  1.00  0.00     0.023 A 
ATOM     78  C   UNL     1      -8.730 -12.035   1.085  1.00  0.00     0.012 A 
ATOM     79  C   UNL     1      -7.442 -10.628  -0.420  1.00  0.00     0.148 A 
ATOM     80  C   UNL     1      -9.903 -11.687   0.415  1.00  0.00     0.002 A 
ATOM     81  C   UNL     1      -8.620 -10.240  -1.046  1.00  0.00     0.091 A 
ATOM     82  F   UNL     1      -6.247 -10.164  -0.812  1.00  0.00    -0.205 F 
ATOM     83  C   UNL     1      -9.850 -10.783  -0.643  1.00  0.00     0.022 A 
BRANCH  81  84
ATOM     84  S   UNL     1      -8.664  -8.988  -2.333  1.00  0.00     0.127 S 
ATOM     85  O   UNL     1      -9.047  -9.774  -3.503  1.00  0.00    -0.237 OA
ATOM     86  O   UNL     1      -9.697  -8.081  -1.834  1.00  0.00    -0.237 OA
ATOM     87  O   UNL     1      -7.326  -8.413  -2.370  1.00  0.00    -0.744 OA
ENDBRANCH  81  84
ENDBRANCH  53  77
BRANCH  65  88
ATOM     88  C   UNL     1      -4.166 -17.626   1.466  1.00  0.00     0.023 A 
ATOM     89  C   UNL     1      -4.003 -17.998   0.118  1.00  0.00     0.012 A 
ATOM     90  C   UNL     1      -4.522 -18.604   2.417  1.00  0.00     0.148 A 
ATOM     91  C   UNL     1      -4.216 -19.318  -0.281  1.00  0.00     0.002 A 
ATOM     92  C   UNL     1      -4.682 -19.926   2.021  1.00  0.00     0.091 A 
ATOM     93  F   UNL     1      -4.688 -18.225   3.692  1.00  0.00    -0.205 F 
ATOM     94  C   UNL     1      -4.542 -20.283   0.670  1.00  0.00     0.022 A 
BRANCH  92  95
ATOM     95  S   UNL     1      -5.000 -21.252   3.191  1.00  0.00     0.127 S 
ATOM     96  O   UNL     1      -6.378 -21.613   2.864  1.00  0.00    -0.237 OA
ATOM     97  O   UNL     1      -4.000 -22.249   2.806  1.00  0.00    -0.237 OA
ATOM     98  O   UNL     1      -4.804 -20.678   4.515  1.00  0.00    -0.744 OA
ENDBRANCH  92  95
ENDBRANCH  65  88
ENDBRANCH  39  40
ENDBRANCH  32  34
ENDBRANCH  31  32
ENDBRANCH  30  31
ENDBRANCH  29  30
ENDBRANCH  28  29
ENDBRANCH   1  28
TORSDOF 21
