REMARK SMILES Cn1ncc(C(=O)OCCOCCOC(=O)c2ccc(-c3c4nc(c(-c5cccc(S(=O)(=O)[O-])c5F)c5ccc([nH]5)c(-c5cccc(S(=O)(=O)[O-])c5F)c5nc(c(-c6cccc(S(=O)(=O)[O-])c6F)c6ccc3[nH]6)C=C5)C=C4)cc2)c1NS(=O)(=O)[C@@H]1CCS(=O)(=O)C1
REMARK SMILES IDX 11 1 10 2 9 3 8 4 6 5 7 6 5 7 1 8 2 9 3 10 80 11 4 12 81 13
REMARK SMILES IDX 82 15 83 16 84 17 85 18 86 19 91 20 87 21 88 22 89 23 90 24
REMARK SMILES IDX 12 25 13 26 14 27 15 28 16 29 17 30 18 31 79 32 19 33 78 34
REMARK SMILES IDX 20 35 21 36 22 37 72 38 23 39 77 40 71 41 73 42 24 43 76 44
REMARK SMILES IDX 70 45 69 46 25 48 57 49 37 50 56 51 38 52 41 53 55 54 74 55
REMARK SMILES IDX 39 56 40 57 54 59 75 60 42 61 26 62 27 63 35 64 28 65 30 66
REMARK SMILES IDX 36 67 29 68 31 69 32 70 33 71 34 72 58 73 59 74 67 75 60 76
REMARK SMILES IDX 62 77 68 78 61 79 63 80 64 81 65 82 66 83 43 84 44 85 52 86
REMARK SMILES IDX 45 87 47 88 53 89 46 90 48 91 49 92 50 93 51 94
REMARK H PARENT 81 14 73 47 41 58
REMARK Flexibility Score: inf
ROOT
ATOM      1  O   UNL     1       5.248  -1.375  -1.942  1.00  0.00    -0.374 OA
ENDROOT
BRANCH   1   2
ATOM      2  C   UNL     1       5.218  -2.435  -0.986  1.00  0.00     0.202 C 
BRANCH   2   3
ATOM      3  C   UNL     1       4.822  -1.958   0.434  1.00  0.00     0.261 C 
BRANCH   3   4
ATOM      4  O   UNL     1       3.393  -1.686   0.509  1.00  0.00    -0.460 OA
BRANCH   4   5
ATOM      5  C   UNL     1       2.909  -0.535   1.034  1.00  0.00     0.343 C 
ATOM      6  O   UNL     1       3.629   0.291   1.579  1.00  0.00    -0.246 OA
BRANCH   5   7
ATOM      7  C   UNL     1       1.512  -0.218   0.669  1.00  0.00     0.123 A 
ATOM      8  C   UNL     1      -2.029   0.211  -0.064  1.00  0.00     0.176 C 
ATOM      9  N   UNL     1      -0.602   0.255   0.184  1.00  0.00    -0.251 N 
ATOM     10  N   UNL     1       0.042   1.377  -0.133  1.00  0.00    -0.179 NA
ATOM     11  C   UNL     1       0.199  -0.746   0.730  1.00  0.00     0.152 A 
ATOM     12  C   UNL     1       1.300   1.105   0.171  1.00  0.00     0.153 A 
BRANCH  11  13
ATOM     13  N   UNL     1      -0.453  -1.870   1.275  1.00  0.00    -0.267 N 
ATOM     14  H   UNL     1      -1.225  -1.634   1.839  1.00  0.00     0.181 HD
BRANCH  13  15
ATOM     15  S   UNL     1      -0.204  -3.481   1.171  1.00  0.00     0.237 S 
ATOM     16  O   UNL     1      -0.379  -4.026   2.497  1.00  0.00    -0.206 OA
ATOM     17  O   UNL     1      -0.986  -3.982   0.061  1.00  0.00    -0.206 OA
BRANCH  15  18
ATOM     18  C   UNL     1       1.469  -3.657   0.747  1.00  0.00     0.145 C 
ATOM     19  C   UNL     1       1.640  -3.351  -0.740  1.00  0.00     0.039 C 
ATOM     20  C   UNL     1       2.085  -4.974   1.114  1.00  0.00     0.158 C 
ATOM     21  C   UNL     1       1.738  -4.629  -1.499  1.00  0.00     0.138 C 
ATOM     22  S   UNL     1       2.172  -5.890  -0.367  1.00  0.00     0.151 S 
ATOM     23  O   UNL     1       1.095  -6.838  -0.375  1.00  0.00    -0.229 OA
ATOM     24  O   UNL     1       3.579  -6.199  -0.538  1.00  0.00    -0.229 OA
ENDBRANCH  15  18
ENDBRANCH  13  15
ENDBRANCH  11  13
ENDBRANCH   5   7
ENDBRANCH   4   5
ENDBRANCH   3   4
ENDBRANCH   2   3
ENDBRANCH   1   2
BRANCH   1  25
ATOM     25  C   UNL     1       4.039  -1.102  -2.648  1.00  0.00     0.202 C 
BRANCH  25  26
ATOM     26  C   UNL     1       3.860  -1.860  -3.981  1.00  0.00     0.261 C 
BRANCH  26  27
ATOM     27  O   UNL     1       3.478  -3.250  -3.832  1.00  0.00    -0.460 OA
BRANCH  27  28
ATOM     28  C   UNL     1       4.381  -4.196  -4.232  1.00  0.00     0.338 C 
ATOM     29  O   UNL     1       5.514  -3.965  -4.622  1.00  0.00    -0.246 OA
BRANCH  28  30
ATOM     30  C   UNL     1       3.869  -5.586  -3.982  1.00  0.00     0.060 A 
ATOM     31  C   UNL     1       4.741  -6.515  -3.398  1.00  0.00     0.016 A 
ATOM     32  C   UNL     1       2.538  -5.970  -4.204  1.00  0.00     0.016 A 
ATOM     33  C   UNL     1       4.285  -7.786  -2.988  1.00  0.00     0.010 A 
ATOM     34  C   UNL     1       2.076  -7.230  -3.754  1.00  0.00     0.010 A 
ATOM     35  C   UNL     1       2.943  -8.160  -3.136  1.00  0.00    -0.014 A 
BRANCH  35  36
ATOM     36  C   UNL     1       2.508  -9.578  -2.874  1.00  0.00     0.031 A 
ATOM     37  C   UNL     1       2.385 -10.479  -4.075  1.00  0.00     0.074 A 
ATOM     38  C   UNL     1       2.248 -10.120  -1.659  1.00  0.00     0.049 A 
ATOM     39  N   UNL     1       2.103 -11.754  -4.130  1.00  0.00    -0.248 NA
ATOM     40  C   UNL     1       2.651  -9.864  -5.386  1.00  0.00     0.031 C 
ATOM     41  C   UNL     1       2.400  -9.458  -0.374  1.00  0.00     0.029 A 
ATOM     42  N   UNL     1       1.766 -11.368  -1.303  1.00  0.00    -0.354 N 
ATOM     43  C   UNL     1       2.181 -12.096  -5.471  1.00  0.00     0.074 A 
ATOM     44  C   UNL     1       2.475 -10.886  -6.205  1.00  0.00     0.031 C 
ATOM     45  C   UNL     1       1.897 -10.226   0.609  1.00  0.00     0.029 A 
ATOM     46  C   UNL     1       1.472 -11.499   0.042  1.00  0.00     0.049 A 
ATOM     47  H   UNL     1       1.642 -12.099  -1.951  1.00  0.00     0.167 HD
ATOM     48  C   UNL     1       2.064 -13.312  -6.049  1.00  0.00     0.034 A 
ATOM     49  C   UNL     1       0.955 -12.525   0.756  1.00  0.00     0.034 A 
ATOM     50  C   UNL     1       1.755 -14.524  -5.348  1.00  0.00     0.049 A 
ATOM     51  C   UNL     1       0.736 -13.853   0.074  1.00  0.00     0.074 A 
ATOM     52  C   UNL     1       1.639 -15.803  -5.862  1.00  0.00     0.029 A 
ATOM     53  N   UNL     1       1.477 -14.609  -3.994  1.00  0.00    -0.354 N 
ATOM     54  N   UNL     1       0.970 -14.185  -1.171  1.00  0.00    -0.248 NA
ATOM     55  C   UNL     1       0.254 -14.969   0.907  1.00  0.00     0.031 C 
ATOM     56  C   UNL     1       1.238 -16.654  -4.829  1.00  0.00     0.029 A 
ATOM     57  C   UNL     1       1.158 -15.914  -3.661  1.00  0.00     0.049 A 
ATOM     58  H   UNL     1       1.501 -13.854  -3.363  1.00  0.00     0.167 HD
ATOM     59  C   UNL     1       0.720 -15.551  -1.257  1.00  0.00     0.074 A 
ATOM     60  C   UNL     1       0.327 -15.990   0.064  1.00  0.00     0.031 C 
ATOM     61  C   UNL     1       0.809 -16.363  -2.338  1.00  0.00     0.034 A 
BRANCH  48  62
ATOM     62  C   UNL     1       2.283 -13.376  -7.533  1.00  0.00     0.023 A 
ATOM     63  C   UNL     1       3.581 -13.207  -8.058  1.00  0.00     0.012 A 
ATOM     64  C   UNL     1       1.203 -13.608  -8.402  1.00  0.00     0.148 A 
ATOM     65  C   UNL     1       3.793 -13.226  -9.435  1.00  0.00     0.002 A 
ATOM     66  C   UNL     1       1.430 -13.675  -9.769  1.00  0.00     0.091 A 
ATOM     67  F   UNL     1      -0.024 -13.736  -7.877  1.00  0.00    -0.205 F 
ATOM     68  C   UNL     1       2.720 -13.469 -10.288  1.00  0.00     0.022 A 
BRANCH  66  69
ATOM     69  S   UNL     1       0.128 -14.049 -10.944  1.00  0.00     0.127 S 
ATOM     70  O   UNL     1       0.025 -12.789 -11.678  1.00  0.00    -0.237 OA
ATOM     71  O   UNL     1       0.714 -15.153 -11.703  1.00  0.00    -0.237 OA
ATOM     72  O   UNL     1      -1.042 -14.403 -10.152  1.00  0.00    -0.744 OA
ENDBRANCH  66  69
ENDBRANCH  48  62
BRANCH  49  73
ATOM     73  C   UNL     1       0.682 -12.392   2.225  1.00  0.00     0.023 A 
ATOM     74  C   UNL     1       1.456 -13.119   3.153  1.00  0.00     0.012 A 
ATOM     75  C   UNL     1      -0.378 -11.595   2.704  1.00  0.00     0.148 A 
ATOM     76  C   UNL     1       1.150 -13.098   4.517  1.00  0.00     0.002 A 
ATOM     77  C   UNL     1      -0.645 -11.536   4.070  1.00  0.00     0.091 A 
ATOM     78  F   UNL     1      -1.117 -10.920   1.813  1.00  0.00    -0.205 F 
ATOM     79  C   UNL     1       0.103 -12.305   4.976  1.00  0.00     0.022 A 
BRANCH  77  80
ATOM     80  S   UNL     1      -1.903 -10.461   4.774  1.00  0.00     0.127 S 
ATOM     81  O   UNL     1      -2.858 -11.424   5.315  1.00  0.00    -0.237 OA
ATOM     82  O   UNL     1      -1.137  -9.722   5.779  1.00  0.00    -0.237 OA
ATOM     83  O   UNL     1      -2.392  -9.643   3.672  1.00  0.00    -0.744 OA
ENDBRANCH  77  80
ENDBRANCH  49  73
BRANCH  61  84
ATOM     84  C   UNL     1       0.514 -17.830  -2.155  1.00  0.00     0.023 A 
ATOM     85  C   UNL     1      -0.805 -18.262  -1.915  1.00  0.00     0.012 A 
ATOM     86  C   UNL     1       1.535 -18.787  -2.319  1.00  0.00     0.148 A 
ATOM     87  C   UNL     1      -1.097 -19.622  -1.811  1.00  0.00     0.002 A 
ATOM     88  C   UNL     1       1.227 -20.141  -2.270  1.00  0.00     0.091 A 
ATOM     89  F   UNL     1       2.787 -18.355  -2.530  1.00  0.00    -0.205 F 
ATOM     90  C   UNL     1      -0.086 -20.560  -2.003  1.00  0.00     0.022 A 
BRANCH  88  91
ATOM     91  S   UNL     1       2.442 -21.420  -2.609  1.00  0.00     0.127 S 
ATOM     92  O   UNL     1       2.599 -22.036  -1.293  1.00  0.00    -0.237 OA
ATOM     93  O   UNL     1       1.748 -22.250  -3.594  1.00  0.00    -0.237 OA
ATOM     94  O   UNL     1       3.621 -20.732  -3.119  1.00  0.00    -0.744 OA
ENDBRANCH  88  91
ENDBRANCH  61  84
ENDBRANCH  35  36
ENDBRANCH  28  30
ENDBRANCH  27  28
ENDBRANCH  26  27
ENDBRANCH  25  26
ENDBRANCH   1  25
TORSDOF 20
