REMARK SMILES NS(=O)(=O)c1ccc(-n2nc(C(=O)NCCCCCCCCCCC(=O)OCCOCCOC(=O)c3ccc(-c4c5nc(c(-c6cccc(S(=O)(=O)[O-])c6F)c6ccc([nH]6)c(-c6cccc(S(=O)(=O)[O-])c6F)c6nc(c(-c7cccc(S(=O)(=O)[O-])c7F)c7ccc4[nH]7)C=C6)C=C5)cc3)cc2-c2ccccc2)cc1
REMARK SMILES IDX 23 1 22 2 21 3 20 4 19 5 18 6 17 7 16 8 15 9 14 10 12 11
REMARK SMILES IDX 13 12 11 14 9 15 10 16 100 17 99 18 8 19 5 20 6 21 108 22
REMARK SMILES IDX 7 23 107 24 2 25 3 26 4 27 1 28 101 31 102 32 106 33 103 34
REMARK SMILES IDX 105 35 104 36 24 37 25 38 26 39 27 40 28 41 29 42 30 43
REMARK SMILES IDX 31 44 32 45 33 46 34 47 35 48 36 49 37 50 98 51 38 52 97 53
REMARK SMILES IDX 39 54 40 55 41 56 91 57 42 58 96 59 90 60 92 61 43 62 95 63
REMARK SMILES IDX 89 64 88 65 44 67 76 68 56 69 75 70 57 71 60 72 74 73 93 74
REMARK SMILES IDX 58 75 59 76 73 78 94 79 61 80 45 81 46 82 54 83 47 84 49 85
REMARK SMILES IDX 55 86 48 87 50 88 51 89 52 90 53 91 77 92 78 93 86 94 79 95
REMARK SMILES IDX 81 96 87 97 80 98 82 99 83 100 84 101 85 102 62 103 63 104
REMARK SMILES IDX 71 105 64 106 66 107 72 108 65 109 67 110 68 111 69 112
REMARK SMILES IDX 70 113
REMARK H PARENT 14 13 1 29 1 30 92 66 60 77
REMARK Flexibility Score: inf
ROOT
ATOM      1  C   UNL     1       6.020 -15.939   6.663  1.00  0.00     0.012 C 
ENDROOT
BRANCH   1   2
ATOM      2  C   UNL     1       5.112 -15.256   7.689  1.00  0.00     0.001 C 
BRANCH   2   3
ATOM      3  C   UNL     1       5.618 -13.893   8.150  1.00  0.00     0.000 C 
BRANCH   3   4
ATOM      4  C   UNL     1       5.559 -12.847   7.036  1.00  0.00     0.000 C 
BRANCH   4   5
ATOM      5  C   UNL     1       4.135 -12.592   6.532  1.00  0.00     0.000 C 
BRANCH   5   6
ATOM      6  C   UNL     1       3.177 -12.139   7.640  1.00  0.00     0.000 C 
BRANCH   6   7
ATOM      7  C   UNL     1       3.566 -10.793   8.264  1.00  0.00     0.002 C 
BRANCH   7   8
ATOM      8  C   UNL     1       3.622  -9.654   7.241  1.00  0.00     0.021 C 
BRANCH   8   9
ATOM      9  C   UNL     1       2.239  -9.375   6.648  1.00  0.00     0.116 C 
BRANCH   9  10
ATOM     10  N   UNL     1       1.577  -8.372   7.450  1.00  0.00    -0.351 N 
ATOM     11  C   UNL     1       1.485  -7.009   7.323  1.00  0.00     0.271 C 
ATOM     12  O   UNL     1       0.992  -6.399   8.275  1.00  0.00    -0.267 OA
ATOM     13  H   UNL     1       1.103  -8.734   8.233  1.00  0.00     0.163 HD
BRANCH  11  14
ATOM     14  C   UNL     1       1.912  -6.320   6.087  1.00  0.00     0.151 A 
ATOM     15  N   UNL     1       1.775  -4.822   4.561  1.00  0.00    -0.232 N 
ATOM     16  N   UNL     1       1.516  -5.050   5.863  1.00  0.00    -0.162 NA
ATOM     17  C   UNL     1       2.586  -5.800   4.013  1.00  0.00     0.075 A 
ATOM     18  C   UNL     1       2.740  -6.735   5.014  1.00  0.00     0.065 A 
BRANCH  15  19
ATOM     19  C   UNL     1       1.305  -3.641   3.943  1.00  0.00     0.065 A 
ATOM     20  C   UNL     1       0.648  -1.273   2.664  1.00  0.00     0.082 A 
ATOM     21  C   UNL     1       0.504  -2.485   1.982  1.00  0.00     0.024 A 
ATOM     22  C   UNL     1       1.065  -1.241   3.999  1.00  0.00     0.024 A 
ATOM     23  C   UNL     1       0.846  -3.673   2.620  1.00  0.00     0.030 A 
ATOM     24  C   UNL     1       1.362  -2.435   4.654  1.00  0.00     0.030 A 
BRANCH  20  25
ATOM     25  S   UNL     1       0.387   0.239   1.796  1.00  0.00     0.238 S 
ATOM     26  O   UNL     1       1.167   1.289   2.413  1.00  0.00    -0.207 OA
ATOM     27  O   UNL     1      -1.018   0.382   1.500  1.00  0.00    -0.207 OA
BRANCH  25  28
ATOM     28  N   UNL     1       1.148  -0.042   0.321  1.00  0.00    -0.225 NA
ATOM     29  H   UNL     1       1.057   0.783  -0.271  1.00  0.00     0.137 HD
ATOM     30  H   UNL     1       0.712  -0.841  -0.139  1.00  0.00     0.137 HD
ENDBRANCH  25  28
ENDBRANCH  20  25
ENDBRANCH  15  19
BRANCH  17  31
ATOM     31  C   UNL     1       3.212  -5.763   2.698  1.00  0.00     0.000 A 
ATOM     32  C   UNL     1       4.148  -4.769   2.387  1.00  0.00     0.010 A 
ATOM     33  C   UNL     1       2.884  -6.725   1.736  1.00  0.00     0.010 A 
ATOM     34  C   UNL     1       4.733  -4.725   1.121  1.00  0.00     0.001 A 
ATOM     35  C   UNL     1       3.467  -6.677   0.469  1.00  0.00     0.001 A 
ATOM     36  C   UNL     1       4.389  -5.676   0.162  1.00  0.00     0.000 A 
ENDBRANCH  17  31
ENDBRANCH  11  14
ENDBRANCH   9  10
ENDBRANCH   8   9
ENDBRANCH   7   8
ENDBRANCH   6   7
ENDBRANCH   5   6
ENDBRANCH   4   5
ENDBRANCH   3   4
ENDBRANCH   2   3
ENDBRANCH   1   2
BRANCH   1  37
ATOM     37  C   UNL     1       7.508 -16.025   7.030  1.00  0.00     0.123 C 
BRANCH  37  38
ATOM     38  C   UNL     1       7.898 -16.825   8.259  1.00  0.00     0.305 C 
ATOM     39  O   UNL     1       9.038 -17.231   8.446  1.00  0.00    -0.252 OA
BRANCH  38  40
ATOM     40  O   UNL     1       6.854 -17.044   9.088  1.00  0.00    -0.463 OA
BRANCH  40  41
ATOM     41  C   UNL     1       7.028 -17.996  10.149  1.00  0.00     0.261 C 
BRANCH  41  42
ATOM     42  C   UNL     1       6.121 -19.200   9.905  1.00  0.00     0.202 C 
BRANCH  42  43
ATOM     43  O   UNL     1       6.513 -20.078   8.845  1.00  0.00    -0.374 OA
BRANCH  43  44
ATOM     44  C   UNL     1       6.263 -19.681   7.498  1.00  0.00     0.202 C 
BRANCH  44  45
ATOM     45  C   UNL     1       4.844 -19.863   6.971  1.00  0.00     0.261 C 
BRANCH  45  46
ATOM     46  O   UNL     1       3.942 -19.018   7.665  1.00  0.00    -0.460 OA
BRANCH  46  47
ATOM     47  C   UNL     1       3.284 -19.611   8.693  1.00  0.00     0.338 C 
ATOM     48  O   UNL     1       3.433 -20.730   9.118  1.00  0.00    -0.246 OA
BRANCH  47  49
ATOM     49  C   UNL     1       2.257 -18.664   9.157  1.00  0.00     0.060 A 
ATOM     50  C   UNL     1       1.242 -19.226   9.928  1.00  0.00     0.016 A 
ATOM     51  C   UNL     1       2.125 -17.416   8.530  1.00  0.00     0.016 A 
ATOM     52  C   UNL     1      -0.016 -18.706   9.780  1.00  0.00     0.010 A 
ATOM     53  C   UNL     1       0.871 -16.894   8.382  1.00  0.00     0.010 A 
ATOM     54  C   UNL     1      -0.183 -17.632   8.901  1.00  0.00    -0.014 A 
BRANCH  54  55
ATOM     55  C   UNL     1      -1.524 -17.330   8.477  1.00  0.00     0.031 A 
ATOM     56  C   UNL     1      -2.284 -16.575   9.485  1.00  0.00     0.074 A 
ATOM     57  C   UNL     1      -1.954 -17.675   7.250  1.00  0.00     0.049 A 
ATOM     58  N   UNL     1      -3.291 -16.986  10.178  1.00  0.00    -0.248 NA
ATOM     59  C   UNL     1      -1.726 -15.286   9.917  1.00  0.00     0.031 C 
ATOM     60  C   UNL     1      -1.166 -18.157   6.110  1.00  0.00     0.029 A 
ATOM     61  N   UNL     1      -3.189 -17.503   6.720  1.00  0.00    -0.354 N 
ATOM     62  C   UNL     1      -3.629 -15.909  10.986  1.00  0.00     0.074 A 
ATOM     63  C   UNL     1      -2.514 -15.001  10.952  1.00  0.00     0.031 C 
ATOM     64  C   UNL     1      -1.880 -17.965   4.977  1.00  0.00     0.029 A 
ATOM     65  C   UNL     1      -3.197 -17.465   5.334  1.00  0.00     0.049 A 
ATOM     66  H   UNL     1      -4.003 -17.414   7.267  1.00  0.00     0.167 HD
ATOM     67  C   UNL     1      -4.905 -15.715  11.409  1.00  0.00     0.034 A 
ATOM     68  C   UNL     1      -4.172 -16.912   4.572  1.00  0.00     0.034 A 
ATOM     69  C   UNL     1      -5.705 -16.900  11.246  1.00  0.00     0.049 A 
ATOM     70  C   UNL     1      -5.391 -16.817   5.418  1.00  0.00     0.074 A 
ATOM     71  C   UNL     1      -5.644 -18.185  11.746  1.00  0.00     0.029 A 
ATOM     72  N   UNL     1      -6.523 -16.956  10.142  1.00  0.00    -0.354 N 
ATOM     73  N   UNL     1      -6.031 -17.858   5.875  1.00  0.00    -0.248 NA
ATOM     74  C   UNL     1      -5.622 -15.577   6.145  1.00  0.00     0.031 C 
ATOM     75  C   UNL     1      -6.043 -19.020  10.662  1.00  0.00     0.029 A 
ATOM     76  C   UNL     1      -6.375 -18.199   9.581  1.00  0.00     0.049 A 
ATOM     77  H   UNL     1      -7.109 -16.236   9.815  1.00  0.00     0.167 HD
ATOM     78  C   UNL     1      -6.372 -17.517   7.180  1.00  0.00     0.074 A 
ATOM     79  C   UNL     1      -6.189 -16.067   7.252  1.00  0.00     0.031 C 
ATOM     80  C   UNL     1      -6.472 -18.464   8.160  1.00  0.00     0.034 A 
BRANCH  67  81
ATOM     81  C   UNL     1      -5.516 -14.361  11.642  1.00  0.00     0.023 A 
ATOM     82  C   UNL     1      -6.769 -14.317  12.286  1.00  0.00     0.012 A 
ATOM     83  C   UNL     1      -5.054 -13.163  11.049  1.00  0.00     0.148 A 
ATOM     84  C   UNL     1      -7.537 -13.148  12.308  1.00  0.00     0.002 A 
ATOM     85  C   UNL     1      -5.778 -11.983  11.152  1.00  0.00     0.091 A 
ATOM     86  F   UNL     1      -3.980 -13.174  10.253  1.00  0.00    -0.205 F 
ATOM     87  C   UNL     1      -7.036 -11.976  11.753  1.00  0.00     0.022 A 
BRANCH  85  88
ATOM     88  S   UNL     1      -5.134 -10.440  10.495  1.00  0.00     0.127 S 
ATOM     89  O   UNL     1      -5.901 -10.307   9.260  1.00  0.00    -0.237 OA
ATOM     90  O   UNL     1      -5.488  -9.494  11.554  1.00  0.00    -0.237 OA
ATOM     91  O   UNL     1      -3.700 -10.655  10.344  1.00  0.00    -0.744 OA
ENDBRANCH  85  88
ENDBRANCH  67  81
BRANCH  68  92
ATOM     92  C   UNL     1      -4.000 -16.129   3.324  1.00  0.00     0.023 A 
ATOM     93  C   UNL     1      -5.100 -15.920   2.471  1.00  0.00     0.012 A 
ATOM     94  C   UNL     1      -2.827 -15.372   3.091  1.00  0.00     0.148 A 
ATOM     95  C   UNL     1      -5.038 -14.979   1.433  1.00  0.00     0.002 A 
ATOM     96  C   UNL     1      -2.763 -14.454   2.049  1.00  0.00     0.091 A 
ATOM     97  F   UNL     1      -1.806 -15.473   3.951  1.00  0.00    -0.205 F 
ATOM     98  C   UNL     1      -3.872 -14.246   1.222  1.00  0.00     0.022 A 
BRANCH  96  99
ATOM     99  S   UNL     1      -1.283 -13.478   1.739  1.00  0.00     0.127 S 
ATOM    100  O   UNL     1      -1.152 -13.571   0.284  1.00  0.00    -0.237 OA
ATOM    101  O   UNL     1      -1.674 -12.162   2.235  1.00  0.00    -0.237 OA
ATOM    102  O   UNL     1      -0.210 -14.137   2.474  1.00  0.00    -0.744 OA
ENDBRANCH  96  99
ENDBRANCH  68  92
BRANCH  80 103
ATOM    103  C   UNL     1      -6.396 -19.919   7.754  1.00  0.00     0.023 A 
ATOM    104  C   UNL     1      -5.235 -20.474   7.173  1.00  0.00     0.012 A 
ATOM    105  C   UNL     1      -7.431 -20.783   8.147  1.00  0.00     0.148 A 
ATOM    106  C   UNL     1      -5.117 -21.851   6.969  1.00  0.00     0.002 A 
ATOM    107  C   UNL     1      -7.291 -22.157   7.988  1.00  0.00     0.091 A 
ATOM    108  F   UNL     1      -8.526 -20.247   8.707  1.00  0.00    -0.205 F 
ATOM    109  C   UNL     1      -6.140 -22.695   7.390  1.00  0.00     0.022 A 
BRANCH 107 110
ATOM    110  S   UNL     1      -8.509 -23.304   8.636  1.00  0.00     0.127 S 
ATOM    111  O   UNL     1      -9.218 -23.713   7.426  1.00  0.00    -0.237 OA
ATOM    112  O   UNL     1      -7.674 -24.346   9.238  1.00  0.00    -0.237 OA
ATOM    113  O   UNL     1      -9.296 -22.546   9.601  1.00  0.00    -0.744 OA
ENDBRANCH 107 110
ENDBRANCH  80 103
ENDBRANCH  54  55
ENDBRANCH  47  49
ENDBRANCH  46  47
ENDBRANCH  45  46
ENDBRANCH  44  45
ENDBRANCH  43  44
ENDBRANCH  42  43
ENDBRANCH  41  42
ENDBRANCH  40  41
ENDBRANCH  38  40
ENDBRANCH  37  38
ENDBRANCH   1  37
TORSDOF 32
