REMARK SMILES CNC(=O)CCCn1cc(C(=O)OCCOCCOC(=O)c2ccc(-c3c4nc(c(-c5cccc(S(=O)(=O)[O-])c5F)c5ccc([nH]5)c(-c5cccc(S(=O)(=O)[O-])c5F)c5nc(c(-c6cccc(S(=O)(=O)[O-])c6F)c6ccc3[nH]6)C=C5)C=C4)cc2)cc1Br
REMARK SMILES IDX 15 1 14 2 13 3 11 4 12 5 10 6 8 7 9 8 86 9 85 10 87 11 7 12
REMARK SMILES IDX 6 13 5 14 3 15 1 16 2 17 4 19 16 20 17 21 18 22 19 23 20 24
REMARK SMILES IDX 21 25 22 26 23 27 84 28 24 29 83 30 25 31 26 32 27 33 77 34
REMARK SMILES IDX 28 35 82 36 76 37 78 38 29 39 81 40 75 41 74 42 30 44 62 45
REMARK SMILES IDX 42 46 61 47 43 48 46 49 60 50 79 51 44 52 45 53 59 55 80 56
REMARK SMILES IDX 47 57 31 58 32 59 40 60 33 61 35 62 41 63 34 64 36 65 37 66
REMARK SMILES IDX 38 67 39 68 63 69 64 70 72 71 65 72 67 73 73 74 66 75 68 76
REMARK SMILES IDX 69 77 70 78 71 79 48 80 49 81 57 82 50 83 52 84 58 85 51 86
REMARK SMILES IDX 53 87 54 88 55 89 56 90
REMARK H PARENT 2 18 78 43 46 54
REMARK Flexibility Score: inf
ROOT
ATOM      1  C   UNL     1      -4.514   4.322  -0.397  1.00  0.00     0.202 C 
ENDROOT
BRANCH   1   2
ATOM      2  C   UNL     1      -3.541   3.539  -1.281  1.00  0.00     0.261 C 
BRANCH   2   3
ATOM      3  O   UNL     1      -2.524   2.884  -0.513  1.00  0.00    -0.460 OA
BRANCH   3   4
ATOM      4  C   UNL     1      -1.293   3.476  -0.564  1.00  0.00     0.339 C 
ATOM      5  O   UNL     1      -0.975   4.366  -1.332  1.00  0.00    -0.246 OA
BRANCH   4   6
ATOM      6  C   UNL     1      -0.404   2.999   0.493  1.00  0.00     0.078 A 
ATOM      7  N   UNL     1       0.629   1.650   1.954  1.00  0.00    -0.341 N 
ATOM      8  C   UNL     1      -0.539   1.854   1.260  1.00  0.00     0.102 A 
ATOM      9  C   UNL     1       1.342   2.830   1.905  1.00  0.00     0.085 A 
ATOM     10  C   UNL     1       0.749   3.665   0.989  1.00  0.00     0.051 A 
ATOM     11  Br  UNL     1       2.919   3.252   2.816  1.00  0.00    -0.031 Br
BRANCH   7  12
ATOM     12  C   UNL     1       1.197   0.381   2.390  1.00  0.00     0.123 C 
BRANCH  12  13
ATOM     13  C   UNL     1       0.316  -0.808   2.782  1.00  0.00     0.032 C 
BRANCH  13  14
ATOM     14  C   UNL     1      -0.636  -1.458   1.776  1.00  0.00     0.102 C 
BRANCH  14  15
ATOM     15  C   UNL     1      -0.078  -2.352   0.683  1.00  0.00     0.219 C 
ATOM     16  C   UNL     1       0.871  -0.554  -0.871  1.00  0.00     0.142 C 
ATOM     17  N   UNL     1       0.519  -1.878  -0.437  1.00  0.00    -0.359 N 
ATOM     18  H   UNL     1       0.760  -2.581  -1.082  1.00  0.00     0.163 HD
ATOM     19  O   UNL     1      -0.218  -3.576   0.745  1.00  0.00    -0.275 OA
ENDBRANCH  14  15
ENDBRANCH  13  14
ENDBRANCH  12  13
ENDBRANCH   7  12
ENDBRANCH   4   6
ENDBRANCH   3   4
ENDBRANCH   2   3
ENDBRANCH   1   2
BRANCH   1  20
ATOM     20  O   UNL     1      -3.995   5.396   0.389  1.00  0.00    -0.374 OA
BRANCH  20  21
ATOM     21  C   UNL     1      -3.173   5.122   1.519  1.00  0.00     0.202 C 
BRANCH  21  22
ATOM     22  C   UNL     1      -3.766   4.417   2.727  1.00  0.00     0.261 C 
BRANCH  22  23
ATOM     23  O   UNL     1      -4.392   3.190   2.400  1.00  0.00    -0.460 OA
BRANCH  23  24
ATOM     24  C   UNL     1      -5.742   3.282   2.385  1.00  0.00     0.338 C 
ATOM     25  O   UNL     1      -6.408   4.277   2.156  1.00  0.00    -0.246 OA
BRANCH  24  26
ATOM     26  C   UNL     1      -6.295   2.033   2.903  1.00  0.00     0.060 A 
ATOM     27  C   UNL     1      -7.684   1.981   3.030  1.00  0.00     0.016 A 
ATOM     28  C   UNL     1      -5.446   1.104   3.523  1.00  0.00     0.016 A 
ATOM     29  C   UNL     1      -8.216   1.107   3.945  1.00  0.00     0.010 A 
ATOM     30  C   UNL     1      -5.976   0.252   4.456  1.00  0.00     0.010 A 
ATOM     31  C   UNL     1      -7.346   0.313   4.700  1.00  0.00    -0.014 A 
BRANCH  31  32
ATOM     32  C   UNL     1      -7.931  -0.658   5.598  1.00  0.00     0.031 A 
ATOM     33  C   UNL     1      -8.525  -1.762   4.812  1.00  0.00     0.074 A 
ATOM     34  C   UNL     1      -7.810  -0.570   6.936  1.00  0.00     0.049 A 
ATOM     35  N   UNL     1      -9.781  -1.960   4.574  1.00  0.00    -0.248 NA
ATOM     36  C   UNL     1      -7.630  -2.550   3.942  1.00  0.00     0.031 C 
ATOM     37  C   UNL     1      -6.982   0.390   7.676  1.00  0.00     0.029 A 
ATOM     38  N   UNL     1      -8.269  -1.396   7.918  1.00  0.00    -0.354 N 
ATOM     39  C   UNL     1      -9.800  -3.134   3.824  1.00  0.00     0.074 A 
ATOM     40  C   UNL     1      -8.514  -3.219   3.199  1.00  0.00     0.031 C 
ATOM     41  C   UNL     1      -6.786  -0.071   8.932  1.00  0.00     0.029 A 
ATOM     42  C   UNL     1      -7.561  -1.285   9.116  1.00  0.00     0.049 A 
ATOM     43  H   UNL     1      -9.027  -2.012   7.795  1.00  0.00     0.167 HD
ATOM     44  C   UNL     1     -10.641  -4.137   4.204  1.00  0.00     0.034 A 
ATOM     45  C   UNL     1      -7.550  -2.180  10.137  1.00  0.00     0.034 A 
ATOM     46  C   UNL     1     -11.675  -3.603   5.064  1.00  0.00     0.049 A 
ATOM     47  C   UNL     1      -8.762  -3.014   9.999  1.00  0.00     0.074 A 
ATOM     48  C   UNL     1     -12.735  -2.730   4.954  1.00  0.00     0.029 A 
ATOM     49  N   UNL     1     -11.346  -3.683   6.391  1.00  0.00    -0.354 N 
ATOM     50  N   UNL     1      -9.969  -2.551  10.173  1.00  0.00    -0.248 NA
ATOM     51  C   UNL     1      -8.674  -4.292   9.301  1.00  0.00     0.031 C 
ATOM     52  C   UNL     1     -12.951  -2.203   6.263  1.00  0.00     0.029 A 
ATOM     53  C   UNL     1     -12.062  -2.809   7.150  1.00  0.00     0.049 A 
ATOM     54  H   UNL     1     -10.670  -4.300   6.754  1.00  0.00     0.167 HD
ATOM     55  C   UNL     1     -10.708  -3.200   9.200  1.00  0.00     0.074 A 
ATOM     56  C   UNL     1      -9.927  -4.380   8.846  1.00  0.00     0.031 C 
ATOM     57  C   UNL     1     -11.684  -2.533   8.519  1.00  0.00     0.034 A 
BRANCH  44  58
ATOM     58  C   UNL     1     -10.219  -5.605   4.370  1.00  0.00     0.023 A 
ATOM     59  C   UNL     1     -11.209  -6.476   4.885  1.00  0.00     0.012 A 
ATOM     60  C   UNL     1      -8.890  -6.097   4.385  1.00  0.00     0.148 A 
ATOM     61  C   UNL     1     -10.885  -7.704   5.474  1.00  0.00     0.002 A 
ATOM     62  C   UNL     1      -8.573  -7.330   4.944  1.00  0.00     0.091 A 
ATOM     63  F   UNL     1      -7.882  -5.361   3.928  1.00  0.00    -0.205 F 
ATOM     64  C   UNL     1      -9.563  -8.126   5.518  1.00  0.00     0.022 A 
BRANCH  62  65
ATOM     65  S   UNL     1      -6.872  -7.920   5.038  1.00  0.00     0.127 S 
ATOM     66  O   UNL     1      -6.671  -7.984   6.483  1.00  0.00    -0.237 OA
ATOM     67  O   UNL     1      -6.976  -9.212   4.363  1.00  0.00    -0.237 OA
ATOM     68  O   UNL     1      -6.062  -6.932   4.336  1.00  0.00    -0.744 OA
ENDBRANCH  62  65
ENDBRANCH  44  58
BRANCH  45  69
ATOM     69  C   UNL     1      -6.481  -2.536  11.106  1.00  0.00     0.023 A 
ATOM     70  C   UNL     1      -6.809  -3.276  12.263  1.00  0.00     0.012 A 
ATOM     71  C   UNL     1      -5.117  -2.414  10.766  1.00  0.00     0.148 A 
ATOM     72  C   UNL     1      -5.819  -3.917  13.021  1.00  0.00     0.002 A 
ATOM     73  C   UNL     1      -4.135  -3.045  11.526  1.00  0.00     0.091 A 
ATOM     74  F   UNL     1      -4.785  -1.758   9.648  1.00  0.00    -0.205 F 
ATOM     75  C   UNL     1      -4.484  -3.812  12.645  1.00  0.00     0.022 A 
BRANCH  73  76
ATOM     76  S   UNL     1      -2.392  -2.970  11.089  1.00  0.00     0.127 S 
ATOM     77  O   UNL     1      -1.777  -2.589  12.361  1.00  0.00    -0.237 OA
ATOM     78  O   UNL     1      -2.125  -4.342  10.667  1.00  0.00    -0.237 OA
ATOM     79  O   UNL     1      -2.285  -1.956  10.046  1.00  0.00    -0.744 OA
ENDBRANCH  73  76
ENDBRANCH  45  69
BRANCH  57  80
ATOM     80  C   UNL     1     -12.315  -1.351   9.188  1.00  0.00     0.023 A 
ATOM     81  C   UNL     1     -11.631  -0.152   9.466  1.00  0.00     0.012 A 
ATOM     82  C   UNL     1     -13.689  -1.439   9.461  1.00  0.00     0.148 A 
ATOM     83  C   UNL     1     -12.311   0.933  10.028  1.00  0.00     0.002 A 
ATOM     84  C   UNL     1     -14.369  -0.346   9.973  1.00  0.00     0.091 A 
ATOM     85  F   UNL     1     -14.313  -2.597   9.198  1.00  0.00    -0.205 F 
ATOM     86  C   UNL     1     -13.682   0.841  10.269  1.00  0.00     0.022 A 
BRANCH  84  87
ATOM     87  S   UNL     1     -16.146  -0.385  10.194  1.00  0.00     0.127 S 
ATOM     88  O   UNL     1     -16.270  -0.527  11.643  1.00  0.00    -0.237 OA
ATOM     89  O   UNL     1     -16.556   0.918   9.668  1.00  0.00    -0.237 OA
ATOM     90  O   UNL     1     -16.623  -1.517   9.408  1.00  0.00    -0.744 OA
ENDBRANCH  84  87
ENDBRANCH  57  80
ENDBRANCH  31  32
ENDBRANCH  24  26
ENDBRANCH  23  24
ENDBRANCH  22  23
ENDBRANCH  21  22
ENDBRANCH  20  21
ENDBRANCH   1  20
TORSDOF 21
