REMARK SMILES C[C@]1(C(=O)NCc2ccc(C(=O)OCCOCCOC(=O)c3ccc(-c4c5nc(c(-c6cccc(S(=O)(=O)[O-])c6F)c6ccc([nH]6)c(-c6cccc(S(=O)(=O)[O-])c6F)c6nc(c(-c7cccc(S(=O)(=O)[O-])c7F)c7ccc4[nH]7)C=C6)C=C5)cc3)o2)CCC[NH2+]C1
REMARK SMILES IDX 16 1 15 2 14 3 13 4 11 5 12 6 10 7 7 8 8 9 85 10 9 11 6 12
REMARK SMILES IDX 5 13 3 14 4 15 2 17 1 18 86 19 90 20 87 21 89 22 88 23 17 26
REMARK SMILES IDX 18 27 19 28 20 29 21 30 22 31 23 32 84 33 24 34 83 35 25 36
REMARK SMILES IDX 26 37 27 38 77 39 28 40 82 41 76 42 78 43 29 44 81 45 75 46
REMARK SMILES IDX 74 47 30 49 62 50 42 51 61 52 43 53 46 54 60 55 79 56 44 57
REMARK SMILES IDX 45 58 59 60 80 61 47 62 31 63 32 64 40 65 33 66 35 67 41 68
REMARK SMILES IDX 34 69 36 70 37 71 38 72 39 73 63 74 64 75 72 76 65 77 67 78
REMARK SMILES IDX 73 79 66 80 68 81 69 82 70 83 71 84 48 85 49 86 57 87 50 88
REMARK SMILES IDX 52 89 58 90 51 91 53 92 54 93 55 94 56 95
REMARK H PARENT 5 16 89 24 89 25 78 48 46 59
REMARK Flexibility Score: inf
ROOT
ATOM      1  O   UNL     1      -2.604  -5.754  -3.676  1.00  0.00    -0.374 OA
ENDROOT
BRANCH   1   2
ATOM      2  C   UNL     1      -2.236  -7.114  -3.431  1.00  0.00     0.202 C 
BRANCH   2   3
ATOM      3  C   UNL     1      -0.761  -7.299  -3.062  1.00  0.00     0.261 C 
BRANCH   3   4
ATOM      4  O   UNL     1      -0.508  -6.742  -1.762  1.00  0.00    -0.457 OA
BRANCH   4   5
ATOM      5  C   UNL     1       0.228  -5.596  -1.735  1.00  0.00     0.374 C 
ATOM      6  O   UNL     1       0.834  -5.127  -2.692  1.00  0.00    -0.242 OA
BRANCH   5   7
ATOM      7  C   UNL     1       0.083  -4.968  -0.442  1.00  0.00     0.211 A 
ATOM      8  C   UNL     1       0.086  -3.231   0.919  1.00  0.00     0.124 A 
ATOM      9  C   UNL     1      -0.403  -4.295   1.649  1.00  0.00     0.048 A 
ATOM     10  O   UNL     1       0.404  -3.641  -0.340  1.00  0.00    -0.452 OA
ATOM     11  C   UNL     1      -0.414  -5.408   0.773  1.00  0.00     0.058 A 
BRANCH   8  12
ATOM     12  C   UNL     1       0.229  -1.784   1.223  1.00  0.00     0.191 C 
BRANCH  12  13
ATOM     13  N   UNL     1       1.266  -1.179   0.420  1.00  0.00    -0.348 N 
ATOM     14  C   UNL     1       1.546   0.097   0.063  1.00  0.00     0.232 C 
ATOM     15  O   UNL     1       2.708   0.275  -0.336  1.00  0.00    -0.274 OA
ATOM     16  H   UNL     1       1.906  -1.833   0.055  1.00  0.00     0.163 HD
BRANCH  14  17
ATOM     17  C   UNL     1       0.516   1.249  -0.072  1.00  0.00     0.095 C 
ATOM     18  C   UNL     1       0.199   1.301  -1.586  1.00  0.00     0.028 C 
ATOM     19  C   UNL     1      -0.825   1.204   0.677  1.00  0.00     0.028 C 
ATOM     20  C   UNL     1       1.218   2.577   0.332  1.00  0.00     0.277 C 
ATOM     21  C   UNL     1      -0.650   1.380   2.182  1.00  0.00     0.063 C 
ATOM     22  N   UNL     1       1.364   2.734   1.789  1.00  0.00    -0.345 N 
ATOM     23  C   UNL     1       0.081   2.683   2.483  1.00  0.00     0.260 C 
ATOM     24  H   UNL     1       1.957   1.983   2.142  1.00  0.00     0.346 HD
ATOM     25  H   UNL     1       1.778   3.649   1.964  1.00  0.00     0.346 HD
ENDBRANCH  14  17
ENDBRANCH  12  13
ENDBRANCH   8  12
ENDBRANCH   5   7
ENDBRANCH   4   5
ENDBRANCH   3   4
ENDBRANCH   2   3
ENDBRANCH   1   2
BRANCH   1  26
ATOM     26  C   UNL     1      -3.072  -5.022  -2.539  1.00  0.00     0.202 C 
BRANCH  26  27
ATOM     27  C   UNL     1      -4.567  -5.192  -2.248  1.00  0.00     0.261 C 
BRANCH  27  28
ATOM     28  O   UNL     1      -4.835  -6.489  -1.683  1.00  0.00    -0.460 OA
BRANCH  28  29
ATOM     29  C   UNL     1      -5.470  -7.360  -2.503  1.00  0.00     0.338 C 
ATOM     30  O   UNL     1      -5.923  -7.130  -3.612  1.00  0.00    -0.246 OA
BRANCH  29  31
ATOM     31  C   UNL     1      -5.386  -8.722  -1.935  1.00  0.00     0.060 A 
ATOM     32  C   UNL     1      -5.010  -9.761  -2.797  1.00  0.00     0.016 A 
ATOM     33  C   UNL     1      -5.692  -8.989  -0.598  1.00  0.00     0.016 A 
ATOM     34  C   UNL     1      -4.975 -11.075  -2.334  1.00  0.00     0.010 A 
ATOM     35  C   UNL     1      -5.661 -10.309  -0.138  1.00  0.00     0.010 A 
ATOM     36  C   UNL     1      -5.330 -11.362  -1.010  1.00  0.00    -0.014 A 
BRANCH  36  37
ATOM     37  C   UNL     1      -5.457 -12.770  -0.563  1.00  0.00     0.031 A 
ATOM     38  C   UNL     1      -6.823 -13.392  -0.473  1.00  0.00     0.074 A 
ATOM     39  C   UNL     1      -4.367 -13.481  -0.223  1.00  0.00     0.049 A 
ATOM     40  N   UNL     1      -7.160 -14.592  -0.080  1.00  0.00    -0.248 NA
ATOM     41  C   UNL     1      -7.960 -12.548  -0.874  1.00  0.00     0.031 C 
ATOM     42  C   UNL     1      -2.992 -12.987  -0.259  1.00  0.00     0.029 A 
ATOM     43  N   UNL     1      -4.252 -14.765   0.248  1.00  0.00    -0.354 N 
ATOM     44  C   UNL     1      -8.546 -14.642  -0.160  1.00  0.00     0.074 A 
ATOM     45  C   UNL     1      -8.989 -13.346  -0.627  1.00  0.00     0.031 C 
ATOM     46  C   UNL     1      -2.171 -13.948   0.199  1.00  0.00     0.029 A 
ATOM     47  C   UNL     1      -2.964 -15.116   0.578  1.00  0.00     0.049 A 
ATOM     48  H   UNL     1      -5.018 -15.377   0.340  1.00  0.00     0.167 HD
ATOM     49  C   UNL     1      -9.375 -15.677   0.114  1.00  0.00     0.034 A 
ATOM     50  C   UNL     1      -2.483 -16.244   1.138  1.00  0.00     0.034 A 
ATOM     51  C   UNL     1      -8.933 -16.972   0.556  1.00  0.00     0.049 A 
ATOM     52  C   UNL     1      -3.427 -17.378   1.443  1.00  0.00     0.074 A 
ATOM     53  C   UNL     1      -9.693 -18.101   0.804  1.00  0.00     0.029 A 
ATOM     54  N   UNL     1      -7.616 -17.309   0.825  1.00  0.00    -0.354 N 
ATOM     55  N   UNL     1      -4.719 -17.454   1.235  1.00  0.00    -0.248 NA
ATOM     56  C   UNL     1      -2.842 -18.593   2.029  1.00  0.00     0.031 C 
ATOM     57  C   UNL     1      -8.836 -19.117   1.243  1.00  0.00     0.029 A 
ATOM     58  C   UNL     1      -7.541 -18.625   1.248  1.00  0.00     0.049 A 
ATOM     59  H   UNL     1      -6.847 -16.702   0.730  1.00  0.00     0.167 HD
ATOM     60  C   UNL     1      -5.095 -18.736   1.627  1.00  0.00     0.074 A 
ATOM     61  C   UNL     1      -3.890 -19.406   2.071  1.00  0.00     0.031 C 
ATOM     62  C   UNL     1      -6.327 -19.301   1.630  1.00  0.00     0.034 A 
BRANCH  49  63
ATOM     63  C   UNL     1     -10.850 -15.461  -0.092  1.00  0.00     0.023 A 
ATOM     64  C   UNL     1     -11.368 -15.418  -1.402  1.00  0.00     0.012 A 
ATOM     65  C   UNL     1     -11.728 -15.356   1.004  1.00  0.00     0.148 A 
ATOM     66  C   UNL     1     -12.734 -15.244  -1.619  1.00  0.00     0.002 A 
ATOM     67  C   UNL     1     -13.094 -15.223   0.779  1.00  0.00     0.091 A 
ATOM     68  F   UNL     1     -11.213 -15.373   2.241  1.00  0.00    -0.205 F 
ATOM     69  C   UNL     1     -13.597 -15.158  -0.530  1.00  0.00     0.022 A 
BRANCH  67  70
ATOM     70  S   UNL     1     -14.289 -15.174   2.120  1.00  0.00     0.127 S 
ATOM     71  O   UNL     1     -14.646 -13.757   2.145  1.00  0.00    -0.237 OA
ATOM     72  O   UNL     1     -15.344 -16.060   1.627  1.00  0.00    -0.237 OA
ATOM     73  O   UNL     1     -13.587 -15.667   3.297  1.00  0.00    -0.744 OA
ENDBRANCH  67  70
ENDBRANCH  49  63
BRANCH  50  74
ATOM     74  C   UNL     1      -1.022 -16.375   1.401  1.00  0.00     0.023 A 
ATOM     75  C   UNL     1      -0.255 -17.265   0.625  1.00  0.00     0.012 A 
ATOM     76  C   UNL     1      -0.386 -15.603   2.393  1.00  0.00     0.148 A 
ATOM     77  C   UNL     1       1.115 -17.403   0.849  1.00  0.00     0.002 A 
ATOM     78  C   UNL     1       0.988 -15.706   2.574  1.00  0.00     0.091 A 
ATOM     79  F   UNL     1      -1.137 -14.777   3.134  1.00  0.00    -0.205 F 
ATOM     80  C   UNL     1       1.739 -16.616   1.814  1.00  0.00     0.022 A 
BRANCH  78  81
ATOM     81  S   UNL     1       1.890 -14.638   3.703  1.00  0.00     0.127 S 
ATOM     82  O   UNL     1       2.237 -15.563   4.778  1.00  0.00    -0.237 OA
ATOM     83  O   UNL     1       3.016 -14.205   2.874  1.00  0.00    -0.237 OA
ATOM     84  O   UNL     1       0.964 -13.571   4.056  1.00  0.00    -0.744 OA
ENDBRANCH  78  81
ENDBRANCH  50  74
BRANCH  62  85
ATOM     85  C   UNL     1      -6.445 -20.730   2.092  1.00  0.00     0.023 A 
ATOM     86  C   UNL     1      -6.342 -21.032   3.464  1.00  0.00     0.012 A 
ATOM     87  C   UNL     1      -6.746 -21.760   1.178  1.00  0.00     0.148 A 
ATOM     88  C   UNL     1      -6.511 -22.340   3.917  1.00  0.00     0.002 A 
ATOM     89  C   UNL     1      -6.957 -23.053   1.642  1.00  0.00     0.091 A 
ATOM     90  F   UNL     1      -6.820 -21.456  -0.126  1.00  0.00    -0.205 F 
ATOM     91  C   UNL     1      -6.831 -23.347   3.009  1.00  0.00     0.022 A 
BRANCH  89  92
ATOM     92  S   UNL     1      -7.465 -24.391   0.555  1.00  0.00     0.127 S 
ATOM     93  O   UNL     1      -6.229 -25.160   0.431  1.00  0.00    -0.237 OA
ATOM     94  O   UNL     1      -8.516 -25.046   1.335  1.00  0.00    -0.237 OA
ATOM     95  O   UNL     1      -7.934 -23.754  -0.669  1.00  0.00    -0.744 OA
ENDBRANCH  89  92
ENDBRANCH  62  85
ENDBRANCH  36  37
ENDBRANCH  29  31
ENDBRANCH  28  29
ENDBRANCH  27  28
ENDBRANCH  26  27
ENDBRANCH   1  26
TORSDOF 20
