REMARK SMILES Cn1cc(S[C@@H]2CCC[C@]([NH2+]C3CC3)(C(=O)OCCOCCOC(=O)c3ccc(-c4c5nc(c(-c6cccc(S(=O)(=O)[O-])c6F)c6ccc([nH]6)c(-c6cccc(S(=O)(=O)[O-])c6F)c6nc(c(-c7cccc(S(=O)(=O)[O-])c7F)c7ccc4[nH]7)C=C6)C=C5)cc3)C2)cn1
REMARK SMILES IDX 21 1 20 2 19 3 18 4 17 5 15 6 16 7 10 8 6 9 7 10 89 11 8 12
REMARK SMILES IDX 9 13 5 14 4 15 1 16 2 17 3 18 91 19 90 20 11 21 12 24 13 25
REMARK SMILES IDX 14 26 22 27 23 28 24 29 25 30 26 31 27 32 88 33 28 34 87 35
REMARK SMILES IDX 29 36 30 37 31 38 81 39 32 40 86 41 80 42 82 43 33 44 85 45
REMARK SMILES IDX 79 46 78 47 34 49 66 50 46 51 65 52 47 53 50 54 64 55 83 56
REMARK SMILES IDX 48 57 49 58 63 60 84 61 51 62 35 63 36 64 44 65 37 66 39 67
REMARK SMILES IDX 45 68 38 69 40 70 41 71 42 72 43 73 67 74 68 75 76 76 69 77
REMARK SMILES IDX 71 78 77 79 70 80 72 81 73 82 74 83 75 84 52 85 53 86 61 87
REMARK SMILES IDX 54 88 56 89 62 90 55 91 57 92 58 93 59 94 60 95
REMARK H PARENT 11 22 11 23 82 48 50 59
REMARK Flexibility Score: inf
ROOT
ATOM      1  C   UNL     1      -0.981  -7.694   2.066  1.00  0.00     0.202 C 
ENDROOT
BRANCH   1   2
ATOM      2  O   UNL     1      -0.817  -7.912   3.463  1.00  0.00    -0.374 OA
BRANCH   2   3
ATOM      3  C   UNL     1      -0.647  -6.753   4.282  1.00  0.00     0.202 C 
BRANCH   3   4
ATOM      4  C   UNL     1       0.729  -6.077   4.276  1.00  0.00     0.261 C 
BRANCH   4   5
ATOM      5  O   UNL     1       1.050  -5.448   3.018  1.00  0.00    -0.459 OA
BRANCH   5   6
ATOM      6  C   UNL     1       1.980  -6.106   2.275  1.00  0.00     0.368 C 
ATOM      7  O   UNL     1       2.432  -7.211   2.579  1.00  0.00    -0.245 OA
BRANCH   6   8
ATOM      8  C   UNL     1       2.335  -5.403   0.909  1.00  0.00     0.195 C 
ATOM      9  C   UNL     1       2.580  -3.126  -0.259  1.00  0.00     0.058 C 
ATOM     10  C   UNL     1       1.526  -3.506  -1.309  1.00  0.00     0.015 C 
ATOM     11  C   UNL     1       2.446  -3.871   1.078  1.00  0.00     0.096 C 
ATOM     12  C   UNL     1       1.276  -5.010  -1.428  1.00  0.00     0.008 C 
ATOM     13  C   UNL     1       1.186  -5.710  -0.077  1.00  0.00     0.081 C 
BRANCH   9  14
ATOM     14  S   UNL     1       2.837  -1.339   0.012  1.00  0.00    -0.119 SA
BRANCH  14  15
ATOM     15  C   UNL     1       1.292  -0.551   0.021  1.00  0.00     0.046 A 
ATOM     16  C   UNL     1      -2.251   0.061   0.150  1.00  0.00     0.173 C 
ATOM     17  N   UNL     1      -0.809   0.058   0.088  1.00  0.00    -0.275 N 
ATOM     18  C   UNL     1       0.027  -1.004   0.303  1.00  0.00     0.123 A 
ATOM     19  N   UNL     1      -0.166   1.183  -0.270  1.00  0.00    -0.181 NA
ATOM     20  C   UNL     1       1.119   0.822  -0.257  1.00  0.00     0.150 A 
ENDBRANCH  14  15
ENDBRANCH   9  14
BRANCH   8  21
ATOM     21  N   UNL     1       3.603  -6.078   0.542  1.00  0.00    -0.330 N 
ATOM     22  H   UNL     1       3.353  -7.054   0.382  1.00  0.00     0.347 HD
ATOM     23  H   UNL     1       4.193  -5.793   1.323  1.00  0.00     0.347 HD
BRANCH  21  24
ATOM     24  C   UNL     1       4.449  -5.712  -0.568  1.00  0.00     0.183 C 
ATOM     25  C   UNL     1       5.730  -4.980  -0.288  1.00  0.00     0.071 C 
ATOM     26  C   UNL     1       5.771  -6.424  -0.686  1.00  0.00     0.071 C 
ENDBRANCH  21  24
ENDBRANCH   8  21
ENDBRANCH   6   8
ENDBRANCH   5   6
ENDBRANCH   4   5
ENDBRANCH   3   4
ENDBRANCH   2   3
ENDBRANCH   1   2
BRANCH   1  27
ATOM     27  C   UNL     1      -2.373  -7.268   1.584  1.00  0.00     0.261 C 
BRANCH  27  28
ATOM     28  O   UNL     1      -2.783  -6.010   2.146  1.00  0.00    -0.460 OA
BRANCH  28  29
ATOM     29  C   UNL     1      -3.748  -6.110   3.090  1.00  0.00     0.338 C 
ATOM     30  O   UNL     1      -4.362  -7.121   3.410  1.00  0.00    -0.246 OA
BRANCH  29  31
ATOM     31  C   UNL     1      -3.860  -4.850   3.847  1.00  0.00     0.060 A 
ATOM     32  C   UNL     1      -3.822  -4.940   5.245  1.00  0.00     0.016 A 
ATOM     33  C   UNL     1      -4.071  -3.620   3.220  1.00  0.00     0.016 A 
ATOM     34  C   UNL     1      -4.063  -3.812   6.024  1.00  0.00     0.010 A 
ATOM     35  C   UNL     1      -4.321  -2.489   4.005  1.00  0.00     0.010 A 
ATOM     36  C   UNL     1      -4.365  -2.591   5.408  1.00  0.00    -0.014 A 
BRANCH  36  37
ATOM     37  C   UNL     1      -4.897  -1.477   6.229  1.00  0.00     0.031 A 
ATOM     38  C   UNL     1      -6.385  -1.244   6.254  1.00  0.00     0.074 A 
ATOM     39  C   UNL     1      -4.077  -0.698   6.955  1.00  0.00     0.049 A 
ATOM     40  N   UNL     1      -7.068  -0.323   6.880  1.00  0.00    -0.248 NA
ATOM     41  C   UNL     1      -7.212  -2.174   5.465  1.00  0.00     0.031 C 
ATOM     42  C   UNL     1      -2.623  -0.833   7.023  1.00  0.00     0.029 A 
ATOM     43  N   UNL     1      -4.355   0.378   7.761  1.00  0.00    -0.354 N 
ATOM     44  C   UNL     1      -8.398  -0.541   6.540  1.00  0.00     0.074 A 
ATOM     45  C   UNL     1      -8.426  -1.675   5.642  1.00  0.00     0.031 C 
ATOM     46  C   UNL     1      -2.132   0.144   7.806  1.00  0.00     0.029 A 
ATOM     47  C   UNL     1      -3.233   0.983   8.275  1.00  0.00     0.049 A 
ATOM     48  H   UNL     1      -5.270   0.687   7.952  1.00  0.00     0.167 HD
ATOM     49  C   UNL     1      -9.499   0.130   6.950  1.00  0.00     0.034 A 
ATOM     50  C   UNL     1      -3.110   2.098   9.023  1.00  0.00     0.034 A 
ATOM     51  C   UNL     1      -9.473   1.238   7.865  1.00  0.00     0.049 A 
ATOM     52  C   UNL     1      -4.351   2.840   9.449  1.00  0.00     0.074 A 
ATOM     53  C   UNL     1     -10.540   1.955   8.377  1.00  0.00     0.029 A 
ATOM     54  N   UNL     1      -8.322   1.795   8.400  1.00  0.00    -0.354 N 
ATOM     55  N   UNL     1      -5.608   2.551   9.213  1.00  0.00    -0.248 NA
ATOM     56  C   UNL     1      -4.158   4.042  10.274  1.00  0.00     0.031 C 
ATOM     57  C   UNL     1     -10.032   2.961   9.206  1.00  0.00     0.029 A 
ATOM     58  C   UNL     1      -8.650   2.853   9.229  1.00  0.00     0.049 A 
ATOM     59  H   UNL     1      -7.407   1.483   8.218  1.00  0.00     0.167 HD
ATOM     60  C   UNL     1      -6.355   3.511   9.890  1.00  0.00     0.074 A 
ATOM     61  C   UNL     1      -5.409   4.378  10.560  1.00  0.00     0.031 C 
ATOM     62  C   UNL     1      -7.700   3.669   9.940  1.00  0.00     0.034 A 
BRANCH  49  63
ATOM     63  C   UNL     1     -10.835  -0.334   6.434  1.00  0.00     0.023 A 
ATOM     64  C   UNL     1     -11.400  -1.524   6.935  1.00  0.00     0.012 A 
ATOM     65  C   UNL     1     -11.554   0.435   5.499  1.00  0.00     0.148 A 
ATOM     66  C   UNL     1     -12.651  -1.955   6.494  1.00  0.00     0.002 A 
ATOM     67  C   UNL     1     -12.817   0.021   5.095  1.00  0.00     0.091 A 
ATOM     68  F   UNL     1     -10.986   1.550   5.016  1.00  0.00    -0.205 F 
ATOM     69  C   UNL     1     -13.363  -1.178   5.583  1.00  0.00     0.022 A 
BRANCH  67  70
ATOM     70  S   UNL     1     -13.842   0.988   3.981  1.00  0.00     0.127 S 
ATOM     71  O   UNL     1     -13.794   0.182   2.762  1.00  0.00    -0.237 OA
ATOM     72  O   UNL     1     -15.135   0.981   4.667  1.00  0.00    -0.237 OA
ATOM     73  O   UNL     1     -13.211   2.297   3.891  1.00  0.00    -0.744 OA
ENDBRANCH  67  70
ENDBRANCH  49  63
BRANCH  50  74
ATOM     74  C   UNL     1      -1.760   2.567   9.447  1.00  0.00     0.023 A 
ATOM     75  C   UNL     1      -1.394   2.500  10.805  1.00  0.00     0.012 A 
ATOM     76  C   UNL     1      -0.836   3.071   8.511  1.00  0.00     0.148 A 
ATOM     77  C   UNL     1      -0.144   2.954  11.228  1.00  0.00     0.002 A 
ATOM     78  C   UNL     1       0.428   3.470   8.931  1.00  0.00     0.091 A 
ATOM     79  F   UNL     1      -1.210   3.147   7.226  1.00  0.00    -0.205 F 
ATOM     80  C   UNL     1       0.770   3.429  10.291  1.00  0.00     0.022 A 
BRANCH  78  81
ATOM     81  S   UNL     1       1.709   3.973   7.777  1.00  0.00     0.127 S 
ATOM     82  O   UNL     1       1.768   5.414   8.006  1.00  0.00    -0.237 OA
ATOM     83  O   UNL     1       2.867   3.223   8.265  1.00  0.00    -0.237 OA
ATOM     84  O   UNL     1       1.235   3.554   6.465  1.00  0.00    -0.744 OA
ENDBRANCH  78  81
ENDBRANCH  50  74
BRANCH  62  85
ATOM     85  C   UNL     1      -8.246   4.794  10.781  1.00  0.00     0.023 A 
ATOM     86  C   UNL     1      -8.130   6.124  10.332  1.00  0.00     0.012 A 
ATOM     87  C   UNL     1      -8.949   4.524  11.972  1.00  0.00     0.148 A 
ATOM     88  C   UNL     1      -8.679   7.171  11.071  1.00  0.00     0.002 A 
ATOM     89  C   UNL     1      -9.535   5.568  12.678  1.00  0.00     0.091 A 
ATOM     90  F   UNL     1      -9.033   3.254  12.392  1.00  0.00    -0.205 F 
ATOM     91  C   UNL     1      -9.392   6.893  12.236  1.00  0.00     0.022 A 
BRANCH  89  92
ATOM     92  S   UNL     1     -10.551   5.293  14.134  1.00  0.00     0.127 S 
ATOM     93  O   UNL     1      -9.666   5.744  15.206  1.00  0.00    -0.237 OA
ATOM     94  O   UNL     1     -11.699   6.165  13.883  1.00  0.00    -0.237 OA
ATOM     95  O   UNL     1     -10.866   3.870  14.138  1.00  0.00    -0.744 OA
ENDBRANCH  89  92
ENDBRANCH  62  85
ENDBRANCH  36  37
ENDBRANCH  29  31
ENDBRANCH  28  29
ENDBRANCH  27  28
ENDBRANCH   1  27
TORSDOF 21
