REMARK SMILES O=C(OCCOCCOC(=O)[C@@H]1[C@@H](C(=O)Nc2ccc(F)c(F)c2)[C@H]2CC[C@@H]1O2)c1ccc(-c2c3nc(c(-c4cccc(S(=O)(=O)[O-])c4F)c4ccc([nH]4)c(-c4cccc(S(=O)(=O)[O-])c4F)c4nc(c(-c5cccc(S(=O)(=O)[O-])c5F)c5ccc2[nH]5)C=C4)C=C3)cc1
REMARK SMILES IDX 5 1 4 2 3 3 2 4 1 5 30 6 31 7 92 8 32 9 91 10 33 11 34 12
REMARK SMILES IDX 35 13 85 14 36 15 90 16 84 17 86 18 37 19 89 20 83 21 82 22
REMARK SMILES IDX 38 24 70 25 50 26 69 27 51 28 54 29 68 30 87 31 52 32 53 33
REMARK SMILES IDX 67 35 88 36 55 37 39 38 40 39 48 40 41 41 43 42 49 43 42 44
REMARK SMILES IDX 44 45 45 46 46 47 47 48 71 49 72 50 80 51 73 52 75 53 81 54
REMARK SMILES IDX 74 55 76 56 77 57 78 58 79 59 56 60 57 61 65 62 58 63 60 64
REMARK SMILES IDX 66 65 59 66 61 67 62 68 63 69 64 70 6 71 7 72 8 73 9 74
REMARK SMILES IDX 10 75 11 76 12 77 13 78 28 79 25 80 27 81 29 82 26 83 14 84
REMARK SMILES IDX 15 85 16 86 17 88 18 89 24 90 19 91 22 92 20 93 23 94 21 95
REMARK H PARENT 86 23 54 34 16 87
REMARK Flexibility Score: inf
ROOT
ATOM      1  C   UNL     1       4.116   1.140  -0.983  1.00  0.00     0.202 C 
ENDROOT
BRANCH   1   2
ATOM      2  C   UNL     1       3.930  -0.295  -1.484  1.00  0.00     0.261 C 
BRANCH   2   3
ATOM      3  O   UNL     1       2.578  -0.734  -1.282  1.00  0.00    -0.460 OA
BRANCH   3   4
ATOM      4  C   UNL     1       2.077  -1.415  -0.222  1.00  0.00     0.338 C 
ATOM      5  O   UNL     1       0.867  -1.628  -0.185  1.00  0.00    -0.246 OA
BRANCH   4   6
ATOM      6  C   UNL     1       2.924  -1.933   0.896  1.00  0.00     0.060 A 
ATOM      7  C   UNL     1       4.141  -1.381   1.293  1.00  0.00     0.016 A 
ATOM      8  C   UNL     1       2.421  -3.012   1.643  1.00  0.00     0.016 A 
ATOM      9  C   UNL     1       4.886  -1.918   2.320  1.00  0.00     0.010 A 
ATOM     10  C   UNL     1       3.141  -3.533   2.723  1.00  0.00     0.010 A 
ATOM     11  C   UNL     1       4.389  -2.993   3.044  1.00  0.00    -0.014 A 
BRANCH  11  12
ATOM     12  C   UNL     1       5.300  -3.557   4.047  1.00  0.00     0.031 A 
ATOM     13  C   UNL     1       6.024  -4.819   3.710  1.00  0.00     0.074 A 
ATOM     14  C   UNL     1       5.618  -2.808   5.119  1.00  0.00     0.049 A 
ATOM     15  N   UNL     1       6.932  -5.453   4.397  1.00  0.00    -0.248 NA
ATOM     16  C   UNL     1       5.707  -5.438   2.410  1.00  0.00     0.031 C 
ATOM     17  C   UNL     1       5.035  -1.498   5.434  1.00  0.00     0.029 A 
ATOM     18  N   UNL     1       6.533  -3.011   6.113  1.00  0.00    -0.354 N 
ATOM     19  C   UNL     1       7.267  -6.563   3.635  1.00  0.00     0.074 A 
ATOM     20  C   UNL     1       6.475  -6.517   2.428  1.00  0.00     0.031 C 
ATOM     21  C   UNL     1       5.616  -1.013   6.541  1.00  0.00     0.029 A 
ATOM     22  C   UNL     1       6.555  -2.003   7.048  1.00  0.00     0.049 A 
ATOM     23  H   UNL     1       7.119  -3.801   6.156  1.00  0.00     0.167 HD
ATOM     24  C   UNL     1       8.163  -7.531   3.927  1.00  0.00     0.034 A 
ATOM     25  C   UNL     1       7.234  -1.923   8.207  1.00  0.00     0.034 A 
ATOM     26  C   UNL     1       8.932  -7.542   5.139  1.00  0.00     0.049 A 
ATOM     27  C   UNL     1       8.163  -3.056   8.543  1.00  0.00     0.074 A 
ATOM     28  C   UNL     1       9.811  -8.503   5.597  1.00  0.00     0.029 A 
ATOM     29  N   UNL     1       8.902  -6.532   6.092  1.00  0.00    -0.354 N 
ATOM     30  N   UNL     1       8.462  -4.115   7.826  1.00  0.00    -0.248 NA
ATOM     31  C   UNL     1       8.860  -2.982   9.831  1.00  0.00     0.031 C 
ATOM     32  C   UNL     1      10.295  -8.083   6.841  1.00  0.00     0.029 A 
ATOM     33  C   UNL     1       9.746  -6.844   7.140  1.00  0.00     0.049 A 
ATOM     34  H   UNL     1       8.359  -5.713   6.030  1.00  0.00     0.167 HD
ATOM     35  C   UNL     1       9.395  -4.826   8.567  1.00  0.00     0.074 A 
ATOM     36  C   UNL     1       9.639  -4.053   9.771  1.00  0.00     0.031 C 
ATOM     37  C   UNL     1       9.983  -6.018   8.298  1.00  0.00     0.034 A 
BRANCH  24  38
ATOM     38  C   UNL     1       8.309  -8.652   2.937  1.00  0.00     0.023 A 
ATOM     39  C   UNL     1       8.968  -8.432   1.710  1.00  0.00     0.012 A 
ATOM     40  C   UNL     1       7.768  -9.922   3.214  1.00  0.00     0.148 A 
ATOM     41  C   UNL     1       9.057  -9.450   0.760  1.00  0.00     0.002 A 
ATOM     42  C   UNL     1       7.896 -10.943   2.281  1.00  0.00     0.091 A 
ATOM     43  F   UNL     1       7.118 -10.099   4.373  1.00  0.00    -0.205 F 
ATOM     44  C   UNL     1       8.528 -10.706   1.049  1.00  0.00     0.022 A 
BRANCH  42  45
ATOM     45  S   UNL     1       7.295 -12.609   2.576  1.00  0.00     0.127 S 
ATOM     46  O   UNL     1       6.255 -12.733   1.555  1.00  0.00    -0.237 OA
ATOM     47  O   UNL     1       8.493 -13.411   2.328  1.00  0.00    -0.237 OA
ATOM     48  O   UNL     1       6.817 -12.629   3.951  1.00  0.00    -0.744 OA
ENDBRANCH  42  45
ENDBRANCH  24  38
BRANCH  25  49
ATOM     49  C   UNL     1       7.023  -0.773   9.133  1.00  0.00     0.023 A 
ATOM     50  C   UNL     1       8.083   0.100   9.440  1.00  0.00     0.012 A 
ATOM     51  C   UNL     1       5.760  -0.544   9.720  1.00  0.00     0.148 A 
ATOM     52  C   UNL     1       7.901   1.152  10.341  1.00  0.00     0.002 A 
ATOM     53  C   UNL     1       5.569   0.540  10.566  1.00  0.00     0.091 A 
ATOM     54  F   UNL     1       4.764  -1.397   9.438  1.00  0.00    -0.205 F 
ATOM     55  C   UNL     1       6.643   1.379  10.896  1.00  0.00     0.022 A 
BRANCH  53  56
ATOM     56  S   UNL     1       3.950   0.969  11.216  1.00  0.00     0.127 S 
ATOM     57  O   UNL     1       4.061   0.533  12.605  1.00  0.00    -0.237 OA
ATOM     58  O   UNL     1       3.919   2.420  11.024  1.00  0.00    -0.237 OA
ATOM     59  O   UNL     1       2.995   0.239  10.393  1.00  0.00    -0.744 OA
ENDBRANCH  53  56
ENDBRANCH  25  49
BRANCH  37  60
ATOM     60  C   UNL     1      10.966  -6.531   9.313  1.00  0.00     0.023 A 
ATOM     61  C   UNL     1      10.506  -7.019  10.551  1.00  0.00     0.012 A 
ATOM     62  C   UNL     1      12.338  -6.585   9.007  1.00  0.00     0.148 A 
ATOM     63  C   UNL     1      11.406  -7.517  11.490  1.00  0.00     0.002 A 
ATOM     64  C   UNL     1      13.222  -7.136   9.924  1.00  0.00     0.091 A 
ATOM     65  F   UNL     1      12.753  -6.094   7.830  1.00  0.00    -0.205 F 
ATOM     66  C   UNL     1      12.761  -7.588  11.171  1.00  0.00     0.022 A 
BRANCH  64  67
ATOM     67  S   UNL     1      14.962  -7.366   9.551  1.00  0.00     0.127 S 
ATOM     68  O   UNL     1      15.580  -6.315  10.356  1.00  0.00    -0.237 OA
ATOM     69  O   UNL     1      15.204  -8.727  10.031  1.00  0.00    -0.237 OA
ATOM     70  O   UNL     1      15.086  -7.206   8.108  1.00  0.00    -0.744 OA
ENDBRANCH  64  67
ENDBRANCH  37  60
ENDBRANCH  11  12
ENDBRANCH   4   6
ENDBRANCH   3   4
ENDBRANCH   2   3
ENDBRANCH   1   2
BRANCH   1  71
ATOM     71  O   UNL     1       3.732   1.381   0.372  1.00  0.00    -0.374 OA
BRANCH  71  72
ATOM     72  C   UNL     1       2.341   1.625   0.625  1.00  0.00     0.202 C 
BRANCH  72  73
ATOM     73  C   UNL     1       2.158   2.962   1.349  1.00  0.00     0.261 C 
BRANCH  73  74
ATOM     74  O   UNL     1       2.648   3.993   0.482  1.00  0.00    -0.463 OA
BRANCH  74  75
ATOM     75  C   UNL     1       3.996   4.123   0.516  1.00  0.00     0.312 C 
ATOM     76  O   UNL     1       4.686   3.836   1.487  1.00  0.00    -0.252 OA
BRANCH  75  77
ATOM     77  C   UNL     1       4.591   4.532  -0.812  1.00  0.00     0.143 C 
ATOM     78  C   UNL     1       5.142   5.956  -0.758  1.00  0.00     0.124 C 
ATOM     79  C   UNL     1       3.540   4.622  -1.922  1.00  0.00     0.133 C 
ATOM     80  C   UNL     1       4.337   6.636  -1.889  1.00  0.00     0.132 C 
ATOM     81  C   UNL     1       4.221   4.715  -3.287  1.00  0.00     0.036 C 
ATOM     82  O   UNL     1       3.053   5.974  -1.739  1.00  0.00    -0.373 OA
ATOM     83  C   UNL     1       4.640   6.183  -3.318  1.00  0.00     0.035 C 
BRANCH  78  84
ATOM     84  C   UNL     1       6.654   6.021  -0.973  1.00  0.00     0.231 C 
ATOM     85  O   UNL     1       7.186   5.619  -2.008  1.00  0.00    -0.274 OA
ATOM     86  N   UNL     1       7.433   6.652  -0.035  1.00  0.00    -0.326 N 
ATOM     87  H   UNL     1       8.282   7.032  -0.359  1.00  0.00     0.169 HD
BRANCH  86  88
ATOM     88  C   UNL     1       7.160   6.818   1.327  1.00  0.00     0.044 A 
ATOM     89  C   UNL     1       6.718   5.746   2.102  1.00  0.00     0.029 A 
ATOM     90  C   UNL     1       7.368   8.057   1.922  1.00  0.00     0.068 A 
ATOM     91  C   UNL     1       6.331   5.934   3.430  1.00  0.00     0.044 A 
ATOM     92  C   UNL     1       6.981   8.243   3.248  1.00  0.00     0.160 A 
ATOM     93  C   UNL     1       6.442   7.197   3.990  1.00  0.00     0.158 A 
ATOM     94  F   UNL     1       7.109   9.459   3.797  1.00  0.00    -0.204 F 
ATOM     95  F   UNL     1       6.035   7.401   5.250  1.00  0.00    -0.204 F 
ENDBRANCH  86  88
ENDBRANCH  78  84
ENDBRANCH  75  77
ENDBRANCH  74  75
ENDBRANCH  73  74
ENDBRANCH  72  73
ENDBRANCH  71  72
ENDBRANCH   1  71
TORSDOF 19
