REMARK SMILES O=C(OCCOCCOC(=O)c1cccc(Oc2ncc([N+](=O)[O-])cc2Br)c1)c1ccc(-c2c3nc(c(-c4cccc(S(=O)(=O)[O-])c4F)c4ccc([nH]4)c(-c4cccc(S(=O)(=O)[O-])c4F)c4nc(c(-c5cccc(S(=O)(=O)[O-])c5F)c5ccc2[nH]5)C=C4)C=C3)cc1
REMARK SMILES IDX 6 1 5 2 4 3 3 4 2 5 1 6 29 7 30 8 91 9 31 10 90 11 32 12
REMARK SMILES IDX 33 13 34 14 84 15 35 16 89 17 83 18 85 19 36 20 88 21 82 22
REMARK SMILES IDX 81 23 37 25 69 26 49 27 68 28 50 29 53 30 67 31 86 32 51 33
REMARK SMILES IDX 52 34 66 36 87 37 54 38 38 39 39 40 47 41 40 42 42 43 48 44
REMARK SMILES IDX 41 45 43 46 44 47 45 48 46 49 70 50 71 51 79 52 72 53 74 54
REMARK SMILES IDX 80 55 73 56 75 57 76 58 77 59 78 60 55 61 56 62 64 63 57 64
REMARK SMILES IDX 59 65 65 66 58 67 60 68 61 69 62 70 63 71 7 72 8 73 9 74
REMARK SMILES IDX 10 75 11 76 12 77 13 78 28 79 14 80 16 81 15 82 17 83 18 84
REMARK SMILES IDX 19 85 26 86 20 87 25 88 27 89 21 90 22 91 23 92 24 93
REMARK H PARENT 85 24 53 35
REMARK Flexibility Score: inf
ROOT
ATOM      1  O   UNL     1       4.103   0.789  -1.445  1.00  0.00    -0.374 OA
ENDROOT
BRANCH   1   2
ATOM      2  C   UNL     1       4.367  -0.613  -1.482  1.00  0.00     0.202 C 
BRANCH   2   3
ATOM      3  C   UNL     1       4.048  -1.359  -0.185  1.00  0.00     0.261 C 
BRANCH   3   4
ATOM      4  O   UNL     1       2.661  -1.206   0.151  1.00  0.00    -0.460 OA
BRANCH   4   5
ATOM      5  C   UNL     1       2.104  -0.285   0.975  1.00  0.00     0.338 C 
ATOM      6  O   UNL     1       0.879  -0.256   1.078  1.00  0.00    -0.246 OA
BRANCH   5   7
ATOM      7  C   UNL     1       2.906   0.676   1.790  1.00  0.00     0.060 A 
ATOM      8  C   UNL     1       4.154   1.176   1.425  1.00  0.00     0.016 A 
ATOM      9  C   UNL     1       2.330   1.157   2.977  1.00  0.00     0.016 A 
ATOM     10  C   UNL     1       4.854   2.056   2.218  1.00  0.00     0.010 A 
ATOM     11  C   UNL     1       3.015   2.076   3.779  1.00  0.00     0.010 A 
ATOM     12  C   UNL     1       4.293   2.501   3.403  1.00  0.00    -0.014 A 
BRANCH  12  13
ATOM     13  C   UNL     1       5.192   3.265   4.275  1.00  0.00     0.031 A 
ATOM     14  C   UNL     1       5.817   2.543   5.425  1.00  0.00     0.074 A 
ATOM     15  C   UNL     1       5.588   4.490   3.887  1.00  0.00     0.049 A 
ATOM     16  N   UNL     1       6.682   2.977   6.295  1.00  0.00    -0.248 NA
ATOM     17  C   UNL     1       5.436   1.129   5.604  1.00  0.00     0.031 C 
ATOM     18  C   UNL     1       5.131   5.181   2.676  1.00  0.00     0.029 A 
ATOM     19  N   UNL     1       6.494   5.350   4.439  1.00  0.00    -0.354 N 
ATOM     20  C   UNL     1       6.895   1.917   7.165  1.00  0.00     0.074 A 
ATOM     21  C   UNL     1       6.095   0.807   6.704  1.00  0.00     0.031 C 
ATOM     22  C   UNL     1       5.769   6.357   2.574  1.00  0.00     0.029 A 
ATOM     23  C   UNL     1       6.619   6.529   3.744  1.00  0.00     0.049 A 
ATOM     24  H   UNL     1       7.006   5.146   5.255  1.00  0.00     0.167 HD
ATOM     25  C   UNL     1       7.682   1.892   8.262  1.00  0.00     0.034 A 
ATOM     26  C   UNL     1       7.319   7.634   4.056  1.00  0.00     0.034 A 
ATOM     27  C   UNL     1       8.469   3.017   8.677  1.00  0.00     0.049 A 
ATOM     28  C   UNL     1       8.130   7.601   5.322  1.00  0.00     0.074 A 
ATOM     29  C   UNL     1       9.274   3.146   9.791  1.00  0.00     0.029 A 
ATOM     30  N   UNL     1       8.536   4.221   7.986  1.00  0.00    -0.354 N 
ATOM     31  N   UNL     1       8.313   6.604   6.156  1.00  0.00    -0.248 NA
ATOM     32  C   UNL     1       8.841   8.831   5.684  1.00  0.00     0.031 C 
ATOM     33  C   UNL     1       9.792   4.445   9.796  1.00  0.00     0.029 A 
ATOM     34  C   UNL     1       9.358   5.105   8.654  1.00  0.00     0.049 A 
ATOM     35  H   UNL     1       8.066   4.414   7.142  1.00  0.00     0.167 HD
ATOM     36  C   UNL     1       9.192   7.071   7.123  1.00  0.00     0.074 A 
ATOM     37  C   UNL     1       9.515   8.438   6.756  1.00  0.00     0.031 C 
ATOM     38  C   UNL     1       9.684   6.441   8.219  1.00  0.00     0.034 A 
BRANCH  25  39
ATOM     39  C   UNL     1       7.643   0.649   9.107  1.00  0.00     0.023 A 
ATOM     40  C   UNL     1       8.229  -0.551   8.656  1.00  0.00     0.012 A 
ATOM     41  C   UNL     1       6.980   0.670  10.349  1.00  0.00     0.148 A 
ATOM     42  C   UNL     1       8.118  -1.720   9.410  1.00  0.00     0.002 A 
ATOM     43  C   UNL     1       6.916  -0.485  11.117  1.00  0.00     0.091 A 
ATOM     44  F   UNL     1       6.398   1.812  10.742  1.00  0.00    -0.205 F 
ATOM     45  C   UNL     1       7.470  -1.685  10.642  1.00  0.00     0.022 A 
BRANCH  43  46
ATOM     46  S   UNL     1       6.160  -0.522  12.744  1.00  0.00     0.127 S 
ATOM     47  O   UNL     1       5.004  -1.387  12.513  1.00  0.00    -0.237 OA
ATOM     48  O   UNL     1       7.219  -1.121  13.556  1.00  0.00    -0.237 OA
ATOM     49  O   UNL     1       5.845   0.860  13.076  1.00  0.00    -0.744 OA
ENDBRANCH  43  46
ENDBRANCH  25  39
BRANCH  26  50
ATOM     50  C   UNL     1       7.266   8.842   3.184  1.00  0.00     0.023 A 
ATOM     51  C   UNL     1       8.430   9.294   2.534  1.00  0.00     0.012 A 
ATOM     52  C   UNL     1       6.060   9.548   2.993  1.00  0.00     0.148 A 
ATOM     53  C   UNL     1       8.403  10.444   1.743  1.00  0.00     0.002 A 
ATOM     54  C   UNL     1       6.027  10.660   2.160  1.00  0.00     0.091 A 
ATOM     55  F   UNL     1       4.962   9.114   3.629  1.00  0.00    -0.205 F 
ATOM     56  C   UNL     1       7.202  11.122   1.549  1.00  0.00     0.022 A 
BRANCH  54  57
ATOM     57  S   UNL     1       4.503  11.524   1.764  1.00  0.00     0.127 S 
ATOM     58  O   UNL     1       4.695  12.798   2.452  1.00  0.00    -0.237 OA
ATOM     59  O   UNL     1       4.567  11.596   0.304  1.00  0.00    -0.237 OA
ATOM     60  O   UNL     1       3.428  10.686   2.277  1.00  0.00    -0.744 OA
ENDBRANCH  54  57
ENDBRANCH  26  50
BRANCH  38  61
ATOM     61  C   UNL     1      10.673   7.202   9.055  1.00  0.00     0.023 A 
ATOM     62  C   UNL     1      10.248   8.278   9.857  1.00  0.00     0.012 A 
ATOM     63  C   UNL     1      12.018   6.788   9.096  1.00  0.00     0.148 A 
ATOM     64  C   UNL     1      11.160   8.959  10.659  1.00  0.00     0.002 A 
ATOM     65  C   UNL     1      12.906   7.430   9.945  1.00  0.00     0.091 A 
ATOM     66  F   UNL     1      12.401   5.774   8.306  1.00  0.00    -0.205 F 
ATOM     67  C   UNL     1      12.484   8.527  10.714  1.00  0.00     0.022 A 
BRANCH  65  68
ATOM     68  S   UNL     1      14.593   6.861  10.165  1.00  0.00     0.127 S 
ATOM     69  O   UNL     1      15.350   7.889   9.453  1.00  0.00    -0.237 OA
ATOM     70  O   UNL     1      14.742   6.889  11.620  1.00  0.00    -0.237 OA
ATOM     71  O   UNL     1      14.647   5.527   9.581  1.00  0.00    -0.744 OA
ENDBRANCH  65  68
ENDBRANCH  38  61
ENDBRANCH  12  13
ENDBRANCH   5   7
ENDBRANCH   4   5
ENDBRANCH   3   4
ENDBRANCH   2   3
ENDBRANCH   1   2
BRANCH   1  72
ATOM     72  C   UNL     1       2.789   1.217  -1.810  1.00  0.00     0.202 C 
BRANCH  72  73
ATOM     73  C   UNL     1       2.874   2.115  -3.043  1.00  0.00     0.261 C 
BRANCH  73  74
ATOM     74  O   UNL     1       3.431   1.340  -4.112  1.00  0.00    -0.460 OA
BRANCH  74  75
ATOM     75  C   UNL     1       4.785   1.242  -4.100  1.00  0.00     0.338 C 
ATOM     76  O   UNL     1       5.588   2.002  -3.585  1.00  0.00    -0.246 OA
BRANCH  75  77
ATOM     77  C   UNL     1       5.157  -0.040  -4.734  1.00  0.00     0.063 A 
ATOM     78  C   UNL     1       6.319  -0.715  -4.359  1.00  0.00     0.016 A 
ATOM     79  C   UNL     1       4.358  -0.543  -5.752  1.00  0.00     0.062 A 
ATOM     80  C   UNL     1       6.682  -1.885  -5.030  1.00  0.00     0.005 A 
ATOM     81  C   UNL     1       4.837  -1.569  -6.563  1.00  0.00     0.130 A 
ATOM     82  C   UNL     1       5.962  -2.289  -6.160  1.00  0.00     0.047 A 
BRANCH  81  83
ATOM     83  O   UNL     1       4.317  -1.830  -7.820  1.00  0.00    -0.438 OA
BRANCH  83  84
ATOM     84  C   UNL     1       3.434  -0.888  -8.322  1.00  0.00     0.234 A 
ATOM     85  N   UNL     1       2.153  -1.330  -8.393  1.00  0.00    -0.214 NA
ATOM     86  C   UNL     1       3.794   0.451  -8.562  1.00  0.00     0.087 A 
ATOM     87  C   UNL     1       1.188  -0.406  -8.618  1.00  0.00     0.200 A 
ATOM     88  C   UNL     1       2.776   1.392  -8.735  1.00  0.00     0.108 A 
ATOM     89  Br  UNL     1       5.586   1.075  -8.575  1.00  0.00    -0.045 Br
ATOM     90  C   UNL     1       1.452   0.949  -8.753  1.00  0.00     0.288 A 
BRANCH  90  91
ATOM     91  N   UNL     1       0.348   1.884  -8.904  1.00  0.00     0.064 N 
ATOM     92  O   UNL     1      -0.781   1.412  -9.096  1.00  0.00    -0.258 OA
ATOM     93  O   UNL     1       0.606   3.092  -8.838  1.00  0.00    -0.258 OA
ENDBRANCH  90  91
ENDBRANCH  83  84
ENDBRANCH  81  83
ENDBRANCH  75  77
ENDBRANCH  74  75
ENDBRANCH  73  74
ENDBRANCH  72  73
ENDBRANCH   1  72
TORSDOF 20
