REMARK SMILES O=C(OCCOCCOC(=O)c1ccccc1Nc1cccc(C(F)(F)F)c1)c1ccc(-c2c3nc(c(-c4cccc(S(=O)(=O)[O-])c4F)c4ccc([nH]4)c(-c4cccc(S(=O)(=O)[O-])c4F)c4nc(c(-c5cccc(S(=O)(=O)[O-])c5F)c5ccc2[nH]5)C=C4)C=C3)cc1
REMARK SMILES IDX 6 1 5 2 4 3 3 4 2 5 1 6 29 7 30 8 91 9 31 10 90 11 32 12
REMARK SMILES IDX 33 13 34 14 84 15 35 16 89 17 83 18 85 19 36 20 88 21 82 22
REMARK SMILES IDX 81 23 37 25 69 26 49 27 68 28 50 29 53 30 67 31 86 32 51 33
REMARK SMILES IDX 52 34 66 36 87 37 54 38 38 39 39 40 47 41 40 42 42 43 48 44
REMARK SMILES IDX 41 45 43 46 44 47 45 48 46 49 70 50 71 51 79 52 72 53 74 54
REMARK SMILES IDX 80 55 73 56 75 57 76 58 77 59 78 60 55 61 56 62 64 63 57 64
REMARK SMILES IDX 59 65 65 66 58 67 60 68 61 69 62 70 63 71 7 72 8 73 9 74
REMARK SMILES IDX 10 75 11 76 12 77 13 78 17 79 14 80 16 81 15 82 18 83 19 85
REMARK SMILES IDX 20 86 28 87 21 88 23 89 22 90 24 91 25 92 26 93 27 94
REMARK H PARENT 85 24 53 35 18 84
REMARK Flexibility Score: inf
ROOT
ATOM      1  O   UNL     1       4.134  -1.545  -0.465  1.00  0.00    -0.374 OA
ENDROOT
BRANCH   1   2
ATOM      2  C   UNL     1       4.397  -1.401   0.927  1.00  0.00     0.202 C 
BRANCH   2   3
ATOM      3  C   UNL     1       4.133   0.005   1.468  1.00  0.00     0.261 C 
BRANCH   3   4
ATOM      4  O   UNL     1       2.741   0.327   1.343  1.00  0.00    -0.460 OA
BRANCH   4   5
ATOM      5  C   UNL     1       2.130   1.050   0.377  1.00  0.00     0.338 C 
ATOM      6  O   UNL     1       0.908   1.180   0.440  1.00  0.00    -0.246 OA
BRANCH   5   7
ATOM      7  C   UNL     1       2.845   1.703  -0.764  1.00  0.00     0.060 A 
ATOM      8  C   UNL     1       4.046   1.261  -1.329  1.00  0.00     0.016 A 
ATOM      9  C   UNL     1       2.192   2.784  -1.377  1.00  0.00     0.016 A 
ATOM     10  C   UNL     1       4.588   1.849  -2.458  1.00  0.00     0.010 A 
ATOM     11  C   UNL     1       2.729   3.391  -2.513  1.00  0.00     0.010 A 
ATOM     12  C   UNL     1       3.933   2.919  -3.046  1.00  0.00    -0.014 A 
BRANCH  12  13
ATOM     13  C   UNL     1       4.620   3.621  -4.132  1.00  0.00     0.031 A 
ATOM     14  C   UNL     1       5.352   4.872  -3.784  1.00  0.00     0.074 A 
ATOM     15  C   UNL     1       4.634   3.090  -5.364  1.00  0.00     0.049 A 
ATOM     16  N   UNL     1       5.927   5.736  -4.568  1.00  0.00    -0.248 NA
ATOM     17  C   UNL     1       5.453   5.190  -2.348  1.00  0.00     0.031 C 
ATOM     18  C   UNL     1       4.037   1.805  -5.732  1.00  0.00     0.029 A 
ATOM     19  N   UNL     1       5.151   3.572  -6.533  1.00  0.00    -0.354 N 
ATOM     20  C   UNL     1       6.394   6.738  -3.730  1.00  0.00     0.074 A 
ATOM     21  C   UNL     1       6.070   6.359  -2.375  1.00  0.00     0.031 C 
ATOM     22  C   UNL     1       4.183   1.621  -7.054  1.00  0.00     0.029 A 
ATOM     23  C   UNL     1       4.820   2.803  -7.623  1.00  0.00     0.049 A 
ATOM     24  H   UNL     1       5.703   4.386  -6.589  1.00  0.00     0.167 HD
ATOM     25  C   UNL     1       7.016   7.885  -4.082  1.00  0.00     0.034 A 
ATOM     26  C   UNL     1       4.959   3.072  -8.934  1.00  0.00     0.034 A 
ATOM     27  C   UNL     1       7.303   8.218  -5.447  1.00  0.00     0.049 A 
ATOM     28  C   UNL     1       5.606   4.377  -9.310  1.00  0.00     0.074 A 
ATOM     29  C   UNL     1       7.905   9.350  -5.954  1.00  0.00     0.029 A 
ATOM     30  N   UNL     1       6.979   7.408  -6.531  1.00  0.00    -0.354 N 
ATOM     31  N   UNL     1       6.062   5.324  -8.522  1.00  0.00    -0.248 NA
ATOM     32  C   UNL     1       5.776   4.652 -10.741  1.00  0.00     0.031 C 
ATOM     33  C   UNL     1       7.909   9.243  -7.349  1.00  0.00     0.029 A 
ATOM     34  C   UNL     1       7.355   8.021  -7.708  1.00  0.00     0.049 A 
ATOM     35  H   UNL     1       6.545   6.527  -6.467  1.00  0.00     0.167 HD
ATOM     36  C   UNL     1       6.602   6.293  -9.354  1.00  0.00     0.074 A 
ATOM     37  C   UNL     1       6.419   5.813 -10.713  1.00  0.00     0.031 C 
ATOM     38  C   UNL     1       7.191   7.472  -9.034  1.00  0.00     0.034 A 
BRANCH  25  39
ATOM     39  C   UNL     1       7.329   8.855  -2.977  1.00  0.00     0.023 A 
ATOM     40  C   UNL     1       8.322   8.557  -2.020  1.00  0.00     0.012 A 
ATOM     41  C   UNL     1       6.583  10.043  -2.850  1.00  0.00     0.148 A 
ATOM     42  C   UNL     1       8.524   9.396  -0.923  1.00  0.00     0.002 A 
ATOM     43  C   UNL     1       6.825  10.898  -1.782  1.00  0.00     0.091 A 
ATOM     44  F   UNL     1       5.620  10.294  -3.748  1.00  0.00    -0.205 F 
ATOM     45  C   UNL     1       7.780  10.567  -0.807  1.00  0.00     0.022 A 
BRANCH  43  46
ATOM     46  S   UNL     1       5.961  12.459  -1.584  1.00  0.00     0.127 S 
ATOM     47  O   UNL     1       5.074  12.166  -0.459  1.00  0.00    -0.237 OA
ATOM     48  O   UNL     1       7.056  13.378  -1.273  1.00  0.00    -0.237 OA
ATOM     49  O   UNL     1       5.298  12.714  -2.855  1.00  0.00    -0.744 OA
ENDBRANCH  43  46
ENDBRANCH  25  39
BRANCH  26  50
ATOM     50  C   UNL     1       4.449   2.103  -9.943  1.00  0.00     0.023 A 
ATOM     51  C   UNL     1       5.352   1.371 -10.735  1.00  0.00     0.012 A 
ATOM     52  C   UNL     1       3.067   1.842 -10.059  1.00  0.00     0.148 A 
ATOM     53  C   UNL     1       4.888   0.405 -11.632  1.00  0.00     0.002 A 
ATOM     54  C   UNL     1       2.616   0.842 -10.911  1.00  0.00     0.091 A 
ATOM     55  F   UNL     1       2.222   2.557  -9.302  1.00  0.00    -0.205 F 
ATOM     56  C   UNL     1       3.524   0.131 -11.710  1.00  0.00     0.022 A 
BRANCH  54  57
ATOM     57  S   UNL     1       0.895   0.329 -10.978  1.00  0.00     0.127 S 
ATOM     58  O   UNL     1       0.519   0.719 -12.335  1.00  0.00    -0.237 OA
ATOM     59  O   UNL     1       1.003  -1.114 -10.759  1.00  0.00    -0.237 OA
ATOM     60  O   UNL     1       0.222   1.052  -9.908  1.00  0.00    -0.744 OA
ENDBRANCH  54  57
ENDBRANCH  26  50
BRANCH  38  61
ATOM     61  C   UNL     1       7.738   8.303 -10.160  1.00  0.00     0.023 A 
ATOM     62  C   UNL     1       6.867   9.060 -10.965  1.00  0.00     0.012 A 
ATOM     63  C   UNL     1       9.131   8.443 -10.306  1.00  0.00     0.148 A 
ATOM     64  C   UNL     1       7.381   9.946 -11.909  1.00  0.00     0.002 A 
ATOM     65  C   UNL     1       9.634   9.368 -11.208  1.00  0.00     0.091 A 
ATOM     66  F   UNL     1       9.932   7.694  -9.535  1.00  0.00    -0.205 F 
ATOM     67  C   UNL     1       8.761  10.113 -12.018  1.00  0.00     0.022 A 
BRANCH  65  68
ATOM     68  S   UNL     1      11.387   9.736 -11.326  1.00  0.00     0.127 S 
ATOM     69  O   UNL     1      11.709   9.223 -12.657  1.00  0.00    -0.237 OA
ATOM     70  O   UNL     1      11.402  11.195 -11.214  1.00  0.00    -0.237 OA
ATOM     71  O   UNL     1      12.025   9.035 -10.220  1.00  0.00    -0.744 OA
ENDBRANCH  65  68
ENDBRANCH  38  61
ENDBRANCH  12  13
ENDBRANCH   5   7
ENDBRANCH   4   5
ENDBRANCH   3   4
ENDBRANCH   2   3
ENDBRANCH   1   2
BRANCH   1  72
ATOM     72  C   UNL     1       2.812  -1.946  -0.837  1.00  0.00     0.202 C 
BRANCH  72  73
ATOM     73  C   UNL     1       2.921  -3.149  -1.773  1.00  0.00     0.261 C 
BRANCH  73  74
ATOM     74  O   UNL     1       3.514  -4.227  -1.030  1.00  0.00    -0.460 OA
BRANCH  74  75
ATOM     75  C   UNL     1       4.876  -4.214  -0.962  1.00  0.00     0.340 C 
ATOM     76  O   UNL     1       5.638  -3.705  -1.753  1.00  0.00    -0.246 OA
BRANCH  75  77
ATOM     77  C   UNL     1       5.296  -4.796   0.349  1.00  0.00     0.083 A 
ATOM     78  C   UNL     1       6.503  -4.302   0.877  1.00  0.00     0.018 A 
ATOM     79  C   UNL     1       4.539  -5.766   1.050  1.00  0.00     0.053 A 
ATOM     80  C   UNL     1       6.977  -4.763   2.101  1.00  0.00     0.001 A 
ATOM     81  C   UNL     1       5.075  -6.252   2.251  1.00  0.00     0.027 A 
ATOM     82  C   UNL     1       6.269  -5.747   2.780  1.00  0.00     0.002 A 
BRANCH  79  83
ATOM     83  N   UNL     1       3.343  -6.268   0.498  1.00  0.00    -0.355 N 
ATOM     84  H   UNL     1       3.124  -5.841  -0.362  1.00  0.00     0.167 HD
BRANCH  83  85
ATOM     85  C   UNL     1       2.392  -7.221   0.871  1.00  0.00     0.039 A 
ATOM     86  C   UNL     1       1.829  -8.000  -0.151  1.00  0.00     0.026 A 
ATOM     87  C   UNL     1       2.018  -7.479   2.188  1.00  0.00     0.039 A 
ATOM     88  C   UNL     1       0.945  -9.037   0.135  1.00  0.00     0.003 A 
ATOM     89  C   UNL     1       1.123  -8.517   2.496  1.00  0.00     0.058 A 
ATOM     90  C   UNL     1       0.602  -9.302   1.456  1.00  0.00     0.013 A 
BRANCH  89  91
ATOM     91  C   UNL     1       0.746  -8.813   3.923  1.00  0.00     0.416 C 
ATOM     92  F   UNL     1      -0.601  -8.910   4.103  1.00  0.00    -0.166 F 
ATOM     93  F   UNL     1       1.264  -9.996   4.359  1.00  0.00    -0.166 F 
ATOM     94  F   UNL     1       1.173  -7.873   4.812  1.00  0.00    -0.166 F 
ENDBRANCH  89  91
ENDBRANCH  83  85
ENDBRANCH  79  83
ENDBRANCH  75  77
ENDBRANCH  74  75
ENDBRANCH  73  74
ENDBRANCH  72  73
ENDBRANCH   1  72
TORSDOF 20
