REMARK SMILES C[C@@H](Sc1nc(-c2ccc3c(c2)OCO3)ccc1C#N)C(=O)OCCOCCOC(=O)c1ccc(-c2c3nc(c(-c4cccc(S(=O)(=O)[O-])c4F)c4ccc([nH]4)c(-c4cccc(S(=O)(=O)[O-])c4F)c4nc(c(-c5cccc(S(=O)(=O)[O-])c5F)c5ccc2[nH]5)C=C4)C=C3)cc1
REMARK SMILES IDX 26 1 25 2 24 3 23 4 21 5 22 6 2 7 1 8 3 9 4 10 5 11 18 12
REMARK SMILES IDX 6 13 17 14 16 15 19 16 20 17 7 18 8 19 12 20 9 21 11 22
REMARK SMILES IDX 10 23 13 24 15 25 14 26 27 27 28 28 29 29 30 30 31 31 32 32
REMARK SMILES IDX 33 33 94 34 34 35 93 36 35 37 36 38 37 39 87 40 38 41 92 42
REMARK SMILES IDX 86 43 88 44 39 45 91 46 85 47 84 48 40 50 72 51 52 52 71 53
REMARK SMILES IDX 53 54 56 55 70 56 89 57 54 58 55 59 69 61 90 62 57 63 41 64
REMARK SMILES IDX 42 65 50 66 43 67 45 68 51 69 44 70 46 71 47 72 48 73 49 74
REMARK SMILES IDX 73 75 74 76 82 77 75 78 77 79 83 80 76 81 78 82 79 83 80 84
REMARK SMILES IDX 81 85 58 86 59 87 67 88 60 89 62 90 68 91 61 92 63 93 64 94
REMARK SMILES IDX 65 95 66 96
REMARK H PARENT 88 49 56 60
REMARK Flexibility Score: inf
ROOT
ATOM      1  O   UNL     1      -3.266   0.462  -1.784  1.00  0.00    -0.374 OA
ENDROOT
BRANCH   1   2
ATOM      2  C   UNL     1      -3.672  -0.499  -0.813  1.00  0.00     0.202 C 
BRANCH   2   3
ATOM      3  C   UNL     1      -2.910  -1.825  -0.728  1.00  0.00     0.261 C 
BRANCH   3   4
ATOM      4  O   UNL     1      -1.528  -1.636  -0.397  1.00  0.00    -0.462 OA
BRANCH   4   5
ATOM      5  C   UNL     1      -0.636  -1.817  -1.412  1.00  0.00     0.319 C 
ATOM      6  O   UNL     1      -0.935  -2.145  -2.556  1.00  0.00    -0.251 OA
BRANCH   5   7
ATOM      7  C   UNL     1       0.801  -1.559  -0.971  1.00  0.00     0.160 C 
ATOM      8  C   UNL     1       0.940  -0.413   0.030  1.00  0.00     0.032 C 
BRANCH   7   9
ATOM      9  S   UNL     1       1.412  -3.127  -0.273  1.00  0.00    -0.090 SA
BRANCH   9  10
ATOM     10  C   UNL     1       3.168  -3.014  -0.588  1.00  0.00     0.115 A 
ATOM     11  N   UNL     1       3.720  -1.768  -0.638  1.00  0.00    -0.240 NA
ATOM     12  C   UNL     1       3.930  -4.178  -0.673  1.00  0.00     0.084 A 
ATOM     13  C   UNL     1       5.069  -1.665  -0.734  1.00  0.00     0.072 A 
ATOM     14  C   UNL     1       5.317  -4.054  -0.736  1.00  0.00     0.024 A 
ATOM     15  C   UNL     1       5.892  -2.789  -0.753  1.00  0.00     0.030 A 
BRANCH  12  16
ATOM     16  C   UNL     1       3.347  -5.486  -0.733  1.00  0.00     0.102 C 
ATOM     17  N   UNL     1       2.927  -6.561  -0.836  1.00  0.00    -0.192 NA
ENDBRANCH  12  16
BRANCH  13  18
ATOM     18  C   UNL     1       5.646  -0.312  -0.817  1.00  0.00     0.004 A 
ATOM     19  C   UNL     1       6.561   0.010  -1.856  1.00  0.00     0.014 A 
ATOM     20  C   UNL     1       5.369   0.664   0.157  1.00  0.00     0.061 A 
ATOM     21  C   UNL     1       7.215   1.246  -1.907  1.00  0.00     0.051 A 
ATOM     22  C   UNL     1       6.040   1.872   0.091  1.00  0.00     0.166 A 
ATOM     23  C   UNL     1       6.942   2.150  -0.908  1.00  0.00     0.165 A 
ATOM     24  O   UNL     1       5.931   2.895   0.982  1.00  0.00    -0.454 OA
ATOM     25  O   UNL     1       7.512   3.377  -0.774  1.00  0.00    -0.454 OA
ATOM     26  C   UNL     1       6.897   3.827   0.452  1.00  0.00     0.468 C 
ENDBRANCH  13  18
ENDBRANCH   9  10
ENDBRANCH   7   9
ENDBRANCH   5   7
ENDBRANCH   4   5
ENDBRANCH   3   4
ENDBRANCH   2   3
ENDBRANCH   1   2
BRANCH   1  27
ATOM     27  C   UNL     1      -2.043   1.163  -1.581  1.00  0.00     0.202 C 
BRANCH  27  28
ATOM     28  C   UNL     1      -1.950   2.195  -0.447  1.00  0.00     0.261 C 
BRANCH  28  29
ATOM     29  O   UNL     1      -2.199   1.650   0.859  1.00  0.00    -0.460 OA
BRANCH  29  30
ATOM     30  C   UNL     1      -3.401   2.003   1.378  1.00  0.00     0.338 C 
ATOM     31  O   UNL     1      -4.232   2.738   0.867  1.00  0.00    -0.246 OA
BRANCH  30  32
ATOM     32  C   UNL     1      -3.698   1.226   2.594  1.00  0.00     0.060 A 
ATOM     33  C   UNL     1      -4.896   0.499   2.608  1.00  0.00     0.016 A 
ATOM     34  C   UNL     1      -2.901   1.309   3.736  1.00  0.00     0.016 A 
ATOM     35  C   UNL     1      -5.345  -0.079   3.790  1.00  0.00     0.010 A 
ATOM     36  C   UNL     1      -3.355   0.725   4.923  1.00  0.00     0.010 A 
ATOM     37  C   UNL     1      -4.604   0.077   4.968  1.00  0.00    -0.014 A 
BRANCH  37  38
ATOM     38  C   UNL     1      -5.220  -0.309   6.261  1.00  0.00     0.031 A 
ATOM     39  C   UNL     1      -5.710   0.766   7.196  1.00  0.00     0.074 A 
ATOM     40  C   UNL     1      -5.380  -1.605   6.580  1.00  0.00     0.049 A 
ATOM     41  N   UNL     1      -6.284   0.648   8.365  1.00  0.00    -0.248 NA
ATOM     42  C   UNL     1      -5.527   2.159   6.756  1.00  0.00     0.031 C 
ATOM     43  C   UNL     1      -4.968  -2.735   5.750  1.00  0.00     0.029 A 
ATOM     44  N   UNL     1      -5.925  -2.187   7.697  1.00  0.00    -0.354 N 
ATOM     45  C   UNL     1      -6.495   1.945   8.819  1.00  0.00     0.074 A 
ATOM     46  C   UNL     1      -5.973   2.836   7.804  1.00  0.00     0.031 C 
ATOM     47  C   UNL     1      -5.264  -3.878   6.391  1.00  0.00     0.029 A 
ATOM     48  C   UNL     1      -5.851  -3.559   7.690  1.00  0.00     0.049 A 
ATOM     49  H   UNL     1      -6.329  -1.672   8.432  1.00  0.00     0.167 HD
ATOM     50  C   UNL     1      -7.077   2.359   9.970  1.00  0.00     0.034 A 
ATOM     51  C   UNL     1      -6.195  -4.455   8.635  1.00  0.00     0.034 A 
ATOM     52  C   UNL     1      -7.602   1.469  10.971  1.00  0.00     0.049 A 
ATOM     53  C   UNL     1      -6.799  -3.968   9.925  1.00  0.00     0.074 A 
ATOM     54  C   UNL     1      -8.254   1.788  12.149  1.00  0.00     0.029 A 
ATOM     55  N   UNL     1      -7.513   0.086  10.927  1.00  0.00    -0.354 N 
ATOM     56  N   UNL     1      -7.082  -2.742  10.296  1.00  0.00    -0.248 NA
ATOM     57  C   UNL     1      -7.163  -4.992  10.914  1.00  0.00     0.031 C 
ATOM     58  C   UNL     1      -8.505   0.602  12.845  1.00  0.00     0.029 A 
ATOM     59  C   UNL     1      -8.075  -0.462  12.068  1.00  0.00     0.049 A 
ATOM     60  H   UNL     1      -7.110  -0.431  10.192  1.00  0.00     0.167 HD
ATOM     61  C   UNL     1      -7.699  -2.852  11.538  1.00  0.00     0.074 A 
ATOM     62  C   UNL     1      -7.762  -4.266  11.847  1.00  0.00     0.031 C 
ATOM     63  C   UNL     1      -8.168  -1.872  12.350  1.00  0.00     0.034 A 
BRANCH  50  64
ATOM     64  C   UNL     1      -7.165   3.845  10.217  1.00  0.00     0.023 A 
ATOM     65  C   UNL     1      -8.018   4.648   9.433  1.00  0.00     0.012 A 
ATOM     66  C   UNL     1      -6.429   4.439  11.262  1.00  0.00     0.148 A 
ATOM     67  C   UNL     1      -8.102   6.023   9.653  1.00  0.00     0.002 A 
ATOM     68  C   UNL     1      -6.559   5.800  11.511  1.00  0.00     0.091 A 
ATOM     69  F   UNL     1      -5.610   3.665  11.988  1.00  0.00    -0.205 F 
ATOM     70  C   UNL     1      -7.381   6.596  10.697  1.00  0.00     0.022 A 
BRANCH  68  71
ATOM     71  S   UNL     1      -5.737   6.617  12.883  1.00  0.00     0.127 S 
ATOM     72  O   UNL     1      -4.773   7.466  12.185  1.00  0.00    -0.237 OA
ATOM     73  O   UNL     1      -6.842   7.340  13.514  1.00  0.00    -0.237 OA
ATOM     74  O   UNL     1      -5.159   5.557  13.697  1.00  0.00    -0.744 OA
ENDBRANCH  68  71
ENDBRANCH  50  64
BRANCH  51  75
ATOM     75  C   UNL     1      -5.997  -5.912   8.392  1.00  0.00     0.023 A 
ATOM     76  C   UNL     1      -7.116  -6.757   8.267  1.00  0.00     0.012 A 
ATOM     77  C   UNL     1      -4.704  -6.461   8.286  1.00  0.00     0.148 A 
ATOM     78  C   UNL     1      -6.952  -8.130   8.080  1.00  0.00     0.002 A 
ATOM     79  C   UNL     1      -4.548  -7.819   8.042  1.00  0.00     0.091 A 
ATOM     80  F   UNL     1      -3.653  -5.639   8.417  1.00  0.00    -0.205 F 
ATOM     81  C   UNL     1      -5.670  -8.659   7.959  1.00  0.00     0.022 A 
BRANCH  79  82
ATOM     82  S   UNL     1      -2.943  -8.570   7.756  1.00  0.00     0.127 S 
ATOM     83  O   UNL     1      -2.816  -9.453   8.913  1.00  0.00    -0.237 OA
ATOM     84  O   UNL     1      -3.157  -9.252   6.479  1.00  0.00    -0.237 OA
ATOM     85  O   UNL     1      -1.993  -7.467   7.701  1.00  0.00    -0.744 OA
ENDBRANCH  79  82
ENDBRANCH  51  75
BRANCH  63  86
ATOM     86  C   UNL     1      -8.854  -2.290  13.627  1.00  0.00     0.023 A 
ATOM     87  C   UNL     1      -8.119  -2.875  14.678  1.00  0.00     0.012 A 
ATOM     88  C   UNL     1     -10.233  -2.054  13.800  1.00  0.00     0.148 A 
ATOM     89  C   UNL     1      -8.754  -3.262  15.858  1.00  0.00     0.002 A 
ATOM     90  C   UNL     1     -10.847  -2.386  15.001  1.00  0.00     0.091 A 
ATOM     91  F   UNL     1     -10.920  -1.510  12.785  1.00  0.00    -0.205 F 
ATOM     92  C   UNL     1     -10.113  -3.008  16.023  1.00  0.00     0.022 A 
BRANCH  90  93
ATOM     93  S   UNL     1     -12.568  -2.005  15.342  1.00  0.00     0.127 S 
ATOM     94  O   UNL     1     -13.169  -3.337  15.364  1.00  0.00    -0.237 OA
ATOM     95  O   UNL     1     -12.485  -1.351  16.648  1.00  0.00    -0.237 OA
ATOM     96  O   UNL     1     -13.014  -1.139  14.259  1.00  0.00    -0.744 OA
ENDBRANCH  90  93
ENDBRANCH  63  86
ENDBRANCH  37  38
ENDBRANCH  30  32
ENDBRANCH  29  30
ENDBRANCH  28  29
ENDBRANCH  27  28
ENDBRANCH   1  27
TORSDOF 21
