REMARK SMILES CCN(C(=O)c1ccc(C)cc1F)[C@@H]1COC[C@@H]1C(=O)OCCOCCOC(=O)c1ccc(-c2c3nc(c(-c4cccc(S(=O)(=O)[O-])c4F)c4ccc([nH]4)c(-c4cccc(S(=O)(=O)[O-])c4F)c4nc(c(-c5cccc(S(=O)(=O)[O-])c5F)c5ccc2[nH]5)C=C4)C=C3)cc1
REMARK SMILES IDX 24 1 23 2 22 3 21 4 19 5 20 6 18 7 14 8 15 9 16 10 17 11
REMARK SMILES IDX 3 12 2 13 1 14 4 15 5 16 6 17 7 18 12 19 8 20 11 21 13 22
REMARK SMILES IDX 9 23 10 24 25 25 26 26 27 27 28 28 29 29 30 30 31 31 92 32
REMARK SMILES IDX 32 33 91 34 33 35 34 36 35 37 85 38 36 39 90 40 84 41 86 42
REMARK SMILES IDX 37 43 89 44 83 45 82 46 38 48 70 49 50 50 69 51 51 52 54 53
REMARK SMILES IDX 68 54 87 55 52 56 53 57 67 59 88 60 55 61 39 62 40 63 48 64
REMARK SMILES IDX 41 65 43 66 49 67 42 68 44 69 45 70 46 71 47 72 71 73 72 74
REMARK SMILES IDX 80 75 73 76 75 77 81 78 74 79 76 80 77 81 78 82 79 83 56 84
REMARK SMILES IDX 57 85 65 86 58 87 60 88 66 89 59 90 61 91 62 92 63 93 64 94
REMARK H PARENT 86 47 54 58
REMARK Flexibility Score: inf
ROOT
ATOM      1  O   UNL     1       0.328   3.196   6.066  1.00  0.00    -0.374 OA
ENDROOT
BRANCH   1   2
ATOM      2  C   UNL     1      -0.150   4.401   5.463  1.00  0.00     0.202 C 
BRANCH   2   3
ATOM      3  C   UNL     1       0.911   5.249   4.766  1.00  0.00     0.261 C 
BRANCH   3   4
ATOM      4  O   UNL     1       1.330   4.676   3.514  1.00  0.00    -0.463 OA
BRANCH   4   5
ATOM      5  C   UNL     1       2.442   3.901   3.551  1.00  0.00     0.313 C 
ATOM      6  O   UNL     1       3.037   3.611   4.583  1.00  0.00    -0.252 OA
BRANCH   5   7
ATOM      7  C   UNL     1       2.894   3.498   2.160  1.00  0.00     0.150 C 
ATOM      8  C   UNL     1       2.575   2.091   1.635  1.00  0.00     0.127 C 
ATOM      9  C   UNL     1       3.534   1.253   2.487  1.00  0.00     0.186 C 
ATOM     10  O   UNL     1       4.731   2.030   2.637  1.00  0.00    -0.378 OA
ATOM     11  C   UNL     1       4.423   3.386   2.252  1.00  0.00     0.177 C 
BRANCH   8  12
ATOM     12  N   UNL     1       1.221   1.504   1.430  1.00  0.00    -0.333 N 
BRANCH  12  13
ATOM     13  C   UNL     1       1.211   0.086   1.016  1.00  0.00     0.117 C 
ATOM     14  C   UNL     1       1.668  -0.102  -0.424  1.00  0.00     0.027 C 
ENDBRANCH  12  13
BRANCH  12  15
ATOM     15  C   UNL     1       0.147   2.360   1.092  1.00  0.00     0.257 C 
ATOM     16  O   UNL     1       0.291   3.580   1.096  1.00  0.00    -0.269 OA
BRANCH  15  17
ATOM     17  C   UNL     1      -1.210   1.830   0.728  1.00  0.00     0.075 A 
ATOM     18  C   UNL     1      -1.827   0.778   1.423  1.00  0.00     0.017 A 
ATOM     19  C   UNL     1      -1.970   2.502  -0.236  1.00  0.00     0.136 A 
ATOM     20  C   UNL     1      -3.151   0.398   1.151  1.00  0.00     0.004 A 
ATOM     21  C   UNL     1      -3.308   2.160  -0.480  1.00  0.00     0.043 A 
ATOM     22  F   UNL     1      -1.452   3.521  -0.936  1.00  0.00    -0.206 F 
ATOM     23  C   UNL     1      -3.917   1.115   0.226  1.00  0.00    -0.048 A 
ATOM     24  C   UNL     1      -5.401   0.891   0.143  1.00  0.00     0.044 C 
ENDBRANCH  15  17
ENDBRANCH  12  15
ENDBRANCH   8  12
ENDBRANCH   5   7
ENDBRANCH   4   5
ENDBRANCH   3   4
ENDBRANCH   2   3
ENDBRANCH   1   2
BRANCH   1  25
ATOM     25  C   UNL     1       0.397   2.059   5.207  1.00  0.00     0.202 C 
BRANCH  25  26
ATOM     26  C   UNL     1      -0.906   1.267   5.100  1.00  0.00     0.261 C 
BRANCH  26  27
ATOM     27  O   UNL     1      -1.910   2.021   4.398  1.00  0.00    -0.460 OA
BRANCH  27  28
ATOM     28  C   UNL     1      -2.859   2.614   5.170  1.00  0.00     0.338 C 
ATOM     29  O   UNL     1      -3.020   2.455   6.366  1.00  0.00    -0.246 OA
BRANCH  28  30
ATOM     30  C   UNL     1      -3.634   3.594   4.363  1.00  0.00     0.060 A 
ATOM     31  C   UNL     1      -4.177   4.722   4.979  1.00  0.00     0.016 A 
ATOM     32  C   UNL     1      -3.844   3.402   3.002  1.00  0.00     0.016 A 
ATOM     33  C   UNL     1      -4.991   5.597   4.245  1.00  0.00     0.010 A 
ATOM     34  C   UNL     1      -4.624   4.283   2.258  1.00  0.00     0.010 A 
ATOM     35  C   UNL     1      -5.258   5.356   2.888  1.00  0.00    -0.014 A 
BRANCH  35  36
ATOM     36  C   UNL     1      -6.244   6.162   2.126  1.00  0.00     0.031 A 
ATOM     37  C   UNL     1      -7.548   5.542   1.686  1.00  0.00     0.074 A 
ATOM     38  C   UNL     1      -5.938   7.415   1.741  1.00  0.00     0.049 A 
ATOM     39  N   UNL     1      -8.550   6.087   1.043  1.00  0.00    -0.248 NA
ATOM     40  C   UNL     1      -7.736   4.108   1.968  1.00  0.00     0.031 C 
ATOM     41  C   UNL     1      -4.652   8.075   1.961  1.00  0.00     0.029 A 
ATOM     42  N   UNL     1      -6.679   8.342   1.053  1.00  0.00    -0.354 N 
ATOM     43  C   UNL     1      -9.464   5.063   0.814  1.00  0.00     0.074 A 
ATOM     44  C   UNL     1      -8.880   3.853   1.347  1.00  0.00     0.031 C 
ATOM     45  C   UNL     1      -4.694   9.304   1.419  1.00  0.00     0.029 A 
ATOM     46  C   UNL     1      -6.010   9.520   0.823  1.00  0.00     0.049 A 
ATOM     47  H   UNL     1      -7.602   8.178   0.752  1.00  0.00     0.167 HD
ATOM     48  C   UNL     1     -10.695   5.132   0.251  1.00  0.00     0.034 A 
ATOM     49  C   UNL     1      -6.423  10.653   0.220  1.00  0.00     0.034 A 
ATOM     50  C   UNL     1     -11.296   6.357  -0.206  1.00  0.00     0.049 A 
ATOM     51  C   UNL     1      -7.846  10.750  -0.263  1.00  0.00     0.074 A 
ATOM     52  C   UNL     1     -12.591   6.571  -0.645  1.00  0.00     0.029 A 
ATOM     53  N   UNL     1     -10.643   7.577  -0.281  1.00  0.00    -0.354 N 
ATOM     54  N   UNL     1      -8.782   9.833  -0.263  1.00  0.00    -0.248 NA
ATOM     55  C   UNL     1      -8.287  12.056  -0.775  1.00  0.00     0.031 C 
ATOM     56  C   UNL     1     -12.717   7.919  -0.998  1.00  0.00     0.029 A 
ATOM     57  C   UNL     1     -11.507   8.549  -0.756  1.00  0.00     0.049 A 
ATOM     58  H   UNL     1      -9.703   7.731  -0.033  1.00  0.00     0.167 HD
ATOM     59  C   UNL     1      -9.931  10.458  -0.736  1.00  0.00     0.074 A 
ATOM     60  C   UNL     1      -9.578  11.839  -0.991  1.00  0.00     0.031 C 
ATOM     61  C   UNL     1     -11.162   9.933  -0.952  1.00  0.00     0.034 A 
BRANCH  48  62
ATOM     62  C   UNL     1     -11.523   3.870   0.179  1.00  0.00     0.023 A 
ATOM     63  C   UNL     1     -12.018   3.300   1.371  1.00  0.00     0.012 A 
ATOM     64  C   UNL     1     -11.896   3.306  -1.058  1.00  0.00     0.148 A 
ATOM     65  C   UNL     1     -12.835   2.171   1.337  1.00  0.00     0.002 A 
ATOM     66  C   UNL     1     -12.752   2.209  -1.085  1.00  0.00     0.091 A 
ATOM     67  F   UNL     1     -11.408   3.849  -2.183  1.00  0.00    -0.205 F 
ATOM     68  C   UNL     1     -13.212   1.634   0.111  1.00  0.00     0.022 A 
BRANCH  66  69
ATOM     69  S   UNL     1     -13.375   1.497  -2.613  1.00  0.00     0.127 S 
ATOM     70  O   UNL     1     -12.675   0.213  -2.646  1.00  0.00    -0.237 OA
ATOM     71  O   UNL     1     -14.811   1.401  -2.345  1.00  0.00    -0.237 OA
ATOM     72  O   UNL     1     -13.015   2.432  -3.669  1.00  0.00    -0.744 OA
ENDBRANCH  66  69
ENDBRANCH  48  62
BRANCH  49  73
ATOM     73  C   UNL     1      -5.510  11.828   0.159  1.00  0.00     0.023 A 
ATOM     74  C   UNL     1      -5.753  12.930   1.002  1.00  0.00     0.012 A 
ATOM     75  C   UNL     1      -4.386  11.844  -0.688  1.00  0.00     0.148 A 
ATOM     76  C   UNL     1      -4.913  14.043   0.979  1.00  0.00     0.002 A 
ATOM     77  C   UNL     1      -3.523  12.934  -0.668  1.00  0.00     0.091 A 
ATOM     78  F   UNL     1      -4.176  10.788  -1.486  1.00  0.00    -0.205 F 
ATOM     79  C   UNL     1      -3.794  14.041   0.152  1.00  0.00     0.022 A 
BRANCH  77  80
ATOM     80  S   UNL     1      -1.989  12.968  -1.602  1.00  0.00     0.127 S 
ATOM     81  O   UNL     1      -2.296  13.943  -2.645  1.00  0.00    -0.237 OA
ATOM     82  O   UNL     1      -1.031  13.425  -0.595  1.00  0.00    -0.237 OA
ATOM     83  O   UNL     1      -1.777  11.601  -2.055  1.00  0.00    -0.744 OA
ENDBRANCH  77  80
ENDBRANCH  49  73
BRANCH  61  84
ATOM     84  C   UNL     1     -12.241  10.854  -1.460  1.00  0.00     0.023 A 
ATOM     85  C   UNL     1     -12.204  11.310  -2.792  1.00  0.00     0.012 A 
ATOM     86  C   UNL     1     -13.332  11.204  -0.639  1.00  0.00     0.148 A 
ATOM     87  C   UNL     1     -13.219  12.127  -3.291  1.00  0.00     0.002 A 
ATOM     88  C   UNL     1     -14.363  11.979  -1.157  1.00  0.00     0.091 A 
ATOM     89  F   UNL     1     -13.342  10.774   0.631  1.00  0.00    -0.205 F 
ATOM     90  C   UNL     1     -14.302  12.452  -2.478  1.00  0.00     0.022 A 
BRANCH  88  91
ATOM     91  S   UNL     1     -15.843  12.370  -0.215  1.00  0.00     0.127 S 
ATOM     92  O   UNL     1     -15.650  13.791   0.067  1.00  0.00    -0.237 OA
ATOM     93  O   UNL     1     -16.908  12.077  -1.175  1.00  0.00    -0.237 OA
ATOM     94  O   UNL     1     -15.822  11.493   0.949  1.00  0.00    -0.744 OA
ENDBRANCH  88  91
ENDBRANCH  61  84
ENDBRANCH  35  36
ENDBRANCH  28  30
ENDBRANCH  27  28
ENDBRANCH  26  27
ENDBRANCH  25  26
ENDBRANCH   1  25
TORSDOF 21
