REMARK SMILES Cc1ccc(Nc2c(Cl)cc(Cl)cc2Cl)c(CC(=O)OCCOCCOC(=O)c2ccc(-c3c4nc(c(-c5cccc(S(=O)(=O)[O-])c5F)c5ccc([nH]5)c(-c5cccc(S(=O)(=O)[O-])c5F)c5nc(c(-c6cccc(S(=O)(=O)[O-])c6F)c6ccc3[nH]6)C=C5)C=C4)cc2)c1
REMARK SMILES IDX 23 1 22 2 21 3 20 4 18 5 19 6 17 7 16 8 1 9 2 10 3 11 92 12
REMARK SMILES IDX 4 13 5 14 6 15 7 17 8 18 14 19 9 20 10 21 13 22 15 23 11 24
REMARK SMILES IDX 12 25 24 26 25 27 26 28 27 29 28 30 29 31 30 32 91 33 31 34
REMARK SMILES IDX 90 35 32 36 33 37 34 38 84 39 35 40 89 41 83 42 85 43 36 44
REMARK SMILES IDX 88 45 82 46 81 47 37 49 69 50 49 51 68 52 50 53 53 54 67 55
REMARK SMILES IDX 86 56 51 57 52 58 66 60 87 61 54 62 38 63 39 64 47 65 40 66
REMARK SMILES IDX 42 67 48 68 41 69 43 70 44 71 45 72 46 73 70 74 71 75 79 76
REMARK SMILES IDX 72 77 74 78 80 79 73 80 75 81 76 82 77 83 78 84 55 85 56 86
REMARK SMILES IDX 64 87 57 88 59 89 65 90 58 91 60 92 61 93 62 94 63 95
REMARK H PARENT 6 16 85 48 53 59
REMARK Flexibility Score: inf
ROOT
ATOM      1  O   UNL     1      -2.996   0.821  -3.069  1.00  0.00    -0.374 OA
ENDROOT
BRANCH   1   2
ATOM      2  C   UNL     1      -1.648   1.139  -3.338  1.00  0.00     0.202 C 
BRANCH   2   3
ATOM      3  C   UNL     1      -1.201   2.272  -2.435  1.00  0.00     0.261 C 
BRANCH   3   4
ATOM      4  O   UNL     1      -1.141   1.919  -1.057  1.00  0.00    -0.463 OA
BRANCH   4   5
ATOM      5  C   UNL     1      -2.035   2.516  -0.205  1.00  0.00     0.310 C 
ATOM      6  O   UNL     1      -2.899   3.330  -0.496  1.00  0.00    -0.252 OA
BRANCH   5   7
ATOM      7  C   UNL     1      -1.810   2.058   1.224  1.00  0.00     0.160 C 
BRANCH   7   8
ATOM      8  C   UNL     1      -1.113   0.711   1.239  1.00  0.00    -0.013 A 
ATOM      9  C   UNL     1       2.417  -0.210   0.104  1.00  0.00     0.044 C 
ATOM     10  C   UNL     1       0.989  -0.340   0.539  1.00  0.00    -0.051 A 
ATOM     11  C   UNL     1       0.304  -1.542   0.409  1.00  0.00     0.005 A 
ATOM     12  C   UNL     1       0.288   0.765   1.014  1.00  0.00     0.009 A 
ATOM     13  C   UNL     1      -1.065  -1.621   0.705  1.00  0.00     0.026 A 
ATOM     14  C   UNL     1      -1.818  -0.503   1.110  1.00  0.00     0.042 A 
BRANCH  14  15
ATOM     15  N   UNL     1      -3.220  -0.592   1.341  1.00  0.00    -0.353 N 
ATOM     16  H   UNL     1      -3.675   0.265   1.510  1.00  0.00     0.167 HD
BRANCH  15  17
ATOM     17  C   UNL     1      -4.057  -1.744   1.362  1.00  0.00     0.076 A 
ATOM     18  C   UNL     1      -3.699  -2.939   2.010  1.00  0.00     0.067 A 
ATOM     19  C   UNL     1      -5.223  -1.790   0.567  1.00  0.00     0.067 A 
ATOM     20  Cl  UNL     1      -2.557  -2.960   3.314  1.00  0.00    -0.082 Cl
ATOM     21  C   UNL     1      -4.319  -4.152   1.692  1.00  0.00     0.043 A 
ATOM     22  C   UNL     1      -5.812  -3.004   0.196  1.00  0.00     0.043 A 
ATOM     23  Cl  UNL     1      -6.035  -0.341   0.103  1.00  0.00    -0.082 Cl
ATOM     24  C   UNL     1      -5.325  -4.185   0.735  1.00  0.00     0.044 A 
ATOM     25  Cl  UNL     1      -6.007  -5.694   0.271  1.00  0.00    -0.084 Cl
ENDBRANCH  15  17
ENDBRANCH  14  15
ENDBRANCH   7   8
ENDBRANCH   5   7
ENDBRANCH   4   5
ENDBRANCH   3   4
ENDBRANCH   2   3
ENDBRANCH   1   2
BRANCH   1  26
ATOM     26  C   UNL     1      -3.206  -0.157  -2.074  1.00  0.00     0.202 C 
BRANCH  26  27
ATOM     27  C   UNL     1      -3.785  -1.395  -2.752  1.00  0.00     0.261 C 
BRANCH  27  28
ATOM     28  O   UNL     1      -5.134  -1.151  -3.205  1.00  0.00    -0.460 OA
BRANCH  28  29
ATOM     29  C   UNL     1      -5.206  -0.678  -4.484  1.00  0.00     0.338 C 
ATOM     30  O   UNL     1      -4.946  -1.362  -5.468  1.00  0.00    -0.246 OA
BRANCH  29  31
ATOM     31  C   UNL     1      -5.469   0.789  -4.490  1.00  0.00     0.060 A 
ATOM     32  C   UNL     1      -5.037   1.552  -5.585  1.00  0.00     0.016 A 
ATOM     33  C   UNL     1      -5.805   1.417  -3.290  1.00  0.00     0.016 A 
ATOM     34  C   UNL     1      -4.733   2.905  -5.415  1.00  0.00     0.010 A 
ATOM     35  C   UNL     1      -5.394   2.721  -3.096  1.00  0.00     0.010 A 
ATOM     36  C   UNL     1      -4.816   3.457  -4.146  1.00  0.00    -0.014 A 
BRANCH  36  37
ATOM     37  C   UNL     1      -4.353   4.789  -3.775  1.00  0.00     0.031 A 
ATOM     38  C   UNL     1      -5.351   5.756  -3.296  1.00  0.00     0.074 A 
ATOM     39  C   UNL     1      -3.050   5.000  -3.482  1.00  0.00     0.049 A 
ATOM     40  N   UNL     1      -5.044   6.920  -2.851  1.00  0.00    -0.248 NA
ATOM     41  C   UNL     1      -6.791   5.511  -3.318  1.00  0.00     0.031 C 
ATOM     42  C   UNL     1      -2.507   5.826  -2.403  1.00  0.00     0.029 A 
ATOM     43  N   UNL     1      -1.920   4.524  -4.130  1.00  0.00    -0.354 N 
ATOM     44  C   UNL     1      -6.141   7.387  -2.182  1.00  0.00     0.074 A 
ATOM     45  C   UNL     1      -7.238   6.575  -2.643  1.00  0.00     0.031 C 
ATOM     46  C   UNL     1      -1.179   5.934  -2.545  1.00  0.00     0.029 A 
ATOM     47  C   UNL     1      -0.832   5.348  -3.824  1.00  0.00     0.049 A 
ATOM     48  H   UNL     1      -1.888   3.731  -4.713  1.00  0.00     0.167 HD
ATOM     49  C   UNL     1      -5.939   8.310  -1.206  1.00  0.00     0.034 A 
ATOM     50  C   UNL     1      -0.007   5.891  -4.760  1.00  0.00     0.034 A 
ATOM     51  C   UNL     1      -4.552   8.834  -1.242  1.00  0.00     0.049 A 
ATOM     52  C   UNL     1      -0.245   7.392  -4.810  1.00  0.00     0.074 A 
ATOM     53  C   UNL     1      -3.441   8.773  -0.419  1.00  0.00     0.029 A 
ATOM     54  N   UNL     1      -4.079   9.340  -2.449  1.00  0.00    -0.354 N 
ATOM     55  N   UNL     1      -0.832   8.075  -3.860  1.00  0.00    -0.248 NA
ATOM     56  C   UNL     1       0.072   8.229  -5.960  1.00  0.00     0.031 C 
ATOM     57  C   UNL     1      -2.299   9.210  -1.176  1.00  0.00     0.029 A 
ATOM     58  C   UNL     1      -2.717   9.593  -2.441  1.00  0.00     0.049 A 
ATOM     59  H   UNL     1      -4.655   9.503  -3.231  1.00  0.00     0.167 HD
ATOM     60  C   UNL     1      -1.214   9.300  -4.333  1.00  0.00     0.074 A 
ATOM     61  C   UNL     1      -0.557   9.373  -5.635  1.00  0.00     0.031 C 
ATOM     62  C   UNL     1      -2.093  10.120  -3.664  1.00  0.00     0.034 A 
BRANCH  49  63
ATOM     63  C   UNL     1      -6.961   8.675  -0.148  1.00  0.00     0.023 A 
ATOM     64  C   UNL     1      -6.682   9.813   0.637  1.00  0.00     0.012 A 
ATOM     65  C   UNL     1      -8.139   7.953   0.192  1.00  0.00     0.148 A 
ATOM     66  C   UNL     1      -7.514  10.219   1.687  1.00  0.00     0.002 A 
ATOM     67  C   UNL     1      -9.007   8.400   1.195  1.00  0.00     0.091 A 
ATOM     68  F   UNL     1      -8.394   6.773  -0.381  1.00  0.00    -0.205 F 
ATOM     69  C   UNL     1      -8.686   9.526   1.955  1.00  0.00     0.022 A 
BRANCH  67  70
ATOM     70  S   UNL     1     -10.575   7.588   1.572  1.00  0.00     0.127 S 
ATOM     71  O   UNL     1     -10.326   7.043   2.907  1.00  0.00    -0.237 OA
ATOM     72  O   UNL     1     -11.522   8.703   1.541  1.00  0.00    -0.237 OA
ATOM     73  O   UNL     1     -10.785   6.594   0.527  1.00  0.00    -0.744 OA
ENDBRANCH  67  70
ENDBRANCH  49  63
BRANCH  50  74
ATOM     74  C   UNL     1       0.243   4.916  -5.870  1.00  0.00     0.023 A 
ATOM     75  C   UNL     1       1.028   3.791  -5.497  1.00  0.00     0.012 A 
ATOM     76  C   UNL     1      -0.672   4.775  -6.929  1.00  0.00     0.148 A 
ATOM     77  C   UNL     1       0.755   2.521  -6.011  1.00  0.00     0.002 A 
ATOM     78  C   UNL     1      -0.949   3.498  -7.426  1.00  0.00     0.091 A 
ATOM     79  F   UNL     1      -1.378   5.848  -7.306  1.00  0.00    -0.205 F 
ATOM     80  C   UNL     1      -0.271   2.369  -6.934  1.00  0.00     0.022 A 
BRANCH  78  81
ATOM     81  S   UNL     1      -2.334   3.206  -8.537  1.00  0.00     0.127 S 
ATOM     82  O   UNL     1      -1.669   3.188  -9.835  1.00  0.00    -0.237 OA
ATOM     83  O   UNL     1      -2.836   1.911  -8.081  1.00  0.00    -0.237 OA
ATOM     84  O   UNL     1      -3.242   4.316  -8.291  1.00  0.00    -0.744 OA
ENDBRANCH  78  81
ENDBRANCH  50  74
BRANCH  62  85
ATOM     85  C   UNL     1      -2.472  11.508  -4.171  1.00  0.00     0.023 A 
ATOM     86  C   UNL     1      -1.547  12.279  -4.902  1.00  0.00     0.012 A 
ATOM     87  C   UNL     1      -3.702  12.146  -3.856  1.00  0.00     0.148 A 
ATOM     88  C   UNL     1      -1.871  13.535  -5.424  1.00  0.00     0.002 A 
ATOM     89  C   UNL     1      -3.992  13.430  -4.303  1.00  0.00     0.091 A 
ATOM     90  F   UNL     1      -4.620  11.518  -3.118  1.00  0.00    -0.205 F 
ATOM     91  C   UNL     1      -3.099  14.110  -5.130  1.00  0.00     0.022 A 
BRANCH  89  92
ATOM     92  S   UNL     1      -5.468  14.323  -3.787  1.00  0.00     0.127 S 
ATOM     93  O   UNL     1      -4.884  15.493  -3.129  1.00  0.00    -0.237 OA
ATOM     94  O   UNL     1      -6.112  14.601  -5.069  1.00  0.00    -0.237 OA
ATOM     95  O   UNL     1      -6.204  13.432  -2.902  1.00  0.00    -0.744 OA
ENDBRANCH  89  92
ENDBRANCH  62  85
ENDBRANCH  36  37
ENDBRANCH  29  31
ENDBRANCH  28  29
ENDBRANCH  27  28
ENDBRANCH  26  27
ENDBRANCH   1  26
TORSDOF 20
