REMARK SMILES CCOC(=O)C1CCN(c2cc(NCC(=O)OCCOCCOC(=O)c3ccc(-c4c5nc(c(-c6cccc(S(=O)(=O)[O-])c6F)c6ccc([nH]6)c(-c6cccc(S(=O)(=O)[O-])c6F)c6nc(c(-c7cccc(S(=O)(=O)[O-])c7F)c7ccc4[nH]7)C=C6)C=C5)cc3)c3c4c(onc24)-c2ccccc2C3=O)CC1
REMARK SMILES IDX 18 1 17 2 15 3 16 4 14 5 13 6 12 8 10 9 11 10 94 11 90 12
REMARK SMILES IDX 93 13 89 14 91 15 92 16 101 17 95 18 100 19 102 20 96 21
REMARK SMILES IDX 99 22 97 23 98 24 9 25 6 26 7 27 104 28 8 29 103 30 4 31
REMARK SMILES IDX 5 32 3 33 2 34 1 35 19 36 20 37 21 38 22 39 23 40 24 41
REMARK SMILES IDX 25 42 26 43 27 44 88 45 28 46 87 47 29 48 30 49 31 50 81 51
REMARK SMILES IDX 32 52 86 53 80 54 82 55 33 56 85 57 79 58 78 59 34 61 66 62
REMARK SMILES IDX 46 63 65 64 47 65 50 66 64 67 83 68 48 69 49 70 63 72 84 73
REMARK SMILES IDX 51 74 35 75 36 76 44 77 37 78 39 79 45 80 38 81 40 82 41 83
REMARK SMILES IDX 42 84 43 85 67 86 68 87 76 88 69 89 71 90 77 91 70 92 72 93
REMARK SMILES IDX 73 94 74 95 75 96 52 97 53 98 61 99 54 100 56 101 62 102
REMARK SMILES IDX 55 103 57 104 58 105 59 106 60 107
REMARK H PARENT 13 7 82 60 50 71
REMARK Flexibility Score: inf
ROOT
ATOM      1  C   UNL     1      11.205  -2.496  -1.001  1.00  0.00     0.261 C 
ENDROOT
BRANCH   1   2
ATOM      2  O   UNL     1      10.602  -2.805   0.263  1.00  0.00    -0.462 OA
BRANCH   2   3
ATOM      3  C   UNL     1      10.012  -4.029   0.338  1.00  0.00     0.325 C 
ATOM      4  O   UNL     1       9.958  -4.851  -0.574  1.00  0.00    -0.250 OA
BRANCH   3   5
ATOM      5  C   UNL     1       9.493  -4.366   1.730  1.00  0.00     0.236 C 
BRANCH   5   6
ATOM      6  N   UNL     1       9.954  -3.495   2.816  1.00  0.00    -0.374 N 
ATOM      7  H   UNL     1      10.924  -3.473   2.986  1.00  0.00     0.161 HD
BRANCH   6   8
ATOM      8  C   UNL     1       9.159  -2.699   3.627  1.00  0.00     0.049 A 
ATOM      9  C   UNL     1       6.816  -1.720   4.068  1.00  0.00     0.069 A 
ATOM     10  C   UNL     1       7.775  -2.441   3.284  1.00  0.00     0.054 A 
ATOM     11  C   UNL     1       7.386  -1.204   5.254  1.00  0.00     0.138 A 
ATOM     12  C   UNL     1       8.742  -1.473   5.539  1.00  0.00     0.065 A 
ATOM     13  N   UNL     1       6.872  -0.498   6.292  1.00  0.00    -0.077 NA
ATOM     14  C   UNL     1       9.686  -2.196   4.842  1.00  0.00     0.059 A 
ATOM     15  C   UNL     1       9.013  -0.951   6.755  1.00  0.00     0.176 A 
ATOM     16  O   UNL     1       7.902  -0.345   7.230  1.00  0.00    -0.355 OA
ATOM     17  C   UNL     1      11.029  -2.390   5.466  1.00  0.00     0.196 C 
ATOM     18  C   UNL     1      10.248  -1.047   7.479  1.00  0.00     0.032 A 
ATOM     19  C   UNL     1      11.276  -1.776   6.833  1.00  0.00     0.034 A 
ATOM     20  O   UNL     1      11.904  -3.041   4.907  1.00  0.00    -0.288 OA
ATOM     21  C   UNL     1      10.456  -0.485   8.738  1.00  0.00     0.013 A 
ATOM     22  C   UNL     1      12.509  -1.934   7.469  1.00  0.00     0.013 A 
ATOM     23  C   UNL     1      11.693  -0.646   9.361  1.00  0.00     0.001 A 
ATOM     24  C   UNL     1      12.713  -1.367   8.731  1.00  0.00     0.001 A 
BRANCH   9  25
ATOM     25  N   UNL     1       5.483  -1.628   3.742  1.00  0.00    -0.370 N 
ATOM     26  C   UNL     1       2.668  -1.395   3.472  1.00  0.00     0.103 C 
ATOM     27  C   UNL     1       3.547  -0.178   3.788  1.00  0.00     0.037 C 
ATOM     28  C   UNL     1       3.346  -2.734   3.794  1.00  0.00     0.037 C 
ATOM     29  C   UNL     1       4.983  -0.336   3.291  1.00  0.00     0.117 C 
ATOM     30  C   UNL     1       4.778  -2.808   3.265  1.00  0.00     0.117 C 
BRANCH  26  31
ATOM     31  C   UNL     1       2.240  -1.387   2.021  1.00  0.00     0.309 C 
ATOM     32  O   UNL     1       2.972  -1.659   1.082  1.00  0.00    -0.252 OA
BRANCH  31  33
ATOM     33  O   UNL     1       0.919  -1.073   1.916  1.00  0.00    -0.466 OA
BRANCH  33  34
ATOM     34  C   UNL     1       0.400  -1.109   0.579  1.00  0.00     0.229 C 
ATOM     35  C   UNL     1       0.719   0.180  -0.154  1.00  0.00     0.049 C 
ENDBRANCH  33  34
ENDBRANCH  31  33
ENDBRANCH  26  31
ENDBRANCH   9  25
ENDBRANCH   6   8
ENDBRANCH   5   6
ENDBRANCH   3   5
ENDBRANCH   2   3
ENDBRANCH   1   2
BRANCH   1  36
ATOM     36  C   UNL     1      12.740  -2.559  -0.953  1.00  0.00     0.202 C 
BRANCH  36  37
ATOM     37  O   UNL     1      13.344  -3.753  -0.451  1.00  0.00    -0.374 OA
BRANCH  37  38
ATOM     38  C   UNL     1      13.319  -3.978   0.961  1.00  0.00     0.202 C 
BRANCH  38  39
ATOM     39  C   UNL     1      14.002  -2.934   1.850  1.00  0.00     0.261 C 
BRANCH  39  40
ATOM     40  O   UNL     1      13.179  -1.766   1.967  1.00  0.00    -0.460 OA
BRANCH  40  41
ATOM     41  C   UNL     1      13.814  -0.580   1.784  1.00  0.00     0.338 C 
ATOM     42  O   UNL     1      14.999  -0.370   1.683  1.00  0.00    -0.246 OA
BRANCH  41  43
ATOM     43  C   UNL     1      12.762   0.421   1.553  1.00  0.00     0.060 A 
ATOM     44  C   UNL     1      11.954   0.840   2.608  1.00  0.00     0.016 A 
ATOM     45  C   UNL     1      12.568   0.897   0.252  1.00  0.00     0.016 A 
ATOM     46  C   UNL     1      10.941   1.757   2.349  1.00  0.00     0.010 A 
ATOM     47  C   UNL     1      11.531   1.784  -0.008  1.00  0.00     0.010 A 
ATOM     48  C   UNL     1      10.727   2.235   1.042  1.00  0.00    -0.014 A 
BRANCH  48  49
ATOM     49  C   UNL     1       9.696   3.269   0.850  1.00  0.00     0.031 A 
ATOM     50  C   UNL     1       9.999   4.345  -0.154  1.00  0.00     0.074 A 
ATOM     51  C   UNL     1       8.409   2.914   1.027  1.00  0.00     0.049 A 
ATOM     52  N   UNL     1       9.792   4.263  -1.437  1.00  0.00    -0.248 NA
ATOM     53  C   UNL     1      10.786   5.517   0.238  1.00  0.00     0.031 C 
ATOM     54  C   UNL     1       7.787   1.727   0.433  1.00  0.00     0.029 A 
ATOM     55  N   UNL     1       7.363   3.644   1.535  1.00  0.00    -0.354 N 
ATOM     56  C   UNL     1      10.431   5.346  -2.029  1.00  0.00     0.074 A 
ATOM     57  C   UNL     1      11.036   6.091  -0.948  1.00  0.00     0.031 C 
ATOM     58  C   UNL     1       6.448   1.886   0.464  1.00  0.00     0.029 A 
ATOM     59  C   UNL     1       6.125   3.123   1.169  1.00  0.00     0.049 A 
ATOM     60  H   UNL     1       7.476   4.446   2.095  1.00  0.00     0.167 HD
ATOM     61  C   UNL     1      10.420   5.598  -3.367  1.00  0.00     0.034 A 
ATOM     62  C   UNL     1       5.014   3.894   1.004  1.00  0.00     0.034 A 
ATOM     63  C   UNL     1       9.640   4.692  -4.154  1.00  0.00     0.049 A 
ATOM     64  C   UNL     1       5.230   4.359  -0.421  1.00  0.00     0.074 A 
ATOM     65  C   UNL     1       9.855   3.549  -4.892  1.00  0.00     0.029 A 
ATOM     66  N   UNL     1       8.279   4.880  -4.188  1.00  0.00    -0.354 N 
ATOM     67  N   UNL     1       5.044   3.647  -1.504  1.00  0.00    -0.248 NA
ATOM     68  C   UNL     1       6.091   5.530  -0.607  1.00  0.00     0.031 C 
ATOM     69  C   UNL     1       8.593   2.876  -4.926  1.00  0.00     0.029 A 
ATOM     70  C   UNL     1       7.696   3.639  -4.180  1.00  0.00     0.049 A 
ATOM     71  H   UNL     1       7.810   5.745  -4.213  1.00  0.00     0.167 HD
ATOM     72  C   UNL     1       6.031   4.079  -2.398  1.00  0.00     0.074 A 
ATOM     73  C   UNL     1       6.610   5.265  -1.798  1.00  0.00     0.031 C 
ATOM     74  C   UNL     1       6.466   3.356  -3.473  1.00  0.00     0.034 A 
BRANCH  61  75
ATOM     75  C   UNL     1      10.945   6.838  -3.995  1.00  0.00     0.023 A 
ATOM     76  C   UNL     1      10.038   7.907  -4.141  1.00  0.00     0.012 A 
ATOM     77  C   UNL     1      12.201   6.908  -4.625  1.00  0.00     0.148 A 
ATOM     78  C   UNL     1      10.349   9.007  -4.936  1.00  0.00     0.002 A 
ATOM     79  C   UNL     1      12.511   8.017  -5.412  1.00  0.00     0.091 A 
ATOM     80  F   UNL     1      13.047   5.877  -4.486  1.00  0.00    -0.205 F 
ATOM     81  C   UNL     1      11.581   9.058  -5.578  1.00  0.00     0.022 A 
BRANCH  79  82
ATOM     82  S   UNL     1      14.071   8.201  -6.286  1.00  0.00     0.127 S 
ATOM     83  O   UNL     1      13.661   8.036  -7.679  1.00  0.00    -0.237 OA
ATOM     84  O   UNL     1      14.464   9.565  -5.926  1.00  0.00    -0.237 OA
ATOM     85  O   UNL     1      14.947   7.164  -5.760  1.00  0.00    -0.744 OA
ENDBRANCH  79  82
ENDBRANCH  61  75
BRANCH  62  86
ATOM     86  C   UNL     1       4.721   4.805   2.169  1.00  0.00     0.023 A 
ATOM     87  C   UNL     1       4.785   4.224   3.463  1.00  0.00     0.012 A 
ATOM     88  C   UNL     1       4.443   6.180   2.094  1.00  0.00     0.148 A 
ATOM     89  C   UNL     1       4.715   4.992   4.626  1.00  0.00     0.002 A 
ATOM     90  C   UNL     1       4.415   6.953   3.257  1.00  0.00     0.091 A 
ATOM     91  F   UNL     1       4.238   6.738   0.895  1.00  0.00    -0.205 F 
ATOM     92  C   UNL     1       4.560   6.364   4.521  1.00  0.00     0.022 A 
BRANCH  90  93
ATOM     93  S   UNL     1       4.280   8.746   3.216  1.00  0.00     0.127 S 
ATOM     94  O   UNL     1       3.331   9.011   4.296  1.00  0.00    -0.237 OA
ATOM     95  O   UNL     1       5.659   9.142   3.495  1.00  0.00    -0.237 OA
ATOM     96  O   UNL     1       3.790   9.069   1.883  1.00  0.00    -0.744 OA
ENDBRANCH  90  93
ENDBRANCH  62  86
BRANCH  74  97
ATOM     97  C   UNL     1       5.717   2.101  -3.793  1.00  0.00     0.023 A 
ATOM     98  C   UNL     1       4.436   2.213  -4.359  1.00  0.00     0.012 A 
ATOM     99  C   UNL     1       6.299   0.825  -3.644  1.00  0.00     0.148 A 
ATOM    100  C   UNL     1       3.753   1.081  -4.800  1.00  0.00     0.002 A 
ATOM    101  C   UNL     1       5.629  -0.297  -4.117  1.00  0.00     0.091 A 
ATOM    102  F   UNL     1       7.510   0.729  -3.075  1.00  0.00    -0.205 F 
ATOM    103  C   UNL     1       4.355  -0.170  -4.694  1.00  0.00     0.022 A 
BRANCH 101 104
ATOM    104  S   UNL     1       6.349  -1.943  -4.097  1.00  0.00     0.127 S 
ATOM    105  O   UNL     1       5.322  -2.719  -3.402  1.00  0.00    -0.237 OA
ATOM    106  O   UNL     1       6.465  -2.235  -5.526  1.00  0.00    -0.237 OA
ATOM    107  O   UNL     1       7.615  -1.828  -3.386  1.00  0.00    -0.744 OA
ENDBRANCH 101 104
ENDBRANCH  74  97
ENDBRANCH  48  49
ENDBRANCH  41  43
ENDBRANCH  40  41
ENDBRANCH  39  40
ENDBRANCH  38  39
ENDBRANCH  37  38
ENDBRANCH  36  37
ENDBRANCH   1  36
TORSDOF 23
