REMARK SMILES CC(C)(C(=O)OCCOCCOC(=O)c1ccc(-c2c3nc(c(-c4cccc(S(=O)(=O)[O-])c4F)c4ccc([nH]4)c(-c4cccc(S(=O)(=O)[O-])c4F)c4nc(c(-c5cccc(S(=O)(=O)[O-])c5F)c5ccc2[nH]5)C=C4)C=C3)cc1)n1cccc1
REMARK SMILES IDX 10 1 9 2 8 3 7 4 6 5 4 6 5 7 2 8 1 9 3 10 78 11 79 12 82 13
REMARK SMILES IDX 80 14 81 15 11 16 12 17 13 18 14 19 15 20 16 21 77 22 17 23
REMARK SMILES IDX 76 24 18 25 19 26 20 27 70 28 21 29 75 30 69 31 71 32 22 33
REMARK SMILES IDX 74 34 68 35 67 36 23 38 55 39 35 40 54 41 36 42 39 43 53 44
REMARK SMILES IDX 72 45 37 46 38 47 52 49 73 50 40 51 24 52 25 53 33 54 26 55
REMARK SMILES IDX 28 56 34 57 27 58 29 59 30 60 31 61 32 62 56 63 57 64 65 65
REMARK SMILES IDX 58 66 60 67 66 68 59 69 61 70 62 71 63 72 64 73 41 74 42 75
REMARK SMILES IDX 50 76 43 77 45 78 51 79 44 80 46 81 47 82 48 83 49 84
REMARK H PARENT 71 37 39 48
REMARK Flexibility Score: inf
ROOT
ATOM      1  C   UNL     1      -2.053  -1.206  -1.549  1.00  0.00     0.202 C 
ENDROOT
BRANCH   1   2
ATOM      2  O   UNL     1      -3.270  -1.554  -0.887  1.00  0.00    -0.374 OA
BRANCH   2   3
ATOM      3  C   UNL     1      -3.687  -0.739   0.208  1.00  0.00     0.202 C 
BRANCH   3   4
ATOM      4  C   UNL     1      -2.894  -0.878   1.511  1.00  0.00     0.261 C 
BRANCH   4   5
ATOM      5  O   UNL     1      -1.492  -0.643   1.302  1.00  0.00    -0.461 OA
BRANCH   5   6
ATOM      6  C   UNL     1      -0.649  -1.595   1.794  1.00  0.00     0.331 C 
ATOM      7  O   UNL     1      -1.015  -2.510   2.527  1.00  0.00    -0.249 OA
BRANCH   6   8
ATOM      8  C   UNL     1       0.809  -1.411   1.314  1.00  0.00     0.136 C 
ATOM      9  C   UNL     1       1.026  -0.025   0.659  1.00  0.00     0.047 C 
ATOM     10  C   UNL     1       1.698  -1.455   2.572  1.00  0.00     0.047 C 
BRANCH   8  11
ATOM     11  N   UNL     1       1.190  -2.524   0.405  1.00  0.00    -0.338 N 
ATOM     12  C   UNL     1       1.850  -2.423  -0.800  1.00  0.00     0.087 A 
ATOM     13  C   UNL     1       0.984  -3.865   0.657  1.00  0.00     0.087 A 
ATOM     14  C   UNL     1       2.014  -3.687  -1.325  1.00  0.00     0.019 A 
ATOM     15  C   UNL     1       1.462  -4.599  -0.404  1.00  0.00     0.019 A 
ENDBRANCH   8  11
ENDBRANCH   6   8
ENDBRANCH   5   6
ENDBRANCH   4   5
ENDBRANCH   3   4
ENDBRANCH   2   3
ENDBRANCH   1   2
BRANCH   1  16
ATOM     16  C   UNL     1      -2.056   0.077  -2.393  1.00  0.00     0.261 C 
BRANCH  16  17
ATOM     17  O   UNL     1      -2.314   1.264  -1.619  1.00  0.00    -0.460 OA
BRANCH  17  18
ATOM     18  C   UNL     1      -3.414   1.959  -2.004  1.00  0.00     0.338 C 
ATOM     19  O   UNL     1      -4.122   1.731  -2.977  1.00  0.00    -0.246 OA
BRANCH  18  20
ATOM     20  C   UNL     1      -3.791   2.959  -0.989  1.00  0.00     0.060 A 
ATOM     21  C   UNL     1      -5.075   2.860  -0.439  1.00  0.00     0.016 A 
ATOM     22  C   UNL     1      -2.963   4.035  -0.661  1.00  0.00     0.016 A 
ATOM     23  C   UNL     1      -5.556   3.863   0.400  1.00  0.00     0.010 A 
ATOM     24  C   UNL     1      -3.453   5.047   0.178  1.00  0.00     0.010 A 
ATOM     25  C   UNL     1      -4.765   4.985   0.681  1.00  0.00    -0.014 A 
BRANCH  25  26
ATOM     26  C   UNL     1      -5.378   6.130   1.402  1.00  0.00     0.031 A 
ATOM     27  C   UNL     1      -5.874   7.320   0.623  1.00  0.00     0.074 A 
ATOM     28  C   UNL     1      -5.544   6.087   2.737  1.00  0.00     0.049 A 
ATOM     29  N   UNL     1      -6.512   8.379   1.050  1.00  0.00    -0.248 NA
ATOM     30  C   UNL     1      -5.623   7.314  -0.828  1.00  0.00     0.031 C 
ATOM     31  C   UNL     1      -5.096   5.001   3.608  1.00  0.00     0.029 A 
ATOM     32  N   UNL     1      -6.127   6.987   3.594  1.00  0.00    -0.354 N 
ATOM     33  C   UNL     1      -6.736   9.168  -0.073  1.00  0.00     0.074 A 
ATOM     34  C   UNL     1      -6.141   8.477  -1.198  1.00  0.00     0.031 C 
ATOM     35  C   UNL     1      -5.404   5.308   4.880  1.00  0.00     0.029 A 
ATOM     36  C   UNL     1      -6.064   6.611   4.915  1.00  0.00     0.049 A 
ATOM     37  H   UNL     1      -6.550   7.823   3.291  1.00  0.00     0.167 HD
ATOM     38  C   UNL     1      -7.399  10.345  -0.167  1.00  0.00     0.034 A 
ATOM     39  C   UNL     1      -6.486   7.248   6.026  1.00  0.00     0.034 A 
ATOM     40  C   UNL     1      -8.006  11.027   0.945  1.00  0.00     0.049 A 
ATOM     41  C   UNL     1      -7.217   8.559   5.893  1.00  0.00     0.074 A 
ATOM     42  C   UNL     1      -8.725  12.210   0.941  1.00  0.00     0.029 A 
ATOM     43  N   UNL     1      -7.961  10.593   2.260  1.00  0.00    -0.354 N 
ATOM     44  N   UNL     1      -7.536   9.221   4.807  1.00  0.00    -0.248 NA
ATOM     45  C   UNL     1      -7.685   9.189   7.137  1.00  0.00     0.031 C 
ATOM     46  C   UNL     1      -9.105  12.497   2.256  1.00  0.00     0.029 A 
ATOM     47  C   UNL     1      -8.635  11.485   3.077  1.00  0.00     0.049 A 
ATOM     48  H   UNL     1      -7.516   9.771   2.568  1.00  0.00     0.167 HD
ATOM     49  C   UNL     1      -8.261  10.329   5.234  1.00  0.00     0.074 A 
ATOM     50  C   UNL     1      -8.365  10.229   6.675  1.00  0.00     0.031 C 
ATOM     51  C   UNL     1      -8.774  11.350   4.504  1.00  0.00     0.034 A 
BRANCH  38  52
ATOM     52  C   UNL     1      -7.555  10.951  -1.537  1.00  0.00     0.023 A 
ATOM     53  C   UNL     1      -8.488  10.392  -2.434  1.00  0.00     0.012 A 
ATOM     54  C   UNL     1      -6.844  12.108  -1.909  1.00  0.00     0.148 A 
ATOM     55  C   UNL     1      -8.696  10.962  -3.689  1.00  0.00     0.002 A 
ATOM     56  C   UNL     1      -7.084  12.692  -3.149  1.00  0.00     0.091 A 
ATOM     57  F   UNL     1      -5.948  12.612  -1.050  1.00  0.00    -0.205 F 
ATOM     58  C   UNL     1      -8.003  12.116  -4.042  1.00  0.00     0.022 A 
BRANCH  56  59
ATOM     59  S   UNL     1      -6.294  14.218  -3.673  1.00  0.00     0.127 S 
ATOM     60  O   UNL     1      -5.405  13.741  -4.732  1.00  0.00    -0.237 OA
ATOM     61  O   UNL     1      -7.432  15.009  -4.142  1.00  0.00    -0.237 OA
ATOM     62  O   UNL     1      -5.627  14.752  -2.493  1.00  0.00    -0.744 OA
ENDBRANCH  56  59
ENDBRANCH  38  52
BRANCH  39  63
ATOM     63  C   UNL     1      -6.266   6.633   7.365  1.00  0.00     0.023 A 
ATOM     64  C   UNL     1      -7.364   6.159   8.108  1.00  0.00     0.012 A 
ATOM     65  C   UNL     1      -4.970   6.510   7.902  1.00  0.00     0.148 A 
ATOM     66  C   UNL     1      -7.179   5.605   9.376  1.00  0.00     0.002 A 
ATOM     67  C   UNL     1      -4.787   5.904   9.140  1.00  0.00     0.091 A 
ATOM     68  F   UNL     1      -3.938   6.990   7.194  1.00  0.00    -0.205 F 
ATOM     69  C   UNL     1      -5.891   5.466   9.887  1.00  0.00     0.022 A 
BRANCH  67  70
ATOM     70  S   UNL     1      -3.148   5.567   9.795  1.00  0.00     0.127 S 
ATOM     71  O   UNL     1      -2.980   6.653  10.757  1.00  0.00    -0.237 OA
ATOM     72  O   UNL     1      -3.319   4.239  10.387  1.00  0.00    -0.237 OA
ATOM     73  O   UNL     1      -2.262   5.591   8.638  1.00  0.00    -0.744 OA
ENDBRANCH  67  70
ENDBRANCH  39  63
BRANCH  51  74
ATOM     74  C   UNL     1      -9.507  12.437   5.248  1.00  0.00     0.023 A 
ATOM     75  C   UNL     1      -8.777  13.353   6.032  1.00  0.00     0.012 A 
ATOM     76  C   UNL     1     -10.902  12.586   5.132  1.00  0.00     0.148 A 
ATOM     77  C   UNL     1      -9.429  14.375   6.721  1.00  0.00     0.002 A 
ATOM     78  C   UNL     1     -11.541  13.634   5.787  1.00  0.00     0.091 A 
ATOM     79  F   UNL     1     -11.585  11.695   4.399  1.00  0.00    -0.205 F 
ATOM     80  C   UNL     1     -10.808  14.522   6.591  1.00  0.00     0.022 A 
BRANCH  78  81
ATOM     81  S   UNL     1     -13.300  13.946   5.600  1.00  0.00     0.127 S 
ATOM     82  O   UNL     1     -13.838  13.371   6.831  1.00  0.00    -0.237 OA
ATOM     83  O   UNL     1     -13.358  15.407   5.534  1.00  0.00    -0.237 OA
ATOM     84  O   UNL     1     -13.689  13.275   4.366  1.00  0.00    -0.744 OA
ENDBRANCH  78  81
ENDBRANCH  51  74
ENDBRANCH  25  26
ENDBRANCH  18  20
ENDBRANCH  17  18
ENDBRANCH  16  17
ENDBRANCH   1  16
TORSDOF 18
