REMARK SMILES C[C@@H](NC(=O)N[C@H]1CCCCC[C@@H]1C(=O)OCCOCCOC(=O)c1ccc(-c2c3nc(c(-c4cccc(S(=O)(=O)[O-])c4F)c4ccc([nH]4)c(-c4cccc(S(=O)(=O)[O-])c4F)c4nc(c(-c5cccc(S(=O)(=O)[O-])c5F)c5ccc2[nH]5)C=C4)C=C3)cc1)c1nccs1
REMARK SMILES IDX 18 1 17 2 16 3 14 4 15 5 13 6 7 7 6 8 3 9 4 10 5 12 2 14
REMARK SMILES IDX 1 15 88 16 89 17 92 18 90 19 91 20 8 21 9 22 10 23 11 24
REMARK SMILES IDX 12 26 19 28 20 29 21 30 22 31 23 32 24 33 25 34 26 35 87 36
REMARK SMILES IDX 27 37 86 38 28 39 29 40 30 41 80 42 31 43 85 44 79 45 81 46
REMARK SMILES IDX 32 47 84 48 78 49 77 50 33 52 65 53 45 54 64 55 46 56 49 57
REMARK SMILES IDX 63 58 82 59 47 60 48 61 62 63 83 64 50 65 34 66 35 67 43 68
REMARK SMILES IDX 36 69 38 70 44 71 37 72 39 73 40 74 41 75 42 76 66 77 67 78
REMARK SMILES IDX 75 79 68 80 70 81 76 82 69 83 71 84 72 85 73 86 74 87 51 88
REMARK SMILES IDX 52 89 60 90 53 91 55 92 61 93 54 94 56 95 57 96 58 97 59 98
REMARK H PARENT 3 11 6 13 81 51 49 62
REMARK Flexibility Score: 90.00
ROOT
ATOM      1  C   UNL     1      -5.729  -6.232   1.008  1.00  0.00     0.202 C 
ENDROOT
BRANCH   1   2
ATOM      2  C   UNL     1      -5.156  -5.795  -0.336  1.00  0.00     0.261 C 
BRANCH   2   3
ATOM      3  O   UNL     1      -4.160  -4.782  -0.141  1.00  0.00    -0.463 OA
BRANCH   3   4
ATOM      4  C   UNL     1      -4.463  -3.569  -0.658  1.00  0.00     0.311 C 
ATOM      5  O   UNL     1      -5.491  -3.388  -1.320  1.00  0.00    -0.252 OA
BRANCH   4   6
ATOM      6  C   UNL     1      -3.496  -2.257  -0.257  1.00  0.00     0.121 C 
BRANCH   6   7
ATOM      7  C   UNL     1      -1.318  -1.724  -0.019  1.00  0.00     0.098 C 
BRANCH   7   8
ATOM      8  N   UNL     1      -0.242  -1.363  -1.223  1.00  0.00    -0.335 N 
ATOM      9  N   UNL     1      -1.300   0.474  -2.259  1.00  0.00    -0.329 N 
ATOM     10  C   UNL     1      -0.274  -0.410  -2.189  1.00  0.00     0.315 C 
ATOM     11  H   UNL     1      -1.254   1.093  -3.023  1.00  0.00     0.166 HD
ATOM     12  O   UNL     1       0.629  -0.340  -3.022  1.00  0.00    -0.249 OA
ATOM     13  H   UNL     1       0.557  -1.938  -1.242  1.00  0.00     0.165 HD
BRANCH   9  14
ATOM     14  C   UNL     1      -2.476   0.664  -1.382  1.00  0.00     0.140 C 
ATOM     15  C   UNL     1      -2.475   2.107  -0.955  1.00  0.00     0.039 C 
BRANCH  14  16
ATOM     16  C   UNL     1      -2.649  -0.655  -0.645  1.00  0.00     0.115 A 
ATOM     17  N   UNL     1      -2.276  -1.968  -1.667  1.00  0.00    -0.247 NA
ATOM     18  S   UNL     1      -2.675  -1.615   1.568  1.00  0.00    -0.125 S 
ATOM     19  C   UNL     1      -1.912  -3.544  -0.863  1.00  0.00     0.123 A 
ATOM     20  C   UNL     1      -2.112  -3.588   0.693  1.00  0.00     0.087 A 
ENDBRANCH  14  16
ENDBRANCH   9  14
ENDBRANCH   7   8
BRANCH   7  21
ATOM     21  C   UNL     1      -0.841  -0.149   0.946  1.00  0.00     0.026 C 
BRANCH  21  22
ATOM     22  C   UNL     1      -1.853   0.946   1.659  1.00  0.00     0.002 C 
BRANCH  22  23
ATOM     23  C   UNL     1      -3.470   0.956   1.847  1.00  0.00     0.000 C 
BRANCH  23  24
ATOM     24  C   UNL     1      -4.620   0.363   0.898  1.00  0.00     0.001 CG0
ATOM     25  G   UNL     1      -4.839  -1.181   0.510  1.00  0.00     0.000 G0
ENDBRANCH  23  24
ENDBRANCH  22  23
ENDBRANCH  21  22
ENDBRANCH   7  21
ENDBRANCH   6   7
BRANCH   6  26
ATOM     26  C   UNL     1      -4.839  -1.181   0.510  1.00  0.00     0.017 CG0
ATOM     27  G   UNL     1      -4.620   0.363   0.898  1.00  0.00     0.000 G0
ENDBRANCH   6  26
ENDBRANCH   4   6
ENDBRANCH   3   4
ENDBRANCH   2   3
ENDBRANCH   1   2
BRANCH   1  28
ATOM     28  O   UNL     1      -6.280  -5.224   1.856  1.00  0.00    -0.374 OA
BRANCH  28  29
ATOM     29  C   UNL     1      -5.370  -4.371   2.549  1.00  0.00     0.202 C 
BRANCH  29  30
ATOM     30  C   UNL     1      -4.635  -4.928   3.775  1.00  0.00     0.261 C 
BRANCH  30  31
ATOM     31  O   UNL     1      -3.845  -6.085   3.470  1.00  0.00    -0.460 OA
BRANCH  31  32
ATOM     32  C   UNL     1      -4.411  -7.250   3.877  1.00  0.00     0.338 C 
ATOM     33  O   UNL     1      -5.420  -7.382   4.548  1.00  0.00    -0.246 OA
BRANCH  32  34
ATOM     34  C   UNL     1      -3.760  -8.384   3.199  1.00  0.00     0.060 A 
ATOM     35  C   UNL     1      -4.596  -9.260   2.493  1.00  0.00     0.016 A 
ATOM     36  C   UNL     1      -2.388  -8.621   3.293  1.00  0.00     0.016 A 
ATOM     37  C   UNL     1      -4.075 -10.419   1.937  1.00  0.00     0.010 A 
ATOM     38  C   UNL     1      -1.867  -9.798   2.749  1.00  0.00     0.010 A 
ATOM     39  C   UNL     1      -2.721 -10.721   2.118  1.00  0.00    -0.014 A 
BRANCH  39  40
ATOM     40  C   UNL     1      -2.270 -12.099   1.832  1.00  0.00     0.031 A 
ATOM     41  C   UNL     1      -2.165 -13.066   2.980  1.00  0.00     0.074 A 
ATOM     42  C   UNL     1      -2.026 -12.492   0.571  1.00  0.00     0.049 A 
ATOM     43  N   UNL     1      -1.819 -14.325   2.972  1.00  0.00    -0.248 NA
ATOM     44  C   UNL     1      -2.497 -12.542   4.317  1.00  0.00     0.031 C 
ATOM     45  C   UNL     1      -2.127 -11.639  -0.612  1.00  0.00     0.029 A 
ATOM     46  N   UNL     1      -1.632 -13.709   0.080  1.00  0.00    -0.354 N 
ATOM     47  C   UNL     1      -1.863 -14.736   4.299  1.00  0.00     0.074 A 
ATOM     48  C   UNL     1      -2.256 -13.591   5.088  1.00  0.00     0.031 C 
ATOM     49  C   UNL     1      -1.778 -12.355  -1.694  1.00  0.00     0.029 A 
ATOM     50  C   UNL     1      -1.406 -13.704  -1.275  1.00  0.00     0.049 A 
ATOM     51  H   UNL     1      -1.521 -14.508   0.643  1.00  0.00     0.167 HD
ATOM     52  C   UNL     1      -1.611 -15.963   4.810  1.00  0.00     0.034 A 
ATOM     53  C   UNL     1      -0.930 -14.677  -2.076  1.00  0.00     0.034 A 
ATOM     54  C   UNL     1      -1.239 -17.097   4.010  1.00  0.00     0.049 A 
ATOM     55  C   UNL     1      -0.623 -16.024  -1.477  1.00  0.00     0.074 A 
ATOM     56  C   UNL     1      -1.001 -18.396   4.418  1.00  0.00     0.029 A 
ATOM     57  N   UNL     1      -1.035 -17.061   2.639  1.00  0.00    -0.354 N 
ATOM     58  N   UNL     1      -0.769 -16.429  -0.238  1.00  0.00    -0.248 NA
ATOM     59  C   UNL     1      -0.114 -17.057  -2.390  1.00  0.00     0.031 C 
ATOM     60  C   UNL     1      -0.616 -19.138   3.296  1.00  0.00     0.029 A 
ATOM     61  C   UNL     1      -0.653 -18.310   2.185  1.00  0.00     0.049 A 
ATOM     62  H   UNL     1      -1.146 -16.264   2.072  1.00  0.00     0.167 HD
ATOM     63  C   UNL     1      -0.401 -17.769  -0.227  1.00  0.00     0.074 A 
ATOM     64  C   UNL     1      -0.047 -18.113  -1.589  1.00  0.00     0.031 C 
ATOM     65  C   UNL     1      -0.346 -18.636   0.815  1.00  0.00     0.034 A 
BRANCH  52  66
ATOM     66  C   UNL     1      -1.735 -16.140   6.300  1.00  0.00     0.023 A 
ATOM     67  C   UNL     1      -3.007 -16.136   6.908  1.00  0.00     0.012 A 
ATOM     68  C   UNL     1      -0.591 -16.353   7.095  1.00  0.00     0.148 A 
ATOM     69  C   UNL     1      -3.137 -16.310   8.286  1.00  0.00     0.002 A 
ATOM     70  C   UNL     1      -0.732 -16.571   8.460  1.00  0.00     0.091 A 
ATOM     71  F   UNL     1       0.611 -16.327   6.503  1.00  0.00    -0.205 F 
ATOM     72  C   UNL     1      -2.002 -16.538   9.059  1.00  0.00     0.022 A 
BRANCH  70  73
ATOM     73  S   UNL     1       0.661 -16.947   9.530  1.00  0.00     0.127 S 
ATOM     74  O   UNL     1       0.740 -15.736  10.347  1.00  0.00    -0.237 OA
ATOM     75  O   UNL     1       0.189 -18.134  10.242  1.00  0.00    -0.237 OA
ATOM     76  O   UNL     1       1.796 -17.177   8.648  1.00  0.00    -0.744 OA
ENDBRANCH  70  73
ENDBRANCH  52  66
BRANCH  53  77
ATOM     77  C   UNL     1      -0.730 -14.413  -3.529  1.00  0.00     0.023 A 
ATOM     78  C   UNL     1      -1.542 -15.062  -4.479  1.00  0.00     0.012 A 
ATOM     79  C   UNL     1       0.249 -13.502  -3.970  1.00  0.00     0.148 A 
ATOM     80  C   UNL     1      -1.363 -14.828  -5.843  1.00  0.00     0.002 A 
ATOM     81  C   UNL     1       0.383 -13.230  -5.326  1.00  0.00     0.091 A 
ATOM     82  F   UNL     1       1.023 -12.907  -3.051  1.00  0.00    -0.205 F 
ATOM     83  C   UNL     1      -0.410 -13.905  -6.266  1.00  0.00     0.022 A 
BRANCH  81  84
ATOM     84  S   UNL     1       1.493 -11.962  -5.947  1.00  0.00     0.127 S 
ATOM     85  O   UNL     1       2.515 -12.762  -6.616  1.00  0.00    -0.237 OA
ATOM     86  O   UNL     1       0.615 -11.207  -6.842  1.00  0.00    -0.237 OA
ATOM     87  O   UNL     1       1.936 -11.220  -4.775  1.00  0.00    -0.744 OA
ENDBRANCH  81  84
ENDBRANCH  53  77
BRANCH  65  88
ATOM     88  C   UNL     1       0.085 -20.050   0.523  1.00  0.00     0.023 A 
ATOM     89  C   UNL     1       1.433 -20.324   0.222  1.00  0.00     0.012 A 
ATOM     90  C   UNL     1      -0.833 -21.113   0.628  1.00  0.00     0.148 A 
ATOM     91  C   UNL     1       1.855 -21.634  -0.002  1.00  0.00     0.002 A 
ATOM     92  C   UNL     1      -0.395 -22.420   0.455  1.00  0.00     0.091 A 
ATOM     93  F   UNL     1      -2.115 -20.828   0.901  1.00  0.00    -0.205 F 
ATOM     94  C   UNL     1       0.946 -22.681   0.127  1.00  0.00     0.022 A 
BRANCH  92  95
ATOM     95  S   UNL     1      -1.469 -23.838   0.701  1.00  0.00     0.127 S 
ATOM     96  O   UNL     1      -1.619 -24.337  -0.665  1.00  0.00    -0.237 OA
ATOM     97  O   UNL     1      -0.662 -24.688   1.577  1.00  0.00    -0.237 OA
ATOM     98  O   UNL     1      -2.686 -23.321   1.313  1.00  0.00    -0.744 OA
ENDBRANCH  92  95
ENDBRANCH  65  88
ENDBRANCH  39  40
ENDBRANCH  32  34
ENDBRANCH  31  32
ENDBRANCH  30  31
ENDBRANCH  29  30
ENDBRANCH  28  29
ENDBRANCH   1  28
TORSDOF 20
