REMARK SMILES Cc1cccc(-c2ncc(C[NH+]3CCC4(CC3)NC(=O)C[C@H]4C(=O)OCCOCCOC(=O)c3ccc(-c4c5nc(c(-c6cccc(S(=O)(=O)[O-])c6F)c6ccc([nH]6)c(-c6cccc(S(=O)(=O)[O-])c6F)c6nc(c(-c7cccc(S(=O)(=O)[O-])c7F)c7ccc4[nH]7)C=C6)C=C5)cc3)cn2)c1
REMARK SMILES IDX 28 1 27 2 26 3 25 4 23 5 24 6 22 7 12 8 13 9 17 10 14 12
REMARK SMILES IDX 16 13 15 14 18 15 19 16 21 18 20 19 11 20 10 21 7 22 8 23
REMARK SMILES IDX 98 24 9 25 97 26 6 27 1 28 2 29 3 30 99 31 4 32 5 33 29 34
REMARK SMILES IDX 30 35 31 36 32 37 33 38 34 39 35 40 96 41 36 42 95 43 37 44
REMARK SMILES IDX 38 45 39 46 89 47 40 48 94 49 88 50 90 51 41 52 93 53 87 54
REMARK SMILES IDX 86 55 42 57 74 58 54 59 73 60 55 61 58 62 72 63 91 64 56 65
REMARK SMILES IDX 57 66 71 68 92 69 59 70 43 71 44 72 52 73 45 74 47 75 53 76
REMARK SMILES IDX 46 77 48 78 49 79 50 80 51 81 75 82 76 83 84 84 77 85 79 86
REMARK SMILES IDX 85 87 78 88 80 89 81 90 82 91 83 92 60 93 61 94 69 95 62 96
REMARK SMILES IDX 64 97 70 98 63 99 65 100 66 101 67 102 68 103
REMARK H PARENT 12 11 18 17 90 56 58 67
REMARK Flexibility Score: inf
ROOT
ATOM      1  O   UNL     1      -2.075   6.951  -3.087  1.00  0.00    -0.374 OA
ENDROOT
BRANCH   1   2
ATOM      2  C   UNL     1      -2.136   5.550  -3.260  1.00  0.00     0.202 C 
BRANCH   2   3
ATOM      3  C   UNL     1      -0.706   5.040  -3.195  1.00  0.00     0.261 C 
BRANCH   3   4
ATOM      4  O   UNL     1       0.132   5.367  -2.006  1.00  0.00    -0.463 OA
BRANCH   4   5
ATOM      5  C   UNL     1       0.390   6.636  -1.535  1.00  0.00     0.311 C 
ATOM      6  O   UNL     1       0.387   7.659  -2.202  1.00  0.00    -0.252 OA
BRANCH   5   7
ATOM      7  C   UNL     1       0.602   6.670   0.006  1.00  0.00     0.134 C 
ATOM      8  N   UNL     1      -3.280   6.661   1.486  1.00  0.00    -0.331 N 
ATOM      9  C   UNL     1      -2.205   6.915   2.445  1.00  0.00     0.264 C 
ATOM     10  C   UNL     1      -2.733   6.682   0.155  1.00  0.00     0.264 C 
ATOM     11  H   UNL     1      -3.907   7.438   1.698  1.00  0.00     0.348 HD
ATOM     12  C   UNL     1      -0.828   6.217   2.244  1.00  0.00     0.091 C 
ATOM     13  C   UNL     1      -1.688   5.612   0.023  1.00  0.00     0.091 C 
ATOM     14  C   UNL     1      -0.420   5.819   0.797  1.00  0.00     0.064 C 
ATOM     15  N   UNL     1       0.306   4.562   0.915  1.00  0.00    -0.349 N 
ATOM     16  C   UNL     1       1.661   4.651   0.680  1.00  0.00     0.221 C 
ATOM     17  H   UNL     1      -0.137   3.714   1.145  1.00  0.00     0.164 HD
ATOM     18  C   UNL     1       1.974   6.091   0.371  1.00  0.00     0.117 C 
ATOM     19  O   UNL     1       2.442   3.737   0.789  1.00  0.00    -0.275 OA
BRANCH   8  20
ATOM     20  C   UNL     1      -4.307   5.608   1.674  1.00  0.00     0.302 C 
BRANCH  20  21
ATOM     21  C   UNL     1      -3.931   4.177   1.357  1.00  0.00     0.043 A 
ATOM     22  C   UNL     1      -2.561   1.924   0.635  1.00  0.00     0.159 A 
ATOM     23  N   UNL     1      -2.473   2.345   1.915  1.00  0.00    -0.236 NA
ATOM     24  N   UNL     1      -3.379   2.470  -0.286  1.00  0.00    -0.236 NA
ATOM     25  C   UNL     1      -3.183   3.442   2.249  1.00  0.00     0.124 A 
ATOM     26  C   UNL     1      -4.051   3.590   0.097  1.00  0.00     0.124 A 
BRANCH  22  27
ATOM     27  C   UNL     1      -1.675   0.810   0.262  1.00  0.00     0.019 A 
ATOM     28  C   UNL     1       2.085   0.023   0.026  1.00  0.00     0.044 C 
ATOM     29  C   UNL     1       0.590  -0.141   0.025  1.00  0.00    -0.050 A 
ATOM     30  C   UNL     1       0.032  -1.413  -0.114  1.00  0.00     0.003 A 
ATOM     31  C   UNL     1      -0.270   0.957   0.201  1.00  0.00     0.015 A 
ATOM     32  C   UNL     1      -1.353  -1.576  -0.108  1.00  0.00     0.001 A 
ATOM     33  C   UNL     1      -2.197  -0.475   0.070  1.00  0.00     0.012 A 
ENDBRANCH  22  27
ENDBRANCH  20  21
ENDBRANCH   8  20
ENDBRANCH   5   7
ENDBRANCH   4   5
ENDBRANCH   3   4
ENDBRANCH   2   3
ENDBRANCH   1   2
BRANCH   1  34
ATOM     34  C   UNL     1      -3.254   7.724  -3.032  1.00  0.00     0.202 C 
BRANCH  34  35
ATOM     35  C   UNL     1      -4.423   7.284  -3.906  1.00  0.00     0.261 C 
BRANCH  35  36
ATOM     36  O   UNL     1      -4.286   7.821  -5.234  1.00  0.00    -0.460 OA
BRANCH  36  37
ATOM     37  C   UNL     1      -3.787   6.941  -6.146  1.00  0.00     0.338 C 
ATOM     38  O   UNL     1      -4.406   5.968  -6.542  1.00  0.00    -0.246 OA
BRANCH  37  39
ATOM     39  C   UNL     1      -2.345   7.226  -6.394  1.00  0.00     0.060 A 
ATOM     40  C   UNL     1      -1.543   6.261  -7.015  1.00  0.00     0.016 A 
ATOM     41  C   UNL     1      -1.749   8.283  -5.714  1.00  0.00     0.016 A 
ATOM     42  C   UNL     1      -0.167   6.231  -6.770  1.00  0.00     0.010 A 
ATOM     43  C   UNL     1      -0.431   8.152  -5.335  1.00  0.00     0.010 A 
ATOM     44  C   UNL     1       0.364   7.110  -5.841  1.00  0.00    -0.014 A 
BRANCH  44  45
ATOM     45  C   UNL     1       1.761   7.173  -5.426  1.00  0.00     0.031 A 
ATOM     46  C   UNL     1       2.488   8.346  -5.943  1.00  0.00     0.074 A 
ATOM     47  C   UNL     1       2.308   6.408  -4.448  1.00  0.00     0.049 A 
ATOM     48  N   UNL     1       3.735   8.540  -5.730  1.00  0.00    -0.248 NA
ATOM     49  C   UNL     1       1.889   9.389  -6.783  1.00  0.00     0.031 C 
ATOM     50  C   UNL     1       3.399   6.758  -3.536  1.00  0.00     0.029 A 
ATOM     51  N   UNL     1       1.988   5.115  -4.026  1.00  0.00    -0.354 N 
ATOM     52  C   UNL     1       3.974   9.860  -6.001  1.00  0.00     0.074 A 
ATOM     53  C   UNL     1       2.881  10.281  -6.830  1.00  0.00     0.031 C 
ATOM     54  C   UNL     1       3.809   5.658  -2.881  1.00  0.00     0.029 A 
ATOM     55  C   UNL     1       3.120   4.524  -3.464  1.00  0.00     0.049 A 
ATOM     56  H   UNL     1       1.104   4.689  -4.111  1.00  0.00     0.167 HD
ATOM     57  C   UNL     1       4.983  10.453  -5.314  1.00  0.00     0.034 A 
ATOM     58  C   UNL     1       3.626   3.378  -3.988  1.00  0.00     0.034 A 
ATOM     59  C   UNL     1       5.824   9.425  -4.636  1.00  0.00     0.049 A 
ATOM     60  C   UNL     1       4.990   3.679  -4.558  1.00  0.00     0.074 A 
ATOM     61  C   UNL     1       6.138   9.086  -3.330  1.00  0.00     0.029 A 
ATOM     62  N   UNL     1       6.253   8.330  -5.397  1.00  0.00    -0.354 N 
ATOM     63  N   UNL     1       5.633   4.795  -4.333  1.00  0.00    -0.248 NA
ATOM     64  C   UNL     1       5.716   2.809  -5.466  1.00  0.00     0.031 C 
ATOM     65  C   UNL     1       6.720   7.766  -3.330  1.00  0.00     0.029 A 
ATOM     66  C   UNL     1       6.811   7.311  -4.636  1.00  0.00     0.049 A 
ATOM     67  H   UNL     1       6.166   8.287  -6.377  1.00  0.00     0.167 HD
ATOM     68  C   UNL     1       6.673   4.933  -5.198  1.00  0.00     0.074 A 
ATOM     69  C   UNL     1       6.723   3.619  -5.844  1.00  0.00     0.031 C 
ATOM     70  C   UNL     1       7.344   6.127  -5.340  1.00  0.00     0.034 A 
BRANCH  57  71
ATOM     71  C   UNL     1       5.122  11.961  -5.149  1.00  0.00     0.023 A 
ATOM     72  C   UNL     1       6.263  12.420  -4.462  1.00  0.00     0.012 A 
ATOM     73  C   UNL     1       4.201  12.972  -5.556  1.00  0.00     0.148 A 
ATOM     74  C   UNL     1       6.494  13.781  -4.215  1.00  0.00     0.002 A 
ATOM     75  C   UNL     1       4.471  14.334  -5.380  1.00  0.00     0.091 A 
ATOM     76  F   UNL     1       2.997  12.644  -6.028  1.00  0.00    -0.205 F 
ATOM     77  C   UNL     1       5.615  14.741  -4.696  1.00  0.00     0.022 A 
BRANCH  75  78
ATOM     78  S   UNL     1       3.397  15.642  -6.019  1.00  0.00     0.127 S 
ATOM     79  O   UNL     1       2.947  16.299  -4.791  1.00  0.00    -0.237 OA
ATOM     80  O   UNL     1       4.321  16.439  -6.826  1.00  0.00    -0.237 OA
ATOM     81  O   UNL     1       2.345  14.981  -6.781  1.00  0.00    -0.744 OA
ENDBRANCH  75  78
ENDBRANCH  57  71
BRANCH  58  82
ATOM     82  C   UNL     1       2.532   2.475  -4.501  1.00  0.00     0.023 A 
ATOM     83  C   UNL     1       1.697   1.876  -3.516  1.00  0.00     0.012 A 
ATOM     84  C   UNL     1       2.035   2.561  -5.818  1.00  0.00     0.148 A 
ATOM     85  C   UNL     1       0.382   1.486  -3.800  1.00  0.00     0.002 A 
ATOM     86  C   UNL     1       0.711   2.193  -6.089  1.00  0.00     0.091 A 
ATOM     87  F   UNL     1       2.831   3.069  -6.766  1.00  0.00    -0.205 F 
ATOM     88  C   UNL     1      -0.123   1.687  -5.077  1.00  0.00     0.022 A 
BRANCH  86  89
ATOM     89  S   UNL     1      -0.078   2.479  -7.682  1.00  0.00     0.127 S 
ATOM     90  O   UNL     1      -0.185   1.122  -8.212  1.00  0.00    -0.237 OA
ATOM     91  O   UNL     1      -1.353   3.078  -7.287  1.00  0.00    -0.237 OA
ATOM     92  O   UNL     1       0.813   3.370  -8.410  1.00  0.00    -0.744 OA
ENDBRANCH  86  89
ENDBRANCH  58  82
BRANCH  70  93
ATOM     93  C   UNL     1       8.520   6.311  -6.287  1.00  0.00     0.023 A 
ATOM     94  C   UNL     1       9.282   5.224  -6.745  1.00  0.00     0.012 A 
ATOM     95  C   UNL     1       8.951   7.591  -6.721  1.00  0.00     0.148 A 
ATOM     96  C   UNL     1      10.252   5.365  -7.742  1.00  0.00     0.002 A 
ATOM     97  C   UNL     1       9.914   7.739  -7.708  1.00  0.00     0.091 A 
ATOM     98  F   UNL     1       8.502   8.697  -6.121  1.00  0.00    -0.205 F 
ATOM     99  C   UNL     1      10.538   6.621  -8.255  1.00  0.00     0.022 A 
BRANCH  97 100
ATOM    100  S   UNL     1      10.405   9.359  -8.308  1.00  0.00     0.127 S 
ATOM    101  O   UNL     1      11.731   9.499  -7.707  1.00  0.00    -0.237 OA
ATOM    102  O   UNL     1      10.406   9.155  -9.756  1.00  0.00    -0.237 OA
ATOM    103  O   UNL     1       9.397  10.293  -7.830  1.00  0.00    -0.744 OA
ENDBRANCH  97 100
ENDBRANCH  70  93
ENDBRANCH  44  45
ENDBRANCH  37  39
ENDBRANCH  36  37
ENDBRANCH  35  36
ENDBRANCH  34  35
ENDBRANCH   1  34
TORSDOF 20
