REMARK SMILES Cc1ccc(NC(=O)C[C@H]2C(=O)NCCN2C(=O)CCC(=O)OCCOCCOC(=O)c2ccc(-c3c4nc(c(-c5cccc(S(=O)(=O)[O-])c5F)c5ccc([nH]5)c(-c5cccc(S(=O)(=O)[O-])c5F)c5nc(c(-c6cccc(S(=O)(=O)[O-])c6F)c6ccc3[nH]6)C=C5)C=C4)cc2)c(C)c1
REMARK SMILES IDX 24 1 23 2 21 3 22 4 20 5 19 6 17 7 18 8 16 9 10 10 11 11
REMARK SMILES IDX 12 12 13 13 15 14 14 15 9 17 7 18 6 19 8 21 5 22 1 23 2 24
REMARK SMILES IDX 3 25 97 26 4 27 95 28 96 29 25 30 26 31 27 32 28 33 29 34
REMARK SMILES IDX 30 35 31 36 32 37 33 38 94 39 34 40 93 41 35 42 36 43 37 44
REMARK SMILES IDX 87 45 38 46 92 47 86 48 88 49 39 50 91 51 85 52 84 53 40 55
REMARK SMILES IDX 72 56 52 57 71 58 53 59 56 60 70 61 89 62 54 63 55 64 69 66
REMARK SMILES IDX 90 67 57 68 41 69 42 70 50 71 43 72 45 73 51 74 44 75 46 76
REMARK SMILES IDX 47 77 48 78 49 79 73 80 74 81 82 82 75 83 77 84 83 85 76 86
REMARK SMILES IDX 78 87 79 88 80 89 81 90 58 91 59 92 67 93 60 94 62 95 68 96
REMARK SMILES IDX 61 97 63 98 64 99 65 100 66 101
REMARK H PARENT 13 16 6 20 88 54 56 65
REMARK Flexibility Score: inf
ROOT
ATOM      1  C   UNL     1      -1.488  -1.792   0.060  1.00  0.00     0.261 C 
ENDROOT
BRANCH   1   2
ATOM      2  O   UNL     1      -1.804  -0.451  -0.371  1.00  0.00    -0.463 OA
BRANCH   2   3
ATOM      3  C   UNL     1      -2.277  -0.224  -1.620  1.00  0.00     0.306 C 
ATOM      4  O   UNL     1      -2.409  -1.075  -2.488  1.00  0.00    -0.252 OA
BRANCH   3   5
ATOM      5  C   UNL     1      -2.608   1.251  -1.822  1.00  0.00     0.132 C 
BRANCH   5   6
ATOM      6  C   UNL     1      -3.869   1.739  -1.122  1.00  0.00     0.112 C 
BRANCH   6   7
ATOM      7  C   UNL     1      -3.871   2.945  -0.167  1.00  0.00     0.223 C 
ATOM      8  O   UNL     1      -4.799   3.753  -0.316  1.00  0.00    -0.275 OA
BRANCH   7   9
ATOM      9  N   UNL     1      -3.004   3.077   0.911  1.00  0.00    -0.328 N 
ATOM     10  C   UNL     1      -2.130   2.026   1.427  1.00  0.00     0.183 C 
ATOM     11  C   UNL     1      -2.681   1.403   2.710  1.00  0.00     0.243 C 
ATOM     12  O   UNL     1      -2.216   0.374   3.198  1.00  0.00    -0.273 OA
ATOM     13  N   UNL     1      -3.739   2.021   3.298  1.00  0.00    -0.353 N 
ATOM     14  C   UNL     1      -3.401   4.041   1.949  1.00  0.00     0.141 C 
ATOM     15  C   UNL     1      -4.286   3.320   2.956  1.00  0.00     0.137 C 
ATOM     16  H   UNL     1      -4.180   1.536   4.033  1.00  0.00     0.163 HD
BRANCH  10  17
ATOM     17  C   UNL     1      -0.612   2.209   1.502  1.00  0.00     0.135 C 
BRANCH  17  18
ATOM     18  C   UNL     1      -0.020   3.453   2.120  1.00  0.00     0.227 C 
ATOM     19  N   UNL     1      -0.001   4.675   1.509  1.00  0.00    -0.326 N 
ATOM     20  H   UNL     1       0.562   5.353   1.949  1.00  0.00     0.169 HD
ATOM     21  O   UNL     1       0.470   3.375   3.252  1.00  0.00    -0.275 OA
BRANCH  19  22
ATOM     22  C   UNL     1      -0.661   5.113   0.349  1.00  0.00     0.044 A 
ATOM     23  C   UNL     1      -3.681   6.070  -2.552  1.00  0.00     0.044 C 
ATOM     24  C   UNL     1      -2.530   5.837  -1.618  1.00  0.00    -0.051 A 
ATOM     25  C   UNL     1      -2.436   6.573  -0.437  1.00  0.00     0.005 A 
ATOM     26  C   UNL     1      -1.588   4.828  -1.862  1.00  0.00     0.009 A 
ATOM     27  C   UNL     1      -1.487   6.232   0.526  1.00  0.00     0.026 A 
ATOM     28  C   UNL     1      -0.612   4.486  -0.903  1.00  0.00    -0.027 A 
ATOM     29  C   UNL     1       0.488   3.548  -1.314  1.00  0.00     0.046 C 
ENDBRANCH  19  22
ENDBRANCH  17  18
ENDBRANCH  10  17
ENDBRANCH   7   9
ENDBRANCH   6   7
ENDBRANCH   5   6
ENDBRANCH   3   5
ENDBRANCH   2   3
ENDBRANCH   1   2
BRANCH   1  30
ATOM     30  C   UNL     1      -2.505  -2.317   1.087  1.00  0.00     0.202 C 
BRANCH  30  31
ATOM     31  O   UNL     1      -3.763  -2.675   0.504  1.00  0.00    -0.374 OA
BRANCH  31  32
ATOM     32  C   UNL     1      -4.624  -1.560   0.283  1.00  0.00     0.202 C 
BRANCH  32  33
ATOM     33  C   UNL     1      -5.910  -1.628   1.102  1.00  0.00     0.261 C 
BRANCH  33  34
ATOM     34  O   UNL     1      -5.712  -0.983   2.375  1.00  0.00    -0.460 OA
BRANCH  34  35
ATOM     35  C   UNL     1      -5.436  -1.786   3.429  1.00  0.00     0.338 C 
ATOM     36  O   UNL     1      -5.375  -3.003   3.436  1.00  0.00    -0.246 OA
BRANCH  35  37
ATOM     37  C   UNL     1      -5.113  -0.926   4.589  1.00  0.00     0.060 A 
ATOM     38  C   UNL     1      -4.015  -1.259   5.388  1.00  0.00     0.016 A 
ATOM     39  C   UNL     1      -5.843   0.239   4.852  1.00  0.00     0.016 A 
ATOM     40  C   UNL     1      -3.632  -0.422   6.444  1.00  0.00     0.010 A 
ATOM     41  C   UNL     1      -5.421   1.102   5.873  1.00  0.00     0.010 A 
ATOM     42  C   UNL     1      -4.333   0.764   6.703  1.00  0.00    -0.014 A 
BRANCH  42  43
ATOM     43  C   UNL     1      -4.080   1.535   7.954  1.00  0.00     0.031 A 
ATOM     44  C   UNL     1      -5.182   1.566   8.987  1.00  0.00     0.074 A 
ATOM     45  C   UNL     1      -2.927   2.195   8.196  1.00  0.00     0.049 A 
ATOM     46  N   UNL     1      -5.202   2.127  10.167  1.00  0.00    -0.248 NA
ATOM     47  C   UNL     1      -6.452   0.911   8.621  1.00  0.00     0.031 C 
ATOM     48  C   UNL     1      -1.799   2.334   7.274  1.00  0.00     0.029 A 
ATOM     49  N   UNL     1      -2.522   2.888   9.316  1.00  0.00    -0.354 N 
ATOM     50  C   UNL     1      -6.488   1.922  10.653  1.00  0.00     0.074 A 
ATOM     51  C   UNL     1      -7.246   1.277   9.610  1.00  0.00     0.031 C 
ATOM     52  C   UNL     1      -0.829   3.058   7.870  1.00  0.00     0.029 A 
ATOM     53  C   UNL     1      -1.256   3.422   9.220  1.00  0.00     0.049 A 
ATOM     54  H   UNL     1      -3.088   2.993  10.114  1.00  0.00     0.167 HD
ATOM     55  C   UNL     1      -6.990   2.162  11.885  1.00  0.00     0.034 A 
ATOM     56  C   UNL     1      -0.520   4.095  10.132  1.00  0.00     0.034 A 
ATOM     57  C   UNL     1      -6.227   2.706  12.965  1.00  0.00     0.049 A 
ATOM     58  C   UNL     1      -1.072   4.295  11.528  1.00  0.00     0.074 A 
ATOM     59  C   UNL     1      -6.612   2.905  14.277  1.00  0.00     0.029 A 
ATOM     60  N   UNL     1      -4.912   3.125  12.858  1.00  0.00    -0.354 N 
ATOM     61  N   UNL     1      -2.222   3.912  12.029  1.00  0.00    -0.248 NA
ATOM     62  C   UNL     1      -0.197   4.971  12.502  1.00  0.00     0.031 C 
ATOM     63  C   UNL     1      -5.524   3.449  14.967  1.00  0.00     0.029 A 
ATOM     64  C   UNL     1      -4.464   3.579  14.082  1.00  0.00     0.049 A 
ATOM     65  H   UNL     1      -4.377   3.102  12.032  1.00  0.00     0.167 HD
ATOM     66  C   UNL     1      -2.188   4.254  13.380  1.00  0.00     0.074 A 
ATOM     67  C   UNL     1      -0.897   4.861  13.624  1.00  0.00     0.031 C 
ATOM     68  C   UNL     1      -3.144   4.098  14.329  1.00  0.00     0.034 A 
BRANCH  55  69
ATOM     69  C   UNL     1      -8.412   1.739  12.126  1.00  0.00     0.023 A 
ATOM     70  C   UNL     1      -8.717   0.363  12.205  1.00  0.00     0.012 A 
ATOM     71  C   UNL     1      -9.445   2.687  12.230  1.00  0.00     0.148 A 
ATOM     72  C   UNL     1     -10.036  -0.066  12.326  1.00  0.00     0.002 A 
ATOM     73  C   UNL     1     -10.754   2.252  12.399  1.00  0.00     0.091 A 
ATOM     74  F   UNL     1      -9.137   3.987  12.121  1.00  0.00    -0.205 F 
ATOM     75  C   UNL     1     -11.053   0.879  12.430  1.00  0.00     0.022 A 
BRANCH  73  76
ATOM     76  S   UNL     1     -12.127   3.389  12.605  1.00  0.00     0.127 S 
ATOM     77  O   UNL     1     -12.803   3.273  11.314  1.00  0.00    -0.237 OA
ATOM     78  O   UNL     1     -12.852   2.795  13.729  1.00  0.00    -0.237 OA
ATOM     79  O   UNL     1     -11.531   4.687  12.888  1.00  0.00    -0.744 OA
ENDBRANCH  73  76
ENDBRANCH  55  69
BRANCH  56  80
ATOM     80  C   UNL     1       0.873   4.539   9.819  1.00  0.00     0.023 A 
ATOM     81  C   UNL     1       1.956   3.878  10.435  1.00  0.00     0.012 A 
ATOM     82  C   UNL     1       1.135   5.629   8.967  1.00  0.00     0.148 A 
ATOM     83  C   UNL     1       3.267   4.321  10.247  1.00  0.00     0.002 A 
ATOM     84  C   UNL     1       2.448   6.042   8.752  1.00  0.00     0.091 A 
ATOM     85  F   UNL     1       0.095   6.262   8.407  1.00  0.00    -0.205 F 
ATOM     86  C   UNL     1       3.513   5.399   9.402  1.00  0.00     0.022 A 
BRANCH  84  87
ATOM     87  S   UNL     1       2.870   7.374   7.621  1.00  0.00     0.127 S 
ATOM     88  O   UNL     1       3.220   8.451   8.544  1.00  0.00    -0.237 OA
ATOM     89  O   UNL     1       4.000   6.807   6.884  1.00  0.00    -0.237 OA
ATOM     90  O   UNL     1       1.678   7.595   6.812  1.00  0.00    -0.744 OA
ENDBRANCH  84  87
ENDBRANCH  56  80
BRANCH  68  91
ATOM     91  C   UNL     1      -2.838   4.538  15.736  1.00  0.00     0.023 A 
ATOM     92  C   UNL     1      -2.813   5.912  16.046  1.00  0.00     0.012 A 
ATOM     93  C   UNL     1      -2.707   3.593  16.773  1.00  0.00     0.148 A 
ATOM     94  C   UNL     1      -2.640   6.338  17.362  1.00  0.00     0.002 A 
ATOM     95  C   UNL     1      -2.583   4.024  18.089  1.00  0.00     0.091 A 
ATOM     96  F   UNL     1      -2.716   2.289  16.458  1.00  0.00    -0.205 F 
ATOM     97  C   UNL     1      -2.540   5.396  18.384  1.00  0.00     0.022 A 
BRANCH  95  98
ATOM     98  S   UNL     1      -2.561   2.876  19.472  1.00  0.00     0.127 S 
ATOM     99  O   UNL     1      -1.137   2.825  19.797  1.00  0.00    -0.237 OA
ATOM    100  O   UNL     1      -3.389   3.563  20.465  1.00  0.00    -0.237 OA
ATOM    101  O   UNL     1      -3.138   1.638  18.965  1.00  0.00    -0.744 OA
ENDBRANCH  95  98
ENDBRANCH  68  91
ENDBRANCH  42  43
ENDBRANCH  35  37
ENDBRANCH  34  35
ENDBRANCH  33  34
ENDBRANCH  32  33
ENDBRANCH  31  32
ENDBRANCH  30  31
ENDBRANCH   1  30
TORSDOF 23
