REMARK SMILES C[C@H](C(=O)OCCOCCOC(=O)c1ccc(-c2c3nc(c(-c4cccc(S(=O)(=O)[O-])c4F)c4ccc([nH]4)c(-c4cccc(S(=O)(=O)[O-])c4F)c4nc(c(-c5cccc(S(=O)(=O)[O-])c5F)c5ccc2[nH]5)C=C4)C=C3)cc1)c1ccc2c(c1)[nH]c1ccc(Cl)cc12
REMARK SMILES IDX 9 1 8 2 7 3 6 4 5 5 3 6 4 7 2 8 1 9 77 10 78 11 82 12 79 13
REMARK SMILES IDX 81 14 80 15 83 16 90 17 84 18 89 20 85 21 87 22 86 23 88 24
REMARK SMILES IDX 10 25 11 26 12 27 13 28 14 29 15 30 76 31 16 32 75 33 17 34
REMARK SMILES IDX 18 35 19 36 69 37 20 38 74 39 68 40 70 41 21 42 73 43 67 44
REMARK SMILES IDX 66 45 22 47 54 48 34 49 53 50 35 51 38 52 52 53 71 54 36 55
REMARK SMILES IDX 37 56 51 58 72 59 39 60 23 61 24 62 32 63 25 64 27 65 33 66
REMARK SMILES IDX 26 67 28 68 29 69 30 70 31 71 55 72 56 73 64 74 57 75 59 76
REMARK SMILES IDX 65 77 58 78 60 79 61 80 62 81 63 82 40 83 41 84 49 85 42 86
REMARK SMILES IDX 44 87 50 88 43 89 45 90 46 91 47 92 48 93
REMARK H PARENT 83 19 70 46 38 57
REMARK Flexibility Score: inf
ROOT
ATOM      1  C   UNL     1       3.168  -0.381   1.635  1.00  0.00     0.202 C 
ENDROOT
BRANCH   1   2
ATOM      2  O   UNL     1       3.674   0.843   1.117  1.00  0.00    -0.374 OA
BRANCH   2   3
ATOM      3  C   UNL     1       2.700   1.876   0.901  1.00  0.00     0.202 C 
BRANCH   3   4
ATOM      4  C   UNL     1       1.701   1.685  -0.259  1.00  0.00     0.261 C 
BRANCH   4   5
ATOM      5  O   UNL     1       0.813   0.561  -0.041  1.00  0.00    -0.463 OA
BRANCH   5   6
ATOM      6  C   UNL     1       0.637  -0.274  -1.103  1.00  0.00     0.313 C 
ATOM      7  O   UNL     1       1.012  -0.023  -2.245  1.00  0.00    -0.252 OA
BRANCH   6   8
ATOM      8  C   UNL     1       0.019  -1.618  -0.733  1.00  0.00     0.126 C 
ATOM      9  C   UNL     1       0.701  -2.267   0.484  1.00  0.00     0.025 C 
BRANCH   8  10
ATOM     10  C   UNL     1      -1.489  -1.726  -0.580  1.00  0.00    -0.032 A 
ATOM     11  C   UNL     1      -2.399  -0.666  -0.560  1.00  0.00     0.005 A 
ATOM     12  C   UNL     1      -1.967  -3.034  -0.378  1.00  0.00     0.031 A 
ATOM     13  C   UNL     1      -3.777  -0.898  -0.331  1.00  0.00     0.011 A 
ATOM     14  C   UNL     1      -3.285  -3.217   0.004  1.00  0.00     0.047 A 
ATOM     15  C   UNL     1      -4.229  -2.201  -0.011  1.00  0.00     0.007 A 
ATOM     16  N   UNL     1      -3.880  -4.347   0.491  1.00  0.00    -0.355 N 
ATOM     17  C   UNL     1      -5.485  -2.819   0.319  1.00  0.00     0.009 A 
ATOM     18  C   UNL     1      -5.205  -4.123   0.741  1.00  0.00     0.047 A 
ATOM     19  H   UNL     1      -3.418  -5.203   0.642  1.00  0.00     0.167 HD
ATOM     20  C   UNL     1      -6.831  -2.401   0.334  1.00  0.00     0.031 A 
ATOM     21  C   UNL     1      -6.154  -4.986   1.292  1.00  0.00     0.028 A 
ATOM     22  C   UNL     1      -7.810  -3.290   0.802  1.00  0.00     0.041 A 
ATOM     23  C   UNL     1      -7.474  -4.544   1.311  1.00  0.00     0.022 A 
ATOM     24  Cl  UNL     1      -9.471  -2.839   0.735  1.00  0.00    -0.084 Cl
ENDBRANCH   8  10
ENDBRANCH   6   8
ENDBRANCH   5   6
ENDBRANCH   4   5
ENDBRANCH   3   4
ENDBRANCH   2   3
ENDBRANCH   1   2
BRANCH   1  25
ATOM     25  C   UNL     1       2.968  -0.524   3.146  1.00  0.00     0.261 C 
BRANCH  25  26
ATOM     26  O   UNL     1       2.273   0.590   3.709  1.00  0.00    -0.460 OA
BRANCH  26  27
ATOM     27  C   UNL     1       3.102   1.515   4.242  1.00  0.00     0.338 C 
ATOM     28  O   UNL     1       4.313   1.412   4.407  1.00  0.00    -0.246 OA
BRANCH  27  29
ATOM     29  C   UNL     1       2.379   2.776   4.447  1.00  0.00     0.060 A 
ATOM     30  C   UNL     1       2.992   3.938   3.963  1.00  0.00     0.016 A 
ATOM     31  C   UNL     1       1.165   2.837   5.136  1.00  0.00     0.016 A 
ATOM     32  C   UNL     1       2.437   5.178   4.240  1.00  0.00     0.010 A 
ATOM     33  C   UNL     1       0.608   4.087   5.414  1.00  0.00     0.010 A 
ATOM     34  C   UNL     1       1.271   5.260   5.012  1.00  0.00    -0.014 A 
BRANCH  34  35
ATOM     35  C   UNL     1       0.853   6.580   5.533  1.00  0.00     0.031 A 
ATOM     36  C   UNL     1       1.169   6.927   6.961  1.00  0.00     0.074 A 
ATOM     37  C   UNL     1       0.237   7.464   4.731  1.00  0.00     0.049 A 
ATOM     38  N   UNL     1       0.908   8.022   7.624  1.00  0.00    -0.248 NA
ATOM     39  C   UNL     1       1.875   5.901   7.750  1.00  0.00     0.031 C 
ATOM     40  C   UNL     1      -0.110   7.232   3.329  1.00  0.00     0.029 A 
ATOM     41  N   UNL     1      -0.222   8.730   4.989  1.00  0.00    -0.354 N 
ATOM     42  C   UNL     1       1.390   7.810   8.910  1.00  0.00     0.074 A 
ATOM     43  C   UNL     1       1.944   6.474   8.942  1.00  0.00     0.031 C 
ATOM     44  C   UNL     1      -0.753   8.312   2.857  1.00  0.00     0.029 A 
ATOM     45  C   UNL     1      -0.883   9.298   3.927  1.00  0.00     0.049 A 
ATOM     46  H   UNL     1      -0.090   9.187   5.851  1.00  0.00     0.167 HD
ATOM     47  C   UNL     1       1.387   8.659   9.964  1.00  0.00     0.034 A 
ATOM     48  C   UNL     1      -1.540  10.471   3.842  1.00  0.00     0.034 A 
ATOM     49  C   UNL     1       0.847   9.990   9.917  1.00  0.00     0.049 A 
ATOM     50  C   UNL     1      -1.549  11.389   5.035  1.00  0.00     0.074 A 
ATOM     51  C   UNL     1       0.829  10.947  10.915  1.00  0.00     0.029 A 
ATOM     52  N   UNL     1       0.217  10.547   8.814  1.00  0.00    -0.354 N 
ATOM     53  N   UNL     1      -0.994  11.220   6.212  1.00  0.00    -0.248 NA
ATOM     54  C   UNL     1      -2.244  12.675   4.880  1.00  0.00     0.031 C 
ATOM     55  C   UNL     1       0.158  12.073  10.425  1.00  0.00     0.029 A 
ATOM     56  C   UNL     1      -0.207  11.831   9.110  1.00  0.00     0.049 A 
ATOM     57  H   UNL     1       0.090  10.096   7.948  1.00  0.00     0.167 HD
ATOM     58  C   UNL     1      -1.241  12.389   6.923  1.00  0.00     0.074 A 
ATOM     59  C   UNL     1      -1.980  13.266   6.037  1.00  0.00     0.031 C 
ATOM     60  C   UNL     1      -0.900  12.705   8.197  1.00  0.00     0.034 A 
BRANCH  47  61
ATOM     61  C   UNL     1       2.003   8.176  11.252  1.00  0.00     0.023 A 
ATOM     62  C   UNL     1       3.401   8.023  11.346  1.00  0.00     0.012 A 
ATOM     63  C   UNL     1       1.202   7.916  12.381  1.00  0.00     0.148 A 
ATOM     64  C   UNL     1       3.990   7.586  12.532  1.00  0.00     0.002 A 
ATOM     65  C   UNL     1       1.801   7.526  13.574  1.00  0.00     0.091 A 
ATOM     66  F   UNL     1      -0.127   8.044  12.266  1.00  0.00    -0.205 F 
ATOM     67  C   UNL     1       3.192   7.348  13.647  1.00  0.00     0.022 A 
BRANCH  65  68
ATOM     68  S   UNL     1       0.868   7.269  15.087  1.00  0.00     0.127 S 
ATOM     69  O   UNL     1       0.963   5.819  15.250  1.00  0.00    -0.237 OA
ATOM     70  O   UNL     1       1.640   8.043  16.059  1.00  0.00    -0.237 OA
ATOM     71  O   UNL     1      -0.470   7.780  14.827  1.00  0.00    -0.744 OA
ENDBRANCH  65  68
ENDBRANCH  47  61
BRANCH  48  72
ATOM     72  C   UNL     1      -2.219  10.849   2.572  1.00  0.00     0.023 A 
ATOM     73  C   UNL     1      -1.717  11.911   1.797  1.00  0.00     0.012 A 
ATOM     74  C   UNL     1      -3.346  10.138   2.115  1.00  0.00     0.148 A 
ATOM     75  C   UNL     1      -2.343  12.278   0.604  1.00  0.00     0.002 A 
ATOM     76  C   UNL     1      -3.930  10.471   0.899  1.00  0.00     0.091 A 
ATOM     77  F   UNL     1      -3.817   9.139   2.875  1.00  0.00    -0.205 F 
ATOM     78  C   UNL     1      -3.441  11.552   0.150  1.00  0.00     0.022 A 
BRANCH  76  79
ATOM     79  S   UNL     1      -5.261   9.507   0.175  1.00  0.00     0.127 S 
ATOM     80  O   UNL     1      -6.388  10.431   0.277  1.00  0.00    -0.237 OA
ATOM     81  O   UNL     1      -4.766   9.285  -1.184  1.00  0.00    -0.237 OA
ATOM     82  O   UNL     1      -5.358   8.299   0.983  1.00  0.00    -0.744 OA
ENDBRANCH  76  79
ENDBRANCH  48  72
BRANCH  60  83
ATOM     83  C   UNL     1      -1.284  14.071   8.704  1.00  0.00     0.023 A 
ATOM     84  C   UNL     1      -2.632  14.364   8.988  1.00  0.00     0.012 A 
ATOM     85  C   UNL     1      -0.295  15.040   8.968  1.00  0.00     0.148 A 
ATOM     86  C   UNL     1      -2.995  15.611   9.495  1.00  0.00     0.002 A 
ATOM     87  C   UNL     1      -0.657  16.261   9.522  1.00  0.00     0.091 A 
ATOM     88  F   UNL     1       0.981  14.748   8.675  1.00  0.00    -0.205 F 
ATOM     89  C   UNL     1      -2.007  16.554   9.773  1.00  0.00     0.022 A 
BRANCH  87  90
ATOM     90  S   UNL     1       0.554  17.497  10.006  1.00  0.00     0.127 S 
ATOM     91  O   UNL     1       0.341  18.533   8.997  1.00  0.00    -0.237 OA
ATOM     92  O   UNL     1       0.108  17.856  11.353  1.00  0.00    -0.237 OA
ATOM     93  O   UNL     1       1.849  16.832   9.955  1.00  0.00    -0.744 OA
ENDBRANCH  87  90
ENDBRANCH  60  83
ENDBRANCH  34  35
ENDBRANCH  27  29
ENDBRANCH  26  27
ENDBRANCH  25  26
ENDBRANCH   1  25
TORSDOF 18
