REMARK SMILES CCC[NH2+]C[C@H]1CCC[N@@H+](Cc2ccc(C(=O)OCCOCCOC(=O)c3ccc(-c4c5nc(c(-c6cccc(S(=O)(=O)[O-])c6F)c6ccc([nH]6)c(-c6cccc(S(=O)(=O)[O-])c6F)c6nc(c(-c7cccc(S(=O)(=O)[O-])c7F)c7ccc4[nH]7)C=C6)C=C5)cc3)cc2)C1
REMARK SMILES IDX 19 1 18 2 16 3 17 4 15 5 12 6 13 7 91 8 14 9 90 10 11 11
REMARK SMILES IDX 10 12 6 13 7 14 92 15 8 16 9 17 5 19 4 20 3 23 2 24 1 25
REMARK SMILES IDX 20 26 21 27 22 28 23 29 24 30 25 31 26 32 27 33 28 34 89 35
REMARK SMILES IDX 29 36 88 37 30 38 31 39 32 40 82 41 33 42 87 43 81 44 83 45
REMARK SMILES IDX 34 46 86 47 80 48 79 49 35 51 67 52 47 53 66 54 48 55 51 56
REMARK SMILES IDX 65 57 84 58 49 59 50 60 64 62 85 63 52 64 36 65 37 66 45 67
REMARK SMILES IDX 38 68 40 69 46 70 39 71 41 72 42 73 43 74 44 75 68 76 69 77
REMARK SMILES IDX 77 78 70 79 72 80 78 81 71 82 73 83 74 84 75 85 76 86 53 87
REMARK SMILES IDX 54 88 62 89 55 90 57 91 63 92 56 93 58 94 59 95 60 96 61 97
REMARK H PARENT 10 18 4 21 4 22 83 50 51 61
REMARK Flexibility Score: inf
ROOT
ATOM      1  C   UNL     1      10.770   4.813  -0.084  1.00  0.00     0.261 C 
ENDROOT
BRANCH   1   2
ATOM      2  O   UNL     1       9.337   4.781  -0.112  1.00  0.00    -0.460 OA
BRANCH   2   3
ATOM      3  C   UNL     1       8.751   4.074   0.882  1.00  0.00     0.338 C 
ATOM      4  O   UNL     1       9.310   3.328   1.675  1.00  0.00    -0.246 OA
BRANCH   3   5
ATOM      5  C   UNL     1       7.303   4.395   0.959  1.00  0.00     0.060 A 
ATOM      6  C   UNL     1       4.519   4.745   1.084  1.00  0.00     0.006 A 
ATOM      7  C   UNL     1       5.188   4.061   2.103  1.00  0.00     0.010 A 
ATOM      8  C   UNL     1       5.285   5.398   0.108  1.00  0.00     0.010 A 
ATOM      9  C   UNL     1       6.574   3.897   2.046  1.00  0.00     0.016 A 
ATOM     10  C   UNL     1       6.658   5.188   0.008  1.00  0.00     0.016 A 
BRANCH   6  11
ATOM     11  C   UNL     1       3.005   4.654   0.945  1.00  0.00     0.299 C 
BRANCH  11  12
ATOM     12  N   UNL     1       2.508   3.700  -0.088  1.00  0.00    -0.331 N 
ATOM     13  C   UNL     1       2.409   3.256  -2.605  1.00  0.00     0.099 C 
ATOM     14  C   UNL     1       2.857   1.811  -2.328  1.00  0.00     0.021 C 
ATOM     15  C   UNL     1       2.841   4.162  -1.446  1.00  0.00     0.271 C 
ATOM     16  C   UNL     1       2.463   1.367  -0.922  1.00  0.00     0.062 C 
ATOM     17  C   UNL     1       2.998   2.333   0.135  1.00  0.00     0.262 C 
ATOM     18  H   UNL     1       1.492   3.674   0.000  1.00  0.00     0.348 HD
BRANCH  13  19
ATOM     19  C   UNL     1       2.947   3.715  -4.000  1.00  0.00     0.269 C 
BRANCH  19  20
ATOM     20  N   UNL     1       3.536   5.053  -4.127  1.00  0.00    -0.346 N 
ATOM     21  H   UNL     1       3.348   5.400  -5.067  1.00  0.00     0.346 HD
ATOM     22  H   UNL     1       3.112   5.638  -3.408  1.00  0.00     0.346 HD
BRANCH  20  23
ATOM     23  C   UNL     1       4.983   5.073  -3.905  1.00  0.00     0.260 C 
BRANCH  23  24
ATOM     24  C   UNL     1       5.620   6.471  -3.961  1.00  0.00     0.058 C 
ATOM     25  C   UNL     1       4.864   7.585  -3.250  1.00  0.00     0.010 C 
ENDBRANCH  23  24
ENDBRANCH  20  23
ENDBRANCH  19  20
ENDBRANCH  13  19
ENDBRANCH  11  12
ENDBRANCH   6  11
ENDBRANCH   3   5
ENDBRANCH   2   3
ENDBRANCH   1   2
BRANCH   1  26
ATOM     26  C   UNL     1      11.273   6.165   0.430  1.00  0.00     0.202 C 
BRANCH  26  27
ATOM     27  O   UNL     1      10.866   6.534   1.749  1.00  0.00    -0.374 OA
BRANCH  27  28
ATOM     28  C   UNL     1       9.574   7.132   1.880  1.00  0.00     0.202 C 
BRANCH  28  29
ATOM     29  C   UNL     1       9.465   8.626   1.554  1.00  0.00     0.261 C 
BRANCH  29  30
ATOM     30  O   UNL     1       9.691   8.895   0.161  1.00  0.00    -0.460 OA
BRANCH  30  31
ATOM     31  C   UNL     1      10.902   9.428  -0.124  1.00  0.00     0.338 C 
ATOM     32  O   UNL     1      11.771   9.754   0.674  1.00  0.00    -0.246 OA
BRANCH  31  33
ATOM     33  C   UNL     1      11.127   9.401  -1.580  1.00  0.00     0.060 A 
ATOM     34  C   UNL     1      12.312   8.814  -2.044  1.00  0.00     0.016 A 
ATOM     35  C   UNL     1      10.227   9.988  -2.470  1.00  0.00     0.016 A 
ATOM     36  C   UNL     1      12.626   8.856  -3.401  1.00  0.00     0.010 A 
ATOM     37  C   UNL     1      10.547  10.034  -3.829  1.00  0.00     0.010 A 
ATOM     38  C   UNL     1      11.763   9.501  -4.295  1.00  0.00    -0.014 A 
BRANCH  38  39
ATOM     39  C   UNL     1      12.183   9.736  -5.697  1.00  0.00     0.031 A 
ATOM     40  C   UNL     1      12.627  11.113  -6.103  1.00  0.00     0.074 A 
ATOM     41  C   UNL     1      12.134   8.744  -6.603  1.00  0.00     0.049 A 
ATOM     42  N   UNL     1      12.943  11.566  -7.287  1.00  0.00    -0.248 NA
ATOM     43  C   UNL     1      12.717  12.118  -5.030  1.00  0.00     0.031 C 
ATOM     44  C   UNL     1      11.721   7.370  -6.327  1.00  0.00     0.029 A 
ATOM     45  N   UNL     1      12.396   8.756  -7.951  1.00  0.00    -0.354 N 
ATOM     46  C   UNL     1      13.226  12.915  -7.114  1.00  0.00     0.074 A 
ATOM     47  C   UNL     1      13.041  13.209  -5.709  1.00  0.00     0.031 C 
ATOM     48  C   UNL     1      11.712   6.679  -7.479  1.00  0.00     0.029 A 
ATOM     49  C   UNL     1      12.086   7.572  -8.575  1.00  0.00     0.049 A 
ATOM     50  H   UNL     1      12.768   9.536  -8.423  1.00  0.00     0.167 HD
ATOM     51  C   UNL     1      13.613  13.825  -8.039  1.00  0.00     0.034 A 
ATOM     52  C   UNL     1      12.065   7.255  -9.886  1.00  0.00     0.034 A 
ATOM     53  C   UNL     1      13.812  13.521  -9.430  1.00  0.00     0.049 A 
ATOM     54  C   UNL     1      12.478   8.289 -10.901  1.00  0.00     0.074 A 
ATOM     55  C   UNL     1      14.268  14.356 -10.435  1.00  0.00     0.029 A 
ATOM     56  N   UNL     1      13.546  12.295 -10.019  1.00  0.00    -0.354 N 
ATOM     57  N   UNL     1      12.864   9.527 -10.707  1.00  0.00    -0.248 NA
ATOM     58  C   UNL     1      12.482   7.874 -12.312  1.00  0.00     0.031 C 
ATOM     59  C   UNL     1      14.236  13.646 -11.639  1.00  0.00     0.029 A 
ATOM     60  C   UNL     1      13.805  12.355 -11.377  1.00  0.00     0.049 A 
ATOM     61  H   UNL     1      13.220  11.498  -9.541  1.00  0.00     0.167 HD
ATOM     62  C   UNL     1      13.192  10.027 -11.963  1.00  0.00     0.074 A 
ATOM     63  C   UNL     1      12.971   8.953 -12.910  1.00  0.00     0.031 C 
ATOM     64  C   UNL     1      13.629  11.265 -12.302  1.00  0.00     0.034 A 
BRANCH  51  65
ATOM     65  C   UNL     1      13.850  15.238  -7.574  1.00  0.00     0.023 A 
ATOM     66  C   UNL     1      14.968  15.537  -6.768  1.00  0.00     0.012 A 
ATOM     67  C   UNL     1      12.989  16.279  -7.973  1.00  0.00     0.148 A 
ATOM     68  C   UNL     1      15.201  16.841  -6.333  1.00  0.00     0.002 A 
ATOM     69  C   UNL     1      13.255  17.584  -7.577  1.00  0.00     0.091 A 
ATOM     70  F   UNL     1      11.919  15.972  -8.721  1.00  0.00    -0.205 F 
ATOM     71  C   UNL     1      14.351  17.865  -6.745  1.00  0.00     0.022 A 
BRANCH  69  72
ATOM     72  S   UNL     1      12.267  18.980  -8.123  1.00  0.00     0.127 S 
ATOM     73  O   UNL     1      11.560  19.340  -6.895  1.00  0.00    -0.237 OA
ATOM     74  O   UNL     1      13.292  19.938  -8.540  1.00  0.00    -0.237 OA
ATOM     75  O   UNL     1      11.429  18.481  -9.204  1.00  0.00    -0.744 OA
ENDBRANCH  69  72
ENDBRANCH  51  65
BRANCH  52  76
ATOM     76  C   UNL     1      11.640   5.891 -10.307  1.00  0.00     0.023 A 
ATOM     77  C   UNL     1      12.585   4.998 -10.845  1.00  0.00     0.012 A 
ATOM     78  C   UNL     1      10.306   5.466 -10.144  1.00  0.00     0.148 A 
ATOM     79  C   UNL     1      12.205   3.714 -11.236  1.00  0.00     0.002 A 
ATOM     80  C   UNL     1       9.948   4.167 -10.480  1.00  0.00     0.091 A 
ATOM     81  F   UNL     1       9.420   6.338  -9.642  1.00  0.00    -0.205 F 
ATOM     82  C   UNL     1      10.891   3.295 -11.044  1.00  0.00     0.022 A 
BRANCH  80  83
ATOM     83  S   UNL     1       8.316   3.498 -10.142  1.00  0.00     0.127 S 
ATOM     84  O   UNL     1       7.788   3.301 -11.489  1.00  0.00    -0.237 OA
ATOM     85  O   UNL     1       8.642   2.268  -9.419  1.00  0.00    -0.237 OA
ATOM     86  O   UNL     1       7.636   4.505  -9.338  1.00  0.00    -0.744 OA
ENDBRANCH  80  83
ENDBRANCH  52  76
BRANCH  64  87
ATOM     87  C   UNL     1      13.951  11.530 -13.751  1.00  0.00     0.023 A 
ATOM     88  C   UNL     1      12.913  11.664 -14.693  1.00  0.00     0.012 A 
ATOM     89  C   UNL     1      15.284  11.747 -14.154  1.00  0.00     0.148 A 
ATOM     90  C   UNL     1      13.199  11.985 -16.020  1.00  0.00     0.002 A 
ATOM     91  C   UNL     1      15.557  12.117 -15.465  1.00  0.00     0.091 A 
ATOM     92  F   UNL     1      16.258  11.599 -13.245  1.00  0.00    -0.205 F 
ATOM     93  C   UNL     1      14.517  12.226 -16.402  1.00  0.00     0.022 A 
BRANCH  91  94
ATOM     94  S   UNL     1      17.210  12.545 -16.024  1.00  0.00     0.127 S 
ATOM     95  O   UNL     1      17.510  11.442 -16.936  1.00  0.00    -0.237 OA
ATOM     96  O   UNL     1      16.990  13.835 -16.678  1.00  0.00    -0.237 OA
ATOM     97  O   UNL     1      18.040  12.604 -14.828  1.00  0.00    -0.744 OA
ENDBRANCH  91  94
ENDBRANCH  64  87
ENDBRANCH  38  39
ENDBRANCH  31  33
ENDBRANCH  30  31
ENDBRANCH  29  30
ENDBRANCH  28  29
ENDBRANCH  27  28
ENDBRANCH  26  27
ENDBRANCH   1  26
TORSDOF 23
