REMARK SMILES COC(=O)c1ccc(Cl)c(-c2ccc(C(=O)OCCOCCOC(=O)c3ccc(-c4c5nc(c(-c6cccc(S(=O)(=O)[O-])c6F)c6ccc([nH]6)c(-c6cccc(S(=O)(=O)[O-])c6F)c6nc(c(-c7cccc(S(=O)(=O)[O-])c7F)c7ccc4[nH]7)C=C6)C=C5)cc3)c(F)c2)c1
REMARK SMILES IDX 20 1 19 2 18 3 17 4 15 5 16 6 14 7 11 8 12 9 91 10 13 11
REMARK SMILES IDX 89 12 90 13 10 14 5 15 6 16 92 17 7 18 8 19 9 20 3 21 4 22
REMARK SMILES IDX 2 23 1 24 21 25 22 26 23 27 24 28 25 29 26 30 27 31 88 32
REMARK SMILES IDX 28 33 87 34 29 35 30 36 31 37 81 38 32 39 86 40 80 41 82 42
REMARK SMILES IDX 33 43 85 44 79 45 78 46 34 48 66 49 46 50 65 51 47 52 50 53
REMARK SMILES IDX 64 54 83 55 48 56 49 57 63 59 84 60 51 61 35 62 36 63 44 64
REMARK SMILES IDX 37 65 39 66 45 67 38 68 40 69 41 70 42 71 43 72 67 73 68 74
REMARK SMILES IDX 76 75 69 76 71 77 77 78 70 79 72 80 73 81 74 82 75 83 52 84
REMARK SMILES IDX 53 85 61 86 54 87 56 88 62 89 55 90 57 91 58 92 59 93 60 94
REMARK H PARENT 82 47 50 58
REMARK Flexibility Score: inf
ROOT
ATOM      1  O   UNL     1       5.040  -5.665  11.713  1.00  0.00    -0.374 OA
ENDROOT
BRANCH   1   2
ATOM      2  C   UNL     1       6.336  -5.178  11.363  1.00  0.00     0.202 C 
BRANCH   2   3
ATOM      3  C   UNL     1       6.754  -5.264   9.893  1.00  0.00     0.261 C 
BRANCH   3   4
ATOM      4  O   UNL     1       5.861  -4.525   9.048  1.00  0.00    -0.460 OA
BRANCH   4   5
ATOM      5  C   UNL     1       5.091  -5.278   8.231  1.00  0.00     0.341 C 
ATOM      6  O   UNL     1       5.147  -6.490   8.083  1.00  0.00    -0.246 OA
BRANCH   5   7
ATOM      7  C   UNL     1       3.996  -4.477   7.656  1.00  0.00     0.095 A 
ATOM      8  C   UNL     1       1.877  -3.141   6.374  1.00  0.00    -0.014 A 
ATOM      9  C   UNL     1       1.711  -4.452   6.845  1.00  0.00     0.010 A 
ATOM     10  C   UNL     1       3.095  -2.486   6.632  1.00  0.00     0.049 A 
ATOM     11  C   UNL     1       2.762  -5.116   7.479  1.00  0.00     0.019 A 
ATOM     12  C   UNL     1       4.144  -3.152   7.266  1.00  0.00     0.138 A 
ATOM     13  F   UNL     1       5.303  -2.500   7.429  1.00  0.00    -0.206 F 
BRANCH   8  14
ATOM     14  C   UNL     1       0.873  -2.538   5.483  1.00  0.00     0.001 A 
ATOM     15  C   UNL     1       0.373  -1.754   3.216  1.00  0.00     0.060 A 
ATOM     16  C   UNL     1      -0.943  -1.478   3.588  1.00  0.00     0.017 A 
ATOM     17  C   UNL     1       1.263  -2.287   4.153  1.00  0.00     0.026 A 
ATOM     18  C   UNL     1      -1.356  -1.731   4.899  1.00  0.00     0.022 A 
ATOM     19  C   UNL     1      -0.457  -2.252   5.842  1.00  0.00     0.048 A 
ATOM     20  Cl  UNL     1      -1.053  -2.515   7.444  1.00  0.00    -0.084 Cl
BRANCH  15  21
ATOM     21  C   UNL     1       0.876  -1.524   1.846  1.00  0.00     0.337 C 
ATOM     22  O   UNL     1       1.718  -2.228   1.311  1.00  0.00    -0.246 OA
BRANCH  21  23
ATOM     23  O   UNL     1       0.329  -0.392   1.344  1.00  0.00    -0.465 OA
ATOM     24  C   UNL     1       0.907   0.011   0.102  1.00  0.00     0.282 C 
ENDBRANCH  21  23
ENDBRANCH  15  21
ENDBRANCH   8  14
ENDBRANCH   5   7
ENDBRANCH   4   5
ENDBRANCH   3   4
ENDBRANCH   2   3
ENDBRANCH   1   2
BRANCH   1  25
ATOM     25  C   UNL     1       3.912  -4.853  11.389  1.00  0.00     0.202 C 
BRANCH  25  26
ATOM     26  C   UNL     1       3.657  -3.593  12.226  1.00  0.00     0.261 C 
BRANCH  26  27
ATOM     27  O   UNL     1       4.717  -2.627  12.139  1.00  0.00    -0.460 OA
BRANCH  27  28
ATOM     28  C   UNL     1       5.488  -2.538  13.252  1.00  0.00     0.338 C 
ATOM     29  O   UNL     1       5.342  -3.148  14.298  1.00  0.00    -0.246 OA
BRANCH  28  30
ATOM     30  C   UNL     1       6.679  -1.715  12.975  1.00  0.00     0.060 A 
ATOM     31  C   UNL     1       7.935  -2.292  13.207  1.00  0.00     0.016 A 
ATOM     32  C   UNL     1       6.572  -0.383  12.575  1.00  0.00     0.016 A 
ATOM     33  C   UNL     1       9.089  -1.522  13.087  1.00  0.00     0.010 A 
ATOM     34  C   UNL     1       7.732   0.390  12.463  1.00  0.00     0.010 A 
ATOM     35  C   UNL     1       8.992  -0.165  12.754  1.00  0.00    -0.014 A 
BRANCH  35  36
ATOM     36  C   UNL     1      10.195   0.698  12.824  1.00  0.00     0.031 A 
ATOM     37  C   UNL     1      10.358   1.639  13.987  1.00  0.00     0.074 A 
ATOM     38  C   UNL     1      11.136   0.641  11.863  1.00  0.00     0.049 A 
ATOM     39  N   UNL     1      11.303   2.512  14.215  1.00  0.00    -0.248 NA
ATOM     40  C   UNL     1       9.319   1.595  15.031  1.00  0.00     0.031 C 
ATOM     41  C   UNL     1      11.093  -0.236  10.694  1.00  0.00     0.029 A 
ATOM     42  N   UNL     1      12.297   1.357  11.705  1.00  0.00    -0.354 N 
ATOM     43  C   UNL     1      10.959   3.144  15.403  1.00  0.00     0.074 A 
ATOM     44  C   UNL     1       9.715   2.558  15.851  1.00  0.00     0.031 C 
ATOM     45  C   UNL     1      12.165   0.013   9.924  1.00  0.00     0.029 A 
ATOM     46  C   UNL     1      12.951   1.088  10.525  1.00  0.00     0.049 A 
ATOM     47  H   UNL     1      12.630   1.999  12.373  1.00  0.00     0.167 HD
ATOM     48  C   UNL     1      11.628   4.115  16.067  1.00  0.00     0.034 A 
ATOM     49  C   UNL     1      14.040   1.665   9.978  1.00  0.00     0.034 A 
ATOM     50  C   UNL     1      12.883   4.669  15.636  1.00  0.00     0.049 A 
ATOM     51  C   UNL     1      14.755   2.757  10.732  1.00  0.00     0.074 A 
ATOM     52  C   UNL     1      13.663   5.615  16.277  1.00  0.00     0.029 A 
ATOM     53  N   UNL     1      13.535   4.342  14.459  1.00  0.00    -0.354 N 
ATOM     54  N   UNL     1      14.476   3.265  11.907  1.00  0.00    -0.248 NA
ATOM     55  C   UNL     1      15.952   3.335  10.101  1.00  0.00     0.031 C 
ATOM     56  C   UNL     1      14.767   5.891  15.469  1.00  0.00     0.029 A 
ATOM     57  C   UNL     1      14.700   5.081  14.347  1.00  0.00     0.049 A 
ATOM     58  H   UNL     1      13.218   3.682  13.801  1.00  0.00     0.167 HD
ATOM     59  C   UNL     1      15.478   4.193  12.171  1.00  0.00     0.074 A 
ATOM     60  C   UNL     1      16.382   4.165  11.042  1.00  0.00     0.031 C 
ATOM     61  C   UNL     1      15.626   5.004  13.247  1.00  0.00     0.034 A 
BRANCH  48  62
ATOM     62  C   UNL     1      11.050   4.638  17.354  1.00  0.00     0.023 A 
ATOM     63  C   UNL     1      11.134   3.859  18.524  1.00  0.00     0.012 A 
ATOM     64  C   UNL     1      10.563   5.958  17.432  1.00  0.00     0.148 A 
ATOM     65  C   UNL     1      10.739   4.385  19.754  1.00  0.00     0.002 A 
ATOM     66  C   UNL     1      10.216   6.491  18.667  1.00  0.00     0.091 A 
ATOM     67  F   UNL     1      10.477   6.674  16.301  1.00  0.00    -0.205 F 
ATOM     68  C   UNL     1      10.297   5.704  19.827  1.00  0.00     0.022 A 
BRANCH  66  69
ATOM     69  S   UNL     1       9.726   8.206  18.883  1.00  0.00     0.127 S 
ATOM     70  O   UNL     1       8.350   8.061  19.357  1.00  0.00    -0.237 OA
ATOM     71  O   UNL     1      10.674   8.668  19.896  1.00  0.00    -0.237 OA
ATOM     72  O   UNL     1       9.865   8.835  17.578  1.00  0.00    -0.744 OA
ENDBRANCH  66  69
ENDBRANCH  48  62
BRANCH  49  73
ATOM     73  C   UNL     1      14.534   1.204   8.648  1.00  0.00     0.023 A 
ATOM     74  C   UNL     1      15.768   0.533   8.554  1.00  0.00     0.012 A 
ATOM     75  C   UNL     1      13.772   1.408   7.480  1.00  0.00     0.148 A 
ATOM     76  C   UNL     1      16.248   0.099   7.317  1.00  0.00     0.002 A 
ATOM     77  C   UNL     1      14.227   0.918   6.262  1.00  0.00     0.091 A 
ATOM     78  F   UNL     1      12.609   2.066   7.587  1.00  0.00    -0.205 F 
ATOM     79  C   UNL     1      15.473   0.280   6.175  1.00  0.00     0.022 A 
BRANCH  77  80
ATOM     80  S   UNL     1      13.233   0.981   4.767  1.00  0.00     0.127 S 
ATOM     81  O   UNL     1      13.973   1.945   3.957  1.00  0.00    -0.237 OA
ATOM     82  O   UNL     1      13.306  -0.404   4.299  1.00  0.00    -0.237 OA
ATOM     83  O   UNL     1      11.905   1.401   5.194  1.00  0.00    -0.744 OA
ENDBRANCH  77  80
ENDBRANCH  49  73
BRANCH  61  84
ATOM     84  C   UNL     1      16.828   5.912  13.300  1.00  0.00     0.023 A 
ATOM     85  C   UNL     1      16.892   7.043  12.464  1.00  0.00     0.012 A 
ATOM     86  C   UNL     1      17.830   5.712  14.272  1.00  0.00     0.148 A 
ATOM     87  C   UNL     1      17.945   7.950  12.580  1.00  0.00     0.002 A 
ATOM     88  C   UNL     1      18.846   6.649  14.418  1.00  0.00     0.091 A 
ATOM     89  F   UNL     1      17.757   4.622  15.050  1.00  0.00    -0.205 F 
ATOM     90  C   UNL     1      18.911   7.762  13.566  1.00  0.00     0.022 A 
BRANCH  88  91
ATOM     91  S   UNL     1      20.071   6.550  15.729  1.00  0.00     0.127 S 
ATOM     92  O   UNL     1      21.293   6.275  14.973  1.00  0.00    -0.237 OA
ATOM     93  O   UNL     1      20.006   7.889  16.314  1.00  0.00    -0.237 OA
ATOM     94  O   UNL     1      19.634   5.479  16.613  1.00  0.00    -0.744 OA
ENDBRANCH  88  91
ENDBRANCH  61  84
ENDBRANCH  35  36
ENDBRANCH  28  30
ENDBRANCH  27  28
ENDBRANCH  26  27
ENDBRANCH  25  26
ENDBRANCH   1  25
TORSDOF 20
