REMARK SMILES Nc1c(Nc2ccc(I)cc2)ncnc1Nc1ccc(C(=O)OCCOCCOC(=O)c2ccc(-c3c4nc(c(-c5cccc(S(=O)(=O)[O-])c5F)c5ccc([nH]5)c(-c5cccc(S(=O)(=O)[O-])c5F)c5nc(c(-c6cccc(S(=O)(=O)[O-])c6F)c6ccc3[nH]6)C=C5)C=C4)cc2)cc1
REMARK SMILES IDX 25 1 24 2 23 3 21 4 22 5 20 6 17 7 18 8 96 9 19 10 95 11
REMARK SMILES IDX 16 12 15 14 2 15 3 16 12 17 14 18 13 19 1 20 4 23 5 25 6 26
REMARK SMILES IDX 11 27 7 28 10 29 8 30 9 31 26 32 27 33 28 34 29 35 30 36
REMARK SMILES IDX 31 37 32 38 33 39 94 40 34 41 93 42 35 43 36 44 37 45 87 46
REMARK SMILES IDX 38 47 92 48 86 49 88 50 39 51 91 52 85 53 84 54 40 56 72 57
REMARK SMILES IDX 52 58 71 59 53 60 56 61 70 62 89 63 54 64 55 65 69 67 90 68
REMARK SMILES IDX 57 69 41 70 42 71 50 72 43 73 45 74 51 75 44 76 46 77 47 78
REMARK SMILES IDX 48 79 49 80 73 81 74 82 82 83 75 84 77 85 83 86 76 87 78 88
REMARK SMILES IDX 79 89 80 90 81 91 58 92 59 93 67 94 60 95 62 96 68 97 61 98
REMARK SMILES IDX 63 99 64 100 65 101 66 102
REMARK H PARENT 16 13 1 21 1 22 4 24 88 55 56 66
REMARK Flexibility Score: inf
ROOT
ATOM      1  C   UNL     1       4.791  10.505  -0.068  1.00  0.00     0.202 C 
ENDROOT
BRANCH   1   2
ATOM      2  C   UNL     1       3.497  10.269   0.718  1.00  0.00     0.261 C 
BRANCH   2   3
ATOM      3  O   UNL     1       3.251   8.873   0.928  1.00  0.00    -0.460 OA
BRANCH   3   4
ATOM      4  C   UNL     1       2.259   8.358   0.164  1.00  0.00     0.338 C 
ATOM      5  O   UNL     1       1.502   8.975  -0.571  1.00  0.00    -0.246 OA
BRANCH   4   6
ATOM      6  C   UNL     1       2.319   6.881   0.180  1.00  0.00     0.060 A 
ATOM      7  C   UNL     1       2.152   4.088   0.122  1.00  0.00     0.040 A 
ATOM      8  C   UNL     1       1.894   4.829  -1.035  1.00  0.00     0.027 A 
ATOM      9  C   UNL     1       2.589   4.756   1.279  1.00  0.00     0.027 A 
ATOM     10  C   UNL     1       1.966   6.219  -1.004  1.00  0.00     0.018 A 
ATOM     11  C   UNL     1       2.683   6.150   1.311  1.00  0.00     0.018 A 
BRANCH   7  12
ATOM     12  N   UNL     1       1.733   2.742   0.175  1.00  0.00    -0.338 N 
ATOM     13  H   UNL     1       2.186   2.083  -0.399  1.00  0.00     0.168 HD
BRANCH  12  14
ATOM     14  C   UNL     1       0.681   2.301   1.025  1.00  0.00     0.159 A 
ATOM     15  C   UNL     1       0.269   0.965   0.956  1.00  0.00     0.118 A 
ATOM     16  C   UNL     1      -0.799   0.633   1.802  1.00  0.00     0.159 A 
ATOM     17  N   UNL     1      -1.406   1.534   2.598  1.00  0.00    -0.217 NA
ATOM     18  N   UNL     1       0.108   3.193   1.855  1.00  0.00    -0.217 NA
ATOM     19  C   UNL     1      -0.910   2.769   2.598  1.00  0.00     0.226 A 
BRANCH  15  20
ATOM     20  N   UNL     1       0.857   0.048   0.077  1.00  0.00    -0.393 N 
ATOM     21  H   UNL     1       0.541  -0.884   0.056  1.00  0.00     0.156 HD
ATOM     22  H   UNL     1       1.585   0.335  -0.520  1.00  0.00     0.156 HD
ENDBRANCH  15  20
BRANCH  16  23
ATOM     23  N   UNL     1      -1.232  -0.718   1.853  1.00  0.00    -0.338 N 
ATOM     24  H   UNL     1      -0.747  -1.369   1.297  1.00  0.00     0.168 HD
BRANCH  23  25
ATOM     25  C   UNL     1      -2.299  -1.204   2.633  1.00  0.00     0.040 A 
ATOM     26  C   UNL     1      -2.071  -2.254   3.531  1.00  0.00     0.027 A 
ATOM     27  C   UNL     1      -3.556  -0.584   2.633  1.00  0.00     0.027 A 
ATOM     28  C   UNL     1      -3.067  -2.662   4.423  1.00  0.00     0.017 A 
ATOM     29  C   UNL     1      -4.560  -0.994   3.514  1.00  0.00     0.017 A 
ATOM     30  C   UNL     1      -4.307  -2.026   4.413  1.00  0.00     0.013 A 
ATOM     31  I   UNL     1      -5.772  -2.601   5.770  1.00  0.00    -0.044 I 
ENDBRANCH  23  25
ENDBRANCH  16  23
ENDBRANCH  12  14
ENDBRANCH   7  12
ENDBRANCH   4   6
ENDBRANCH   3   4
ENDBRANCH   2   3
ENDBRANCH   1   2
BRANCH   1  32
ATOM     32  O   UNL     1       4.890   9.923  -1.368  1.00  0.00    -0.374 OA
BRANCH  32  33
ATOM     33  C   UNL     1       5.204   8.531  -1.446  1.00  0.00     0.202 C 
BRANCH  33  34
ATOM     34  C   UNL     1       6.646   8.107  -1.144  1.00  0.00     0.261 C 
BRANCH  34  35
ATOM     35  O   UNL     1       6.998   8.307   0.236  1.00  0.00    -0.460 OA
BRANCH  35  36
ATOM     36  C   UNL     1       7.915   9.278   0.457  1.00  0.00     0.338 C 
ATOM     37  O   UNL     1       8.518   9.932  -0.385  1.00  0.00    -0.246 OA
BRANCH  36  38
ATOM     38  C   UNL     1       7.955   9.601   1.893  1.00  0.00     0.060 A 
ATOM     39  C   UNL     1       7.668  10.919   2.271  1.00  0.00     0.016 A 
ATOM     40  C   UNL     1       8.326   8.652   2.847  1.00  0.00     0.016 A 
ATOM     41  C   UNL     1       7.788  11.304   3.603  1.00  0.00     0.010 A 
ATOM     42  C   UNL     1       8.459   9.044   4.183  1.00  0.00     0.010 A 
ATOM     43  C   UNL     1       8.225  10.379   4.560  1.00  0.00    -0.014 A 
BRANCH  43  44
ATOM     44  C   UNL     1       8.572  10.859   5.919  1.00  0.00     0.031 A 
ATOM     45  C   UNL     1      10.017  11.100   6.258  1.00  0.00     0.074 A 
ATOM     46  C   UNL     1       7.611  11.118   6.823  1.00  0.00     0.049 A 
ATOM     47  N   UNL     1      10.540  11.559   7.364  1.00  0.00    -0.248 NA
ATOM     48  C   UNL     1      11.006  10.787   5.212  1.00  0.00     0.031 C 
ATOM     49  C   UNL     1       6.178  10.934   6.604  1.00  0.00     0.029 A 
ATOM     50  N   UNL     1       7.698  11.587   8.110  1.00  0.00    -0.354 N 
ATOM     51  C   UNL     1      11.913  11.579   7.155  1.00  0.00     0.074 A 
ATOM     52  C   UNL     1      12.148  11.059   5.826  1.00  0.00     0.031 C 
ATOM     53  C   UNL     1       5.518  11.280   7.722  1.00  0.00     0.029 A 
ATOM     54  C   UNL     1       6.482  11.691   8.743  1.00  0.00     0.049 A 
ATOM     55  H   UNL     1       8.551  11.827   8.539  1.00  0.00     0.167 HD
ATOM     56  C   UNL     1      12.888  12.018   7.983  1.00  0.00     0.034 A 
ATOM     57  C   UNL     1       6.182  12.067  10.003  1.00  0.00     0.034 A 
ATOM     58  C   UNL     1      12.648  12.556   9.294  1.00  0.00     0.049 A 
ATOM     59  C   UNL     1       7.293  12.503  10.925  1.00  0.00     0.074 A 
ATOM     60  C   UNL     1      13.569  13.068  10.190  1.00  0.00     0.029 A 
ATOM     61  N   UNL     1      11.405  12.644   9.900  1.00  0.00    -0.354 N 
ATOM     62  N   UNL     1       8.573  12.632  10.670  1.00  0.00    -0.248 NA
ATOM     63  C   UNL     1       6.918  12.871  12.299  1.00  0.00     0.031 C 
ATOM     64  C   UNL     1      12.887  13.434  11.353  1.00  0.00     0.029 A 
ATOM     65  C   UNL     1      11.537  13.179  11.169  1.00  0.00     0.049 A 
ATOM     66  H   UNL     1      10.555  12.366   9.489  1.00  0.00     0.167 HD
ATOM     67  C   UNL     1       9.151  13.118  11.839  1.00  0.00     0.074 A 
ATOM     68  C   UNL     1       8.077  13.283  12.797  1.00  0.00     0.031 C 
ATOM     69  C   UNL     1      10.454  13.385  12.099  1.00  0.00     0.034 A 
BRANCH  56  70
ATOM     70  C   UNL     1      14.309  11.981   7.485  1.00  0.00     0.023 A 
ATOM     71  C   UNL     1      14.722  12.905   6.503  1.00  0.00     0.012 A 
ATOM     72  C   UNL     1      15.254  11.102   8.049  1.00  0.00     0.148 A 
ATOM     73  C   UNL     1      16.047  12.939   6.073  1.00  0.00     0.002 A 
ATOM     74  C   UNL     1      16.583  11.173   7.649  1.00  0.00     0.091 A 
ATOM     75  F   UNL     1      14.836  10.219   8.967  1.00  0.00    -0.205 F 
ATOM     76  C   UNL     1      16.979  12.083   6.654  1.00  0.00     0.022 A 
BRANCH  74  77
ATOM     77  S   UNL     1      17.877  10.176   8.394  1.00  0.00     0.127 S 
ATOM     78  O   UNL     1      18.256   9.305   7.281  1.00  0.00    -0.237 OA
ATOM     79  O   UNL     1      18.877  11.184   8.746  1.00  0.00    -0.237 OA
ATOM     80  O   UNL     1      17.264   9.501   9.529  1.00  0.00    -0.744 OA
ENDBRANCH  74  77
ENDBRANCH  56  70
BRANCH  57  81
ATOM     81  C   UNL     1       4.758  12.097  10.447  1.00  0.00     0.023 A 
ATOM     82  C   UNL     1       4.141  13.336  10.706  1.00  0.00     0.012 A 
ATOM     83  C   UNL     1       4.002  10.915  10.571  1.00  0.00     0.148 A 
ATOM     84  C   UNL     1       2.802  13.396  11.097  1.00  0.00     0.002 A 
ATOM     85  C   UNL     1       2.655  10.985  10.905  1.00  0.00     0.091 A 
ATOM     86  F   UNL     1       4.613   9.744  10.337  1.00  0.00    -0.205 F 
ATOM     87  C   UNL     1       2.056  12.223  11.184  1.00  0.00     0.022 A 
BRANCH  85  88
ATOM     88  S   UNL     1       1.582   9.543  10.910  1.00  0.00     0.127 S 
ATOM     89  O   UNL     1       1.240   9.430  12.325  1.00  0.00    -0.237 OA
ATOM     90  O   UNL     1       0.488   9.982  10.043  1.00  0.00    -0.237 OA
ATOM     91  O   UNL     1       2.382   8.454  10.367  1.00  0.00    -0.744 OA
ENDBRANCH  85  88
ENDBRANCH  57  81
BRANCH  69  92
ATOM     92  C   UNL     1      10.825  13.887  13.472  1.00  0.00     0.023 A 
ATOM     93  C   UNL     1      10.823  12.992  14.559  1.00  0.00     0.012 A 
ATOM     94  C   UNL     1      11.321  15.195  13.653  1.00  0.00     0.148 A 
ATOM     95  C   UNL     1      11.300  13.391  15.807  1.00  0.00     0.002 A 
ATOM     96  C   UNL     1      11.842  15.569  14.886  1.00  0.00     0.091 A 
ATOM     97  F   UNL     1      11.305  16.034  12.607  1.00  0.00    -0.205 F 
ATOM     98  C   UNL     1      11.824  14.672  15.966  1.00  0.00     0.022 A 
BRANCH  96  99
ATOM     99  S   UNL     1      12.640  17.156  15.163  1.00  0.00     0.127 S 
ATOM    100  O   UNL     1      11.736  17.779  16.129  1.00  0.00    -0.237 OA
ATOM    101  O   UNL     1      13.937  16.757  15.710  1.00  0.00    -0.237 OA
ATOM    102  O   UNL     1      12.701  17.811  13.864  1.00  0.00    -0.744 OA
ENDBRANCH  96  99
ENDBRANCH  69  92
ENDBRANCH  43  44
ENDBRANCH  36  38
ENDBRANCH  35  36
ENDBRANCH  34  35
ENDBRANCH  33  34
ENDBRANCH  32  33
ENDBRANCH   1  32
TORSDOF 22
