REMARK SMILES Cc1cccc(C)c1Nc1ccccc1CC(=O)OCCOCCOC(=O)c1ccc(-c2c3nc(c(-c4cccc(S(=O)(=O)[O-])c4F)c4ccc([nH]4)c(-c4cccc(S(=O)(=O)[O-])c4F)c4nc(c(-c5cccc(S(=O)(=O)[O-])c5F)c5ccc2[nH]5)C=C4)C=C3)cc1
REMARK SMILES IDX 22 1 21 2 20 3 19 4 17 5 18 6 16 7 15 8 10 9 11 10 12 11
REMARK SMILES IDX 14 12 13 13 9 14 8 16 1 17 2 18 3 19 4 20 6 21 5 22 7 23
REMARK SMILES IDX 23 24 24 25 25 26 26 27 27 28 28 29 29 30 90 31 30 32 89 33
REMARK SMILES IDX 31 34 32 35 33 36 83 37 34 38 88 39 82 40 84 41 35 42 87 43
REMARK SMILES IDX 81 44 80 45 36 47 68 48 48 49 67 50 49 51 52 52 66 53 85 54
REMARK SMILES IDX 50 55 51 56 65 58 86 59 53 60 37 61 38 62 46 63 39 64 41 65
REMARK SMILES IDX 47 66 40 67 42 68 43 69 44 70 45 71 69 72 70 73 78 74 71 75
REMARK SMILES IDX 73 76 79 77 72 78 74 79 75 80 76 81 77 82 54 83 55 84 63 85
REMARK SMILES IDX 56 86 58 87 64 88 57 89 59 90 60 91 61 92 62 93
REMARK H PARENT 9 15 84 46 52 57
REMARK Flexibility Score: inf
ROOT
ATOM      1  O   UNL     1      -2.899   4.115   5.771  1.00  0.00    -0.374 OA
ENDROOT
BRANCH   1   2
ATOM      2  C   UNL     1      -1.525   4.497   5.720  1.00  0.00     0.202 C 
BRANCH   2   3
ATOM      3  C   UNL     1      -0.539   3.537   5.041  1.00  0.00     0.261 C 
BRANCH   3   4
ATOM      4  O   UNL     1      -0.876   3.239   3.674  1.00  0.00    -0.463 OA
BRANCH   4   5
ATOM      5  C   UNL     1      -1.342   1.981   3.461  1.00  0.00     0.310 C 
ATOM      6  O   UNL     1      -1.454   1.129   4.341  1.00  0.00    -0.252 OA
BRANCH   5   7
ATOM      7  C   UNL     1      -1.721   1.663   2.039  1.00  0.00     0.160 C 
BRANCH   7   8
ATOM      8  C   UNL     1      -1.931   2.775   1.025  1.00  0.00    -0.013 A 
ATOM      9  C   UNL     1      -1.036   3.031  -0.034  1.00  0.00     0.042 A 
ATOM     10  C   UNL     1      -1.273   4.134  -0.881  1.00  0.00     0.026 A 
ATOM     11  C   UNL     1      -2.418   4.917  -0.754  1.00  0.00     0.002 A 
ATOM     12  C   UNL     1      -3.113   3.541   1.092  1.00  0.00     0.006 A 
ATOM     13  C   UNL     1      -3.355   4.601   0.217  1.00  0.00     0.000 A 
BRANCH   9  14
ATOM     14  N   UNL     1       0.004   2.162  -0.418  1.00  0.00    -0.355 N 
ATOM     15  H   UNL     1       0.833   2.623  -0.684  1.00  0.00     0.167 HD
BRANCH  14  16
ATOM     16  C   UNL     1       0.081   0.751  -0.492  1.00  0.00     0.044 A 
ATOM     17  C   UNL     1       2.580   0.959  -0.005  1.00  0.00     0.046 C 
ATOM     18  C   UNL     1       1.329   0.141  -0.204  1.00  0.00    -0.027 A 
ATOM     19  C   UNL     1       1.412  -1.252  -0.046  1.00  0.00     0.005 A 
ATOM     20  C   UNL     1       0.282  -2.049  -0.175  1.00  0.00     0.001 A 
ATOM     21  C   UNL     1      -1.048  -0.082  -0.709  1.00  0.00    -0.027 A 
ATOM     22  C   UNL     1      -0.935  -1.470  -0.512  1.00  0.00     0.005 A 
ATOM     23  C   UNL     1      -2.403   0.428  -1.128  1.00  0.00     0.046 C 
ENDBRANCH  14  16
ENDBRANCH   9  14
ENDBRANCH   7   8
ENDBRANCH   5   7
ENDBRANCH   4   5
ENDBRANCH   3   4
ENDBRANCH   2   3
ENDBRANCH   1   2
BRANCH   1  24
ATOM     24  C   UNL     1      -3.641   4.205   4.557  1.00  0.00     0.202 C 
BRANCH  24  25
ATOM     25  C   UNL     1      -3.991   5.609   4.048  1.00  0.00     0.261 C 
BRANCH  25  26
ATOM     26  O   UNL     1      -2.823   6.345   3.646  1.00  0.00    -0.460 OA
BRANCH  26  27
ATOM     27  C   UNL     1      -2.621   7.494   4.330  1.00  0.00     0.338 C 
ATOM     28  O   UNL     1      -3.383   8.014   5.138  1.00  0.00    -0.246 OA
BRANCH  27  29
ATOM     29  C   UNL     1      -1.241   7.975   4.140  1.00  0.00     0.060 A 
ATOM     30  C   UNL     1      -0.474   8.174   5.295  1.00  0.00     0.016 A 
ATOM     31  C   UNL     1      -0.737   8.315   2.884  1.00  0.00     0.016 A 
ATOM     32  C   UNL     1       0.774   8.783   5.207  1.00  0.00     0.010 A 
ATOM     33  C   UNL     1       0.515   8.937   2.799  1.00  0.00     0.010 A 
ATOM     34  C   UNL     1       1.252   9.216   3.965  1.00  0.00    -0.014 A 
BRANCH  34  35
ATOM     35  C   UNL     1       2.438  10.105   3.926  1.00  0.00     0.031 A 
ATOM     36  C   UNL     1       2.230  11.592   3.810  1.00  0.00     0.074 A 
ATOM     37  C   UNL     1       3.680   9.602   4.041  1.00  0.00     0.049 A 
ATOM     38  N   UNL     1       3.116  12.553   3.801  1.00  0.00    -0.248 NA
ATOM     39  C   UNL     1       0.838  12.057   3.690  1.00  0.00     0.031 C 
ATOM     40  C   UNL     1       4.005   8.182   4.166  1.00  0.00     0.029 A 
ATOM     41  N   UNL     1       4.899  10.231   4.057  1.00  0.00    -0.354 N 
ATOM     42  C   UNL     1       2.395  13.732   3.652  1.00  0.00     0.074 A 
ATOM     43  C   UNL     1       0.999  13.366   3.559  1.00  0.00     0.031 C 
ATOM     44  C   UNL     1       5.341   8.046   4.222  1.00  0.00     0.029 A 
ATOM     45  C   UNL     1       5.964   9.365   4.122  1.00  0.00     0.049 A 
ATOM     46  H   UNL     1       5.000  11.210   4.025  1.00  0.00     0.167 HD
ATOM     47  C   UNL     1       2.851  15.006   3.615  1.00  0.00     0.034 A 
ATOM     48  C   UNL     1       7.289   9.610   4.090  1.00  0.00     0.034 A 
ATOM     49  C   UNL     1       4.237  15.369   3.731  1.00  0.00     0.049 A 
ATOM     50  C   UNL     1       7.772  11.036   4.032  1.00  0.00     0.074 A 
ATOM     51  C   UNL     1       4.795  16.635   3.756  1.00  0.00     0.029 A 
ATOM     52  N   UNL     1       5.284  14.467   3.831  1.00  0.00    -0.354 N 
ATOM     53  N   UNL     1       7.072  12.145   4.020  1.00  0.00    -0.248 NA
ATOM     54  C   UNL     1       9.227  11.247   4.020  1.00  0.00     0.031 C 
ATOM     55  C   UNL     1       6.185  16.497   3.845  1.00  0.00     0.029 A 
ATOM     56  C   UNL     1       6.489  15.146   3.903  1.00  0.00     0.049 A 
ATOM     57  H   UNL     1       5.186  13.488   3.849  1.00  0.00     0.167 HD
ATOM     58  C   UNL     1       7.998  13.183   4.032  1.00  0.00     0.074 A 
ATOM     59  C   UNL     1       9.309  12.570   4.075  1.00  0.00     0.031 C 
ATOM     60  C   UNL     1       7.784  14.522   3.997  1.00  0.00     0.034 A 
BRANCH  47  61
ATOM     61  C   UNL     1       1.835  16.108   3.469  1.00  0.00     0.023 A 
ATOM     62  C   UNL     1       1.013  16.448   4.562  1.00  0.00     0.012 A 
ATOM     63  C   UNL     1       1.730  16.841   2.270  1.00  0.00     0.148 A 
ATOM     64  C   UNL     1       0.082  17.481   4.457  1.00  0.00     0.002 A 
ATOM     65  C   UNL     1       0.828  17.895   2.186  1.00  0.00     0.091 A 
ATOM     66  F   UNL     1       2.502  16.486   1.234  1.00  0.00    -0.205 F 
ATOM     67  C   UNL     1      -0.003  18.210   3.274  1.00  0.00     0.022 A 
BRANCH  65  68
ATOM     68  S   UNL     1       0.695  18.939   0.730  1.00  0.00     0.127 S 
ATOM     69  O   UNL     1      -0.590  18.512   0.177  1.00  0.00    -0.237 OA
ATOM     70  O   UNL     1       0.692  20.282   1.312  1.00  0.00    -0.237 OA
ATOM     71  O   UNL     1       1.860  18.636  -0.088  1.00  0.00    -0.744 OA
ENDBRANCH  65  68
ENDBRANCH  47  61
BRANCH  48  72
ATOM     72  C   UNL     1       8.254   8.476   4.151  1.00  0.00     0.023 A 
ATOM     73  C   UNL     1       9.049   8.296   5.299  1.00  0.00     0.012 A 
ATOM     74  C   UNL     1       8.369   7.561   3.086  1.00  0.00     0.148 A 
ATOM     75  C   UNL     1       9.959   7.241   5.375  1.00  0.00     0.002 A 
ATOM     76  C   UNL     1       9.237   6.480   3.191  1.00  0.00     0.091 A 
ATOM     77  F   UNL     1       7.620   7.761   1.992  1.00  0.00    -0.205 F 
ATOM     78  C   UNL     1      10.045   6.327   4.327  1.00  0.00     0.022 A 
BRANCH  76  79
ATOM     79  S   UNL     1       9.312   5.186   1.947  1.00  0.00     0.127 S 
ATOM     80  O   UNL     1      10.598   5.457   1.310  1.00  0.00    -0.237 OA
ATOM     81  O   UNL     1       9.272   3.975   2.767  1.00  0.00    -0.237 OA
ATOM     82  O   UNL     1       8.136   5.379   1.109  1.00  0.00    -0.744 OA
ENDBRANCH  76  79
ENDBRANCH  48  72
BRANCH  60  83
ATOM     83  C   UNL     1       8.989  15.426   4.029  1.00  0.00     0.023 A 
ATOM     84  C   UNL     1       9.806  15.540   2.887  1.00  0.00     0.012 A 
ATOM     85  C   UNL     1       9.264  16.221   5.159  1.00  0.00     0.148 A 
ATOM     86  C   UNL     1      10.897  16.410   2.880  1.00  0.00     0.002 A 
ATOM     87  C   UNL     1      10.323  17.120   5.127  1.00  0.00     0.091 A 
ATOM     88  F   UNL     1       8.485  16.086   6.242  1.00  0.00    -0.205 F 
ATOM     89  C   UNL     1      11.148  17.208   3.994  1.00  0.00     0.022 A 
BRANCH  87  90
ATOM     90  S   UNL     1      10.662  18.255   6.479  1.00  0.00     0.127 S 
ATOM     91  O   UNL     1      11.852  17.656   7.080  1.00  0.00    -0.237 OA
ATOM     92  O   UNL     1      10.902  19.515   5.776  1.00  0.00    -0.237 OA
ATOM     93  O   UNL     1       9.468  18.249   7.314  1.00  0.00    -0.744 OA
ENDBRANCH  87  90
ENDBRANCH  60  83
ENDBRANCH  34  35
ENDBRANCH  27  29
ENDBRANCH  26  27
ENDBRANCH  25  26
ENDBRANCH  24  25
ENDBRANCH   1  24
TORSDOF 20
