REMARK SMILES CC(C)[C@@H]1C(=O)Nc2ccccc2N1C(=O)N[C@H](Cc1ccccc1)C(=O)OCCOCCOC(=O)c1ccc(-c2c3nc(c(-c4cccc(S(=O)(=O)[O-])c4F)c4ccc([nH]4)c(-c4cccc(S(=O)(=O)[O-])c4F)c4nc(c(-c5cccc(S(=O)(=O)[O-])c5F)c5ccc2[nH]5)C=C4)C=C3)cc1
REMARK SMILES IDX 31 1 30 2 29 3 28 4 26 5 27 6 18 7 17 8 15 9 16 10 14 12
REMARK SMILES IDX 4 13 5 14 6 15 7 16 13 17 8 18 12 20 9 21 11 22 10 23 2 24
REMARK SMILES IDX 1 25 3 26 19 27 20 28 21 29 25 30 22 31 24 32 23 33 32 34
REMARK SMILES IDX 33 35 34 36 35 37 36 38 37 39 38 40 99 41 39 42 98 43 40 44
REMARK SMILES IDX 41 45 42 46 92 47 43 48 97 49 91 50 93 51 44 52 96 53 90 54
REMARK SMILES IDX 89 55 45 57 77 58 57 59 76 60 58 61 61 62 75 63 94 64 59 65
REMARK SMILES IDX 60 66 74 68 95 69 62 70 46 71 47 72 55 73 48 74 50 75 56 76
REMARK SMILES IDX 49 77 51 78 52 79 53 80 54 81 78 82 79 83 87 84 80 85 82 86
REMARK SMILES IDX 88 87 81 88 83 89 84 90 85 91 86 92 63 93 64 94 72 95 65 96
REMARK SMILES IDX 67 97 73 98 66 99 68 100 69 101 70 102 71 103
REMARK H PARENT 17 11 7 19 93 56 61 67
REMARK Flexibility Score: inf
ROOT
ATOM      1  O   UNL     1       1.740   2.190   2.826  1.00  0.00    -0.374 OA
ENDROOT
BRANCH   1   2
ATOM      2  C   UNL     1       2.856   2.063   1.919  1.00  0.00     0.202 C 
BRANCH   2   3
ATOM      3  C   UNL     1       3.223   0.593   1.482  1.00  0.00     0.261 C 
BRANCH   3   4
ATOM      4  O   UNL     1       2.814   0.247   0.108  1.00  0.00    -0.462 OA
BRANCH   4   5
ATOM      5  C   UNL     1       2.437  -1.019  -0.260  1.00  0.00     0.329 C 
ATOM      6  O   UNL     1       2.462  -1.955   0.539  1.00  0.00    -0.250 OA
BRANCH   5   7
ATOM      7  C   UNL     1       2.120  -1.271  -1.838  1.00  0.00     0.198 C 
BRANCH   7   8
ATOM      8  N   UNL     1       3.410  -1.111  -2.472  1.00  0.00    -0.324 N 
ATOM      9  C   UNL     1       3.944   0.067  -2.880  1.00  0.00     0.323 C 
ATOM     10  O   UNL     1       4.630  -0.023  -3.901  1.00  0.00    -0.248 OA
ATOM     11  H   UNL     1       3.944  -1.925  -2.620  1.00  0.00     0.166 HD
BRANCH   9  12
ATOM     12  N   UNL     1       3.931   1.164  -2.029  1.00  0.00    -0.280 N 
ATOM     13  C   UNL     1       2.835   2.239  -1.774  1.00  0.00     0.184 C 
ATOM     14  C   UNL     1       3.089   3.400  -2.787  1.00  0.00     0.247 C 
ATOM     15  O   UNL     1       2.211   4.101  -3.286  1.00  0.00    -0.272 OA
ATOM     16  N   UNL     1       4.385   3.788  -2.953  1.00  0.00    -0.322 N 
ATOM     17  C   UNL     1       5.274   1.748  -2.004  1.00  0.00     0.070 A 
ATOM     18  C   UNL     1       5.471   3.022  -2.546  1.00  0.00     0.065 A 
ATOM     19  H   UNL     1       4.561   4.657  -3.383  1.00  0.00     0.170 HD
ATOM     20  C   UNL     1       6.403   0.953  -1.728  1.00  0.00     0.028 A 
ATOM     21  C   UNL     1       6.751   3.473  -2.862  1.00  0.00     0.028 A 
ATOM     22  C   UNL     1       7.689   1.415  -2.027  1.00  0.00     0.002 A 
ATOM     23  C   UNL     1       7.858   2.664  -2.615  1.00  0.00     0.002 A 
BRANCH  13  24
ATOM     24  C   UNL     1       1.227   2.030  -1.595  1.00  0.00     0.015 C 
ATOM     25  C   UNL     1       0.478   1.073  -0.619  1.00  0.00     0.010 C 
ATOM     26  C   UNL     1       0.483   3.377  -1.376  1.00  0.00     0.010 C 
ENDBRANCH  13  24
ENDBRANCH   9  12
ENDBRANCH   7   8
BRANCH   7  27
ATOM     27  C   UNL     1       1.110  -0.780  -2.986  1.00  0.00     0.072 C 
BRANCH  27  28
ATOM     28  C   UNL     1      -0.411  -0.666  -3.011  1.00  0.00    -0.045 A 
ATOM     29  C   UNL     1      -1.041   0.514  -3.487  1.00  0.00     0.004 A 
ATOM     30  C   UNL     1      -1.234  -1.744  -2.697  1.00  0.00     0.004 A 
ATOM     31  C   UNL     1      -2.429   0.655  -3.531  1.00  0.00     0.000 A 
ATOM     32  C   UNL     1      -2.629  -1.627  -2.810  1.00  0.00     0.000 A 
ATOM     33  C   UNL     1      -3.226  -0.426  -3.200  1.00  0.00     0.000 A 
ENDBRANCH  27  28
ENDBRANCH   7  27
ENDBRANCH   5   7
ENDBRANCH   4   5
ENDBRANCH   3   4
ENDBRANCH   2   3
ENDBRANCH   1   2
BRANCH   1  34
ATOM     34  C   UNL     1       0.516   2.716   2.302  1.00  0.00     0.202 C 
BRANCH  34  35
ATOM     35  C   UNL     1       0.266   4.226   2.303  1.00  0.00     0.261 C 
BRANCH  35  36
ATOM     36  O   UNL     1       1.166   4.884   1.397  1.00  0.00    -0.460 OA
BRANCH  36  37
ATOM     37  C   UNL     1       2.224   5.449   2.003  1.00  0.00     0.338 C 
ATOM     38  O   UNL     1       2.382   5.550   3.217  1.00  0.00    -0.246 OA
BRANCH  37  39
ATOM     39  C   UNL     1       3.276   5.839   1.042  1.00  0.00     0.060 A 
ATOM     40  C   UNL     1       4.577   5.815   1.551  1.00  0.00     0.016 A 
ATOM     41  C   UNL     1       3.046   6.302  -0.259  1.00  0.00     0.016 A 
ATOM     42  C   UNL     1       5.623   6.381   0.836  1.00  0.00     0.010 A 
ATOM     43  C   UNL     1       4.117   6.830  -1.000  1.00  0.00     0.010 A 
ATOM     44  C   UNL     1       5.399   6.945  -0.424  1.00  0.00    -0.014 A 
BRANCH  44  45
ATOM     45  C   UNL     1       6.464   7.800  -1.022  1.00  0.00     0.031 A 
ATOM     46  C   UNL     1       6.240   9.287  -1.146  1.00  0.00     0.074 A 
ATOM     47  C   UNL     1       7.673   7.300  -1.349  1.00  0.00     0.049 A 
ATOM     48  N   UNL     1       7.055  10.209  -1.590  1.00  0.00    -0.248 NA
ATOM     49  C   UNL     1       4.946   9.811  -0.677  1.00  0.00     0.031 C 
ATOM     50  C   UNL     1       8.094   5.914  -1.168  1.00  0.00     0.029 A 
ATOM     51  N   UNL     1       8.769   7.904  -1.917  1.00  0.00    -0.354 N 
ATOM     52  C   UNL     1       6.380  11.415  -1.450  1.00  0.00     0.074 A 
ATOM     53  C   UNL     1       5.066  11.104  -0.934  1.00  0.00     0.031 C 
ATOM     54  C   UNL     1       9.321   5.753  -1.687  1.00  0.00     0.029 A 
ATOM     55  C   UNL     1       9.771   7.021  -2.245  1.00  0.00     0.049 A 
ATOM     56  H   UNL     1       8.831   8.874  -2.073  1.00  0.00     0.167 HD
ATOM     57  C   UNL     1       6.824  12.673  -1.680  1.00  0.00     0.034 A 
ATOM     58  C   UNL     1      10.914   7.196  -2.935  1.00  0.00     0.034 A 
ATOM     59  C   UNL     1       8.138  12.995  -2.165  1.00  0.00     0.049 A 
ATOM     60  C   UNL     1      11.329   8.585  -3.325  1.00  0.00     0.074 A 
ATOM     61  C   UNL     1       8.689  14.246  -2.382  1.00  0.00     0.029 A 
ATOM     62  N   UNL     1       9.100  12.067  -2.526  1.00  0.00    -0.354 N 
ATOM     63  N   UNL     1      10.716   9.718  -3.092  1.00  0.00    -0.248 NA
ATOM     64  C   UNL     1      12.627   8.730  -4.000  1.00  0.00     0.031 C 
ATOM     65  C   UNL     1       9.968  14.073  -2.921  1.00  0.00     0.029 A 
ATOM     66  C   UNL     1      10.232  12.715  -2.991  1.00  0.00     0.049 A 
ATOM     67  H   UNL     1       8.995  11.090  -2.462  1.00  0.00     0.167 HD
ATOM     68  C   UNL     1      11.586  10.714  -3.516  1.00  0.00     0.074 A 
ATOM     69  C   UNL     1      12.763  10.049  -4.036  1.00  0.00     0.031 C 
ATOM     70  C   UNL     1      11.425  12.058  -3.459  1.00  0.00     0.034 A 
BRANCH  57  71
ATOM     71  C   UNL     1       5.879  13.807  -1.383  1.00  0.00     0.023 A 
ATOM     72  C   UNL     1       5.566  14.130  -0.046  1.00  0.00     0.012 A 
ATOM     73  C   UNL     1       5.339  14.582  -2.427  1.00  0.00     0.148 A 
ATOM     74  C   UNL     1       4.698  15.182   0.245  1.00  0.00     0.002 A 
ATOM     75  C   UNL     1       4.514  15.659  -2.127  1.00  0.00     0.091 A 
ATOM     76  F   UNL     1       5.634  14.246  -3.690  1.00  0.00    -0.205 F 
ATOM     77  C   UNL     1       4.181  15.952  -0.794  1.00  0.00     0.022 A 
BRANCH  75  78
ATOM     78  S   UNL     1       3.866  16.759  -3.389  1.00  0.00     0.127 S 
ATOM     79  O   UNL     1       2.442  16.429  -3.363  1.00  0.00    -0.237 OA
ATOM     80  O   UNL     1       4.196  18.077  -2.845  1.00  0.00    -0.237 OA
ATOM     81  O   UNL     1       4.564  16.417  -4.620  1.00  0.00    -0.744 OA
ENDBRANCH  75  78
ENDBRANCH  57  71
BRANCH  58  82
ATOM     82  C   UNL     1      11.768   6.024  -3.275  1.00  0.00     0.023 A 
ATOM     83  C   UNL     1      13.011   5.847  -2.641  1.00  0.00     0.012 A 
ATOM     84  C   UNL     1      11.345   5.086  -4.239  1.00  0.00     0.148 A 
ATOM     85  C   UNL     1      13.839   4.780  -2.990  1.00  0.00     0.002 A 
ATOM     86  C   UNL     1      12.158   4.004  -4.553  1.00  0.00     0.091 A 
ATOM     87  F   UNL     1      10.152   5.271  -4.822  1.00  0.00    -0.205 F 
ATOM     88  C   UNL     1      13.413   3.858  -3.943  1.00  0.00     0.022 A 
BRANCH  86  89
ATOM     89  S   UNL     1      11.655   2.713  -5.695  1.00  0.00     0.127 S 
ATOM     90  O   UNL     1      12.639   2.859  -6.764  1.00  0.00    -0.237 OA
ATOM     91  O   UNL     1      11.810   1.516  -4.869  1.00  0.00    -0.237 OA
ATOM     92  O   UNL     1      10.280   3.026  -6.059  1.00  0.00    -0.744 OA
ENDBRANCH  86  89
ENDBRANCH  58  82
BRANCH  70  93
ATOM     93  C   UNL     1      12.576  12.925  -3.900  1.00  0.00     0.023 A 
ATOM     94  C   UNL     1      12.916  13.020  -5.263  1.00  0.00     0.012 A 
ATOM     95  C   UNL     1      13.272  13.708  -2.956  1.00  0.00     0.148 A 
ATOM     96  C   UNL     1      13.953  13.857  -5.676  1.00  0.00     0.002 A 
ATOM     97  C   UNL     1      14.266  14.580  -3.381  1.00  0.00     0.091 A 
ATOM     98  F   UNL     1      12.946  13.588  -1.661  1.00  0.00    -0.205 F 
ATOM     99  C   UNL     1      14.617  14.646  -4.739  1.00  0.00     0.022 A 
BRANCH  97 100
ATOM    100  S   UNL     1      15.104  15.708  -2.263  1.00  0.00     0.127 S 
ATOM    101  O   UNL     1      16.458  15.156  -2.244  1.00  0.00    -0.237 OA
ATOM    102  O   UNL     1      14.976  16.986  -2.962  1.00  0.00    -0.237 OA
ATOM    103  O   UNL     1      14.385  15.633  -0.998  1.00  0.00    -0.744 OA
ENDBRANCH  97 100
ENDBRANCH  70  93
ENDBRANCH  44  45
ENDBRANCH  37  39
ENDBRANCH  36  37
ENDBRANCH  35  36
ENDBRANCH  34  35
ENDBRANCH   1  34
TORSDOF 22
