REMARK SMILES [NH3+]Cc1ccc(C(=O)N2[C@@H](C(=O)OCCOCCOC(=O)c3ccc(-c4c5nc(c(-c6cccc(S(=O)(=O)[O-])c6F)c6ccc([nH]6)c(-c6cccc(S(=O)(=O)[O-])c6F)c6nc(c(-c7cccc(S(=O)(=O)[O-])c7F)c7ccc4[nH]7)C=C6)C=C5)cc3)C[C@H]3CCCC[C@@H]32)o1
REMARK SMILES IDX 15 1 14 2 13 3 11 4 12 5 10 6 9 7 91 8 85 9 86 10 90 11
REMARK SMILES IDX 87 12 89 13 88 14 7 15 8 16 6 17 3 18 4 19 92 20 5 21 2 22
REMARK SMILES IDX 1 23 16 27 17 28 18 29 19 30 20 31 21 32 22 33 23 34 84 35
REMARK SMILES IDX 24 36 83 37 25 38 26 39 27 40 77 41 28 42 82 43 76 44 78 45
REMARK SMILES IDX 29 46 81 47 75 48 74 49 30 51 62 52 42 53 61 54 43 55 46 56
REMARK SMILES IDX 60 57 79 58 44 59 45 60 59 62 80 63 47 64 31 65 32 66 40 67
REMARK SMILES IDX 33 68 35 69 41 70 34 71 36 72 37 73 38 74 39 75 63 76 64 77
REMARK SMILES IDX 72 78 65 79 67 80 73 81 66 82 68 83 69 84 70 85 71 86 48 87
REMARK SMILES IDX 49 88 57 89 50 90 52 91 58 92 51 93 53 94 54 95 55 96 56 97
REMARK H PARENT 1 24 1 25 1 26 78 50 46 61
REMARK Flexibility Score: inf
ROOT
ATOM      1  C   UNL     1       4.441  -8.835  -0.940  1.00  0.00     0.202 C 
ENDROOT
BRANCH   1   2
ATOM      2  C   UNL     1       4.554  -8.914  -2.464  1.00  0.00     0.261 C 
BRANCH   2   3
ATOM      3  O   UNL     1       4.313  -7.648  -3.095  1.00  0.00    -0.462 OA
BRANCH   3   4
ATOM      4  C   UNL     1       3.117  -7.566  -3.742  1.00  0.00     0.328 C 
ATOM      5  O   UNL     1       2.342  -8.505  -3.884  1.00  0.00    -0.250 OA
BRANCH   4   6
ATOM      6  C   UNL     1       2.887  -6.148  -4.316  1.00  0.00     0.196 C 
ATOM      7  N   UNL     1       1.496  -5.700  -4.119  1.00  0.00    -0.319 N 
ATOM      8  C   UNL     1       0.673  -6.345  -5.103  1.00  0.00     0.089 C 
ATOM      9  C   UNL     1       3.001  -6.279  -5.843  1.00  0.00     0.043 C 
ATOM     10  C   UNL     1       1.552  -6.149  -6.342  1.00  0.00     0.014 C 
ATOM     11  C   UNL     1      -0.729  -5.839  -5.400  1.00  0.00     0.025 C 
ATOM     12  C   UNL     1       1.088  -7.081  -7.442  1.00  0.00     0.006 C 
ATOM     13  C   UNL     1      -1.300  -6.672  -6.560  1.00  0.00     0.002 C 
ATOM     14  C   UNL     1      -0.371  -6.743  -7.786  1.00  0.00     0.000 C 
BRANCH   7  15
ATOM     15  C   UNL     1       0.997  -5.050  -3.014  1.00  0.00     0.290 C 
ATOM     16  O   UNL     1       0.167  -5.580  -2.277  1.00  0.00    -0.265 OA
BRANCH  15  17
ATOM     17  C   UNL     1       1.369  -3.643  -2.928  1.00  0.00     0.192 A 
ATOM     18  C   UNL     1       1.098  -1.558  -2.237  1.00  0.00     0.159 A 
ATOM     19  C   UNL     1       2.018  -1.509  -3.260  1.00  0.00     0.052 A 
ATOM     20  O   UNL     1       0.728  -2.852  -2.004  1.00  0.00    -0.450 OA
ATOM     21  C   UNL     1       2.188  -2.841  -3.706  1.00  0.00     0.057 A 
BRANCH  18  22
ATOM     22  C   UNL     1       0.440  -0.508  -1.416  1.00  0.00     0.335 C 
BRANCH  22  23
ATOM     23  N   UNL     1       0.968  -0.483  -0.056  1.00  0.00    -0.351 N 
ATOM     24  H   UNL     1       0.496   0.247   0.479  1.00  0.00     0.344 HD
ATOM     25  H   UNL     1       1.969  -0.291  -0.084  1.00  0.00     0.344 HD
ATOM     26  H   UNL     1       0.807  -1.387   0.388  1.00  0.00     0.344 HD
ENDBRANCH  22  23
ENDBRANCH  18  22
ENDBRANCH  15  17
ENDBRANCH   7  15
ENDBRANCH   4   6
ENDBRANCH   3   4
ENDBRANCH   2   3
ENDBRANCH   1   2
BRANCH   1  27
ATOM     27  O   UNL     1       3.228  -8.346  -0.378  1.00  0.00    -0.374 OA
BRANCH  27  28
ATOM     28  C   UNL     1       2.941  -6.952  -0.484  1.00  0.00     0.202 C 
BRANCH  28  29
ATOM     29  C   UNL     1       3.781  -5.965   0.338  1.00  0.00     0.261 C 
BRANCH  29  30
ATOM     30  O   UNL     1       5.184  -6.014   0.028  1.00  0.00    -0.460 OA
BRANCH  30  31
ATOM     31  C   UNL     1       5.967  -6.518   1.013  1.00  0.00     0.338 C 
ATOM     32  O   UNL     1       5.612  -6.876   2.132  1.00  0.00    -0.246 OA
BRANCH  31  33
ATOM     33  C   UNL     1       7.320  -6.774   0.495  1.00  0.00     0.060 A 
ATOM     34  C   UNL     1       7.799  -8.092   0.528  1.00  0.00     0.016 A 
ATOM     35  C   UNL     1       8.127  -5.735   0.032  1.00  0.00     0.016 A 
ATOM     36  C   UNL     1       9.097  -8.374   0.109  1.00  0.00     0.010 A 
ATOM     37  C   UNL     1       9.435  -6.018  -0.369  1.00  0.00     0.010 A 
ATOM     38  C   UNL     1       9.931  -7.333  -0.314  1.00  0.00    -0.014 A 
BRANCH  38  39
ATOM     39  C   UNL     1      11.357  -7.596  -0.614  1.00  0.00     0.031 A 
ATOM     40  C   UNL     1      12.395  -7.283   0.423  1.00  0.00     0.074 A 
ATOM     41  C   UNL     1      11.718  -8.078  -1.816  1.00  0.00     0.049 A 
ATOM     42  N   UNL     1      13.696  -7.365   0.342  1.00  0.00    -0.248 NA
ATOM     43  C   UNL     1      11.898  -6.814   1.727  1.00  0.00     0.031 C 
ATOM     44  C   UNL     1      10.796  -8.438  -2.891  1.00  0.00     0.029 A 
ATOM     45  N   UNL     1      12.962  -8.318  -2.341  1.00  0.00    -0.354 N 
ATOM     46  C   UNL     1      14.180  -6.933   1.570  1.00  0.00     0.074 A 
ATOM     47  C   UNL     1      13.030  -6.580   2.376  1.00  0.00     0.031 C 
ATOM     48  C   UNL     1      11.508  -8.826  -3.962  1.00  0.00     0.029 A 
ATOM     49  C   UNL     1      12.932  -8.709  -3.658  1.00  0.00     0.049 A 
ATOM     50  H   UNL     1      13.795  -8.220  -1.825  1.00  0.00     0.167 HD
ATOM     51  C   UNL     1      15.463  -6.849   1.992  1.00  0.00     0.034 A 
ATOM     52  C   UNL     1      13.941  -8.917  -4.528  1.00  0.00     0.034 A 
ATOM     53  C   UNL     1      16.600  -7.204   1.186  1.00  0.00     0.049 A 
ATOM     54  C   UNL     1      15.362  -8.741  -4.060  1.00  0.00     0.074 A 
ATOM     55  C   UNL     1      17.938  -7.209   1.537  1.00  0.00     0.029 A 
ATOM     56  N   UNL     1      16.535  -7.593  -0.144  1.00  0.00    -0.354 N 
ATOM     57  N   UNL     1      15.806  -8.450  -2.861  1.00  0.00    -0.248 NA
ATOM     58  C   UNL     1      16.420  -8.936  -5.061  1.00  0.00     0.031 C 
ATOM     59  C   UNL     1      18.684  -7.566   0.408  1.00  0.00     0.029 A 
ATOM     60  C   UNL     1      17.810  -7.808  -0.640  1.00  0.00     0.049 A 
ATOM     61  H   UNL     1      15.703  -7.700  -0.660  1.00  0.00     0.167 HD
ATOM     62  C   UNL     1      17.193  -8.450  -2.956  1.00  0.00     0.074 A 
ATOM     63  C   UNL     1      17.516  -8.790  -4.327  1.00  0.00     0.031 C 
ATOM     64  C   UNL     1      18.116  -8.178  -1.999  1.00  0.00     0.034 A 
BRANCH  51  65
ATOM     65  C   UNL     1      15.698  -6.363   3.398  1.00  0.00     0.023 A 
ATOM     66  C   UNL     1      15.368  -7.194   4.489  1.00  0.00     0.012 A 
ATOM     67  C   UNL     1      16.259  -5.094   3.643  1.00  0.00     0.148 A 
ATOM     68  C   UNL     1      15.554  -6.755   5.799  1.00  0.00     0.002 A 
ATOM     69  C   UNL     1      16.481  -4.680   4.951  1.00  0.00     0.091 A 
ATOM     70  F   UNL     1      16.541  -4.306   2.596  1.00  0.00    -0.205 F 
ATOM     71  C   UNL     1      16.118  -5.503   6.030  1.00  0.00     0.022 A 
BRANCH  69  72
ATOM     72  S   UNL     1      17.266  -3.113   5.343  1.00  0.00     0.127 S 
ATOM     73  O   UNL     1      16.122  -2.306   5.763  1.00  0.00    -0.237 OA
ATOM     74  O   UNL     1      18.180  -3.485   6.425  1.00  0.00    -0.237 OA
ATOM     75  O   UNL     1      17.926  -2.684   4.118  1.00  0.00    -0.744 OA
ENDBRANCH  69  72
ENDBRANCH  51  65
BRANCH  52  76
ATOM     76  C   UNL     1      13.636  -9.344  -5.922  1.00  0.00     0.023 A 
ATOM     77  C   UNL     1      13.953 -10.656  -6.324  1.00  0.00     0.012 A 
ATOM     78  C   UNL     1      12.993  -8.481  -6.831  1.00  0.00     0.148 A 
ATOM     79  C   UNL     1      13.647 -11.097  -7.612  1.00  0.00     0.002 A 
ATOM     80  C   UNL     1      12.643  -8.944  -8.094  1.00  0.00     0.091 A 
ATOM     81  F   UNL     1      12.714  -7.233  -6.432  1.00  0.00    -0.205 F 
ATOM     82  C   UNL     1      12.983 -10.246  -8.492  1.00  0.00     0.022 A 
BRANCH  80  83
ATOM     83  S   UNL     1      11.673  -7.967  -9.248  1.00  0.00     0.127 S 
ATOM     84  O   UNL     1      12.622  -7.758 -10.338  1.00  0.00    -0.237 OA
ATOM     85  O   UNL     1      10.569  -8.877  -9.556  1.00  0.00    -0.237 OA
ATOM     86  O   UNL     1      11.278  -6.768  -8.521  1.00  0.00    -0.744 OA
ENDBRANCH  80  83
ENDBRANCH  52  76
BRANCH  64  87
ATOM     87  C   UNL     1      19.570  -8.239  -2.392  1.00  0.00     0.023 A 
ATOM     88  C   UNL     1      20.119  -7.210  -3.184  1.00  0.00     0.012 A 
ATOM     89  C   UNL     1      20.411  -9.261  -1.907  1.00  0.00     0.148 A 
ATOM     90  C   UNL     1      21.475  -7.209  -3.506  1.00  0.00     0.002 A 
ATOM     91  C   UNL     1      21.771  -9.228  -2.193  1.00  0.00     0.091 A 
ATOM     92  F   UNL     1      19.866 -10.237  -1.167  1.00  0.00    -0.205 F 
ATOM     93  C   UNL     1      22.302  -8.210  -3.001  1.00  0.00     0.022 A 
BRANCH  91  94
ATOM     94  S   UNL     1      22.933 -10.420  -1.517  1.00  0.00     0.127 S 
ATOM     95  O   UNL     1      23.342 -11.151  -2.715  1.00  0.00    -0.237 OA
ATOM     96  O   UNL     1      23.966  -9.554  -0.947  1.00  0.00    -0.237 OA
ATOM     97  O   UNL     1      22.187 -11.201  -0.539  1.00  0.00    -0.744 OA
ENDBRANCH  91  94
ENDBRANCH  64  87
ENDBRANCH  38  39
ENDBRANCH  31  33
ENDBRANCH  30  31
ENDBRANCH  29  30
ENDBRANCH  28  29
ENDBRANCH  27  28
ENDBRANCH   1  27
TORSDOF 21
