REMARK SMILES Cc1ccc(-c2cnnc(-n3nc(C)c4c3NC(=O)C[C@@H]4c3ccc(C(=O)OCCOCCOC(=O)c4ccc(-c5c6nc(c(-c7cccc(S(=O)(=O)[O-])c7F)c7ccc([nH]7)c(-c7cccc(S(=O)(=O)[O-])c7F)c7nc(c(-c8cccc(S(=O)(=O)[O-])c8F)c8ccc5[nH]8)C=C7)C=C6)cc4)cc3)n2)cc1
REMARK SMILES IDX 31 1 30 2 29 3 28 4 26 5 27 6 25 7 22 8 23 9 101 10 24 11
REMARK SMILES IDX 100 12 21 13 11 14 12 15 16 16 13 17 15 18 17 19 14 20 18 21
REMARK SMILES IDX 20 23 19 24 10 25 6 26 7 27 102 28 8 29 9 30 5 31 1 32 2 33
REMARK SMILES IDX 3 34 104 35 4 36 103 37 32 38 33 39 34 40 35 41 36 42 37 43
REMARK SMILES IDX 38 44 99 45 39 46 98 47 40 48 41 49 42 50 92 51 43 52 97 53
REMARK SMILES IDX 91 54 93 55 44 56 96 57 90 58 89 59 45 61 77 62 57 63 76 64
REMARK SMILES IDX 58 65 61 66 75 67 94 68 59 69 60 70 74 72 95 73 62 74 46 75
REMARK SMILES IDX 47 76 55 77 48 78 50 79 56 80 49 81 51 82 52 83 53 84 54 85
REMARK SMILES IDX 78 86 79 87 87 88 80 89 82 90 88 91 81 92 83 93 84 94 85 95
REMARK SMILES IDX 86 96 63 97 64 98 72 99 65 100 67 101 73 102 66 103 68 104
REMARK SMILES IDX 69 105 70 106 71 107
REMARK H PARENT 17 22 93 60 61 71
REMARK Flexibility Score: inf
ROOT
ATOM      1  O   UNL     1      -9.441   6.833  -9.174  1.00  0.00    -0.374 OA
ENDROOT
BRANCH   1   2
ATOM      2  C   UNL     1      -9.874   7.395  -7.957  1.00  0.00     0.202 C 
BRANCH   2   3
ATOM      3  C   UNL     1     -10.967   6.489  -7.533  1.00  0.00     0.261 C 
BRANCH   3   4
ATOM      4  O   UNL     1     -10.508   5.107  -7.491  1.00  0.00    -0.460 OA
BRANCH   4   5
ATOM      5  C   UNL     1     -10.092   4.340  -8.547  1.00  0.00     0.338 C 
ATOM      6  O   UNL     1     -10.405   4.291  -9.701  1.00  0.00    -0.246 OA
BRANCH   5   7
ATOM      7  C   UNL     1      -9.054   3.485  -7.976  1.00  0.00     0.060 A 
ATOM      8  C   UNL     1      -7.349   1.868  -6.557  1.00  0.00    -0.040 A 
ATOM      9  C   UNL     1      -7.892   1.412  -7.775  1.00  0.00     0.005 A 
ATOM     10  C   UNL     1      -7.495   3.210  -6.203  1.00  0.00     0.005 A 
ATOM     11  C   UNL     1      -8.744   2.235  -8.504  1.00  0.00     0.016 A 
ATOM     12  C   UNL     1      -8.380   3.993  -6.873  1.00  0.00     0.016 A 
BRANCH   8  13
ATOM     13  C   UNL     1      -6.625   0.906  -5.653  1.00  0.00     0.064 C 
ATOM     14  N   UNL     1      -5.691   2.171  -2.400  1.00  0.00    -0.180 N 
ATOM     15  N   UNL     1      -6.988   2.547  -2.272  1.00  0.00    -0.168 NA
ATOM     16  C   UNL     1      -5.416   2.018  -3.745  1.00  0.00     0.143 A 
ATOM     17  C   UNL     1      -7.575   2.020  -3.357  1.00  0.00     0.066 A 
ATOM     18  C   UNL     1      -6.586   1.496  -4.269  1.00  0.00     0.026 A 
ATOM     19  N   UNL     1      -4.375   2.390  -4.577  1.00  0.00    -0.310 N 
ATOM     20  C   UNL     1      -9.034   2.284  -3.516  1.00  0.00     0.069 C 
ATOM     21  C   UNL     1      -4.393   1.922  -5.935  1.00  0.00     0.226 C 
ATOM     22  H   UNL     1      -3.642   2.960  -4.248  1.00  0.00     0.171 HD
ATOM     23  C   UNL     1      -5.210   0.679  -6.185  1.00  0.00     0.113 C 
ATOM     24  O   UNL     1      -3.691   2.502  -6.743  1.00  0.00    -0.275 OA
BRANCH  14  25
ATOM     25  C   UNL     1      -5.053   1.424  -1.367  1.00  0.00     0.272 A 
ATOM     26  C   UNL     1      -3.267   0.305  -0.507  1.00  0.00     0.095 A 
ATOM     27  C   UNL     1      -4.110  -0.335   0.383  1.00  0.00     0.164 A 
ATOM     28  N   UNL     1      -3.733   1.163  -1.451  1.00  0.00    -0.208 NA
ATOM     29  N   UNL     1      -5.423  -0.069   0.404  1.00  0.00    -0.153 NA
ATOM     30  N   UNL     1      -5.889   0.857  -0.458  1.00  0.00    -0.109 NA
BRANCH  26  31
ATOM     31  C   UNL     1      -1.812   0.188  -0.396  1.00  0.00     0.002 A 
ATOM     32  C   UNL     1       2.481  -0.043   0.068  1.00  0.00     0.044 C 
ATOM     33  C   UNL     1       0.990   0.043  -0.066  1.00  0.00    -0.051 A 
ATOM     34  C   UNL     1       0.221  -1.124  -0.127  1.00  0.00     0.004 A 
ATOM     35  C   UNL     1       0.354   1.283  -0.156  1.00  0.00     0.004 A 
ATOM     36  C   UNL     1      -1.166  -1.053  -0.288  1.00  0.00     0.011 A 
ATOM     37  C   UNL     1      -1.029   1.352  -0.324  1.00  0.00     0.011 A 
ENDBRANCH  26  31
ENDBRANCH  14  25
ENDBRANCH   8  13
ENDBRANCH   5   7
ENDBRANCH   4   5
ENDBRANCH   3   4
ENDBRANCH   2   3
ENDBRANCH   1   2
BRANCH   1  38
ATOM     38  C   UNL     1      -8.193   7.250  -9.649  1.00  0.00     0.202 C 
BRANCH  38  39
ATOM     39  C   UNL     1      -8.240   8.734  -9.981  1.00  0.00     0.261 C 
BRANCH  39  40
ATOM     40  O   UNL     1      -9.224   8.943 -11.021  1.00  0.00    -0.460 OA
BRANCH  40  41
ATOM     41  C   UNL     1     -10.434   9.422 -10.595  1.00  0.00     0.338 C 
ATOM     42  O   UNL     1     -10.559  10.446  -9.942  1.00  0.00    -0.246 OA
BRANCH  41  43
ATOM     43  C   UNL     1     -11.515   8.408 -10.821  1.00  0.00     0.060 A 
ATOM     44  C   UNL     1     -12.742   8.517 -10.141  1.00  0.00     0.016 A 
ATOM     45  C   UNL     1     -11.194   7.207 -11.444  1.00  0.00     0.016 A 
ATOM     46  C   UNL     1     -13.522   7.375  -9.884  1.00  0.00     0.010 A 
ATOM     47  C   UNL     1     -11.935   6.080 -11.133  1.00  0.00     0.010 A 
ATOM     48  C   UNL     1     -13.041   6.132 -10.262  1.00  0.00    -0.014 A 
BRANCH  48  49
ATOM     49  C   UNL     1     -13.618   4.828  -9.893  1.00  0.00     0.031 A 
ATOM     50  C   UNL     1     -14.299   4.126 -10.991  1.00  0.00     0.074 A 
ATOM     51  C   UNL     1     -13.371   4.163  -8.730  1.00  0.00     0.049 A 
ATOM     52  N   UNL     1     -14.984   3.051 -10.845  1.00  0.00    -0.248 NA
ATOM     53  C   UNL     1     -14.345   4.656 -12.355  1.00  0.00     0.031 C 
ATOM     54  C   UNL     1     -13.211   2.714  -8.539  1.00  0.00     0.029 A 
ATOM     55  N   UNL     1     -13.070   4.651  -7.458  1.00  0.00    -0.354 N 
ATOM     56  C   UNL     1     -15.227   2.571 -12.109  1.00  0.00     0.074 A 
ATOM     57  C   UNL     1     -15.015   3.691 -12.980  1.00  0.00     0.031 C 
ATOM     58  C   UNL     1     -13.035   2.434  -7.231  1.00  0.00     0.029 A 
ATOM     59  C   UNL     1     -13.243   3.667  -6.485  1.00  0.00     0.049 A 
ATOM     60  H   UNL     1     -12.773   5.571  -7.272  1.00  0.00     0.167 HD
ATOM     61  C   UNL     1     -15.369   1.228 -12.259  1.00  0.00     0.034 A 
ATOM     62  C   UNL     1     -14.028   3.895  -5.397  1.00  0.00     0.034 A 
ATOM     63  C   UNL     1     -15.445   0.578 -10.926  1.00  0.00     0.049 A 
ATOM     64  C   UNL     1     -15.235   3.014  -5.542  1.00  0.00     0.074 A 
ATOM     65  C   UNL     1     -14.550  -0.179 -10.188  1.00  0.00     0.029 A 
ATOM     66  N   UNL     1     -16.438   0.980 -10.021  1.00  0.00    -0.354 N 
ATOM     67  N   UNL     1     -15.463   2.356  -6.644  1.00  0.00    -0.248 NA
ATOM     68  C   UNL     1     -16.223   2.723  -4.514  1.00  0.00     0.031 C 
ATOM     69  C   UNL     1     -14.964  -0.142  -8.819  1.00  0.00     0.029 A 
ATOM     70  C   UNL     1     -16.131   0.602  -8.719  1.00  0.00     0.049 A 
ATOM     71  H   UNL     1     -17.253   1.470 -10.277  1.00  0.00     0.167 HD
ATOM     72  C   UNL     1     -16.574   1.607  -6.539  1.00  0.00     0.074 A 
ATOM     73  C   UNL     1     -17.014   1.849  -5.169  1.00  0.00     0.031 C 
ATOM     74  C   UNL     1     -17.047   0.905  -7.608  1.00  0.00     0.034 A 
BRANCH  61  75
ATOM     75  C   UNL     1     -15.175   0.471 -13.575  1.00  0.00     0.023 A 
ATOM     76  C   UNL     1     -15.184  -0.938 -13.497  1.00  0.00     0.012 A 
ATOM     77  C   UNL     1     -14.920   1.002 -14.871  1.00  0.00     0.148 A 
ATOM     78  C   UNL     1     -14.943  -1.760 -14.607  1.00  0.00     0.002 A 
ATOM     79  C   UNL     1     -14.711   0.185 -15.988  1.00  0.00     0.091 A 
ATOM     80  F   UNL     1     -14.835   2.313 -15.068  1.00  0.00    -0.205 F 
ATOM     81  C   UNL     1     -14.712  -1.201 -15.855  1.00  0.00     0.022 A 
BRANCH  79  82
ATOM     82  S   UNL     1     -14.420   0.845 -17.647  1.00  0.00     0.127 S 
ATOM     83  O   UNL     1     -13.122   0.260 -17.986  1.00  0.00    -0.237 OA
ATOM     84  O   UNL     1     -15.548   0.297 -18.399  1.00  0.00    -0.237 OA
ATOM     85  O   UNL     1     -14.413   2.298 -17.527  1.00  0.00    -0.744 OA
ENDBRANCH  79  82
ENDBRANCH  61  75
BRANCH  62  86
ATOM     86  C   UNL     1     -13.954   5.316  -4.911  1.00  0.00     0.023 A 
ATOM     87  C   UNL     1     -12.762   5.714  -4.244  1.00  0.00     0.012 A 
ATOM     88  C   UNL     1     -14.758   6.317  -5.486  1.00  0.00     0.148 A 
ATOM     89  C   UNL     1     -12.331   7.049  -4.251  1.00  0.00     0.002 A 
ATOM     90  C   UNL     1     -14.284   7.630  -5.555  1.00  0.00     0.091 A 
ATOM     91  F   UNL     1     -15.931   5.961  -6.023  1.00  0.00    -0.205 F 
ATOM     92  C   UNL     1     -13.065   7.994  -4.957  1.00  0.00     0.022 A 
BRANCH  90  93
ATOM     93  S   UNL     1     -15.071   8.870  -6.595  1.00  0.00     0.127 S 
ATOM     94  O   UNL     1     -15.742   9.704  -5.603  1.00  0.00    -0.237 OA
ATOM     95  O   UNL     1     -13.916   9.498  -7.240  1.00  0.00    -0.237 OA
ATOM     96  O   UNL     1     -15.937   8.130  -7.498  1.00  0.00    -0.744 OA
ENDBRANCH  90  93
ENDBRANCH  62  86
BRANCH  74  97
ATOM     97  C   UNL     1     -18.470   0.444  -7.660  1.00  0.00     0.023 A 
ATOM     98  C   UNL     1     -19.478   1.094  -6.919  1.00  0.00     0.012 A 
ATOM     99  C   UNL     1     -18.871  -0.535  -8.591  1.00  0.00     0.148 A 
ATOM    100  C   UNL     1     -20.813   0.715  -7.011  1.00  0.00     0.002 A 
ATOM    101  C   UNL     1     -20.215  -0.799  -8.788  1.00  0.00     0.091 A 
ATOM    102  F   UNL     1     -17.950  -1.219  -9.284  1.00  0.00    -0.205 F 
ATOM    103  C   UNL     1     -21.185  -0.217  -7.966  1.00  0.00     0.022 A 
BRANCH 101 104
ATOM    104  S   UNL     1     -20.765  -1.742 -10.210  1.00  0.00     0.127 S 
ATOM    105  O   UNL     1     -21.005  -3.056  -9.619  1.00  0.00    -0.237 OA
ATOM    106  O   UNL     1     -21.972  -1.016 -10.608  1.00  0.00    -0.237 OA
ATOM    107  O   UNL     1     -19.675  -1.662 -11.173  1.00  0.00    -0.744 OA
ENDBRANCH 101 104
ENDBRANCH  74  97
ENDBRANCH  48  49
ENDBRANCH  41  43
ENDBRANCH  40  41
ENDBRANCH  39  40
ENDBRANCH  38  39
ENDBRANCH   1  38
TORSDOF 20
