REMARK SMILES O=C(CN(CC(=O)OCCOCCOC(=O)c1ccc(-c2c3nc(c(-c4cccc(S(=O)(=O)[O-])c4F)c4ccc([nH]4)c(-c4cccc(S(=O)(=O)[O-])c4F)c4nc(c(-c5cccc(S(=O)(=O)[O-])c5F)c5ccc2[nH]5)C=C4)C=C3)cc1)c1ccccc1)NCc1ccccc1
REMARK SMILES IDX 10 1 9 2 8 3 6 4 7 5 5 6 4 7 3 8 2 9 1 10 86 11 87 13 88 14
REMARK SMILES IDX 89 15 93 16 90 17 92 18 91 19 80 20 81 21 85 22 82 23 84 24
REMARK SMILES IDX 83 25 11 26 12 27 13 28 14 29 15 30 16 31 17 32 18 33 79 34
REMARK SMILES IDX 19 35 78 36 20 37 21 38 22 39 72 40 23 41 77 42 71 43 73 44
REMARK SMILES IDX 24 45 76 46 70 47 69 48 25 50 57 51 37 52 56 53 38 54 41 55
REMARK SMILES IDX 55 56 74 57 39 58 40 59 54 61 75 62 42 63 26 64 27 65 35 66
REMARK SMILES IDX 28 67 30 68 36 69 29 70 31 71 32 72 33 73 34 74 58 75 59 76
REMARK SMILES IDX 67 77 60 78 62 79 68 80 61 81 63 82 64 83 65 84 66 85 43 86
REMARK SMILES IDX 44 87 52 88 45 89 47 90 53 91 46 92 48 93 49 94 50 95 51 96
REMARK H PARENT 86 12 73 49 41 60
REMARK Flexibility Score: inf
ROOT
ATOM      1  C   UNL     1       6.072   3.204   5.260  1.00  0.00     0.202 C 
ENDROOT
BRANCH   1   2
ATOM      2  C   UNL     1       6.251   3.262   3.735  1.00  0.00     0.261 C 
BRANCH   2   3
ATOM      3  O   UNL     1       5.475   2.316   2.966  1.00  0.00    -0.462 OA
BRANCH   3   4
ATOM      4  C   UNL     1       6.208   1.392   2.283  1.00  0.00     0.325 C 
ATOM      5  O   UNL     1       7.430   1.278   2.373  1.00  0.00    -0.250 OA
BRANCH   4   6
ATOM      6  C   UNL     1       5.422   0.530   1.298  1.00  0.00     0.239 C 
BRANCH   6   7
ATOM      7  N   UNL     1       3.995   0.260   1.581  1.00  0.00    -0.351 N 
BRANCH   7   8
ATOM      8  C   UNL     1       3.021   1.075   0.802  1.00  0.00     0.217 C 
BRANCH   8   9
ATOM      9  C   UNL     1       2.263   0.243  -0.256  1.00  0.00     0.239 C 
ATOM     10  O   UNL     1       1.190   0.608  -0.730  1.00  0.00    -0.273 OA
ATOM     11  N   UNL     1       2.883  -0.933  -0.616  1.00  0.00    -0.350 N 
ATOM     12  H   UNL     1       3.808  -1.088  -0.317  1.00  0.00     0.163 HD
BRANCH  11  13
ATOM     13  C   UNL     1       2.239  -1.950  -1.412  1.00  0.00     0.151 C 
BRANCH  13  14
ATOM     14  C   UNL     1       2.756  -2.022  -2.825  1.00  0.00    -0.029 A 
ATOM     15  C   UNL     1       2.969  -3.270  -3.432  1.00  0.00     0.005 A 
ATOM     16  C   UNL     1       2.946  -0.862  -3.589  1.00  0.00     0.005 A 
ATOM     17  C   UNL     1       3.388  -3.352  -4.761  1.00  0.00     0.000 A 
ATOM     18  C   UNL     1       3.371  -0.945  -4.916  1.00  0.00     0.000 A 
ATOM     19  C   UNL     1       3.594  -2.190  -5.501  1.00  0.00     0.000 A 
ENDBRANCH  13  14
ENDBRANCH  11  13
ENDBRANCH   8   9
ENDBRANCH   7   8
BRANCH   7  20
ATOM     20  C   UNL     1       3.554  -0.712   2.475  1.00  0.00     0.038 A 
ATOM     21  C   UNL     1       4.436  -1.473   3.261  1.00  0.00     0.026 A 
ATOM     22  C   UNL     1       2.184  -0.997   2.658  1.00  0.00     0.026 A 
ATOM     23  C   UNL     1       3.980  -2.392   4.223  1.00  0.00     0.002 A 
ATOM     24  C   UNL     1       1.720  -1.941   3.583  1.00  0.00     0.002 A 
ATOM     25  C   UNL     1       2.620  -2.622   4.387  1.00  0.00     0.000 A 
ENDBRANCH   7  20
ENDBRANCH   6   7
ENDBRANCH   4   6
ENDBRANCH   3   4
ENDBRANCH   2   3
ENDBRANCH   1   2
BRANCH   1  26
ATOM     26  O   UNL     1       6.261   1.976   5.956  1.00  0.00    -0.374 OA
BRANCH  26  27
ATOM     27  C   UNL     1       5.465   0.862   5.579  1.00  0.00     0.202 C 
BRANCH  27  28
ATOM     28  C   UNL     1       3.944   0.903   5.782  1.00  0.00     0.261 C 
BRANCH  28  29
ATOM     29  O   UNL     1       3.337   2.175   5.616  1.00  0.00    -0.460 OA
BRANCH  29  30
ATOM     30  C   UNL     1       3.054   2.797   6.783  1.00  0.00     0.338 C 
ATOM     31  O   UNL     1       3.264   2.407   7.915  1.00  0.00    -0.246 OA
BRANCH  30  32
ATOM     32  C   UNL     1       2.554   4.133   6.452  1.00  0.00     0.060 A 
ATOM     33  C   UNL     1       3.237   5.230   6.983  1.00  0.00     0.016 A 
ATOM     34  C   UNL     1       1.423   4.291   5.647  1.00  0.00     0.016 A 
ATOM     35  C   UNL     1       2.749   6.506   6.754  1.00  0.00     0.010 A 
ATOM     36  C   UNL     1       0.937   5.573   5.416  1.00  0.00     0.010 A 
ATOM     37  C   UNL     1       1.575   6.675   6.007  1.00  0.00    -0.014 A 
BRANCH  37  38
ATOM     38  C   UNL     1       0.936   8.003   5.978  1.00  0.00     0.031 A 
ATOM     39  C   UNL     1      -0.246   8.249   6.867  1.00  0.00     0.074 A 
ATOM     40  C   UNL     1       1.431   8.965   5.182  1.00  0.00     0.049 A 
ATOM     41  N   UNL     1      -0.941   9.341   7.031  1.00  0.00    -0.248 NA
ATOM     42  C   UNL     1      -0.714   7.109   7.677  1.00  0.00     0.031 C 
ATOM     43  C   UNL     1       2.569   8.804   4.277  1.00  0.00     0.029 A 
ATOM     44  N   UNL     1       1.030  10.259   4.998  1.00  0.00    -0.354 N 
ATOM     45  C   UNL     1      -1.944   9.015   7.936  1.00  0.00     0.074 A 
ATOM     46  C   UNL     1      -1.780   7.620   8.273  1.00  0.00     0.031 C 
ATOM     47  C   UNL     1       2.765   9.957   3.617  1.00  0.00     0.029 A 
ATOM     48  C   UNL     1       1.753  10.923   4.037  1.00  0.00     0.049 A 
ATOM     49  H   UNL     1       0.295  10.675   5.504  1.00  0.00     0.167 HD
ATOM     50  C   UNL     1      -2.905   9.817   8.449  1.00  0.00     0.034 A 
ATOM     51  C   UNL     1       1.597  12.166   3.545  1.00  0.00     0.034 A 
ATOM     52  C   UNL     1      -3.040  11.206   8.105  1.00  0.00     0.049 A 
ATOM     53  C   UNL     1       0.521  13.039   4.131  1.00  0.00     0.074 A 
ATOM     54  C   UNL     1      -3.938  12.133   8.600  1.00  0.00     0.029 A 
ATOM     55  N   UNL     1      -2.265  11.861   7.159  1.00  0.00    -0.354 N 
ATOM     56  N   UNL     1      -0.342  12.759   5.080  1.00  0.00    -0.248 NA
ATOM     57  C   UNL     1       0.419  14.407   3.610  1.00  0.00     0.031 C 
ATOM     58  C   UNL     1      -3.731  13.339   7.923  1.00  0.00     0.029 A 
ATOM     59  C   UNL     1      -2.674  13.177   7.040  1.00  0.00     0.049 A 
ATOM     60  H   UNL     1      -1.530  11.450   6.648  1.00  0.00     0.167 HD
ATOM     61  C   UNL     1      -1.068  13.924   5.293  1.00  0.00     0.074 A 
ATOM     62  C   UNL     1      -0.528  14.918   4.385  1.00  0.00     0.031 C 
ATOM     63  C   UNL     1      -2.091  14.153   6.153  1.00  0.00     0.034 A 
BRANCH  50  64
ATOM     64  C   UNL     1      -3.873   9.210   9.430  1.00  0.00     0.023 A 
ATOM     65  C   UNL     1      -3.434   8.834  10.716  1.00  0.00     0.012 A 
ATOM     66  C   UNL     1      -5.227   9.033   9.085  1.00  0.00     0.148 A 
ATOM     67  C   UNL     1      -4.317   8.257  11.629  1.00  0.00     0.002 A 
ATOM     68  C   UNL     1      -6.112   8.503  10.017  1.00  0.00     0.091 A 
ATOM     69  F   UNL     1      -5.622   9.370   7.849  1.00  0.00    -0.205 F 
ATOM     70  C   UNL     1      -5.656   8.101  11.283  1.00  0.00     0.022 A 
BRANCH  68  71
ATOM     71  S   UNL     1      -7.871   8.336   9.695  1.00  0.00     0.127 S 
ATOM     72  O   UNL     1      -8.017   6.883   9.605  1.00  0.00    -0.237 OA
ATOM     73  O   UNL     1      -8.460   8.934  10.894  1.00  0.00    -0.237 OA
ATOM     74  O   UNL     1      -8.126   9.067   8.463  1.00  0.00    -0.744 OA
ENDBRANCH  68  71
ENDBRANCH  50  64
BRANCH  51  75
ATOM     75  C   UNL     1       2.508  12.655   2.474  1.00  0.00     0.023 A 
ATOM     76  C   UNL     1       3.457  13.654   2.761  1.00  0.00     0.012 A 
ATOM     77  C   UNL     1       2.472  12.091   1.183  1.00  0.00     0.148 A 
ATOM     78  C   UNL     1       4.338  14.100   1.775  1.00  0.00     0.002 A 
ATOM     79  C   UNL     1       3.390  12.499   0.223  1.00  0.00     0.091 A 
ATOM     80  F   UNL     1       1.555  11.147   0.929  1.00  0.00    -0.205 F 
ATOM     81  C   UNL     1       4.313  13.516   0.511  1.00  0.00     0.022 A 
BRANCH  79  82
ATOM     82  S   UNL     1       3.521  11.706  -1.384  1.00  0.00     0.127 S 
ATOM     83  O   UNL     1       3.073  12.770  -2.279  1.00  0.00    -0.237 OA
ATOM     84  O   UNL     1       4.951  11.403  -1.452  1.00  0.00    -0.237 OA
ATOM     85  O   UNL     1       2.661  10.533  -1.317  1.00  0.00    -0.744 OA
ENDBRANCH  79  82
ENDBRANCH  51  75
BRANCH  63  86
ATOM     86  C   UNL     1      -2.673  15.542   6.184  1.00  0.00     0.023 A 
ATOM     87  C   UNL     1      -3.465  15.999   5.113  1.00  0.00     0.012 A 
ATOM     88  C   UNL     1      -2.496  16.361   7.316  1.00  0.00     0.148 A 
ATOM     89  C   UNL     1      -4.044  17.266   5.154  1.00  0.00     0.002 A 
ATOM     90  C   UNL     1      -3.121  17.599   7.374  1.00  0.00     0.091 A 
ATOM     91  F   UNL     1      -1.724  15.912   8.317  1.00  0.00    -0.205 F 
ATOM     92  C   UNL     1      -3.883  18.060   6.288  1.00  0.00     0.022 A 
BRANCH  90  93
ATOM     93  S   UNL     1      -3.056  18.642   8.834  1.00  0.00     0.127 S 
ATOM     94  O   UNL     1      -2.202  19.738   8.378  1.00  0.00    -0.237 OA
ATOM     95  O   UNL     1      -4.463  19.001   9.020  1.00  0.00    -0.237 OA
ATOM     96  O   UNL     1      -2.498  17.816   9.895  1.00  0.00    -0.744 OA
ENDBRANCH  90  93
ENDBRANCH  63  86
ENDBRANCH  37  38
ENDBRANCH  30  32
ENDBRANCH  29  30
ENDBRANCH  28  29
ENDBRANCH  27  28
ENDBRANCH  26  27
ENDBRANCH   1  26
TORSDOF 23
