REMARK SMILES C=CCN(CC(=O)OCCOCCOC(=O)c1ccc(-c2c3nc(c(-c4cccc(S(=O)(=O)[O-])c4F)c4ccc([nH]4)c(-c4cccc(S(=O)(=O)[O-])c4F)c4nc(c(-c5cccc(S(=O)(=O)[O-])c5F)c5ccc2[nH]5)C=C4)C=C3)cc1)C(=O)N(C)[C@H]1CCC[N@H+](C)C1
REMARK SMILES IDX 10 1 9 2 8 3 6 4 7 5 5 6 4 7 3 8 2 9 1 10 80 11 81 12 82 13
REMARK SMILES IDX 83 14 84 15 85 16 90 17 86 18 88 19 87 20 89 21 11 23 12 24
REMARK SMILES IDX 13 25 14 26 15 27 16 28 17 29 18 30 79 31 19 32 78 33 20 34
REMARK SMILES IDX 21 35 22 36 72 37 23 38 77 39 71 40 73 41 24 42 76 43 70 44
REMARK SMILES IDX 69 45 25 47 57 48 37 49 56 50 38 51 41 52 55 53 74 54 39 55
REMARK SMILES IDX 40 56 54 58 75 59 42 60 26 61 27 62 35 63 28 64 30 65 36 66
REMARK SMILES IDX 29 67 31 68 32 69 33 70 34 71 58 72 59 73 67 74 60 75 62 76
REMARK SMILES IDX 68 77 61 78 63 79 64 80 65 81 66 82 43 83 44 84 52 85 45 86
REMARK SMILES IDX 47 87 53 88 46 89 48 90 49 91 50 92 51 93
REMARK H PARENT 88 22 73 46 41 57
REMARK Flexibility Score: inf
ROOT
ATOM      1  C   UNL     1       1.269  -0.151  -0.491  1.00  0.00     0.202 C 
ENDROOT
BRANCH   1   2
ATOM      2  C   UNL     1       2.349   0.821   0.009  1.00  0.00     0.261 C 
BRANCH   2   3
ATOM      3  O   UNL     1       1.962   2.213  -0.086  1.00  0.00    -0.462 OA
BRANCH   3   4
ATOM      4  C   UNL     1       2.922   3.072  -0.536  1.00  0.00     0.325 C 
ATOM      5  O   UNL     1       4.059   2.735  -0.854  1.00  0.00    -0.250 OA
BRANCH   4   6
ATOM      6  C   UNL     1       2.484   4.547  -0.582  1.00  0.00     0.244 C 
BRANCH   6   7
ATOM      7  N   UNL     1       1.067   4.833  -0.329  1.00  0.00    -0.310 N 
BRANCH   7   8
ATOM      8  C   UNL     1       0.796   5.262   1.048  1.00  0.00     0.149 C 
BRANCH   8   9
ATOM      9  C   UNL     1       0.765   6.770   1.063  1.00  0.00    -0.013 C 
ATOM     10  C   UNL     1      -0.280   7.495   1.487  1.00  0.00     0.006 C 
ENDBRANCH   8   9
ENDBRANCH   7   8
BRANCH   7  11
ATOM     11  C   UNL     1      -0.045   4.732  -1.153  1.00  0.00     0.321 C 
ATOM     12  O   UNL     1      -1.156   4.653  -0.617  1.00  0.00    -0.248 OA
BRANCH  11  13
ATOM     13  N   UNL     1       0.031   4.761  -2.544  1.00  0.00    -0.319 N 
ATOM     14  C   UNL     1       1.229   4.514  -3.332  1.00  0.00     0.149 C 
BRANCH  13  15
ATOM     15  C   UNL     1      -1.268   4.885  -3.335  1.00  0.00     0.141 C 
ATOM     16  C   UNL     1      -2.302   5.913  -2.821  1.00  0.00     0.037 C 
ATOM     17  C   UNL     1      -1.118   5.189  -4.861  1.00  0.00     0.287 C 
ATOM     18  C   UNL     1      -1.831   7.334  -3.079  1.00  0.00     0.064 C 
ATOM     19  N   UNL     1      -0.609   6.551  -5.109  1.00  0.00    -0.336 N 
ATOM     20  C   UNL     1      -1.543   7.552  -4.566  1.00  0.00     0.262 C 
ATOM     21  C   UNL     1      -0.406   6.766  -6.539  1.00  0.00     0.332 C 
ATOM     22  H   UNL     1       0.288   6.653  -4.636  1.00  0.00     0.347 HD
ENDBRANCH  13  15
ENDBRANCH  11  13
ENDBRANCH   7  11
ENDBRANCH   6   7
ENDBRANCH   4   6
ENDBRANCH   3   4
ENDBRANCH   2   3
ENDBRANCH   1   2
BRANCH   1  23
ATOM     23  O   UNL     1       1.003  -0.140  -1.899  1.00  0.00    -0.374 OA
BRANCH  23  24
ATOM     24  C   UNL     1       0.479   1.070  -2.431  1.00  0.00     0.202 C 
BRANCH  24  25
ATOM     25  C   UNL     1      -0.979   1.388  -2.111  1.00  0.00     0.261 C 
BRANCH  25  26
ATOM     26  O   UNL     1      -1.347   1.116  -0.769  1.00  0.00    -0.460 OA
BRANCH  26  27
ATOM     27  C   UNL     1      -2.481   0.399  -0.641  1.00  0.00     0.338 C 
ATOM     28  O   UNL     1      -3.248   0.025  -1.507  1.00  0.00    -0.246 OA
BRANCH  27  29
ATOM     29  C   UNL     1      -2.561  -0.011   0.758  1.00  0.00     0.060 A 
ATOM     30  C   UNL     1      -2.293  -1.349   1.051  1.00  0.00     0.016 A 
ATOM     31  C   UNL     1      -2.923   0.906   1.746  1.00  0.00     0.016 A 
ATOM     32  C   UNL     1      -2.454  -1.798   2.352  1.00  0.00     0.010 A 
ATOM     33  C   UNL     1      -3.079   0.454   3.053  1.00  0.00     0.010 A 
ATOM     34  C   UNL     1      -2.890  -0.908   3.344  1.00  0.00    -0.014 A 
BRANCH  34  35
ATOM     35  C   UNL     1      -3.293  -1.456   4.651  1.00  0.00     0.031 A 
ATOM     36  C   UNL     1      -4.750  -1.706   4.904  1.00  0.00     0.074 A 
ATOM     37  C   UNL     1      -2.358  -1.755   5.567  1.00  0.00     0.049 A 
ATOM     38  N   UNL     1      -5.324  -2.264   5.936  1.00  0.00    -0.248 NA
ATOM     39  C   UNL     1      -5.689  -1.270   3.855  1.00  0.00     0.031 C 
ATOM     40  C   UNL     1      -0.924  -1.517   5.412  1.00  0.00     0.029 A 
ATOM     41  N   UNL     1      -2.479  -2.310   6.812  1.00  0.00    -0.354 N 
ATOM     42  C   UNL     1      -6.687  -2.229   5.671  1.00  0.00     0.074 A 
ATOM     43  C   UNL     1      -6.859  -1.578   4.393  1.00  0.00     0.031 C 
ATOM     44  C   UNL     1      -0.296  -1.904   6.535  1.00  0.00     0.029 A 
ATOM     45  C   UNL     1      -1.286  -2.409   7.484  1.00  0.00     0.049 A 
ATOM     46  H   UNL     1      -3.338  -2.610   7.189  1.00  0.00     0.167 HD
ATOM     47  C   UNL     1      -7.700  -2.718   6.422  1.00  0.00     0.034 A 
ATOM     48  C   UNL     1      -1.031  -2.853   8.729  1.00  0.00     0.034 A 
ATOM     49  C   UNL     1      -7.503  -3.375   7.684  1.00  0.00     0.049 A 
ATOM     50  C   UNL     1      -2.171  -3.411   9.537  1.00  0.00     0.074 A 
ATOM     51  C   UNL     1      -8.444  -3.963   8.508  1.00  0.00     0.029 A 
ATOM     52  N   UNL     1      -6.274  -3.513   8.314  1.00  0.00    -0.354 N 
ATOM     53  N   UNL     1      -3.439  -3.514   9.212  1.00  0.00    -0.248 NA
ATOM     54  C   UNL     1      -1.845  -3.955  10.862  1.00  0.00     0.031 C 
ATOM     55  C   UNL     1      -7.785  -4.435   9.649  1.00  0.00     0.029 A 
ATOM     56  C   UNL     1      -6.431  -4.163   9.524  1.00  0.00     0.049 A 
ATOM     57  H   UNL     1      -5.416  -3.195   7.951  1.00  0.00     0.167 HD
ATOM     58  C   UNL     1      -4.059  -4.154  10.277  1.00  0.00     0.074 A 
ATOM     59  C   UNL     1      -3.019  -4.438  11.248  1.00  0.00     0.031 C 
ATOM     60  C   UNL     1      -5.368  -4.466  10.449  1.00  0.00     0.034 A 
BRANCH  47  61
ATOM     61  C   UNL     1      -9.097  -2.577   5.879  1.00  0.00     0.023 A 
ATOM     62  C   UNL     1      -9.504  -3.366   4.783  1.00  0.00     0.012 A 
ATOM     63  C   UNL     1     -10.014  -1.681   6.461  1.00  0.00     0.148 A 
ATOM     64  C   UNL     1     -10.787  -3.238   4.251  1.00  0.00     0.002 A 
ATOM     65  C   UNL     1     -11.304  -1.588   5.952  1.00  0.00     0.091 A 
ATOM     66  F   UNL     1      -9.601  -0.917   7.483  1.00  0.00    -0.205 F 
ATOM     67  C   UNL     1     -11.689  -2.357   4.841  1.00  0.00     0.022 A 
BRANCH  65  68
ATOM     68  S   UNL     1     -12.558  -0.532   6.687  1.00  0.00     0.127 S 
ATOM     69  O   UNL     1     -12.644   0.550   5.708  1.00  0.00    -0.237 OA
ATOM     70  O   UNL     1     -13.724  -1.415   6.723  1.00  0.00    -0.237 OA
ATOM     71  O   UNL     1     -12.044  -0.155   7.997  1.00  0.00    -0.744 OA
ENDBRANCH  65  68
ENDBRANCH  47  61
BRANCH  48  72
ATOM     72  C   UNL     1       0.365  -2.828   9.245  1.00  0.00     0.023 A 
ATOM     73  C   UNL     1       1.073  -4.032   9.415  1.00  0.00     0.012 A 
ATOM     74  C   UNL     1       1.018  -1.606   9.504  1.00  0.00     0.148 A 
ATOM     75  C   UNL     1       2.399  -4.021   9.851  1.00  0.00     0.002 A 
ATOM     76  C   UNL     1       2.354  -1.599   9.883  1.00  0.00     0.091 A 
ATOM     77  F   UNL     1       0.322  -0.470   9.351  1.00  0.00    -0.205 F 
ATOM     78  C   UNL     1       3.043  -2.806  10.073  1.00  0.00     0.022 A 
BRANCH  76  79
ATOM     79  S   UNL     1       3.297  -0.078  10.048  1.00  0.00     0.127 S 
ATOM     80  O   UNL     1       3.452   0.023  11.497  1.00  0.00    -0.237 OA
ATOM     81  O   UNL     1       4.524  -0.401   9.318  1.00  0.00    -0.237 OA
ATOM     82  O   UNL     1       2.485   0.956   9.422  1.00  0.00    -0.744 OA
ENDBRANCH  76  79
ENDBRANCH  48  72
BRANCH  60  83
ATOM     83  C   UNL     1      -5.750  -5.161  11.728  1.00  0.00     0.023 A 
ATOM     84  C   UNL     1      -5.783  -4.432  12.933  1.00  0.00     0.012 A 
ATOM     85  C   UNL     1      -6.155  -6.510  11.720  1.00  0.00     0.148 A 
ATOM     86  C   UNL     1      -6.188  -5.044  14.118  1.00  0.00     0.002 A 
ATOM     87  C   UNL     1      -6.603  -7.099  12.895  1.00  0.00     0.091 A 
ATOM     88  F   UNL     1      -6.097  -7.190  10.566  1.00  0.00    -0.205 F 
ATOM     89  C   UNL     1      -6.609  -6.372  14.097  1.00  0.00     0.022 A 
BRANCH  87  90
ATOM     90  S   UNL     1      -7.256  -8.772  12.939  1.00  0.00     0.127 S 
ATOM     91  O   UNL     1      -6.154  -9.506  13.559  1.00  0.00    -0.237 OA
ATOM     92  O   UNL     1      -8.442  -8.623  13.783  1.00  0.00    -0.237 OA
ATOM     93  O   UNL     1      -7.544  -9.123  11.555  1.00  0.00    -0.744 OA
ENDBRANCH  87  90
ENDBRANCH  60  83
ENDBRANCH  34  35
ENDBRANCH  27  29
ENDBRANCH  26  27
ENDBRANCH  25  26
ENDBRANCH  24  25
ENDBRANCH  23  24
ENDBRANCH   1  23
TORSDOF 23
