REMARK SMILES O=C(OCCOCCOC(=O)c1cccc2cccc([S@](=O)c3ccccc3CO)c12)c1ccc(-c2c3nc(c(-c4cccc(S(=O)(=O)[O-])c4F)c4ccc([nH]4)c(-c4cccc(S(=O)(=O)[O-])c4F)c4nc(c(-c5cccc(S(=O)(=O)[O-])c5F)c5ccc2[nH]5)C=C4)C=C3)cc1
REMARK SMILES IDX 7 1 6 2 5 3 4 4 3 5 2 6 1 7 32 8 33 9 94 10 34 11 93 12
REMARK SMILES IDX 35 13 36 14 37 15 87 16 38 17 92 18 86 19 88 20 39 21 91 22
REMARK SMILES IDX 85 23 84 24 40 26 72 27 52 28 71 29 53 30 56 31 70 32 89 33
REMARK SMILES IDX 54 34 55 35 69 37 90 38 57 39 41 40 42 41 50 42 43 43 45 44
REMARK SMILES IDX 51 45 44 46 46 47 47 48 48 49 49 50 73 51 74 52 82 53 75 54
REMARK SMILES IDX 77 55 83 56 76 57 78 58 79 59 80 60 81 61 58 62 59 63 67 64
REMARK SMILES IDX 60 65 62 66 68 67 61 68 63 69 64 70 65 71 66 72 8 73 9 74
REMARK SMILES IDX 10 75 11 76 12 77 13 78 31 79 14 80 16 81 20 82 15 83 17 84
REMARK SMILES IDX 19 85 18 86 21 87 22 88 23 89 24 90 28 91 25 92 27 93 26 94
REMARK SMILES IDX 29 95 30 96
REMARK H PARENT 88 25 56 36 30 97
REMARK Flexibility Score: inf
ROOT
ATOM      1  C   UNL     1       7.811  -1.073   4.546  1.00  0.00     0.202 C 
ENDROOT
BRANCH   1   2
ATOM      2  O   UNL     1       7.169  -0.136   3.684  1.00  0.00    -0.374 OA
BRANCH   2   3
ATOM      3  C   UNL     1       8.042   0.710   2.939  1.00  0.00     0.202 C 
BRANCH   3   4
ATOM      4  C   UNL     1       7.199   1.629   2.047  1.00  0.00     0.261 C 
BRANCH   4   5
ATOM      5  O   UNL     1       6.362   2.591   2.723  1.00  0.00    -0.460 OA
BRANCH   5   6
ATOM      6  C   UNL     1       5.986   2.334   4.000  1.00  0.00     0.338 C 
ATOM      7  O   UNL     1       6.575   2.759   4.981  1.00  0.00    -0.246 OA
BRANCH   6   8
ATOM      8  C   UNL     1       4.623   1.751   4.036  1.00  0.00     0.060 A 
ATOM      9  C   UNL     1       4.331   0.556   3.377  1.00  0.00     0.016 A 
ATOM     10  C   UNL     1       3.625   2.400   4.769  1.00  0.00     0.016 A 
ATOM     11  C   UNL     1       3.053   0.023   3.430  1.00  0.00     0.010 A 
ATOM     12  C   UNL     1       2.326   1.879   4.789  1.00  0.00     0.010 A 
ATOM     13  C   UNL     1       2.031   0.698   4.093  1.00  0.00    -0.014 A 
BRANCH  13  14
ATOM     14  C   UNL     1       0.648   0.204   3.925  1.00  0.00     0.031 A 
ATOM     15  C   UNL     1      -0.294   0.976   3.052  1.00  0.00     0.074 A 
ATOM     16  C   UNL     1       0.276  -0.977   4.451  1.00  0.00     0.049 A 
ATOM     17  N   UNL     1      -1.565   0.776   2.834  1.00  0.00    -0.248 NA
ATOM     18  C   UNL     1       0.278   2.108   2.303  1.00  0.00     0.031 C 
ATOM     19  C   UNL     1       1.149  -1.868   5.215  1.00  0.00     0.029 A 
ATOM     20  N   UNL     1      -0.928  -1.632   4.416  1.00  0.00    -0.354 N 
ATOM     21  C   UNL     1      -1.966   1.805   1.993  1.00  0.00     0.074 A 
ATOM     22  C   UNL     1      -0.793   2.597   1.695  1.00  0.00     0.031 C 
ATOM     23  C   UNL     1       0.449  -2.951   5.585  1.00  0.00     0.029 A 
ATOM     24  C   UNL     1      -0.936  -2.795   5.150  1.00  0.00     0.049 A 
ATOM     25  H   UNL     1      -1.710  -1.302   3.916  1.00  0.00     0.167 HD
ATOM     26  C   UNL     1      -3.206   2.070   1.523  1.00  0.00     0.034 A 
ATOM     27  C   UNL     1      -1.957  -3.611   5.479  1.00  0.00     0.034 A 
ATOM     28  C   UNL     1      -4.356   1.256   1.799  1.00  0.00     0.049 A 
ATOM     29  C   UNL     1      -3.336  -3.278   4.980  1.00  0.00     0.074 A 
ATOM     30  C   UNL     1      -5.665   1.449   1.400  1.00  0.00     0.029 A 
ATOM     31  N   UNL     1      -4.330   0.089   2.548  1.00  0.00    -0.354 N 
ATOM     32  N   UNL     1      -3.710  -2.300   4.189  1.00  0.00    -0.248 NA
ATOM     33  C   UNL     1      -4.434  -4.153   5.413  1.00  0.00     0.031 C 
ATOM     34  C   UNL     1      -6.434   0.401   1.918  1.00  0.00     0.029 A 
ATOM     35  C   UNL     1      -5.601  -0.450   2.629  1.00  0.00     0.049 A 
ATOM     36  H   UNL     1      -3.526  -0.299   2.962  1.00  0.00     0.167 HD
ATOM     37  C   UNL     1      -5.083  -2.441   4.027  1.00  0.00     0.074 A 
ATOM     38  C   UNL     1      -5.470  -3.620   4.777  1.00  0.00     0.031 C 
ATOM     39  C   UNL     1      -5.949  -1.652   3.345  1.00  0.00     0.034 A 
BRANCH  26  40
ATOM     40  C   UNL     1      -3.370   3.311   0.693  1.00  0.00     0.023 A 
ATOM     41  C   UNL     1      -2.965   3.317  -0.655  1.00  0.00     0.012 A 
ATOM     42  C   UNL     1      -3.916   4.479   1.259  1.00  0.00     0.148 A 
ATOM     43  C   UNL     1      -3.073   4.479  -1.420  1.00  0.00     0.002 A 
ATOM     44  C   UNL     1      -4.049   5.624   0.482  1.00  0.00     0.091 A 
ATOM     45  F   UNL     1      -4.258   4.465   2.555  1.00  0.00    -0.205 F 
ATOM     46  C   UNL     1      -3.621   5.628  -0.855  1.00  0.00     0.022 A 
BRANCH  44  47
ATOM     47  S   UNL     1      -4.790   7.126   1.129  1.00  0.00     0.127 S 
ATOM     48  O   UNL     1      -3.610   7.903   1.502  1.00  0.00    -0.237 OA
ATOM     49  O   UNL     1      -5.519   7.644  -0.029  1.00  0.00    -0.237 OA
ATOM     50  O   UNL     1      -5.643   6.695   2.229  1.00  0.00    -0.744 OA
ENDBRANCH  44  47
ENDBRANCH  26  40
BRANCH  27  51
ATOM     51  C   UNL     1      -1.694  -4.798   6.341  1.00  0.00     0.023 A 
ATOM     52  C   UNL     1      -1.797  -6.093   5.801  1.00  0.00     0.012 A 
ATOM     53  C   UNL     1      -1.256  -4.644   7.673  1.00  0.00     0.148 A 
ATOM     54  C   UNL     1      -1.467  -7.211   6.571  1.00  0.00     0.002 A 
ATOM     55  C   UNL     1      -0.866  -5.755   8.411  1.00  0.00     0.091 A 
ATOM     56  F   UNL     1      -1.200  -3.405   8.185  1.00  0.00    -0.205 F 
ATOM     57  C   UNL     1      -0.982  -7.041   7.867  1.00  0.00     0.022 A 
BRANCH  55  58
ATOM     58  S   UNL     1      -0.077  -5.596  10.018  1.00  0.00     0.127 S 
ATOM     59  O   UNL     1      -1.167  -5.945  10.924  1.00  0.00    -0.237 OA
ATOM     60  O   UNL     1       0.996  -6.588   9.934  1.00  0.00    -0.237 OA
ATOM     61  O   UNL     1       0.393  -4.218  10.082  1.00  0.00    -0.744 OA
ENDBRANCH  55  58
ENDBRANCH  27  51
BRANCH  39  62
ATOM     62  C   UNL     1      -7.405  -2.027   3.372  1.00  0.00     0.023 A 
ATOM     63  C   UNL     1      -8.174  -1.720   4.511  1.00  0.00     0.012 A 
ATOM     64  C   UNL     1      -8.033  -2.565   2.232  1.00  0.00     0.148 A 
ATOM     65  C   UNL     1      -9.548  -1.953   4.519  1.00  0.00     0.002 A 
ATOM     66  C   UNL     1      -9.409  -2.757   2.233  1.00  0.00     0.091 A 
ATOM     67  F   UNL     1      -7.275  -2.865   1.167  1.00  0.00    -0.205 F 
ATOM     68  C   UNL     1     -10.167  -2.457   3.377  1.00  0.00     0.022 A 
BRANCH  66  69
ATOM     69  S   UNL     1     -10.302  -3.315   0.777  1.00  0.00     0.127 S 
ATOM     70  O   UNL     1     -10.635  -4.691   1.142  1.00  0.00    -0.237 OA
ATOM     71  O   UNL     1     -11.442  -2.399   0.741  1.00  0.00    -0.237 OA
ATOM     72  O   UNL     1      -9.377  -3.170  -0.339  1.00  0.00    -0.744 OA
ENDBRANCH  66  69
ENDBRANCH  39  62
ENDBRANCH  13  14
ENDBRANCH   6   8
ENDBRANCH   5   6
ENDBRANCH   4   5
ENDBRANCH   3   4
ENDBRANCH   2   3
ENDBRANCH   1   2
BRANCH   1  73
ATOM     73  C   UNL     1       7.868  -2.445   3.880  1.00  0.00     0.261 C 
BRANCH  73  74
ATOM     74  O   UNL     1       8.609  -2.275   2.667  1.00  0.00    -0.460 OA
BRANCH  74  75
ATOM     75  C   UNL     1       8.528  -3.273   1.762  1.00  0.00     0.338 C 
ATOM     76  O   UNL     1       8.117  -4.408   1.913  1.00  0.00    -0.246 OA
BRANCH  75  77
ATOM     77  C   UNL     1       9.374  -2.811   0.654  1.00  0.00     0.069 A 
ATOM     78  C   UNL     1      10.725  -3.137   0.924  1.00  0.00     0.016 A 
ATOM     79  C   UNL     1       8.945  -2.053  -0.505  1.00  0.00     0.013 A 
ATOM     80  C   UNL     1      11.729  -2.723   0.080  1.00  0.00     0.002 A 
ATOM     81  C   UNL     1      10.043  -1.691  -1.357  1.00  0.00    -0.016 A 
ATOM     82  C   UNL     1       7.631  -1.575  -0.945  1.00  0.00     0.052 A 
ATOM     83  C   UNL     1      11.381  -2.012  -1.054  1.00  0.00     0.009 A 
ATOM     84  C   UNL     1       9.859  -0.965  -2.539  1.00  0.00     0.009 A 
ATOM     85  C   UNL     1       7.518  -0.810  -2.134  1.00  0.00     0.019 A 
ATOM     86  C   UNL     1       8.610  -0.530  -2.935  1.00  0.00     0.002 A 
BRANCH  82  87
ATOM     87  S   UNL     1       6.071  -1.619  -0.006  1.00  0.00     0.086 S 
ATOM     88  O   UNL     1       6.165  -2.588   1.119  1.00  0.00    -0.249 OA
BRANCH  87  89
ATOM     89  C   UNL     1       4.887  -2.393  -1.161  1.00  0.00     0.049 A 
ATOM     90  C   UNL     1       5.286  -3.138  -2.281  1.00  0.00     0.018 A 
ATOM     91  C   UNL     1       3.499  -2.288  -0.889  1.00  0.00    -0.006 A 
ATOM     92  C   UNL     1       4.342  -3.712  -3.141  1.00  0.00     0.001 A 
ATOM     93  C   UNL     1       2.565  -2.878  -1.762  1.00  0.00     0.007 A 
ATOM     94  C   UNL     1       2.983  -3.580  -2.885  1.00  0.00     0.000 A 
BRANCH  91  95
ATOM     95  C   UNL     1       2.932  -1.590   0.318  1.00  0.00     0.192 C 
BRANCH  95  96
ATOM     96  O   UNL     1       2.294  -0.389  -0.093  1.00  0.00    -0.392 OA
ATOM     97  H   UNL     1       2.940   0.187  -0.530  1.00  0.00     0.211 HD
ENDBRANCH  95  96
ENDBRANCH  91  95
ENDBRANCH  87  89
ENDBRANCH  82  87
ENDBRANCH  75  77
ENDBRANCH  74  75
ENDBRANCH  73  74
ENDBRANCH   1  73
TORSDOF 21
