REMARK SMILES CC[N@H+]([C@@H]1CSCC(C)(C)C1)[C@@H]1COC[C@@H]1C(=O)OCCOCCOC(=O)c1ccc(-c2c3nc(c(-c4cccc(S(=O)(=O)[O-])c4F)c4ccc([nH]4)c(-c4cccc(S(=O)(=O)[O-])c4F)c4nc(c(-c5cccc(S(=O)(=O)[O-])c5F)c5ccc2[nH]5)C=C4)C=C3)cc1
REMARK SMILES IDX 23 1 22 2 21 3 20 4 19 5 17 6 18 7 16 8 12 9 13 10 14 11
REMARK SMILES IDX 15 12 3 13 2 15 1 16 4 17 5 18 11 19 6 20 8 21 7 22 9 23
REMARK SMILES IDX 10 24 24 25 25 26 26 27 27 28 28 29 29 30 90 31 30 32 89 33
REMARK SMILES IDX 31 34 32 35 33 36 83 37 34 38 88 39 82 40 84 41 35 42 87 43
REMARK SMILES IDX 81 44 80 45 36 47 68 48 48 49 67 50 49 51 52 52 66 53 85 54
REMARK SMILES IDX 50 55 51 56 65 58 86 59 53 60 37 61 38 62 46 63 39 64 41 65
REMARK SMILES IDX 47 66 40 67 42 68 43 69 44 70 45 71 69 72 70 73 78 74 71 75
REMARK SMILES IDX 73 76 79 77 72 78 74 79 75 80 76 81 77 82 54 83 55 84 63 85
REMARK SMILES IDX 56 86 58 87 64 88 57 89 59 90 60 91 61 92 62 93
REMARK H PARENT 3 14 84 46 52 57
REMARK Flexibility Score: inf
ROOT
ATOM      1  C   UNL     1       1.029   1.052   2.728  1.00  0.00     0.202 C 
ENDROOT
BRANCH   1   2
ATOM      2  O   UNL     1       1.241   1.779   3.941  1.00  0.00    -0.374 OA
BRANCH   2   3
ATOM      3  C   UNL     1       1.463   3.190   3.867  1.00  0.00     0.202 C 
BRANCH   3   4
ATOM      4  C   UNL     1       2.839   3.728   3.358  1.00  0.00     0.261 C 
BRANCH   4   5
ATOM      5  O   UNL     1       3.044   3.872   1.928  1.00  0.00    -0.463 OA
BRANCH   5   6
ATOM      6  C   UNL     1       3.590   2.865   1.190  1.00  0.00     0.317 C 
ATOM      7  O   UNL     1       3.980   1.819   1.691  1.00  0.00    -0.252 OA
BRANCH   6   8
ATOM      8  C   UNL     1       3.706   3.243  -0.314  1.00  0.00     0.185 C 
ATOM      9  C   UNL     1       2.967   2.357  -1.372  1.00  0.00     0.227 C 
ATOM     10  C   UNL     1       3.905   1.136  -1.279  1.00  0.00     0.226 C 
ATOM     11  O   UNL     1       5.250   1.644  -1.164  1.00  0.00    -0.374 OA
ATOM     12  C   UNL     1       5.163   2.995  -0.691  1.00  0.00     0.182 C 
BRANCH   9  13
ATOM     13  N   UNL     1       1.487   2.228  -1.328  1.00  0.00    -0.327 N 
ATOM     14  H   UNL     1       1.524   2.366  -0.318  1.00  0.00     0.348 HD
BRANCH  13  15
ATOM     15  C   UNL     1       0.808   0.919  -1.547  1.00  0.00     0.259 C 
ATOM     16  C   UNL     1       1.481  -0.449  -1.565  1.00  0.00     0.071 C 
ENDBRANCH  13  15
BRANCH  13  17
ATOM     17  C   UNL     1       0.620   3.322  -1.980  1.00  0.00     0.194 C 
ATOM     18  C   UNL     1       1.188   4.665  -2.526  1.00  0.00     0.134 C 
ATOM     19  C   UNL     1      -0.678   3.621  -1.148  1.00  0.00     0.073 C 
ATOM     20  S   UNL     1       1.401   6.097  -1.423  1.00  0.00    -0.155 SA
ATOM     21  C   UNL     1      -0.462   4.579   0.043  1.00  0.00    -0.021 C 
ATOM     22  C   UNL     1      -0.126   5.992  -0.433  1.00  0.00     0.076 C 
ATOM     23  C   UNL     1       0.659   4.032   0.853  1.00  0.00     0.012 C 
ATOM     24  C   UNL     1      -1.597   4.673   1.059  1.00  0.00     0.012 C 
ENDBRANCH  13  17
ENDBRANCH   9  13
ENDBRANCH   6   8
ENDBRANCH   5   6
ENDBRANCH   4   5
ENDBRANCH   3   4
ENDBRANCH   2   3
ENDBRANCH   1   2
BRANCH   1  25
ATOM     25  C   UNL     1      -0.419   0.530   2.473  1.00  0.00     0.261 C 
BRANCH  25  26
ATOM     26  O   UNL     1      -1.363   1.483   1.914  1.00  0.00    -0.460 OA
BRANCH  26  27
ATOM     27  C   UNL     1      -2.525   0.950   1.411  1.00  0.00     0.338 C 
ATOM     28  O   UNL     1      -2.796  -0.243   1.346  1.00  0.00    -0.246 OA
BRANCH  27  29
ATOM     29  C   UNL     1      -3.458   2.013   0.922  1.00  0.00     0.060 A 
ATOM     30  C   UNL     1      -4.138   2.826   1.838  1.00  0.00     0.016 A 
ATOM     31  C   UNL     1      -3.645   2.244  -0.449  1.00  0.00     0.016 A 
ATOM     32  C   UNL     1      -4.910   3.921   1.391  1.00  0.00     0.010 A 
ATOM     33  C   UNL     1      -4.389   3.362  -0.895  1.00  0.00     0.010 A 
ATOM     34  C   UNL     1      -5.019   4.229   0.022  1.00  0.00    -0.014 A 
BRANCH  34  35
ATOM     35  C   UNL     1      -5.976   5.293  -0.433  1.00  0.00     0.031 A 
ATOM     36  C   UNL     1      -7.375   4.837  -0.759  1.00  0.00     0.074 A 
ATOM     37  C   UNL     1      -5.695   6.613  -0.539  1.00  0.00     0.049 A 
ATOM     38  N   UNL     1      -8.435   5.540  -1.062  1.00  0.00    -0.248 NA
ATOM     39  C   UNL     1      -7.601   3.383  -0.730  1.00  0.00     0.031 C 
ATOM     40  C   UNL     1      -4.403   7.249  -0.291  1.00  0.00     0.029 A 
ATOM     41  N   UNL     1      -6.509   7.675  -0.899  1.00  0.00    -0.354 N 
ATOM     42  C   UNL     1      -9.451   4.615  -1.255  1.00  0.00     0.074 A 
ATOM     43  C   UNL     1      -8.875   3.302  -1.073  1.00  0.00     0.031 C 
ATOM     44  C   UNL     1      -4.508   8.576  -0.510  1.00  0.00     0.029 A 
ATOM     45  C   UNL     1      -5.876   8.902  -0.917  1.00  0.00     0.049 A 
ATOM     46  H   UNL     1      -7.461   7.564  -1.124  1.00  0.00     0.167 HD
ATOM     47  C   UNL     1     -10.759   4.820  -1.528  1.00  0.00     0.034 A 
ATOM     48  C   UNL     1      -6.339  10.140  -1.216  1.00  0.00     0.034 A 
ATOM     49  C   UNL     1     -11.368   6.101  -1.726  1.00  0.00     0.049 A 
ATOM     50  C   UNL     1      -7.802  10.342  -1.567  1.00  0.00     0.074 A 
ATOM     51  C   UNL     1     -12.696   6.386  -1.986  1.00  0.00     0.029 A 
ATOM     52  N   UNL     1     -10.692   7.308  -1.714  1.00  0.00    -0.354 N 
ATOM     53  N   UNL     1      -8.779   9.468  -1.583  1.00  0.00    -0.248 NA
ATOM     54  C   UNL     1      -8.233  11.712  -1.905  1.00  0.00     0.031 C 
ATOM     55  C   UNL     1     -12.820   7.768  -2.158  1.00  0.00     0.029 A 
ATOM     56  C   UNL     1     -11.574   8.343  -1.973  1.00  0.00     0.049 A 
ATOM     57  H   UNL     1      -9.728   7.415  -1.546  1.00  0.00     0.167 HD
ATOM     58  C   UNL     1      -9.936  10.186  -1.888  1.00  0.00     0.074 A 
ATOM     59  C   UNL     1      -9.546  11.570  -2.032  1.00  0.00     0.031 C 
ATOM     60  C   UNL     1     -11.204   9.732  -2.048  1.00  0.00     0.034 A 
BRANCH  47  61
ATOM     61  C   UNL     1     -11.625   3.596  -1.607  1.00  0.00     0.023 A 
ATOM     62  C   UNL     1     -11.960   2.907  -0.423  1.00  0.00     0.012 A 
ATOM     63  C   UNL     1     -12.099   3.129  -2.845  1.00  0.00     0.148 A 
ATOM     64  C   UNL     1     -12.723   1.743  -0.476  1.00  0.00     0.002 A 
ATOM     65  C   UNL     1     -12.898   1.996  -2.885  1.00  0.00     0.091 A 
ATOM     66  F   UNL     1     -11.736   3.784  -3.957  1.00  0.00    -0.205 F 
ATOM     67  C   UNL     1     -13.199   1.294  -1.705  1.00  0.00     0.022 A 
BRANCH  65  68
ATOM     68  S   UNL     1     -13.617   1.380  -4.409  1.00  0.00     0.127 S 
ATOM     69  O   UNL     1     -12.851   0.153  -4.621  1.00  0.00    -0.237 OA
ATOM     70  O   UNL     1     -15.013   1.170  -4.025  1.00  0.00    -0.237 OA
ATOM     71  O   UNL     1     -13.411   2.425  -5.402  1.00  0.00    -0.744 OA
ENDBRANCH  65  68
ENDBRANCH  47  61
BRANCH  48  72
ATOM     72  C   UNL     1      -5.438  11.340  -1.169  1.00  0.00     0.023 A 
ATOM     73  C   UNL     1      -5.662  12.347  -0.205  1.00  0.00     0.012 A 
ATOM     74  C   UNL     1      -4.412  11.526  -2.116  1.00  0.00     0.148 A 
ATOM     75  C   UNL     1      -4.913  13.528  -0.211  1.00  0.00     0.002 A 
ATOM     76  C   UNL     1      -3.635  12.682  -2.084  1.00  0.00     0.091 A 
ATOM     77  F   UNL     1      -4.230  10.579  -3.046  1.00  0.00    -0.205 F 
ATOM     78  C   UNL     1      -3.895  13.692  -1.145  1.00  0.00     0.022 A 
BRANCH  76  79
ATOM     79  S   UNL     1      -2.236  12.941  -3.183  1.00  0.00     0.127 S 
ATOM     80  O   UNL     1      -2.709  14.042  -4.018  1.00  0.00    -0.237 OA
ATOM     81  O   UNL     1      -1.176  13.294  -2.239  1.00  0.00    -0.237 OA
ATOM     82  O   UNL     1      -2.035  11.671  -3.868  1.00  0.00    -0.744 OA
ENDBRANCH  76  79
ENDBRANCH  48  72
BRANCH  60  83
ATOM     83  C   UNL     1     -12.301  10.724  -2.352  1.00  0.00     0.023 A 
ATOM     84  C   UNL     1     -12.383  11.315  -3.628  1.00  0.00     0.012 A 
ATOM     85  C   UNL     1     -13.321  10.975  -1.411  1.00  0.00     0.148 A 
ATOM     86  C   UNL     1     -13.448  12.157  -3.954  1.00  0.00     0.002 A 
ATOM     87  C   UNL     1     -14.404  11.777  -1.758  1.00  0.00     0.091 A 
ATOM     88  F   UNL     1     -13.222  10.416  -0.196  1.00  0.00    -0.205 F 
ATOM     89  C   UNL     1     -14.463  12.377  -3.026  1.00  0.00     0.022 A 
BRANCH  87  90
ATOM     90  S   UNL     1     -15.807  12.031  -0.664  1.00  0.00     0.127 S 
ATOM     91  O   UNL     1     -15.607  13.416  -0.240  1.00  0.00    -0.237 OA
ATOM     92  O   UNL     1     -16.944  11.827  -1.563  1.00  0.00    -0.237 OA
ATOM     93  O   UNL     1     -15.683  11.030   0.387  1.00  0.00    -0.744 OA
ENDBRANCH  87  90
ENDBRANCH  60  83
ENDBRANCH  34  35
ENDBRANCH  27  29
ENDBRANCH  26  27
ENDBRANCH  25  26
ENDBRANCH   1  25
TORSDOF 20
