REMARK SMILES CCOc1cc(OCC)cc(-c2ccc([C@@H](C)C(=O)OCCOCCOC(=O)c3ccc(-c4c5nc(c(-c6cccc(S(=O)(=O)[O-])c6F)c6ccc([nH]6)c(-c6cccc(S(=O)(=O)[O-])c6F)c6nc(c(-c7cccc(S(=O)(=O)[O-])c7F)c7ccc4[nH]7)C=C6)C=C5)cc3)cc2)c1
REMARK SMILES IDX 22 1 21 2 20 3 18 4 19 5 16 6 17 7 15 8 12 9 13 10 93 11
REMARK SMILES IDX 14 12 92 13 11 14 4 15 5 16 94 17 6 18 10 19 3 20 2 21 1 22
REMARK SMILES IDX 7 23 8 24 9 25 23 26 24 27 25 28 26 29 27 30 28 31 29 32
REMARK SMILES IDX 30 33 91 34 31 35 90 36 32 37 33 38 34 39 84 40 35 41 89 42
REMARK SMILES IDX 83 43 85 44 36 45 88 46 82 47 81 48 37 50 69 51 49 52 68 53
REMARK SMILES IDX 50 54 53 55 67 56 86 57 51 58 52 59 66 61 87 62 54 63 38 64
REMARK SMILES IDX 39 65 47 66 40 67 42 68 48 69 41 70 43 71 44 72 45 73 46 74
REMARK SMILES IDX 70 75 71 76 79 77 72 78 74 79 80 80 73 81 75 82 76 83 77 84
REMARK SMILES IDX 78 85 55 86 56 87 64 88 57 89 59 90 65 91 58 92 60 93 61 94
REMARK SMILES IDX 62 95 63 96
REMARK H PARENT 85 49 53 60
REMARK Flexibility Score: inf
ROOT
ATOM      1  C   UNL     1       7.544  -2.089  -4.617  1.00  0.00     0.202 C 
ENDROOT
BRANCH   1   2
ATOM      2  C   UNL     1       8.815  -1.235  -4.581  1.00  0.00     0.261 C 
BRANCH   2   3
ATOM      3  O   UNL     1       8.671  -0.133  -3.667  1.00  0.00    -0.463 OA
BRANCH   3   4
ATOM      4  C   UNL     1       8.731   1.112  -4.204  1.00  0.00     0.313 C 
ATOM      5  O   UNL     1       9.027   1.354  -5.371  1.00  0.00    -0.252 OA
BRANCH   4   6
ATOM      6  C   UNL     1       8.420   2.221  -3.209  1.00  0.00     0.126 C 
ATOM      7  C   UNL     1       9.720   2.758  -2.617  1.00  0.00     0.025 C 
BRANCH   6   8
ATOM      8  C   UNL     1       7.383   1.928  -2.130  1.00  0.00    -0.034 A 
ATOM      9  C   UNL     1       5.504   1.603  -0.020  1.00  0.00    -0.018 A 
ATOM     10  C   UNL     1       6.690   0.855  -0.057  1.00  0.00     0.009 A 
ATOM     11  C   UNL     1       5.248   2.478  -1.084  1.00  0.00     0.009 A 
ATOM     12  C   UNL     1       7.619   1.017  -1.092  1.00  0.00     0.005 A 
ATOM     13  C   UNL     1       6.171   2.638  -2.123  1.00  0.00     0.005 A 
BRANCH   9  14
ATOM     14  C   UNL     1       4.590   1.519   1.131  1.00  0.00    -0.011 A 
ATOM     15  C   UNL     1       2.375   1.203   2.073  1.00  0.00     0.123 A 
ATOM     16  C   UNL     1       2.873   1.421   3.356  1.00  0.00     0.092 A 
ATOM     17  C   UNL     1       3.221   1.273   0.967  1.00  0.00     0.055 A 
ATOM     18  C   UNL     1       4.229   1.696   3.544  1.00  0.00     0.123 A 
ATOM     19  C   UNL     1       5.075   1.732   2.434  1.00  0.00     0.055 A 
BRANCH  15  20
ATOM     20  O   UNL     1       1.023   1.059   1.921  1.00  0.00    -0.494 OA
BRANCH  20  21
ATOM     21  C   UNL     1       0.635  -0.246   1.471  1.00  0.00     0.226 C 
ATOM     22  C   UNL     1       0.461  -0.282  -0.040  1.00  0.00     0.049 C 
ENDBRANCH  20  21
ENDBRANCH  15  20
BRANCH  18  23
ATOM     23  O   UNL     1       4.613   1.900   4.842  1.00  0.00    -0.494 OA
BRANCH  23  24
ATOM     24  C   UNL     1       5.867   2.545   5.075  1.00  0.00     0.226 C 
ATOM     25  C   UNL     1       6.995   1.536   5.216  1.00  0.00     0.049 C 
ENDBRANCH  23  24
ENDBRANCH  18  23
ENDBRANCH   9  14
ENDBRANCH   6   8
ENDBRANCH   4   6
ENDBRANCH   3   4
ENDBRANCH   2   3
ENDBRANCH   1   2
BRANCH   1  26
ATOM     26  O   UNL     1       6.401  -1.478  -5.221  1.00  0.00    -0.374 OA
BRANCH  26  27
ATOM     27  C   UNL     1       5.695  -0.515  -4.438  1.00  0.00     0.202 C 
BRANCH  27  28
ATOM     28  C   UNL     1       4.729  -1.069  -3.385  1.00  0.00     0.261 C 
BRANCH  28  29
ATOM     29  O   UNL     1       5.402  -1.848  -2.382  1.00  0.00    -0.460 OA
BRANCH  29  30
ATOM     30  C   UNL     1       5.115  -3.169  -2.409  1.00  0.00     0.338 C 
ATOM     31  O   UNL     1       4.280  -3.727  -3.115  1.00  0.00    -0.246 OA
BRANCH  30  32
ATOM     32  C   UNL     1       6.067  -3.927  -1.579  1.00  0.00     0.060 A 
ATOM     33  C   UNL     1       6.693  -5.026  -2.178  1.00  0.00     0.016 A 
ATOM     34  C   UNL     1       6.285  -3.636  -0.229  1.00  0.00     0.016 A 
ATOM     35  C   UNL     1       7.482  -5.880  -1.413  1.00  0.00     0.010 A 
ATOM     36  C   UNL     1       7.081  -4.499   0.538  1.00  0.00     0.010 A 
ATOM     37  C   UNL     1       7.646  -5.649  -0.040  1.00  0.00    -0.014 A 
BRANCH  37  38
ATOM     38  C   UNL     1       8.311  -6.696   0.776  1.00  0.00     0.031 A 
ATOM     39  C   UNL     1       7.477  -7.654   1.584  1.00  0.00     0.074 A 
ATOM     40  C   UNL     1       9.648  -6.844   0.736  1.00  0.00     0.049 A 
ATOM     41  N   UNL     1       7.849  -8.725   2.238  1.00  0.00    -0.248 NA
ATOM     42  C   UNL     1       6.034  -7.372   1.666  1.00  0.00     0.031 C 
ATOM     43  C   UNL     1      10.570  -5.971   0.011  1.00  0.00     0.029 A 
ATOM     44  N   UNL     1      10.460  -7.785   1.318  1.00  0.00    -0.354 N 
ATOM     45  C   UNL     1       6.694  -9.239   2.816  1.00  0.00     0.074 A 
ATOM     46  C   UNL     1       5.612  -8.348   2.458  1.00  0.00     0.031 C 
ATOM     47  C   UNL     1      11.825  -6.416   0.195  1.00  0.00     0.029 A 
ATOM     48  C   UNL     1      11.795  -7.601   1.051  1.00  0.00     0.049 A 
ATOM     49  H   UNL     1      10.118  -8.522   1.874  1.00  0.00     0.167 HD
ATOM     50  C   UNL     1       6.541 -10.364   3.555  1.00  0.00     0.034 A 
ATOM     51  C   UNL     1      12.872  -8.310   1.445  1.00  0.00     0.034 A 
ATOM     52  C   UNL     1       7.612 -11.263   3.895  1.00  0.00     0.049 A 
ATOM     53  C   UNL     1      12.674  -9.563   2.258  1.00  0.00     0.074 A 
ATOM     54  C   UNL     1       7.544 -12.459   4.589  1.00  0.00     0.029 A 
ATOM     55  N   UNL     1       8.946 -11.061   3.580  1.00  0.00    -0.354 N 
ATOM     56  N   UNL     1      11.557 -10.119   2.661  1.00  0.00    -0.248 NA
ATOM     57  C   UNL     1      13.884 -10.310   2.631  1.00  0.00     0.031 C 
ATOM     58  C   UNL     1       8.842 -12.969   4.713  1.00  0.00     0.029 A 
ATOM     59  C   UNL     1       9.715 -12.101   4.077  1.00  0.00     0.049 A 
ATOM     60  H   UNL     1       9.296 -10.291   3.077  1.00  0.00     0.167 HD
ATOM     61  C   UNL     1      11.927 -11.292   3.311  1.00  0.00     0.074 A 
ATOM     62  C   UNL     1      13.370 -11.382   3.218  1.00  0.00     0.031 C 
ATOM     63  C   UNL     1      11.146 -12.202   3.946  1.00  0.00     0.034 A 
BRANCH  50  64
ATOM     64  C   UNL     1       5.149 -10.712   4.014  1.00  0.00     0.023 A 
ATOM     65  C   UNL     1       4.214 -11.205   3.082  1.00  0.00     0.012 A 
ATOM     66  C   UNL     1       4.783 -10.606   5.370  1.00  0.00     0.148 A 
ATOM     67  C   UNL     1       2.927 -11.561   3.486  1.00  0.00     0.002 A 
ATOM     68  C   UNL     1       3.512 -11.001   5.772  1.00  0.00     0.091 A 
ATOM     69  F   UNL     1       5.678 -10.112   6.238  1.00  0.00    -0.205 F 
ATOM     70  C   UNL     1       2.580 -11.469   4.831  1.00  0.00     0.022 A 
BRANCH  68  71
ATOM     71  S   UNL     1       2.995 -10.988   7.493  1.00  0.00     0.127 S 
ATOM     72  O   UNL     1       2.076  -9.851   7.516  1.00  0.00    -0.237 OA
ATOM     73  O   UNL     1       2.352 -12.295   7.632  1.00  0.00    -0.237 OA
ATOM     74  O   UNL     1       4.213 -10.826   8.275  1.00  0.00    -0.744 OA
ENDBRANCH  68  71
ENDBRANCH  50  64
BRANCH  51  75
ATOM     75  C   UNL     1      14.235  -7.882   1.022  1.00  0.00     0.023 A 
ATOM     76  C   UNL     1      14.954  -8.659   0.093  1.00  0.00     0.012 A 
ATOM     77  C   UNL     1      14.809  -6.695   1.516  1.00  0.00     0.148 A 
ATOM     78  C   UNL     1      16.233  -8.275  -0.314  1.00  0.00     0.002 A 
ATOM     79  C   UNL     1      16.058  -6.289   1.063  1.00  0.00     0.091 A 
ATOM     80  F   UNL     1      14.117  -5.981   2.415  1.00  0.00    -0.205 F 
ATOM     81  C   UNL     1      16.780  -7.086   0.161  1.00  0.00     0.022 A 
BRANCH  79  82
ATOM     82  S   UNL     1      16.772  -4.705   1.517  1.00  0.00     0.127 S 
ATOM     83  O   UNL     1      17.831  -5.106   2.439  1.00  0.00    -0.237 OA
ATOM     84  O   UNL     1      17.238  -4.200   0.225  1.00  0.00    -0.237 OA
ATOM     85  O   UNL     1      15.680  -3.936   2.099  1.00  0.00    -0.744 OA
ENDBRANCH  79  82
ENDBRANCH  51  75
BRANCH  63  86
ATOM     86  C   UNL     1      11.834 -13.382   4.585  1.00  0.00     0.023 A 
ATOM     87  C   UNL     1      12.604 -13.191   5.750  1.00  0.00     0.012 A 
ATOM     88  C   UNL     1      11.684 -14.682   4.065  1.00  0.00     0.148 A 
ATOM     89  C   UNL     1      13.249 -14.266   6.361  1.00  0.00     0.002 A 
ATOM     90  C   UNL     1      12.291 -15.757   4.707  1.00  0.00     0.091 A 
ATOM     91  F   UNL     1      10.965 -14.847   2.945  1.00  0.00    -0.205 F 
ATOM     92  C   UNL     1      13.084 -15.549   5.846  1.00  0.00     0.022 A 
BRANCH  90  93
ATOM     93  S   UNL     1      12.053 -17.452   4.160  1.00  0.00     0.127 S 
ATOM     94  O   UNL     1      13.288 -17.703   3.418  1.00  0.00    -0.237 OA
ATOM     95  O   UNL     1      11.944 -18.180   5.425  1.00  0.00    -0.237 OA
ATOM     96  O   UNL     1      10.831 -17.442   3.368  1.00  0.00    -0.744 OA
ENDBRANCH  90  93
ENDBRANCH  63  86
ENDBRANCH  37  38
ENDBRANCH  30  32
ENDBRANCH  29  30
ENDBRANCH  28  29
ENDBRANCH  27  28
ENDBRANCH  26  27
ENDBRANCH   1  26
TORSDOF 23
