REMARK SMILES O=C(OCCOCCOC(=O)[C@@H]1CCCC[C@H]1C(=O)Nc1ccc(NC(=O)c2ccco2)cc1)c1ccc(-c2c3nc(c(-c4cccc(S(=O)(=O)[O-])c4F)c4ccc([nH]4)c(-c4cccc(S(=O)(=O)[O-])c4F)c4nc(c(-c5cccc(S(=O)(=O)[O-])c5F)c5ccc2[nH]5)C=C4)C=C3)cc1
REMARK SMILES IDX 7 1 6 2 5 3 4 4 3 5 2 6 1 7 35 8 36 9 97 10 37 11 96 12
REMARK SMILES IDX 38 13 39 14 40 15 90 16 41 17 95 18 89 19 91 20 42 21 94 22
REMARK SMILES IDX 88 23 87 24 43 26 75 27 55 28 74 29 56 30 59 31 73 32 92 33
REMARK SMILES IDX 57 34 58 35 72 37 93 38 60 39 44 40 45 41 53 42 46 43 48 44
REMARK SMILES IDX 54 45 47 46 49 47 50 48 51 49 52 50 76 51 77 52 85 53 78 54
REMARK SMILES IDX 80 55 86 56 79 57 81 58 82 59 83 60 84 61 61 62 62 63 70 64
REMARK SMILES IDX 63 65 65 66 71 67 64 68 66 69 67 70 68 71 69 72 8 73 9 74
REMARK SMILES IDX 10 75 11 76 12 77 13 78 17 79 14 80 16 81 15 82 18 83 19 84
REMARK SMILES IDX 20 85 21 87 22 88 34 89 23 90 33 91 24 92 25 93 26 94 27 96
REMARK SMILES IDX 28 97 29 98 32 99 30 100 31 101
REMARK H PARENT 91 25 59 36 20 86 25 95
REMARK Flexibility Score: inf
ROOT
ATOM      1  C   UNL     1       2.506  -1.921  -0.899  1.00  0.00     0.202 C 
ENDROOT
BRANCH   1   2
ATOM      2  O   UNL     1       3.853  -1.453  -1.018  1.00  0.00    -0.374 OA
BRANCH   2   3
ATOM      3  C   UNL     1       4.523  -1.200   0.214  1.00  0.00     0.202 C 
BRANCH   3   4
ATOM      4  C   UNL     1       4.256   0.156   0.893  1.00  0.00     0.261 C 
BRANCH   4   5
ATOM      5  O   UNL     1       2.854   0.457   0.974  1.00  0.00    -0.460 OA
BRANCH   5   6
ATOM      6  C   UNL     1       2.119   1.228   0.136  1.00  0.00     0.338 C 
ATOM      7  O   UNL     1       0.936   1.433   0.401  1.00  0.00    -0.246 OA
BRANCH   6   8
ATOM      8  C   UNL     1       2.693   1.858  -1.089  1.00  0.00     0.060 A 
ATOM      9  C   UNL     1       3.816   1.382  -1.764  1.00  0.00     0.016 A 
ATOM     10  C   UNL     1       2.029   2.972  -1.626  1.00  0.00     0.016 A 
ATOM     11  C   UNL     1       4.327   2.006  -2.876  1.00  0.00     0.010 A 
ATOM     12  C   UNL     1       2.513   3.597  -2.779  1.00  0.00     0.010 A 
ATOM     13  C   UNL     1       3.676   3.115  -3.385  1.00  0.00    -0.014 A 
BRANCH  13  14
ATOM     14  C   UNL     1       4.348   3.791  -4.493  1.00  0.00     0.031 A 
ATOM     15  C   UNL     1       5.151   5.006  -4.179  1.00  0.00     0.074 A 
ATOM     16  C   UNL     1       4.369   3.192  -5.694  1.00  0.00     0.049 A 
ATOM     17  N   UNL     1       5.792   5.794  -4.991  1.00  0.00    -0.248 NA
ATOM     18  C   UNL     1       5.266   5.371  -2.755  1.00  0.00     0.031 C 
ATOM     19  C   UNL     1       3.733   1.906  -6.000  1.00  0.00     0.029 A 
ATOM     20  N   UNL     1       4.963   3.562  -6.866  1.00  0.00    -0.354 N 
ATOM     21  C   UNL     1       6.320   6.793  -4.188  1.00  0.00     0.074 A 
ATOM     22  C   UNL     1       5.977   6.486  -2.820  1.00  0.00     0.031 C 
ATOM     23  C   UNL     1       3.965   1.600  -7.285  1.00  0.00     0.029 A 
ATOM     24  C   UNL     1       4.691   2.703  -7.902  1.00  0.00     0.049 A 
ATOM     25  H   UNL     1       5.528   4.363  -6.959  1.00  0.00     0.167 HD
ATOM     26  C   UNL     1       7.010   7.885  -4.584  1.00  0.00     0.034 A 
ATOM     27  C   UNL     1       4.955   2.837  -9.215  1.00  0.00     0.034 A 
ATOM     28  C   UNL     1       7.334   8.133  -5.958  1.00  0.00     0.049 A 
ATOM     29  C   UNL     1       5.688   4.077  -9.641  1.00  0.00     0.074 A 
ATOM     30  C   UNL     1       7.959   9.228  -6.518  1.00  0.00     0.029 A 
ATOM     31  N   UNL     1       7.045   7.252  -6.995  1.00  0.00    -0.354 N 
ATOM     32  N   UNL     1       6.156   5.049  -8.891  1.00  0.00    -0.248 NA
ATOM     33  C   UNL     1       5.933   4.250 -11.076  1.00  0.00     0.031 C 
ATOM     34  C   UNL     1       8.037   9.012  -7.899  1.00  0.00     0.029 A 
ATOM     35  C   UNL     1       7.475   7.776  -8.197  1.00  0.00     0.049 A 
ATOM     36  H   UNL     1       6.599   6.381  -6.887  1.00  0.00     0.167 HD
ATOM     37  C   UNL     1       6.754   5.951  -9.757  1.00  0.00     0.074 A 
ATOM     38  C   UNL     1       6.612   5.392 -11.090  1.00  0.00     0.031 C 
ATOM     39  C   UNL     1       7.343   7.143  -9.488  1.00  0.00     0.034 A 
BRANCH  26  40
ATOM     40  C   UNL     1       7.371   8.876  -3.518  1.00  0.00     0.023 A 
ATOM     41  C   UNL     1       8.446   8.617  -2.644  1.00  0.00     0.012 A 
ATOM     42  C   UNL     1       6.592  10.034  -3.333  1.00  0.00     0.148 A 
ATOM     43  C   UNL     1       8.719   9.481  -1.583  1.00  0.00     0.002 A 
ATOM     44  C   UNL     1       6.888  10.905  -2.291  1.00  0.00     0.091 A 
ATOM     45  F   UNL     1       5.542  10.237  -4.141  1.00  0.00    -0.205 F 
ATOM     46  C   UNL     1       7.945  10.627  -1.409  1.00  0.00     0.022 A 
BRANCH  44  47
ATOM     47  S   UNL     1       5.953  12.415  -2.023  1.00  0.00     0.127 S 
ATOM     48  O   UNL     1       5.025  12.007  -0.970  1.00  0.00    -0.237 OA
ATOM     49  O   UNL     1       6.990  13.354  -1.592  1.00  0.00    -0.237 OA
ATOM     50  O   UNL     1       5.354  12.735  -3.312  1.00  0.00    -0.744 OA
ENDBRANCH  44  47
ENDBRANCH  26  40
BRANCH  27  51
ATOM     51  C   UNL     1       4.491   1.787 -10.165  1.00  0.00     0.023 A 
ATOM     52  C   UNL     1       5.427   0.961 -10.813  1.00  0.00     0.012 A 
ATOM     53  C   UNL     1       3.114   1.524 -10.336  1.00  0.00     0.148 A 
ATOM     54  C   UNL     1       5.002  -0.106 -11.609  1.00  0.00     0.002 A 
ATOM     55  C   UNL     1       2.699   0.422 -11.075  1.00  0.00     0.091 A 
ATOM     56  F   UNL     1       2.232   2.336  -9.736  1.00  0.00    -0.205 F 
ATOM     57  C   UNL     1       3.642  -0.388 -11.724  1.00  0.00     0.022 A 
BRANCH  55  58
ATOM     58  S   UNL     1       0.979  -0.099 -11.125  1.00  0.00     0.127 S 
ATOM     59  O   UNL     1       0.567   0.351 -12.452  1.00  0.00    -0.237 OA
ATOM     60  O   UNL     1       1.092  -1.551 -10.975  1.00  0.00    -0.237 OA
ATOM     61  O   UNL     1       0.340   0.566  -9.998  1.00  0.00    -0.744 OA
ENDBRANCH  55  58
ENDBRANCH  27  51
BRANCH  39  62
ATOM     62  C   UNL     1       7.885   7.913 -10.654  1.00  0.00     0.023 A 
ATOM     63  C   UNL     1       7.005   8.676 -11.443  1.00  0.00     0.012 A 
ATOM     64  C   UNL     1       9.273   7.990 -10.871  1.00  0.00     0.148 A 
ATOM     65  C   UNL     1       7.502   9.508 -12.442  1.00  0.00     0.002 A 
ATOM     66  C   UNL     1       9.763   8.852 -11.841  1.00  0.00     0.091 A 
ATOM     67  F   UNL     1      10.082   7.234 -10.114  1.00  0.00    -0.205 F 
ATOM     68  C   UNL     1       8.880   9.608 -12.630  1.00  0.00     0.022 A 
BRANCH  66  69
ATOM     69  S   UNL     1      11.522   9.116 -12.080  1.00  0.00     0.127 S 
ATOM     70  O   UNL     1      11.763   8.398 -13.330  1.00  0.00    -0.237 OA
ATOM     71  O   UNL     1      11.607  10.573 -12.185  1.00  0.00    -0.237 OA
ATOM     72  O   UNL     1      12.174   8.559 -10.902  1.00  0.00    -0.744 OA
ENDBRANCH  66  69
ENDBRANCH  39  62
ENDBRANCH  13  14
ENDBRANCH   6   8
ENDBRANCH   5   6
ENDBRANCH   4   5
ENDBRANCH   3   4
ENDBRANCH   2   3
ENDBRANCH   1   2
BRANCH   1  73
ATOM     73  C   UNL     1       2.432  -3.427  -1.136  1.00  0.00     0.261 C 
BRANCH  73  74
ATOM     74  O   UNL     1       2.842  -4.129   0.055  1.00  0.00    -0.463 OA
BRANCH  74  75
ATOM     75  C   UNL     1       4.152  -4.466   0.136  1.00  0.00     0.309 C 
ATOM     76  O   UNL     1       4.988  -4.317  -0.746  1.00  0.00    -0.252 OA
BRANCH  75  77
ATOM     77  C   UNL     1       4.484  -5.113   1.463  1.00  0.00     0.111 C 
ATOM     78  C   UNL     1       4.021  -6.574   1.403  1.00  0.00     0.016 C 
ATOM     79  C   UNL     1       3.945  -4.378   2.700  1.00  0.00     0.093 C 
ATOM     80  C   UNL     1       4.386  -7.304   2.689  1.00  0.00     0.001 C 
ATOM     81  C   UNL     1       4.239  -5.156   3.990  1.00  0.00     0.014 C 
ATOM     82  C   UNL     1       3.777  -6.606   3.897  1.00  0.00     0.001 C 
BRANCH  79  83
ATOM     83  C   UNL     1       4.263  -2.901   2.977  1.00  0.00     0.228 C 
ATOM     84  O   UNL     1       3.310  -2.134   3.183  1.00  0.00    -0.274 OA
ATOM     85  N   UNL     1       5.493  -2.358   3.192  1.00  0.00    -0.326 N 
ATOM     86  H   UNL     1       5.455  -1.437   3.539  1.00  0.00     0.169 HD
BRANCH  85  87
ATOM     87  C   UNL     1       6.794  -2.830   3.026  1.00  0.00     0.041 A 
ATOM     88  C   UNL     1       7.723  -2.523   4.014  1.00  0.00     0.028 A 
ATOM     89  C   UNL     1       7.230  -3.530   1.915  1.00  0.00     0.028 A 
ATOM     90  C   UNL     1       8.968  -3.158   4.021  1.00  0.00     0.028 A 
ATOM     91  C   UNL     1       8.453  -4.204   1.941  1.00  0.00     0.028 A 
ATOM     92  C   UNL     1       9.279  -4.115   3.061  1.00  0.00     0.041 A 
BRANCH  92  93
ATOM     93  N   UNL     1      10.339  -5.033   3.139  1.00  0.00    -0.319 N 
ATOM     94  C   UNL     1      11.161  -5.428   4.177  1.00  0.00     0.291 C 
ATOM     95  H   UNL     1      10.536  -5.483   2.287  1.00  0.00     0.170 HD
ATOM     96  O   UNL     1      11.994  -6.306   3.929  1.00  0.00    -0.265 OA
BRANCH  94  97
ATOM     97  C   UNL     1      11.011  -4.862   5.495  1.00  0.00     0.191 A 
ATOM     98  C   UNL     1      10.015  -4.954   6.453  1.00  0.00     0.056 A 
ATOM     99  O   UNL     1      12.008  -4.046   5.954  1.00  0.00    -0.459 OA
ATOM    100  C   UNL     1      10.402  -4.105   7.521  1.00  0.00     0.043 A 
ATOM    101  C   UNL     1      11.626  -3.585   7.170  1.00  0.00     0.196 A 
ENDBRANCH  94  97
ENDBRANCH  92  93
ENDBRANCH  85  87
ENDBRANCH  79  83
ENDBRANCH  75  77
ENDBRANCH  74  75
ENDBRANCH  73  74
ENDBRANCH   1  73
TORSDOF 21
