REMARK SMILES CC#CC[C@](CC)(CCCC)C(=O)OCCOCCOC(=O)c1ccc(-c2c3nc(c(-c4cccc(S(=O)(=O)[O-])c4F)c4ccc([nH]4)c(-c4cccc(S(=O)(=O)[O-])c4F)c4nc(c(-c5cccc(S(=O)(=O)[O-])c5F)c5ccc2[nH]5)C=C4)C=C3)cc1
REMARK SMILES IDX 17 1 16 2 15 3 14 4 12 5 13 6 5 7 4 8 3 9 1 10 2 11 8 12
REMARK SMILES IDX 9 13 10 14 11 15 6 16 7 17 18 18 19 19 20 20 21 21 22 22
REMARK SMILES IDX 23 23 24 24 85 25 25 26 84 27 26 28 27 29 28 30 78 31 29 32
REMARK SMILES IDX 83 33 77 34 79 35 30 36 82 37 76 38 75 39 31 41 63 42 43 43
REMARK SMILES IDX 62 44 44 45 47 46 61 47 80 48 45 49 46 50 60 52 81 53 48 54
REMARK SMILES IDX 32 55 33 56 41 57 34 58 36 59 42 60 35 61 37 62 38 63 39 64
REMARK SMILES IDX 40 65 64 66 65 67 73 68 66 69 68 70 74 71 67 72 69 73 70 74
REMARK SMILES IDX 71 75 72 76 49 77 50 78 58 79 51 80 53 81 59 82 52 83 54 84
REMARK SMILES IDX 55 85 56 86 57 87
REMARK H PARENT 79 40 47 51
REMARK Flexibility Score: inf
ROOT
ATOM      1  O   UNL     1      -0.639  -3.544   4.830  1.00  0.00    -0.374 OA
ENDROOT
BRANCH   1   2
ATOM      2  C   UNL     1      -2.051  -3.379   4.718  1.00  0.00     0.202 C 
BRANCH   2   3
ATOM      3  C   UNL     1      -2.627  -2.860   3.401  1.00  0.00     0.261 C 
BRANCH   3   4
ATOM      4  O   UNL     1      -2.549  -3.807   2.316  1.00  0.00    -0.463 OA
BRANCH   4   5
ATOM      5  C   UNL     1      -1.464  -3.627   1.523  1.00  0.00     0.313 C 
ATOM      6  O   UNL     1      -0.528  -2.897   1.844  1.00  0.00    -0.252 OA
BRANCH   5   7
ATOM      7  C   UNL     1      -1.615  -4.205   0.109  1.00  0.00     0.079 C 
BRANCH   7   8
ATOM      8  C   UNL     1      -2.690  -3.242  -0.468  1.00  0.00     0.108 C 
BRANCH   8   9
ATOM      9  C   UNL     1      -4.071  -3.857  -0.628  1.00  0.00    -0.102 C 
ATOM     10  C   UNL     1      -6.636  -4.998  -0.927  1.00  0.00     0.107 C 
ATOM     11  C   UNL     1      -5.255  -4.384  -0.766  1.00  0.00    -0.107 C 
ENDBRANCH   8   9
ENDBRANCH   7   8
BRANCH   7  12
ATOM     12  C   UNL     1      -2.031  -5.694  -0.145  1.00  0.00     0.020 C 
BRANCH  12  13
ATOM     13  C   UNL     1      -1.480  -6.848   0.683  1.00  0.00     0.001 C 
BRANCH  13  14
ATOM     14  C   UNL     1      -2.077  -6.965   2.078  1.00  0.00    -0.003 C 
ATOM     15  C   UNL     1      -3.595  -6.993   2.191  1.00  0.00     0.004 C 
ENDBRANCH  13  14
ENDBRANCH  12  13
ENDBRANCH   7  12
BRANCH   7  16
ATOM     16  C   UNL     1      -0.190  -4.012  -0.550  1.00  0.00     0.016 C 
ATOM     17  C   UNL     1      -0.115  -3.872  -2.064  1.00  0.00     0.005 C 
ENDBRANCH   7  16
ENDBRANCH   5   7
ENDBRANCH   4   5
ENDBRANCH   3   4
ENDBRANCH   2   3
ENDBRANCH   1   2
BRANCH   1  18
ATOM     18  C   UNL     1      -0.060  -4.727   4.285  1.00  0.00     0.202 C 
BRANCH  18  19
ATOM     19  C   UNL     1      -0.306  -6.044   5.040  1.00  0.00     0.261 C 
BRANCH  19  20
ATOM     20  O   UNL     1      -1.704  -6.379   5.147  1.00  0.00    -0.460 OA
BRANCH  20  21
ATOM     21  C   UNL     1      -2.222  -6.287   6.400  1.00  0.00     0.338 C 
ATOM     22  O   UNL     1      -1.598  -6.124   7.429  1.00  0.00    -0.246 OA
BRANCH  21  23
ATOM     23  C   UNL     1      -3.703  -6.182   6.343  1.00  0.00     0.060 A 
ATOM     24  C   UNL     1      -4.286  -5.132   7.063  1.00  0.00     0.016 A 
ATOM     25  C   UNL     1      -4.514  -7.079   5.645  1.00  0.00     0.016 A 
ATOM     26  C   UNL     1      -5.674  -5.029   7.161  1.00  0.00     0.010 A 
ATOM     27  C   UNL     1      -5.911  -6.952   5.715  1.00  0.00     0.010 A 
ATOM     28  C   UNL     1      -6.502  -5.969   6.533  1.00  0.00    -0.014 A 
BRANCH  28  29
ATOM     29  C   UNL     1      -7.942  -6.026   6.917  1.00  0.00     0.031 A 
ATOM     30  C   UNL     1      -8.419  -7.149   7.806  1.00  0.00     0.074 A 
ATOM     31  C   UNL     1      -8.809  -5.053   6.573  1.00  0.00     0.049 A 
ATOM     32  N   UNL     1      -9.588  -7.323   8.371  1.00  0.00    -0.248 NA
ATOM     33  C   UNL     1      -7.452  -8.219   8.099  1.00  0.00     0.031 C 
ATOM     34  C   UNL     1      -8.501  -3.901   5.728  1.00  0.00     0.029 A 
ATOM     35  N   UNL     1     -10.132  -4.878   6.908  1.00  0.00    -0.354 N 
ATOM     36  C   UNL     1      -9.503  -8.527   9.060  1.00  0.00     0.074 A 
ATOM     37  C   UNL     1      -8.182  -9.060   8.814  1.00  0.00     0.031 C 
ATOM     38  C   UNL     1      -9.599  -3.131   5.623  1.00  0.00     0.029 A 
ATOM     39  C   UNL     1     -10.694  -3.741   6.376  1.00  0.00     0.049 A 
ATOM     40  H   UNL     1     -10.631  -5.510   7.476  1.00  0.00     0.167 HD
ATOM     41  C   UNL     1     -10.421  -9.131   9.853  1.00  0.00     0.034 A 
ATOM     42  C   UNL     1     -11.944  -3.243   6.487  1.00  0.00     0.034 A 
ATOM     43  C   UNL     1     -11.728  -8.603  10.133  1.00  0.00     0.049 A 
ATOM     44  C   UNL     1     -12.964  -3.954   7.341  1.00  0.00     0.074 A 
ATOM     45  C   UNL     1     -12.698  -9.115  10.977  1.00  0.00     0.029 A 
ATOM     46  N   UNL     1     -12.260  -7.459   9.562  1.00  0.00    -0.354 N 
ATOM     47  N   UNL     1     -12.819  -5.015   8.096  1.00  0.00    -0.248 NA
ATOM     48  C   UNL     1     -14.317  -3.373   7.383  1.00  0.00     0.031 C 
ATOM     49  C   UNL     1     -13.834  -8.304  10.881  1.00  0.00     0.029 A 
ATOM     50  C   UNL     1     -13.555  -7.262  10.012  1.00  0.00     0.049 A 
ATOM     51  H   UNL     1     -11.787  -6.871   8.930  1.00  0.00     0.167 HD
ATOM     52  C   UNL     1     -14.043  -5.203   8.734  1.00  0.00     0.074 A 
ATOM     53  C   UNL     1     -14.915  -4.138   8.288  1.00  0.00     0.031 C 
ATOM     54  C   UNL     1     -14.410  -6.176   9.606  1.00  0.00     0.034 A 
BRANCH  41  55
ATOM     55  C   UNL     1     -10.028 -10.440  10.490  1.00  0.00     0.023 A 
ATOM     56  C   UNL     1      -9.058 -10.463  11.513  1.00  0.00     0.012 A 
ATOM     57  C   UNL     1     -10.636 -11.645  10.088  1.00  0.00     0.148 A 
ATOM     58  C   UNL     1      -8.661 -11.669  12.089  1.00  0.00     0.002 A 
ATOM     59  C   UNL     1     -10.272 -12.837  10.703  1.00  0.00     0.091 A 
ATOM     60  F   UNL     1     -11.539 -11.609   9.098  1.00  0.00    -0.205 F 
ATOM     61  C   UNL     1      -9.275 -12.854  11.691  1.00  0.00     0.022 A 
BRANCH  59  62
ATOM     62  S   UNL     1     -11.067 -14.400  10.315  1.00  0.00     0.127 S 
ATOM     63  O   UNL     1     -10.035 -15.068   9.524  1.00  0.00    -0.237 OA
ATOM     64  O   UNL     1     -11.284 -14.974  11.644  1.00  0.00    -0.237 OA
ATOM     65  O   UNL     1     -12.288 -14.059   9.598  1.00  0.00    -0.744 OA
ENDBRANCH  59  62
ENDBRANCH  41  55
BRANCH  42  66
ATOM     66  C   UNL     1     -12.298  -1.960   5.813  1.00  0.00     0.023 A 
ATOM     67  C   UNL     1     -12.563  -0.817   6.594  1.00  0.00     0.012 A 
ATOM     68  C   UNL     1     -12.375  -1.866   4.410  1.00  0.00     0.148 A 
ATOM     69  C   UNL     1     -12.926   0.388   5.992  1.00  0.00     0.002 A 
ATOM     70  C   UNL     1     -12.684  -0.649   3.814  1.00  0.00     0.091 A 
ATOM     71  F   UNL     1     -12.135  -2.969   3.688  1.00  0.00    -0.205 F 
ATOM     72  C   UNL     1     -12.977   0.475   4.603  1.00  0.00     0.022 A 
BRANCH  70  73
ATOM     73  S   UNL     1     -12.662  -0.410   2.035  1.00  0.00     0.127 S 
ATOM     74  O   UNL     1     -14.064  -0.108   1.756  1.00  0.00    -0.237 OA
ATOM     75  O   UNL     1     -11.748   0.725   1.899  1.00  0.00    -0.237 OA
ATOM     76  O   UNL     1     -12.165  -1.658   1.472  1.00  0.00    -0.744 OA
ENDBRANCH  70  73
ENDBRANCH  42  66
BRANCH  54  77
ATOM     77  C   UNL     1     -15.805  -6.127  10.182  1.00  0.00     0.023 A 
ATOM     78  C   UNL     1     -16.917  -6.418   9.366  1.00  0.00     0.012 A 
ATOM     79  C   UNL     1     -16.008  -5.870  11.553  1.00  0.00     0.148 A 
ATOM     80  C   UNL     1     -18.208  -6.420   9.897  1.00  0.00     0.002 A 
ATOM     81  C   UNL     1     -17.291  -5.924  12.086  1.00  0.00     0.091 A 
ATOM     82  F   UNL     1     -14.942  -5.580  12.314  1.00  0.00    -0.205 F 
ATOM     83  C   UNL     1     -18.394  -6.185  11.257  1.00  0.00     0.022 A 
BRANCH  81  84
ATOM     84  S   UNL     1     -17.618  -5.733  13.843  1.00  0.00     0.127 S 
ATOM     85  O   UNL     1     -18.280  -4.430  13.883  1.00  0.00    -0.237 OA
ATOM     86  O   UNL     1     -18.495  -6.871  14.120  1.00  0.00    -0.237 OA
ATOM     87  O   UNL     1     -16.321  -5.795  14.503  1.00  0.00    -0.744 OA
ENDBRANCH  81  84
ENDBRANCH  54  77
ENDBRANCH  28  29
ENDBRANCH  21  23
ENDBRANCH  20  21
ENDBRANCH  19  20
ENDBRANCH  18  19
ENDBRANCH   1  18
TORSDOF 23
