REMARK SMILES O=C1CN(S(=O)(=O)c2ccc(CC(=O)OCCOCCOC(=O)c3ccc(-c4c5nc(c(-c6cccc(S(=O)(=O)[O-])c6F)c6ccc([nH]6)c(-c6cccc(S(=O)(=O)[O-])c6F)c6nc(c(-c7cccc(S(=O)(=O)[O-])c7F)c7ccc4[nH]7)C=C6)C=C5)cc3)cc2)CCN1
REMARK SMILES IDX 18 1 17 2 16 3 15 4 13 5 14 6 12 7 11 8 8 9 9 10 88 11 10 12
REMARK SMILES IDX 87 13 5 14 6 15 7 16 4 17 1 18 2 19 3 20 91 21 90 22 89 24
REMARK SMILES IDX 19 25 20 26 21 27 22 28 23 29 24 30 25 31 86 32 26 33 85 34
REMARK SMILES IDX 27 35 28 36 29 37 79 38 30 39 84 40 78 41 80 42 31 43 83 44
REMARK SMILES IDX 77 45 76 46 32 48 64 49 44 50 63 51 45 52 48 53 62 54 81 55
REMARK SMILES IDX 46 56 47 57 61 59 82 60 49 61 33 62 34 63 42 64 35 65 37 66
REMARK SMILES IDX 43 67 36 68 38 69 39 70 40 71 41 72 65 73 66 74 74 75 67 76
REMARK SMILES IDX 69 77 75 78 68 79 70 80 71 81 72 82 73 83 50 84 51 85 59 86
REMARK SMILES IDX 52 87 54 88 60 89 53 90 55 91 56 92 57 93 58 94
REMARK H PARENT 91 23 80 47 48 58
REMARK Flexibility Score: inf
ROOT
ATOM      1  O   UNL     1      -1.553  -5.395   8.582  1.00  0.00    -0.374 OA
ENDROOT
BRANCH   1   2
ATOM      2  C   UNL     1      -0.332  -4.730   8.902  1.00  0.00     0.202 C 
BRANCH   2   3
ATOM      3  C   UNL     1       0.944  -5.225   8.211  1.00  0.00     0.261 C 
BRANCH   3   4
ATOM      4  O   UNL     1       0.877  -5.139   6.776  1.00  0.00    -0.463 OA
BRANCH   4   5
ATOM      5  C   UNL     1       0.883  -6.324   6.113  1.00  0.00     0.310 C 
ATOM      6  O   UNL     1       0.990  -7.423   6.651  1.00  0.00    -0.252 OA
BRANCH   5   7
ATOM      7  C   UNL     1       0.779  -6.201   4.610  1.00  0.00     0.158 C 
BRANCH   7   8
ATOM      8  C   UNL     1       0.207  -4.932   4.016  1.00  0.00    -0.037 A 
ATOM      9  C   UNL     1      -0.811  -2.612   2.798  1.00  0.00     0.082 A 
ATOM     10  C   UNL     1      -1.671  -3.672   3.098  1.00  0.00     0.022 A 
ATOM     11  C   UNL     1       0.543  -2.692   3.134  1.00  0.00     0.022 A 
ATOM     12  C   UNL     1      -1.160  -4.828   3.701  1.00  0.00     0.006 A 
ATOM     13  C   UNL     1       1.050  -3.850   3.727  1.00  0.00     0.006 A 
BRANCH   9  14
ATOM     14  S   UNL     1      -1.468  -1.079   2.179  1.00  0.00     0.243 S 
ATOM     15  O   UNL     1      -0.629  -0.015   2.698  1.00  0.00    -0.207 OA
ATOM     16  O   UNL     1      -2.889  -1.077   2.431  1.00  0.00    -0.207 OA
BRANCH  14  17
ATOM     17  N   UNL     1      -1.273  -1.137   0.478  1.00  0.00    -0.187 NA
ATOM     18  O   UNL     1       2.189  -0.042   0.009  1.00  0.00    -0.274 OA
ATOM     19  C   UNL     1       0.961  -0.008   0.007  1.00  0.00     0.235 C 
ATOM     20  C   UNL     1       0.123  -1.275  -0.026  1.00  0.00     0.202 C 
ATOM     21  N   UNL     1       0.298   1.187  -0.105  1.00  0.00    -0.354 N 
ATOM     22  C   UNL     1      -1.141   1.333   0.024  1.00  0.00     0.132 C 
ATOM     23  H   UNL     1       0.830   1.996  -0.284  1.00  0.00     0.163 HD
ATOM     24  C   UNL     1      -1.916   0.030  -0.225  1.00  0.00     0.124 C 
ENDBRANCH  14  17
ENDBRANCH   9  14
ENDBRANCH   7   8
ENDBRANCH   5   7
ENDBRANCH   4   5
ENDBRANCH   3   4
ENDBRANCH   2   3
ENDBRANCH   1   2
BRANCH   1  25
ATOM     25  C   UNL     1      -2.128  -5.138   7.303  1.00  0.00     0.202 C 
BRANCH  25  26
ATOM     26  C   UNL     1      -2.797  -3.776   7.077  1.00  0.00     0.261 C 
BRANCH  26  27
ATOM     27  O   UNL     1      -1.891  -2.671   7.219  1.00  0.00    -0.460 OA
BRANCH  27  28
ATOM     28  C   UNL     1      -2.113  -1.908   8.318  1.00  0.00     0.338 C 
ATOM     29  O   UNL     1      -3.015  -2.038   9.131  1.00  0.00    -0.246 OA
BRANCH  28  30
ATOM     30  C   UNL     1      -0.994  -0.971   8.534  1.00  0.00     0.060 A 
ATOM     31  C   UNL     1      -0.447  -0.920   9.824  1.00  0.00     0.016 A 
ATOM     32  C   UNL     1      -0.550  -0.098   7.539  1.00  0.00     0.016 A 
ATOM     33  C   UNL     1       0.488   0.057  10.147  1.00  0.00     0.010 A 
ATOM     34  C   UNL     1       0.390   0.886   7.867  1.00  0.00     0.010 A 
ATOM     35  C   UNL     1       0.872   0.999   9.184  1.00  0.00    -0.014 A 
BRANCH  35  36
ATOM     36  C   UNL     1       1.639   2.195   9.612  1.00  0.00     0.031 A 
ATOM     37  C   UNL     1       0.907   3.498   9.799  1.00  0.00     0.074 A 
ATOM     38  C   UNL     1       2.958   2.114   9.862  1.00  0.00     0.049 A 
ATOM     39  N   UNL     1       1.371   4.661  10.175  1.00  0.00    -0.248 NA
ATOM     40  C   UNL     1      -0.540   3.488   9.525  1.00  0.00     0.031 C 
ATOM     41  C   UNL     1       3.770   0.907   9.724  1.00  0.00     0.029 A 
ATOM     42  N   UNL     1       3.848   3.076  10.268  1.00  0.00    -0.354 N 
ATOM     43  C   UNL     1       0.283   5.528  10.152  1.00  0.00     0.074 A 
ATOM     44  C   UNL     1      -0.861   4.760   9.713  1.00  0.00     0.031 C 
ATOM     45  C   UNL     1       5.047   1.206  10.016  1.00  0.00     0.029 A 
ATOM     46  C   UNL     1       5.145   2.628  10.341  1.00  0.00     0.049 A 
ATOM     47  H   UNL     1       3.583   3.999  10.487  1.00  0.00     0.167 HD
ATOM     48  C   UNL     1       0.237   6.840  10.482  1.00  0.00     0.034 A 
ATOM     49  C   UNL     1       6.282   3.295  10.622  1.00  0.00     0.034 A 
ATOM     50  C   UNL     1       1.373   7.593  10.939  1.00  0.00     0.049 A 
ATOM     51  C   UNL     1       6.206   4.758  10.976  1.00  0.00     0.074 A 
ATOM     52  C   UNL     1       1.424   8.916  11.341  1.00  0.00     0.029 A 
ATOM     53  N   UNL     1       2.662   7.094  11.045  1.00  0.00    -0.354 N 
ATOM     54  N   UNL     1       5.152   5.534  11.059  1.00  0.00    -0.248 NA
ATOM     55  C   UNL     1       7.471   5.427  11.314  1.00  0.00     0.031 C 
ATOM     56  C   UNL     1       2.750   9.224  11.663  1.00  0.00     0.029 A 
ATOM     57  C   UNL     1       3.518   8.083  11.498  1.00  0.00     0.049 A 
ATOM     58  H   UNL     1       2.929   6.171  10.830  1.00  0.00     0.167 HD
ATOM     59  C   UNL     1       5.620   6.768  11.501  1.00  0.00     0.074 A 
ATOM     60  C   UNL     1       7.050   6.630  11.681  1.00  0.00     0.031 C 
ATOM     61  C   UNL     1       4.930   7.913  11.727  1.00  0.00     0.034 A 
BRANCH  48  62
ATOM     62  C   UNL     1      -1.092   7.543  10.378  1.00  0.00     0.023 A 
ATOM     63  C   UNL     1      -2.110   7.258  11.311  1.00  0.00     0.012 A 
ATOM     64  C   UNL     1      -1.315   8.521   9.390  1.00  0.00     0.148 A 
ATOM     65  C   UNL     1      -3.340   7.911  11.242  1.00  0.00     0.002 A 
ATOM     66  C   UNL     1      -2.528   9.200   9.355  1.00  0.00     0.091 A 
ATOM     67  F   UNL     1      -0.344   8.763   8.498  1.00  0.00    -0.205 F 
ATOM     68  C   UNL     1      -3.545   8.888  10.272  1.00  0.00     0.022 A 
BRANCH  66  69
ATOM     69  S   UNL     1      -2.860  10.531   8.194  1.00  0.00     0.127 S 
ATOM     70  O   UNL     1      -3.845   9.912   7.308  1.00  0.00    -0.237 OA
ATOM     71  O   UNL     1      -3.397  11.574   9.068  1.00  0.00    -0.237 OA
ATOM     72  O   UNL     1      -1.582  10.855   7.577  1.00  0.00    -0.744 OA
ENDBRANCH  66  69
ENDBRANCH  48  62
BRANCH  49  73
ATOM     73  C   UNL     1       7.588   2.575  10.618  1.00  0.00     0.023 A 
ATOM     74  C   UNL     1       8.273   2.367  11.830  1.00  0.00     0.012 A 
ATOM     75  C   UNL     1       8.144   2.082   9.421  1.00  0.00     0.148 A 
ATOM     76  C   UNL     1       9.504   1.710  11.847  1.00  0.00     0.002 A 
ATOM     77  C   UNL     1       9.342   1.379   9.453  1.00  0.00     0.091 A 
ATOM     78  F   UNL     1       7.484   2.304   8.276  1.00  0.00    -0.205 F 
ATOM     79  C   UNL     1      10.033   1.207  10.662  1.00  0.00     0.022 A 
BRANCH  77  80
ATOM     80  S   UNL     1      10.032   0.585   7.996  1.00  0.00     0.127 S 
ATOM     81  O   UNL     1      11.211   1.407   7.738  1.00  0.00    -0.237 OA
ATOM     82  O   UNL     1      10.315  -0.761   8.493  1.00  0.00    -0.237 OA
ATOM     83  O   UNL     1       8.986   0.643   6.984  1.00  0.00    -0.744 OA
ENDBRANCH  77  80
ENDBRANCH  49  73
BRANCH  61  84
ATOM     84  C   UNL     1       5.695   9.101  12.251  1.00  0.00     0.023 A 
ATOM     85  C   UNL     1       6.577   9.803  11.405  1.00  0.00     0.012 A 
ATOM     86  C   UNL     1       5.479   9.567  13.563  1.00  0.00     0.148 A 
ATOM     87  C   UNL     1       7.259  10.928  11.869  1.00  0.00     0.002 A 
ATOM     88  C   UNL     1       6.122  10.718  14.002  1.00  0.00     0.091 A 
ATOM     89  F   UNL     1       4.650   8.876  14.359  1.00  0.00    -0.205 F 
ATOM     90  C   UNL     1       7.022  11.392  13.162  1.00  0.00     0.022 A 
BRANCH  88  91
ATOM     91  S   UNL     1       5.800  11.444  15.613  1.00  0.00     0.127 S 
ATOM     92  O   UNL     1       7.024  11.112  16.340  1.00  0.00    -0.237 OA
ATOM     93  O   UNL     1       5.648  12.863  15.291  1.00  0.00    -0.237 OA
ATOM     94  O   UNL     1       4.587  10.805  16.106  1.00  0.00    -0.744 OA
ENDBRANCH  88  91
ENDBRANCH  61  84
ENDBRANCH  35  36
ENDBRANCH  28  30
ENDBRANCH  27  28
ENDBRANCH  26  27
ENDBRANCH  25  26
ENDBRANCH   1  25
TORSDOF 20
