REMARK SMILES [NH3+][C@H](C(=O)OCCOCCOC(=O)c1ccc(-c2c3nc(c(-c4cccc(S(=O)(=O)[O-])c4F)c4ccc([nH]4)c(-c4cccc(S(=O)(=O)[O-])c4F)c4nc(c(-c5cccc(S(=O)(=O)[O-])c5F)c5ccc2[nH]5)C=C4)C=C3)cc1)c1ccc(Cl)c(OC(F)(F)F)c1
REMARK SMILES IDX 8 1 7 2 6 3 5 4 3 5 4 6 2 7 1 8 77 12 78 13 88 14 79 15
REMARK SMILES IDX 82 16 80 17 81 18 83 19 84 20 85 21 86 22 87 23 9 24 10 25
REMARK SMILES IDX 11 26 12 27 13 28 14 29 15 30 76 31 16 32 75 33 17 34 18 35
REMARK SMILES IDX 19 36 69 37 20 38 74 39 68 40 70 41 21 42 73 43 67 44 66 45
REMARK SMILES IDX 22 47 54 48 34 49 53 50 35 51 38 52 52 53 71 54 36 55 37 56
REMARK SMILES IDX 51 58 72 59 39 60 23 61 24 62 32 63 25 64 27 65 33 66 26 67
REMARK SMILES IDX 28 68 29 69 30 70 31 71 55 72 56 73 64 74 57 75 59 76 65 77
REMARK SMILES IDX 58 78 60 79 61 80 62 81 63 82 40 83 41 84 49 85 42 86 44 87
REMARK SMILES IDX 50 88 43 89 45 90 46 91 47 92 48 93
REMARK H PARENT 1 9 1 10 1 11 70 46 38 57
REMARK Flexibility Score: inf
ROOT
ATOM      1  O   UNL     1       1.180   1.743  -2.136  1.00  0.00    -0.374 OA
ENDROOT
BRANCH   1   2
ATOM      2  C   UNL     1       1.319   0.423  -2.660  1.00  0.00     0.202 C 
BRANCH   2   3
ATOM      3  C   UNL     1       1.910  -0.638  -1.723  1.00  0.00     0.261 C 
BRANCH   3   4
ATOM      4  O   UNL     1       1.150  -0.798  -0.511  1.00  0.00    -0.459 OA
BRANCH   4   5
ATOM      5  C   UNL     1       1.745  -0.314   0.611  1.00  0.00     0.369 C 
ATOM      6  O   UNL     1       2.881   0.159   0.648  1.00  0.00    -0.245 OA
BRANCH   5   7
ATOM      7  C   UNL     1       0.872  -0.411   1.884  1.00  0.00     0.323 C 
BRANCH   7   8
ATOM      8  N   UNL     1       1.341   0.635   2.841  1.00  0.00    -0.342 N 
ATOM      9  H   UNL     1       0.780   0.592   3.692  1.00  0.00     0.345 HD
ATOM     10  H   UNL     1       1.241   1.556   2.414  1.00  0.00     0.345 HD
ATOM     11  H   UNL     1       2.321   0.471   3.071  1.00  0.00     0.345 HD
ENDBRANCH   7   8
BRANCH   7  12
ATOM     12  C   UNL     1      -0.645  -0.359   1.706  1.00  0.00     0.025 A 
ATOM     13  C   UNL     1      -1.382   0.831   1.837  1.00  0.00     0.012 A 
ATOM     14  C   UNL     1      -1.355  -1.555   1.464  1.00  0.00     0.059 A 
ATOM     15  C   UNL     1      -2.775   0.827   1.750  1.00  0.00     0.025 A 
ATOM     16  C   UNL     1      -2.758  -1.577   1.409  1.00  0.00     0.148 A 
ATOM     17  C   UNL     1      -3.458  -0.370   1.543  1.00  0.00     0.083 A 
ATOM     18  Cl  UNL     1      -5.186  -0.316   1.499  1.00  0.00    -0.080 Cl
BRANCH  16  19
ATOM     19  O   UNL     1      -3.519  -2.701   1.234  1.00  0.00    -0.404 OA
BRANCH  19  20
ATOM     20  C   UNL     1      -2.907  -3.962   1.444  1.00  0.00     0.573 C 
ATOM     21  F   UNL     1      -2.046  -4.239   0.446  1.00  0.00    -0.132 F 
ATOM     22  F   UNL     1      -2.252  -3.992   2.626  1.00  0.00    -0.132 F 
ATOM     23  F   UNL     1      -3.865  -4.911   1.472  1.00  0.00    -0.132 F 
ENDBRANCH  19  20
ENDBRANCH  16  19
ENDBRANCH   7  12
ENDBRANCH   5   7
ENDBRANCH   4   5
ENDBRANCH   3   4
ENDBRANCH   2   3
ENDBRANCH   1   2
BRANCH   1  24
ATOM     24  C   UNL     1       0.073   1.985  -1.267  1.00  0.00     0.202 C 
BRANCH  24  25
ATOM     25  C   UNL     1      -1.317   2.081  -1.907  1.00  0.00     0.261 C 
BRANCH  25  26
ATOM     26  O   UNL     1      -1.745   0.825  -2.460  1.00  0.00    -0.460 OA
BRANCH  26  27
ATOM     27  C   UNL     1      -1.896   0.825  -3.806  1.00  0.00     0.338 C 
ATOM     28  O   UNL     1      -1.799   1.790  -4.555  1.00  0.00    -0.246 OA
BRANCH  27  29
ATOM     29  C   UNL     1      -2.006  -0.555  -4.314  1.00  0.00     0.060 A 
ATOM     30  C   UNL     1      -1.161  -0.913  -5.373  1.00  0.00     0.016 A 
ATOM     31  C   UNL     1      -2.957  -1.456  -3.829  1.00  0.00     0.016 A 
ATOM     32  C   UNL     1      -1.310  -2.148  -5.998  1.00  0.00     0.010 A 
ATOM     33  C   UNL     1      -3.108  -2.695  -4.463  1.00  0.00     0.010 A 
ATOM     34  C   UNL     1      -2.316  -3.027  -5.577  1.00  0.00    -0.014 A 
BRANCH  34  35
ATOM     35  C   UNL     1      -2.627  -4.219  -6.404  1.00  0.00     0.031 A 
ATOM     36  C   UNL     1      -3.797  -4.167  -7.349  1.00  0.00     0.074 A 
ATOM     37  C   UNL     1      -1.860  -5.322  -6.336  1.00  0.00     0.049 A 
ATOM     38  N   UNL     1      -4.235  -5.081  -8.175  1.00  0.00    -0.248 NA
ATOM     39  C   UNL     1      -4.579  -2.919  -7.366  1.00  0.00     0.031 C 
ATOM     40  C   UNL     1      -0.698  -5.489  -5.466  1.00  0.00     0.029 A 
ATOM     41  N   UNL     1      -1.958  -6.518  -7.002  1.00  0.00    -0.354 N 
ATOM     42  C   UNL     1      -5.356  -4.534  -8.788  1.00  0.00     0.074 A 
ATOM     43  C   UNL     1      -5.539  -3.211  -8.232  1.00  0.00     0.031 C 
ATOM     44  C   UNL     1      -0.202  -6.727  -5.635  1.00  0.00     0.029 A 
ATOM     45  C   UNL     1      -1.022  -7.444  -6.610  1.00  0.00     0.049 A 
ATOM     46  H   UNL     1      -2.635  -6.695  -7.695  1.00  0.00     0.167 HD
ATOM     47  C   UNL     1      -6.152  -5.075  -9.739  1.00  0.00     0.034 A 
ATOM     48  C   UNL     1      -0.856  -8.729  -6.984  1.00  0.00     0.034 A 
ATOM     49  C   UNL     1      -5.953  -6.380 -10.311  1.00  0.00     0.049 A 
ATOM     50  C   UNL     1      -1.768  -9.313  -8.032  1.00  0.00     0.074 A 
ATOM     51  C   UNL     1      -6.670  -6.994 -11.322  1.00  0.00     0.029 A 
ATOM     52  N   UNL     1      -4.973  -7.276  -9.914  1.00  0.00    -0.354 N 
ATOM     53  N   UNL     1      -2.740  -8.736  -8.696  1.00  0.00    -0.248 NA
ATOM     54  C   UNL     1      -1.538 -10.717  -8.407  1.00  0.00     0.031 C 
ATOM     55  C   UNL     1      -6.140  -8.274 -11.518  1.00  0.00     0.029 A 
ATOM     56  C   UNL     1      -5.076  -8.445 -10.647  1.00  0.00     0.049 A 
ATOM     57  H   UNL     1      -4.303  -7.106  -9.213  1.00  0.00     0.167 HD
ATOM     58  C   UNL     1      -3.212  -9.691  -9.591  1.00  0.00     0.074 A 
ATOM     59  C   UNL     1      -2.406 -10.879  -9.397  1.00  0.00     0.031 C 
ATOM     60  C   UNL     1      -4.230  -9.599 -10.483  1.00  0.00     0.034 A 
BRANCH  47  61
ATOM     61  C   UNL     1      -7.302  -4.246 -10.247  1.00  0.00     0.023 A 
ATOM     62  C   UNL     1      -7.051  -3.155 -11.104  1.00  0.00     0.012 A 
ATOM     63  C   UNL     1      -8.632  -4.582  -9.925  1.00  0.00     0.148 A 
ATOM     64  C   UNL     1      -8.104  -2.394 -11.611  1.00  0.00     0.002 A 
ATOM     65  C   UNL     1      -9.678  -3.844 -10.467  1.00  0.00     0.091 A 
ATOM     66  F   UNL     1      -8.848  -5.607  -9.089  1.00  0.00    -0.205 F 
ATOM     67  C   UNL     1      -9.415  -2.745 -11.301  1.00  0.00     0.022 A 
BRANCH  65  68
ATOM     68  S   UNL     1     -11.402  -4.262 -10.188  1.00  0.00     0.127 S 
ATOM     69  O   UNL     1     -11.828  -3.182  -9.299  1.00  0.00    -0.237 OA
ATOM     70  O   UNL     1     -11.959  -4.193 -11.540  1.00  0.00    -0.237 OA
ATOM     71  O   UNL     1     -11.402  -5.594  -9.600  1.00  0.00    -0.744 OA
ENDBRANCH  65  68
ENDBRANCH  47  61
BRANCH  48  72
ATOM     72  C   UNL     1       0.246  -9.540  -6.394  1.00  0.00     0.023 A 
ATOM     73  C   UNL     1       1.333  -9.927  -7.202  1.00  0.00     0.012 A 
ATOM     74  C   UNL     1       0.232  -9.916  -5.037  1.00  0.00     0.148 A 
ATOM     75  C   UNL     1       2.372 -10.697  -6.676  1.00  0.00     0.002 A 
ATOM     76  C   UNL     1       1.296 -10.635  -4.506  1.00  0.00     0.091 A 
ATOM     77  F   UNL     1      -0.821  -9.557  -4.289  1.00  0.00    -0.205 F 
ATOM     78  C   UNL     1       2.359 -11.041  -5.327  1.00  0.00     0.022 A 
BRANCH  76  79
ATOM     79  S   UNL     1       1.424 -11.007  -2.753  1.00  0.00     0.127 S 
ATOM     80  O   UNL     1       1.160 -12.443  -2.731  1.00  0.00    -0.237 OA
ATOM     81  O   UNL     1       2.809 -10.630  -2.464  1.00  0.00    -0.237 OA
ATOM     82  O   UNL     1       0.428 -10.168  -2.101  1.00  0.00    -0.744 OA
ENDBRANCH  76  79
ENDBRANCH  48  72
BRANCH  60  83
ATOM     83  C   UNL     1      -4.516 -10.799 -11.348  1.00  0.00     0.023 A 
ATOM     84  C   UNL     1      -5.131 -11.936 -10.788  1.00  0.00     0.012 A 
ATOM     85  C   UNL     1      -4.250 -10.768 -12.732  1.00  0.00     0.148 A 
ATOM     86  C   UNL     1      -5.448 -13.035 -11.585  1.00  0.00     0.002 A 
ATOM     87  C   UNL     1      -4.613 -11.848 -13.528  1.00  0.00     0.091 A 
ATOM     88  F   UNL     1      -3.648  -9.685 -13.244  1.00  0.00    -0.205 F 
ATOM     89  C   UNL     1      -5.201 -12.987 -12.955  1.00  0.00     0.022 A 
BRANCH  87  90
ATOM     90  S   UNL     1      -4.420 -11.833 -15.314  1.00  0.00     0.127 S 
ATOM     91  O   UNL     1      -3.282 -12.731 -15.499  1.00  0.00    -0.237 OA
ATOM     92  O   UNL     1      -5.702 -12.371 -15.771  1.00  0.00    -0.237 OA
ATOM     93  O   UNL     1      -4.188 -10.442 -15.679  1.00  0.00    -0.744 OA
ENDBRANCH  87  90
ENDBRANCH  60  83
ENDBRANCH  34  35
ENDBRANCH  27  29
ENDBRANCH  26  27
ENDBRANCH  25  26
ENDBRANCH  24  25
ENDBRANCH   1  24
TORSDOF 21
