REMARK SMILES Cc1ccc(C)n1-c1ccccc1S[C@H](C)C(=O)OCCOCCOC(=O)c1ccc(-c2c3nc(c(-c4cccc(S(=O)(=O)[O-])c4F)c4ccc([nH]4)c(-c4cccc(S(=O)(=O)[O-])c4F)c4nc(c(-c5cccc(S(=O)(=O)[O-])c5F)c5ccc2[nH]5)C=C4)C=C3)cc1
REMARK SMILES IDX 22 1 21 2 20 3 19 4 17 5 18 6 15 7 16 8 14 9 13 10 8 11 9 12
REMARK SMILES IDX 10 13 12 14 11 15 7 16 1 17 2 18 3 19 4 20 5 21 6 22 23 23
REMARK SMILES IDX 24 24 25 25 26 26 27 27 28 28 29 29 90 30 30 31 89 32 31 33
REMARK SMILES IDX 32 34 33 35 83 36 34 37 88 38 82 39 84 40 35 41 87 42 81 43
REMARK SMILES IDX 80 44 36 46 68 47 48 48 67 49 49 50 52 51 66 52 85 53 50 54
REMARK SMILES IDX 51 55 65 57 86 58 53 59 37 60 38 61 46 62 39 63 41 64 47 65
REMARK SMILES IDX 40 66 42 67 43 68 44 69 45 70 69 71 70 72 78 73 71 74 73 75
REMARK SMILES IDX 79 76 72 77 74 78 75 79 76 80 77 81 54 82 55 83 63 84 56 85
REMARK SMILES IDX 58 86 64 87 57 88 59 89 60 90 61 91 62 92
REMARK H PARENT 84 45 52 56
REMARK Flexibility Score: inf
ROOT
ATOM      1  O   UNL     1       3.092   4.933  -2.875  1.00  0.00    -0.374 OA
ENDROOT
BRANCH   1   2
ATOM      2  C   UNL     1       2.053   5.465  -2.052  1.00  0.00     0.202 C 
BRANCH   2   3
ATOM      3  C   UNL     1       0.803   4.577  -1.943  1.00  0.00     0.261 C 
BRANCH   3   4
ATOM      4  O   UNL     1       1.132   3.265  -1.469  1.00  0.00    -0.462 OA
BRANCH   4   5
ATOM      5  C   UNL     1       0.976   2.229  -2.334  1.00  0.00     0.319 C 
ATOM      6  O   UNL     1       0.545   2.328  -3.479  1.00  0.00    -0.251 OA
BRANCH   5   7
ATOM      7  C   UNL     1       1.339   0.895  -1.698  1.00  0.00     0.158 C 
ATOM      8  C   UNL     1       2.791   0.687  -1.293  1.00  0.00     0.032 C 
BRANCH   7   9
ATOM      9  S   UNL     1       0.064   0.457  -0.463  1.00  0.00    -0.109 SA
BRANCH   9  10
ATOM     10  C   UNL     1       0.542   1.084   1.155  1.00  0.00     0.032 A 
ATOM     11  C   UNL     1      -0.152   0.623   2.299  1.00  0.00     0.059 A 
ATOM     12  C   UNL     1       0.071   1.170   3.575  1.00  0.00     0.028 A 
ATOM     13  C   UNL     1       1.013   2.179   3.740  1.00  0.00     0.002 A 
ATOM     14  C   UNL     1       1.476   2.106   1.364  1.00  0.00     0.017 A 
ATOM     15  C   UNL     1       1.717   2.643   2.636  1.00  0.00     0.001 A 
BRANCH  11  16
ATOM     16  N   UNL     1      -1.205  -0.321   2.175  1.00  0.00    -0.317 N 
ATOM     17  C   UNL     1       0.218  -2.376   1.669  1.00  0.00     0.065 C 
ATOM     18  C   UNL     1      -1.082  -1.660   1.819  1.00  0.00     0.020 A 
ATOM     19  C   UNL     1      -2.356  -2.168   1.647  1.00  0.00     0.023 A 
ATOM     20  C   UNL     1      -3.275  -1.144   1.947  1.00  0.00     0.023 A 
ATOM     21  C   UNL     1      -2.557  -0.014   2.287  1.00  0.00     0.020 A 
ATOM     22  C   UNL     1      -3.086   1.340   2.619  1.00  0.00     0.065 C 
ENDBRANCH  11  16
ENDBRANCH   9  10
ENDBRANCH   7   9
ENDBRANCH   5   7
ENDBRANCH   4   5
ENDBRANCH   3   4
ENDBRANCH   2   3
ENDBRANCH   1   2
BRANCH   1  23
ATOM     23  C   UNL     1       4.000   4.025  -2.222  1.00  0.00     0.202 C 
BRANCH  23  24
ATOM     24  C   UNL     1       5.224   4.662  -1.505  1.00  0.00     0.261 C 
BRANCH  24  25
ATOM     25  O   UNL     1       5.428   4.343  -0.072  1.00  0.00    -0.460 OA
BRANCH  25  26
ATOM     26  C   UNL     1       5.542   5.420   0.781  1.00  0.00     0.338 C 
ATOM     27  O   UNL     1       5.077   6.518   0.490  1.00  0.00    -0.246 OA
BRANCH  26  28
ATOM     28  C   UNL     1       6.151   5.175   2.178  1.00  0.00     0.060 A 
ATOM     29  C   UNL     1       5.440   5.646   3.280  1.00  0.00     0.016 A 
ATOM     30  C   UNL     1       7.470   4.770   2.471  1.00  0.00     0.016 A 
ATOM     31  C   UNL     1       6.012   5.685   4.600  1.00  0.00     0.010 A 
ATOM     32  C   UNL     1       8.078   4.890   3.816  1.00  0.00     0.010 A 
ATOM     33  C   UNL     1       7.380   5.377   4.939  1.00  0.00    -0.014 A 
BRANCH  33  34
ATOM     34  C   UNL     1       7.971   6.094   6.290  1.00  0.00     0.031 A 
ATOM     35  C   UNL     1       7.384   7.465   6.201  1.00  0.00     0.074 A 
ATOM     36  C   UNL     1       8.846   5.951   7.382  1.00  0.00     0.049 A 
ATOM     37  N   UNL     1       7.472   8.163   5.100  1.00  0.00    -0.248 NA
ATOM     38  C   UNL     1       6.376   7.969   7.140  1.00  0.00     0.031 C 
ATOM     39  C   UNL     1       9.760   4.834   7.680  1.00  0.00     0.029 A 
ATOM     40  N   UNL     1       9.141   6.790   8.526  1.00  0.00    -0.354 N 
ATOM     41  C   UNL     1       6.928   9.374   5.399  1.00  0.00     0.074 A 
ATOM     42  C   UNL     1       6.015   9.083   6.493  1.00  0.00     0.031 C 
ATOM     43  C   UNL     1      10.364   4.968   8.901  1.00  0.00     0.029 A 
ATOM     44  C   UNL     1       9.984   6.219   9.560  1.00  0.00     0.049 A 
ATOM     45  H   UNL     1       8.786   7.705   8.599  1.00  0.00     0.167 HD
ATOM     46  C   UNL     1       7.746  10.452   5.226  1.00  0.00     0.034 A 
ATOM     47  C   UNL     1      10.426   6.713  10.795  1.00  0.00     0.034 A 
ATOM     48  C   UNL     1       8.059  11.129   6.452  1.00  0.00     0.049 A 
ATOM     49  C   UNL     1      10.373   8.181  10.702  1.00  0.00     0.074 A 
ATOM     50  C   UNL     1       7.338  11.435   7.590  1.00  0.00     0.029 A 
ATOM     51  N   UNL     1       9.389  11.179   6.803  1.00  0.00    -0.354 N 
ATOM     52  N   UNL     1      11.319   8.842  10.105  1.00  0.00    -0.248 NA
ATOM     53  C   UNL     1       9.411   8.998  11.436  1.00  0.00     0.031 C 
ATOM     54  C   UNL     1       8.211  11.156   8.665  1.00  0.00     0.029 A 
ATOM     55  C   UNL     1       9.500  11.018   8.170  1.00  0.00     0.049 A 
ATOM     56  H   UNL     1      10.140  11.309   6.179  1.00  0.00     0.167 HD
ATOM     57  C   UNL     1      10.785  10.084   9.952  1.00  0.00     0.074 A 
ATOM     58  C   UNL     1       9.788  10.202  10.997  1.00  0.00     0.031 C 
ATOM     59  C   UNL     1      10.770  10.570   8.689  1.00  0.00     0.034 A 
BRANCH  46  60
ATOM     60  C   UNL     1       8.665  10.370   4.026  1.00  0.00     0.023 A 
ATOM     61  C   UNL     1       8.405  11.232   2.949  1.00  0.00     0.012 A 
ATOM     62  C   UNL     1       9.648   9.357   3.867  1.00  0.00     0.148 A 
ATOM     63  C   UNL     1       9.052  11.048   1.724  1.00  0.00     0.002 A 
ATOM     64  C   UNL     1      10.195   9.104   2.614  1.00  0.00     0.091 A 
ATOM     65  F   UNL     1      10.029   8.647   4.941  1.00  0.00    -0.205 F 
ATOM     66  C   UNL     1       9.909   9.962   1.544  1.00  0.00     0.022 A 
BRANCH  64  67
ATOM     67  S   UNL     1      11.062   7.564   2.249  1.00  0.00     0.127 S 
ATOM     68  O   UNL     1      10.440   7.147   0.984  1.00  0.00    -0.237 OA
ATOM     69  O   UNL     1      12.456   8.002   2.107  1.00  0.00    -0.237 OA
ATOM     70  O   UNL     1      10.799   6.665   3.350  1.00  0.00    -0.744 OA
ENDBRANCH  64  67
ENDBRANCH  46  60
BRANCH  47  71
ATOM     71  C   UNL     1      11.187   6.385  12.142  1.00  0.00     0.023 A 
ATOM     72  C   UNL     1      12.150   7.348  12.622  1.00  0.00     0.012 A 
ATOM     73  C   UNL     1      10.714   5.500  13.139  1.00  0.00     0.148 A 
ATOM     74  C   UNL     1      12.510   7.516  13.973  1.00  0.00     0.002 A 
ATOM     75  C   UNL     1      11.119   5.641  14.500  1.00  0.00     0.091 A 
ATOM     76  F   UNL     1       9.796   4.589  12.794  1.00  0.00    -0.205 F 
ATOM     77  C   UNL     1      11.983   6.666  14.919  1.00  0.00     0.022 A 
BRANCH  75  78
ATOM     78  S   UNL     1      10.523   4.589  15.847  1.00  0.00     0.127 S 
ATOM     79  O   UNL     1      11.736   4.363  16.639  1.00  0.00    -0.237 OA
ATOM     80  O   UNL     1       9.536   5.454  16.494  1.00  0.00    -0.237 OA
ATOM     81  O   UNL     1       9.997   3.398  15.200  1.00  0.00    -0.744 OA
ENDBRANCH  75  78
ENDBRANCH  47  71
BRANCH  59  82
ATOM     82  C   UNL     1      11.995  10.325   7.826  1.00  0.00     0.023 A 
ATOM     83  C   UNL     1      12.627   9.074   7.641  1.00  0.00     0.012 A 
ATOM     84  C   UNL     1      12.533  11.430   7.150  1.00  0.00     0.148 A 
ATOM     85  C   UNL     1      13.769   8.941   6.843  1.00  0.00     0.002 A 
ATOM     86  C   UNL     1      13.631  11.287   6.307  1.00  0.00     0.091 A 
ATOM     87  F   UNL     1      11.957  12.627   7.346  1.00  0.00    -0.205 F 
ATOM     88  C   UNL     1      14.261  10.046   6.158  1.00  0.00     0.022 A 
BRANCH  86  89
ATOM     89  S   UNL     1      14.218  12.689   5.359  1.00  0.00     0.127 S 
ATOM     90  O   UNL     1      15.273  13.217   6.222  1.00  0.00    -0.237 OA
ATOM     91  O   UNL     1      14.692  12.085   4.116  1.00  0.00    -0.237 OA
ATOM     92  O   UNL     1      13.050  13.550   5.197  1.00  0.00    -0.744 OA
ENDBRANCH  86  89
ENDBRANCH  59  82
ENDBRANCH  33  34
ENDBRANCH  26  28
ENDBRANCH  25  26
ENDBRANCH  24  25
ENDBRANCH  23  24
ENDBRANCH   1  23
TORSDOF 20
