REMARK SMILES CN(C)S(=O)(=O)c1ccc(-n2c(CCC(=O)OCCOCCOC(=O)c3ccc(-c4c5nc(c(-c6cccc(S(=O)(=O)[O-])c6F)c6ccc([nH]6)c(-c6cccc(S(=O)(=O)[O-])c6F)c6nc(c(-c7cccc(S(=O)(=O)[O-])c7F)c7ccc4[nH]7)C=C6)C=C5)cc3)ccc2-c2ccc(F)cc2)cc1
REMARK SMILES IDX 19 1 18 2 17 3 15 4 16 5 14 6 13 7 12 8 11 9 91 10 89 11
REMARK SMILES IDX 90 12 10 13 7 14 8 15 100 16 9 17 99 18 4 19 5 20 6 21 2 22
REMARK SMILES IDX 1 23 3 24 92 25 93 26 98 27 94 28 97 29 95 30 96 31 20 32
REMARK SMILES IDX 21 33 22 34 23 35 24 36 25 37 26 38 27 39 88 40 28 41 87 42
REMARK SMILES IDX 29 43 30 44 31 45 81 46 32 47 86 48 80 49 82 50 33 51 85 52
REMARK SMILES IDX 79 53 78 54 34 56 66 57 46 58 65 59 47 60 50 61 64 62 83 63
REMARK SMILES IDX 48 64 49 65 63 67 84 68 51 69 35 70 36 71 44 72 37 73 39 74
REMARK SMILES IDX 45 75 38 76 40 77 41 78 42 79 43 80 67 81 68 82 76 83 69 84
REMARK SMILES IDX 71 85 77 86 70 87 72 88 73 89 74 90 75 91 52 92 53 93 61 94
REMARK SMILES IDX 54 95 56 96 62 97 55 98 57 99 58 100 59 101 60 102
REMARK H PARENT 82 55 50 66
REMARK Flexibility Score: inf
ROOT
ATOM      1  C   UNL     1      -0.361  -5.614  -1.075  1.00  0.00     0.202 C 
ENDROOT
BRANCH   1   2
ATOM      2  C   UNL     1      -0.303  -7.005  -2.113  1.00  0.00     0.261 C 
BRANCH   2   3
ATOM      3  O   UNL     1      -0.062  -8.326  -1.549  1.00  0.00    -0.463 OA
BRANCH   3   4
ATOM      4  C   UNL     1       1.052  -8.986  -1.971  1.00  0.00     0.306 C 
ATOM      5  O   UNL     1       1.544  -8.836  -3.087  1.00  0.00    -0.252 OA
BRANCH   4   6
ATOM      6  C   UNL     1       1.718  -9.880  -0.918  1.00  0.00     0.129 C 
BRANCH   6   7
ATOM      7  C   UNL     1       1.791  -9.457   0.559  1.00  0.00     0.066 C 
BRANCH   7   8
ATOM      8  C   UNL     1       0.462  -9.330   1.200  1.00  0.00     0.024 A 
ATOM      9  N   UNL     1      -0.339  -8.194   1.160  1.00  0.00    -0.314 N 
ATOM     10  C   UNL     1      -1.620  -8.586   1.614  1.00  0.00     0.053 A 
ATOM     11  C   UNL     1      -0.173 -10.277   1.981  1.00  0.00     0.024 A 
ATOM     12  C   UNL     1      -1.470  -9.813   2.241  1.00  0.00     0.029 A 
BRANCH   9  13
ATOM     13  C   UNL     1       0.035  -6.898   0.662  1.00  0.00     0.046 A 
ATOM     14  C   UNL     1       0.547  -3.570  -0.668  1.00  0.00     0.082 A 
ATOM     15  C   UNL     1      -0.795  -3.909   0.449  1.00  0.00     0.024 A 
ATOM     16  C   UNL     1       1.652  -4.900  -1.203  1.00  0.00     0.024 A 
ATOM     17  C   UNL     1      -1.050  -5.545   1.123  1.00  0.00     0.028 A 
ATOM     18  C   UNL     1       1.436  -6.571  -0.485  1.00  0.00     0.028 A 
BRANCH  14  19
ATOM     19  S   UNL     1       0.955  -1.921  -1.155  1.00  0.00     0.242 S 
ATOM     20  O   UNL     1       0.291  -1.687  -2.422  1.00  0.00    -0.207 OA
ATOM     21  O   UNL     1       2.400  -1.831  -1.060  1.00  0.00    -0.207 OA
BRANCH  19  22
ATOM     22  N   UNL     1       0.287  -0.827  -0.016  1.00  0.00    -0.204 NA
ATOM     23  C   UNL     1       1.032   0.455   0.073  1.00  0.00     0.124 C 
ATOM     24  C   UNL     1      -1.163  -0.550  -0.132  1.00  0.00     0.124 C 
ENDBRANCH  19  22
ENDBRANCH  14  19
ENDBRANCH   9  13
BRANCH  10  25
ATOM     25  C   UNL     1      -2.914  -7.908   1.402  1.00  0.00    -0.001 A 
ATOM     26  C   UNL     1      -3.756  -7.622   2.490  1.00  0.00     0.013 A 
ATOM     27  C   UNL     1      -3.360  -7.587   0.110  1.00  0.00     0.013 A 
ATOM     28  C   UNL     1      -4.977  -6.966   2.294  1.00  0.00     0.040 A 
ATOM     29  C   UNL     1      -4.572  -6.916  -0.085  1.00  0.00     0.040 A 
ATOM     30  C   UNL     1      -5.365  -6.604   1.011  1.00  0.00     0.123 A 
ATOM     31  F   UNL     1      -6.522  -5.955   0.822  1.00  0.00    -0.207 F 
ENDBRANCH  10  25
ENDBRANCH   7   8
ENDBRANCH   6   7
ENDBRANCH   4   6
ENDBRANCH   3   4
ENDBRANCH   2   3
ENDBRANCH   1   2
BRANCH   1  32
ATOM     32  O   UNL     1       0.734  -5.117   0.523  1.00  0.00    -0.374 OA
BRANCH  32  33
ATOM     33  C   UNL     1       2.167  -4.920   1.115  1.00  0.00     0.202 C 
BRANCH  33  34
ATOM     34  C   UNL     1       2.269  -5.263   2.604  1.00  0.00     0.261 C 
BRANCH  34  35
ATOM     35  O   UNL     1       1.049  -5.172   3.296  1.00  0.00    -0.460 OA
BRANCH  35  36
ATOM     36  C   UNL     1       0.550  -3.919   3.349  1.00  0.00     0.338 C 
ATOM     37  O   UNL     1       0.979  -2.911   2.838  1.00  0.00    -0.246 OA
BRANCH  36  38
ATOM     38  C   UNL     1      -0.609  -3.955   4.237  1.00  0.00     0.060 A 
ATOM     39  C   UNL     1      -1.573  -2.952   4.100  1.00  0.00     0.016 A 
ATOM     40  C   UNL     1      -0.621  -4.870   5.289  1.00  0.00     0.016 A 
ATOM     41  C   UNL     1      -2.504  -2.786   5.102  1.00  0.00     0.010 A 
ATOM     42  C   UNL     1      -1.507  -4.662   6.309  1.00  0.00     0.010 A 
ATOM     43  C   UNL     1      -2.419  -3.610   6.226  1.00  0.00    -0.014 A 
BRANCH  43  44
ATOM     44  C   UNL     1      -3.401  -3.480   7.301  1.00  0.00     0.031 A 
ATOM     45  C   UNL     1      -4.558  -4.495   7.060  1.00  0.00     0.074 A 
ATOM     46  C   UNL     1      -3.058  -2.546   8.253  1.00  0.00     0.049 A 
ATOM     47  N   UNL     1      -5.744  -4.550   7.575  1.00  0.00    -0.248 NA
ATOM     48  C   UNL     1      -4.407  -5.592   6.046  1.00  0.00     0.031 C 
ATOM     49  C   UNL     1      -1.785  -1.767   8.284  1.00  0.00     0.029 A 
ATOM     50  N   UNL     1      -3.663  -2.058   9.392  1.00  0.00    -0.354 N 
ATOM     51  C   UNL     1      -6.297  -5.816   7.240  1.00  0.00     0.074 A 
ATOM     52  C   UNL     1      -5.504  -6.338   6.182  1.00  0.00     0.031 C 
ATOM     53  C   UNL     1      -1.780  -0.852   9.284  1.00  0.00     0.029 A 
ATOM     54  C   UNL     1      -3.005  -0.971  10.050  1.00  0.00     0.049 A 
ATOM     55  H   UNL     1      -4.503  -2.438   9.735  1.00  0.00     0.167 HD
ATOM     56  C   UNL     1      -7.250  -6.416   8.015  1.00  0.00     0.034 A 
ATOM     57  C   UNL     1      -3.448  -0.230  11.122  1.00  0.00     0.034 A 
ATOM     58  C   UNL     1      -7.606  -5.507   9.053  1.00  0.00     0.049 A 
ATOM     59  C   UNL     1      -4.543  -1.040  11.655  1.00  0.00     0.074 A 
ATOM     60  C   UNL     1      -8.280  -4.316   9.015  1.00  0.00     0.029 A 
ATOM     61  N   UNL     1      -6.828  -5.586  10.186  1.00  0.00    -0.354 N 
ATOM     62  N   UNL     1      -4.364  -2.156  12.297  1.00  0.00    -0.248 NA
ATOM     63  C   UNL     1      -5.923  -0.671  11.330  1.00  0.00     0.031 C 
ATOM     64  C   UNL     1      -7.480  -3.509   9.842  1.00  0.00     0.029 A 
ATOM     65  C   UNL     1      -6.621  -4.305  10.614  1.00  0.00     0.049 A 
ATOM     66  H   UNL     1      -6.487  -6.407  10.608  1.00  0.00     0.167 HD
ATOM     67  C   UNL     1      -5.554  -2.788  12.067  1.00  0.00     0.074 A 
ATOM     68  C   UNL     1      -6.532  -1.742  11.828  1.00  0.00     0.031 C 
ATOM     69  C   UNL     1      -5.552  -4.043  11.538  1.00  0.00     0.034 A 
BRANCH  56  70
ATOM     70  C   UNL     1      -7.749  -7.832   8.187  1.00  0.00     0.023 A 
ATOM     71  C   UNL     1      -8.860  -7.966   9.072  1.00  0.00     0.012 A 
ATOM     72  C   UNL     1      -7.048  -9.002   7.858  1.00  0.00     0.148 A 
ATOM     73  C   UNL     1      -9.137  -9.146   9.754  1.00  0.00     0.002 A 
ATOM     74  C   UNL     1      -7.377 -10.205   8.493  1.00  0.00     0.091 A 
ATOM     75  F   UNL     1      -6.030  -8.942   6.994  1.00  0.00    -0.205 F 
ATOM     76  C   UNL     1      -8.376 -10.263   9.479  1.00  0.00     0.022 A 
BRANCH  74  77
ATOM     77  S   UNL     1      -6.562 -11.763   8.128  1.00  0.00     0.127 S 
ATOM     78  O   UNL     1      -5.808 -12.008   9.354  1.00  0.00    -0.237 OA
ATOM     79  O   UNL     1      -7.706 -12.656   7.931  1.00  0.00    -0.237 OA
ATOM     80  O   UNL     1      -5.778 -11.526   6.923  1.00  0.00    -0.744 OA
ENDBRANCH  74  77
ENDBRANCH  56  70
BRANCH  57  81
ATOM     81  C   UNL     1      -3.200   1.080  11.854  1.00  0.00     0.023 A 
ATOM     82  C   UNL     1      -2.089   1.913  11.680  1.00  0.00     0.012 A 
ATOM     83  C   UNL     1      -4.234   1.609  12.701  1.00  0.00     0.148 A 
ATOM     84  C   UNL     1      -2.068   3.222  12.225  1.00  0.00     0.002 A 
ATOM     85  C   UNL     1      -4.281   2.939  13.102  1.00  0.00     0.091 A 
ATOM     86  F   UNL     1      -5.187   0.800  13.174  1.00  0.00    -0.205 F 
ATOM     87  C   UNL     1      -3.183   3.756  12.880  1.00  0.00     0.022 A 
BRANCH  85  88
ATOM     88  S   UNL     1      -5.801   3.683  13.741  1.00  0.00     0.127 S 
ATOM     89  O   UNL     1      -5.349   4.312  14.980  1.00  0.00    -0.237 OA
ATOM     90  O   UNL     1      -6.141   4.616  12.666  1.00  0.00    -0.237 OA
ATOM     91  O   UNL     1      -6.753   2.593  13.913  1.00  0.00    -0.744 OA
ENDBRANCH  85  88
ENDBRANCH  57  81
BRANCH  69  92
ATOM     92  C   UNL     1      -4.302  -4.888  11.827  1.00  0.00     0.023 A 
ATOM     93  C   UNL     1      -3.977  -5.026  13.196  1.00  0.00     0.012 A 
ATOM     94  C   UNL     1      -3.392  -5.460  10.895  1.00  0.00     0.148 A 
ATOM     95  C   UNL     1      -2.810  -5.656  13.634  1.00  0.00     0.002 A 
ATOM     96  C   UNL     1      -2.211  -6.089  11.341  1.00  0.00     0.091 A 
ATOM     97  F   UNL     1      -3.670  -5.391   9.589  1.00  0.00    -0.205 F 
ATOM     98  C   UNL     1      -1.927  -6.183  12.709  1.00  0.00     0.022 A 
BRANCH  96  99
ATOM     99  S   UNL     1      -0.929  -6.796  10.280  1.00  0.00     0.127 S 
ATOM    100  O   UNL     1       0.262  -6.040  10.674  1.00  0.00    -0.237 OA
ATOM    101  O   UNL     1      -0.912  -8.196  10.697  1.00  0.00    -0.237 OA
ATOM    102  O   UNL     1      -1.365  -6.568   8.914  1.00  0.00    -0.744 OA
ENDBRANCH  96  99
ENDBRANCH  69  92
ENDBRANCH  43  44
ENDBRANCH  36  38
ENDBRANCH  35  36
ENDBRANCH  34  35
ENDBRANCH  33  34
ENDBRANCH  32  33
ENDBRANCH   1  32
TORSDOF 23
