REMARK SMILES COCCNS(=O)(=O)c1c[nH]c(C(=O)OCCOCCOC(=O)c2ccc(-c3c4nc(c(-c5cccc(S(=O)(=O)[O-])c5F)c5ccc([nH]5)c(-c5cccc(S(=O)(=O)[O-])c5F)c5nc(c(-c6cccc(S(=O)(=O)[O-])c6F)c6ccc3[nH]6)C=C5)C=C4)cc2)c1
REMARK SMILES IDX 17 1 16 2 15 3 13 4 14 5 12 6 9 7 10 8 87 9 11 10 6 12 7 13
REMARK SMILES IDX 8 14 5 15 4 17 3 18 2 19 1 20 18 21 19 22 20 23 21 24 22 25
REMARK SMILES IDX 23 26 24 27 25 28 86 29 26 30 85 31 27 32 28 33 29 34 79 35
REMARK SMILES IDX 30 36 84 37 78 38 80 39 31 40 83 41 77 42 76 43 32 45 64 46
REMARK SMILES IDX 44 47 63 48 45 49 48 50 62 51 81 52 46 53 47 54 61 56 82 57
REMARK SMILES IDX 49 58 33 59 34 60 42 61 35 62 37 63 43 64 36 65 38 66 39 67
REMARK SMILES IDX 40 68 41 69 65 70 66 71 74 72 67 73 69 74 75 75 68 76 70 77
REMARK SMILES IDX 71 78 72 79 73 80 50 81 51 82 59 83 52 84 54 85 60 86 53 87
REMARK SMILES IDX 55 88 56 89 57 90 58 91
REMARK H PARENT 11 11 5 16 80 44 48 55
REMARK Flexibility Score: inf
ROOT
ATOM      1  C   UNL     1      -0.500  10.688   3.267  1.00  0.00     0.202 C 
ENDROOT
BRANCH   1   2
ATOM      2  C   UNL     1      -0.740  10.021   1.910  1.00  0.00     0.261 C 
BRANCH   2   3
ATOM      3  O   UNL     1      -0.549   8.601   1.972  1.00  0.00    -0.459 OA
BRANCH   3   4
ATOM      4  C   UNL     1       0.649   8.165   1.506  1.00  0.00     0.354 C 
ATOM      5  O   UNL     1       1.479   8.838   0.909  1.00  0.00    -0.244 OA
BRANCH   4   6
ATOM      6  C   UNL     1       0.896   6.819   1.960  1.00  0.00     0.126 A 
ATOM      7  C   UNL     1       0.847   4.659   2.604  1.00  0.00     0.100 A 
ATOM      8  C   UNL     1       2.167   5.054   2.546  1.00  0.00     0.104 A 
ATOM      9  C   UNL     1       0.041   5.791   2.317  1.00  0.00     0.057 A 
ATOM     10  N   UNL     1       2.183   6.362   2.157  1.00  0.00    -0.354 N 
ATOM     11  H   UNL     1       2.997   6.902   2.034  1.00  0.00     0.166 HD
BRANCH   7  12
ATOM     12  S   UNL     1       0.293   3.041   2.807  1.00  0.00     0.242 S 
ATOM     13  O   UNL     1      -1.142   3.097   2.736  1.00  0.00    -0.207 OA
ATOM     14  O   UNL     1       1.023   2.519   3.943  1.00  0.00    -0.207 OA
BRANCH  12  15
ATOM     15  N   UNL     1       0.840   2.186   1.443  1.00  0.00    -0.209 NA
ATOM     16  H   UNL     1       1.854   2.282   1.393  1.00  0.00     0.141 HD
BRANCH  15  17
ATOM     17  C   UNL     1       0.269   2.642   0.149  1.00  0.00     0.127 C 
BRANCH  17  18
ATOM     18  C   UNL     1       0.948   1.940  -1.033  1.00  0.00     0.176 C 
BRANCH  18  19
ATOM     19  O   UNL     1       0.436   0.633  -1.304  1.00  0.00    -0.383 OA
ATOM     20  C   UNL     1       0.898  -0.372  -0.415  1.00  0.00     0.194 C 
ENDBRANCH  18  19
ENDBRANCH  17  18
ENDBRANCH  15  17
ENDBRANCH  12  15
ENDBRANCH   7  12
ENDBRANCH   4   6
ENDBRANCH   3   4
ENDBRANCH   2   3
ENDBRANCH   1   2
BRANCH   1  21
ATOM     21  O   UNL     1       0.834  10.640   3.777  1.00  0.00    -0.374 OA
BRANCH  21  22
ATOM     22  C   UNL     1       1.269   9.453   4.429  1.00  0.00     0.202 C 
BRANCH  22  23
ATOM     23  C   UNL     1       0.730   9.088   5.809  1.00  0.00     0.261 C 
BRANCH  23  24
ATOM     24  O   UNL     1      -0.685   9.015   5.908  1.00  0.00    -0.460 OA
BRANCH  24  25
ATOM     25  C   UNL     1      -1.204  10.173   6.379  1.00  0.00     0.338 C 
ATOM     26  O   UNL     1      -0.771  11.299   6.179  1.00  0.00    -0.246 OA
BRANCH  25  27
ATOM     27  C   UNL     1      -2.263   9.916   7.350  1.00  0.00     0.060 A 
ATOM     28  C   UNL     1      -3.065  11.007   7.698  1.00  0.00     0.016 A 
ATOM     29  C   UNL     1      -2.278   8.726   8.081  1.00  0.00     0.016 A 
ATOM     30  C   UNL     1      -3.817  10.944   8.853  1.00  0.00     0.010 A 
ATOM     31  C   UNL     1      -3.008   8.678   9.254  1.00  0.00     0.010 A 
ATOM     32  C   UNL     1      -3.766   9.788   9.644  1.00  0.00    -0.014 A 
BRANCH  32  33
ATOM     33  C   UNL     1      -4.798   9.655  10.690  1.00  0.00     0.031 A 
ATOM     34  C   UNL     1      -6.107   9.117  10.005  1.00  0.00     0.074 A 
ATOM     35  C   UNL     1      -4.440  10.074  11.955  1.00  0.00     0.049 A 
ATOM     36  N   UNL     1      -7.352   9.217  10.357  1.00  0.00    -0.248 NA
ATOM     37  C   UNL     1      -6.027   8.425   8.671  1.00  0.00     0.031 C 
ATOM     38  C   UNL     1      -3.058  10.403  12.399  1.00  0.00     0.029 A 
ATOM     39  N   UNL     1      -5.127  10.297  13.138  1.00  0.00    -0.354 N 
ATOM     40  C   UNL     1      -8.104   8.350   9.513  1.00  0.00     0.074 A 
ATOM     41  C   UNL     1      -7.273   8.032   8.405  1.00  0.00     0.031 C 
ATOM     42  C   UNL     1      -3.035  10.873  13.675  1.00  0.00     0.029 A 
ATOM     43  C   UNL     1      -4.381  10.876  14.222  1.00  0.00     0.049 A 
ATOM     44  H   UNL     1      -6.080  10.070  13.231  1.00  0.00     0.167 HD
ATOM     45  C   UNL     1      -9.293   7.801   9.899  1.00  0.00     0.034 A 
ATOM     46  C   UNL     1      -4.843  11.330  15.444  1.00  0.00     0.034 A 
ATOM     47  C   UNL     1      -9.652   8.359  11.157  1.00  0.00     0.049 A 
ATOM     48  C   UNL     1      -6.188  10.761  15.509  1.00  0.00     0.074 A 
ATOM     49  C   UNL     1     -10.112   9.601  11.495  1.00  0.00     0.029 A 
ATOM     50  N   UNL     1      -9.109   7.729  12.251  1.00  0.00    -0.354 N 
ATOM     51  N   UNL     1      -6.425   9.499  15.709  1.00  0.00    -0.248 NA
ATOM     52  C   UNL     1      -7.333  11.611  15.177  1.00  0.00     0.031 C 
ATOM     53  C   UNL     1      -9.370   9.880  12.655  1.00  0.00     0.029 A 
ATOM     54  C   UNL     1      -8.787   8.706  13.152  1.00  0.00     0.049 A 
ATOM     55  H   UNL     1      -8.977   6.760  12.365  1.00  0.00     0.167 HD
ATOM     56  C   UNL     1      -7.653   9.361  15.123  1.00  0.00     0.074 A 
ATOM     57  C   UNL     1      -8.273  10.671  15.167  1.00  0.00     0.031 C 
ATOM     58  C   UNL     1      -7.855   8.385  14.198  1.00  0.00     0.034 A 
BRANCH  45  59
ATOM     59  C   UNL     1     -10.112   6.612   9.456  1.00  0.00     0.023 A 
ATOM     60  C   UNL     1     -11.405   6.526  10.053  1.00  0.00     0.012 A 
ATOM     61  C   UNL     1      -9.609   5.456   8.841  1.00  0.00     0.148 A 
ATOM     62  C   UNL     1     -12.079   5.319  10.208  1.00  0.00     0.002 A 
ATOM     63  C   UNL     1     -10.324   4.257   8.940  1.00  0.00     0.091 A 
ATOM     64  F   UNL     1      -8.418   5.498   8.235  1.00  0.00    -0.205 F 
ATOM     65  C   UNL     1     -11.523   4.177   9.668  1.00  0.00     0.022 A 
BRANCH  63  66
ATOM     66  S   UNL     1      -9.784   2.721   8.181  1.00  0.00     0.127 S 
ATOM     67  O   UNL     1      -9.482   1.895   9.348  1.00  0.00    -0.237 OA
ATOM     68  O   UNL     1     -10.987   2.317   7.449  1.00  0.00    -0.237 OA
ATOM     69  O   UNL     1      -8.657   3.072   7.330  1.00  0.00    -0.744 OA
ENDBRANCH  63  66
ENDBRANCH  45  59
BRANCH  46  70
ATOM     70  C   UNL     1      -4.455  12.173  16.668  1.00  0.00     0.023 A 
ATOM     71  C   UNL     1      -3.152  12.546  17.019  1.00  0.00     0.012 A 
ATOM     72  C   UNL     1      -5.486  12.725  17.514  1.00  0.00     0.148 A 
ATOM     73  C   UNL     1      -2.909  13.475  18.069  1.00  0.00     0.002 A 
ATOM     74  C   UNL     1      -5.259  13.733  18.451  1.00  0.00     0.091 A 
ATOM     75  F   UNL     1      -6.728  12.237  17.457  1.00  0.00    -0.205 F 
ATOM     76  C   UNL     1      -3.957  14.107  18.745  1.00  0.00     0.022 A 
BRANCH  74  77
ATOM     77  S   UNL     1      -6.614  14.677  19.198  1.00  0.00     0.127 S 
ATOM     78  O   UNL     1      -6.286  14.634  20.622  1.00  0.00    -0.237 OA
ATOM     79  O   UNL     1      -6.438  15.987  18.570  1.00  0.00    -0.237 OA
ATOM     80  O   UNL     1      -7.847  13.992  18.833  1.00  0.00    -0.744 OA
ENDBRANCH  74  77
ENDBRANCH  46  70
BRANCH  58  81
ATOM     81  C   UNL     1      -6.895   7.189  14.269  1.00  0.00     0.023 A 
ATOM     82  C   UNL     1      -6.891   6.470  15.482  1.00  0.00     0.012 A 
ATOM     83  C   UNL     1      -5.945   6.793  13.290  1.00  0.00     0.148 A 
ATOM     84  C   UNL     1      -5.989   5.431  15.732  1.00  0.00     0.002 A 
ATOM     85  C   UNL     1      -5.019   5.768  13.553  1.00  0.00     0.091 A 
ATOM     86  F   UNL     1      -5.954   7.397  12.100  1.00  0.00    -0.205 F 
ATOM     87  C   UNL     1      -5.050   5.084  14.773  1.00  0.00     0.022 A 
BRANCH  85  88
ATOM     88  S   UNL     1      -3.682   5.277  12.440  1.00  0.00     0.127 S 
ATOM     89  O   UNL     1      -2.501   5.355  13.304  1.00  0.00    -0.237 OA
ATOM     90  O   UNL     1      -4.062   3.915  12.073  1.00  0.00    -0.237 OA
ATOM     91  O   UNL     1      -3.688   6.242  11.352  1.00  0.00    -0.744 OA
ENDBRANCH  85  88
ENDBRANCH  58  81
ENDBRANCH  32  33
ENDBRANCH  25  27
ENDBRANCH  24  25
ENDBRANCH  23  24
ENDBRANCH  22  23
ENDBRANCH  21  22
ENDBRANCH   1  21
TORSDOF 22
