REMARK SMILES C[NH2+][C@]1(C(=O)OCCOCCOC(=O)c2ccc(-c3c4nc(c(-c5cccc(S(=O)(=O)[O-])c5F)c5ccc([nH]5)c(-c5cccc(S(=O)(=O)[O-])c5F)c5nc(c(-c6cccc(S(=O)(=O)[O-])c6F)c6ccc3[nH]6)C=C5)C=C4)cc2)CCC[C@@H]1CCn1nc(C)c(Cl)c1C
REMARK SMILES IDX 9 1 8 2 7 3 6 4 4 5 5 6 3 7 78 8 81 9 79 10 80 11 2 12 1 13
REMARK SMILES IDX 82 16 83 17 84 18 85 19 90 20 86 21 88 22 91 23 87 24 89 25
REMARK SMILES IDX 10 26 11 27 12 28 13 29 14 30 15 31 16 32 77 33 17 34 76 35
REMARK SMILES IDX 18 36 19 37 20 38 70 39 21 40 75 41 69 42 71 43 22 44 74 45
REMARK SMILES IDX 68 46 67 47 23 49 55 50 35 51 54 52 36 53 39 54 53 55 72 56
REMARK SMILES IDX 37 57 38 58 52 60 73 61 40 62 24 63 25 64 33 65 26 66 28 67
REMARK SMILES IDX 34 68 27 69 29 70 30 71 31 72 32 73 56 74 57 75 65 76 58 77
REMARK SMILES IDX 60 78 66 79 59 80 61 81 62 82 63 83 64 84 41 85 42 86 50 87
REMARK SMILES IDX 43 88 45 89 51 90 44 91 46 92 47 93 48 94 49 95
REMARK H PARENT 2 14 2 15 71 48 39 59
REMARK Flexibility Score: inf
ROOT
ATOM      1  O   UNL     1       3.025   1.807  -0.516  1.00  0.00    -0.374 OA
ENDROOT
BRANCH   1   2
ATOM      2  C   UNL     1       3.304   1.039  -1.688  1.00  0.00     0.202 C 
BRANCH   2   3
ATOM      3  C   UNL     1       2.542  -0.278  -1.863  1.00  0.00     0.261 C 
BRANCH   3   4
ATOM      4  O   UNL     1       1.127  -0.058  -1.951  1.00  0.00    -0.459 OA
BRANCH   4   5
ATOM      5  C   UNL     1       0.413  -0.447  -0.862  1.00  0.00     0.368 C 
ATOM      6  O   UNL     1       0.882  -1.028   0.113  1.00  0.00    -0.245 OA
BRANCH   5   7
ATOM      7  C   UNL     1      -1.091  -0.090  -0.987  1.00  0.00     0.197 C 
ATOM      8  C   UNL     1      -1.455   1.161  -1.817  1.00  0.00     0.081 C 
ATOM      9  C   UNL     1      -1.750  -1.169  -1.886  1.00  0.00     0.064 C 
ATOM     10  C   UNL     1      -2.905   0.934  -2.261  1.00  0.00     0.008 C 
ATOM     11  C   UNL     1      -3.129  -0.581  -2.208  1.00  0.00     0.011 C 
BRANCH   7  12
ATOM     12  N   UNL     1      -1.733  -0.045   0.365  1.00  0.00    -0.334 N 
ATOM     13  C   UNL     1      -1.179   0.986   1.244  1.00  0.00     0.331 C 
ATOM     14  H   UNL     1      -2.729   0.137   0.243  1.00  0.00     0.347 HD
ATOM     15  H   UNL     1      -1.555  -0.945   0.811  1.00  0.00     0.347 HD
ENDBRANCH   7  12
BRANCH   9  16
ATOM     16  C   UNL     1      -1.773  -2.596  -1.317  1.00  0.00     0.034 C 
BRANCH  16  17
ATOM     17  C   UNL     1      -1.855  -3.694  -2.385  1.00  0.00     0.145 C 
BRANCH  17  18
ATOM     18  N   UNL     1      -0.753  -3.680  -3.336  1.00  0.00    -0.268 N 
ATOM     19  N   UNL     1       0.425  -4.228  -2.959  1.00  0.00    -0.176 NA
ATOM     20  C   UNL     1      -0.724  -3.148  -4.602  1.00  0.00     0.054 A 
ATOM     21  C   UNL     1       1.218  -4.070  -4.031  1.00  0.00     0.078 A 
ATOM     22  C   UNL     1       0.558  -3.366  -5.061  1.00  0.00     0.084 A 
ATOM     23  C   UNL     1      -1.857  -2.470  -5.280  1.00  0.00     0.068 C 
ATOM     24  C   UNL     1       2.600  -4.610  -4.024  1.00  0.00     0.070 C 
ATOM     25  Cl  UNL     1       1.217  -2.889  -6.550  1.00  0.00    -0.080 Cl
ENDBRANCH  17  18
ENDBRANCH  16  17
ENDBRANCH   9  16
ENDBRANCH   5   7
ENDBRANCH   4   5
ENDBRANCH   3   4
ENDBRANCH   2   3
ENDBRANCH   1   2
BRANCH   1  26
ATOM     26  C   UNL     1       1.811   2.556  -0.487  1.00  0.00     0.202 C 
BRANCH  26  27
ATOM     27  C   UNL     1       1.750   3.852  -1.303  1.00  0.00     0.261 C 
BRANCH  27  28
ATOM     28  O   UNL     1       1.927   3.623  -2.709  1.00  0.00    -0.460 OA
BRANCH  28  29
ATOM     29  C   UNL     1       3.097   4.087  -3.207  1.00  0.00     0.338 C 
ATOM     30  O   UNL     1       3.938   4.752  -2.614  1.00  0.00    -0.246 OA
BRANCH  29  31
ATOM     31  C   UNL     1       3.341   3.521  -4.544  1.00  0.00     0.060 A 
ATOM     32  C   UNL     1       4.565   2.869  -4.747  1.00  0.00     0.016 A 
ATOM     33  C   UNL     1       2.434   3.679  -5.593  1.00  0.00     0.016 A 
ATOM     34  C   UNL     1       4.915   2.427  -6.019  1.00  0.00     0.010 A 
ATOM     35  C   UNL     1       2.792   3.243  -6.873  1.00  0.00     0.010 A 
ATOM     36  C   UNL     1       4.051   2.655  -7.096  1.00  0.00    -0.014 A 
BRANCH  36  37
ATOM     37  C   UNL     1       4.545   2.429  -8.474  1.00  0.00     0.031 A 
ATOM     38  C   UNL     1       5.066   3.603  -9.257  1.00  0.00     0.074 A 
ATOM     39  C   UNL     1       4.551   1.195  -9.007  1.00  0.00     0.049 A 
ATOM     40  N   UNL     1       5.557   3.637 -10.468  1.00  0.00    -0.248 NA
ATOM     41  C   UNL     1       5.027   4.913  -8.586  1.00  0.00     0.031 C 
ATOM     42  C   UNL     1       4.074  -0.015  -8.340  1.00  0.00     0.029 A 
ATOM     43  N   UNL     1       4.960   0.763 -10.243  1.00  0.00    -0.354 N 
ATOM     44  C   UNL     1       5.864   4.971 -10.713  1.00  0.00     0.074 A 
ATOM     45  C   UNL     1       5.492   5.717  -9.532  1.00  0.00     0.031 C 
ATOM     46  C   UNL     1       4.192  -1.053  -9.187  1.00  0.00     0.029 A 
ATOM     47  C   UNL     1       4.737  -0.576 -10.457  1.00  0.00     0.049 A 
ATOM     48  H   UNL     1       5.373   1.355 -10.912  1.00  0.00     0.167 HD
ATOM     49  C   UNL     1       6.422   5.521 -11.817  1.00  0.00     0.034 A 
ATOM     50  C   UNL     1       4.936  -1.325 -11.560  1.00  0.00     0.034 A 
ATOM     51  C   UNL     1       6.808   4.773 -12.981  1.00  0.00     0.049 A 
ATOM     52  C   UNL     1       5.544  -0.684 -12.781  1.00  0.00     0.074 A 
ATOM     53  C   UNL     1       7.423   5.230 -14.133  1.00  0.00     0.029 A 
ATOM     54  N   UNL     1       6.608   3.411 -13.146  1.00  0.00    -0.354 N 
ATOM     55  N   UNL     1       5.945   0.553 -12.953  1.00  0.00    -0.248 NA
ATOM     56  C   UNL     1       5.759  -1.550 -13.950  1.00  0.00     0.031 C 
ATOM     57  C   UNL     1       7.574   4.146 -15.005  1.00  0.00     0.029 A 
ATOM     58  C   UNL     1       7.075   3.011 -14.386  1.00  0.00     0.049 A 
ATOM     59  H   UNL     1       6.194   2.816 -12.480  1.00  0.00     0.167 HD
ATOM     60  C   UNL     1       6.489   0.606 -14.232  1.00  0.00     0.074 A 
ATOM     61  C   UNL     1       6.385  -0.730 -14.784  1.00  0.00     0.031 C 
ATOM     62  C   UNL     1       7.013   1.665 -14.897  1.00  0.00     0.034 A 
BRANCH  49  63
ATOM     63  C   UNL     1       6.674   7.005 -11.804  1.00  0.00     0.023 A 
ATOM     64  C   UNL     1       7.730   7.524 -11.027  1.00  0.00     0.012 A 
ATOM     65  C   UNL     1       5.902   7.879 -12.594  1.00  0.00     0.148 A 
ATOM     66  C   UNL     1       7.997   8.893 -11.015  1.00  0.00     0.002 A 
ATOM     67  C   UNL     1       6.199   9.237 -12.608  1.00  0.00     0.091 A 
ATOM     68  F   UNL     1       4.886   7.369 -13.304  1.00  0.00    -0.205 F 
ATOM     69  C   UNL     1       7.239   9.747 -11.812  1.00  0.00     0.022 A 
BRANCH  67  70
ATOM     70  S   UNL     1       5.325  10.406 -13.655  1.00  0.00     0.127 S 
ATOM     71  O   UNL     1       4.524  11.138 -12.675  1.00  0.00    -0.237 OA
ATOM     72  O   UNL     1       6.423  11.176 -14.242  1.00  0.00    -0.237 OA
ATOM     73  O   UNL     1       4.571   9.604 -14.607  1.00  0.00    -0.744 OA
ENDBRANCH  67  70
ENDBRANCH  49  63
BRANCH  50  74
ATOM     74  C   UNL     1       4.593  -2.775 -11.544  1.00  0.00     0.023 A 
ATOM     75  C   UNL     1       5.624  -3.733 -11.582  1.00  0.00     0.012 A 
ATOM     76  C   UNL     1       3.254  -3.207 -11.468  1.00  0.00     0.148 A 
ATOM     77  C   UNL     1       5.327  -5.097 -11.572  1.00  0.00     0.002 A 
ATOM     78  C   UNL     1       2.968  -4.566 -11.405  1.00  0.00     0.091 A 
ATOM     79  F   UNL     1       2.287  -2.280 -11.453  1.00  0.00    -0.205 F 
ATOM     80  C   UNL     1       4.002  -5.513 -11.472  1.00  0.00     0.022 A 
BRANCH  78  81
ATOM     81  S   UNL     1       1.301  -5.189 -11.156  1.00  0.00     0.127 S 
ATOM     82  O   UNL     1       0.999  -5.763 -12.465  1.00  0.00    -0.237 OA
ATOM     83  O   UNL     1       1.500  -6.167 -10.086  1.00  0.00    -0.237 OA
ATOM     84  O   UNL     1       0.502  -4.033 -10.773  1.00  0.00    -0.744 OA
ENDBRANCH  78  81
ENDBRANCH  50  74
BRANCH  62  85
ATOM     85  C   UNL     1       7.544   1.428 -16.287  1.00  0.00     0.023 A 
ATOM     86  C   UNL     1       6.645   1.229 -17.353  1.00  0.00     0.012 A 
ATOM     87  C   UNL     1       8.927   1.487 -16.550  1.00  0.00     0.148 A 
ATOM     88  C   UNL     1       7.116   1.063 -18.655  1.00  0.00     0.002 A 
ATOM     89  C   UNL     1       9.386   1.368 -17.856  1.00  0.00     0.091 A 
ATOM     90  F   UNL     1       9.768   1.659 -15.519  1.00  0.00    -0.205 F 
ATOM     91  C   UNL     1       8.483   1.145 -18.908  1.00  0.00     0.022 A 
BRANCH  89  92
ATOM     92  S   UNL     1      11.121   1.556 -18.286  1.00  0.00     0.127 S 
ATOM     93  O   UNL     1      11.514   0.174 -18.552  1.00  0.00    -0.237 OA
ATOM     94  O   UNL     1      11.057   2.411 -19.472  1.00  0.00    -0.237 OA
ATOM     95  O   UNL     1      11.753   2.177 -17.130  1.00  0.00    -0.744 OA
ENDBRANCH  89  92
ENDBRANCH  62  85
ENDBRANCH  36  37
ENDBRANCH  29  31
ENDBRANCH  28  29
ENDBRANCH  27  28
ENDBRANCH  26  27
ENDBRANCH   1  26
TORSDOF 21
