REMARK SMILES C=Cc1cccc(-c2ccc([C@@H](C)C(=O)OCCOCCOC(=O)c3ccc(-c4c5nc(c(-c6cccc(S(=O)(=O)[O-])c6F)c6ccc([nH]6)c(-c6cccc(S(=O)(=O)[O-])c6F)c6nc(c(-c7cccc(S(=O)(=O)[O-])c7F)c7ccc4[nH]7)C=C6)C=C5)cc3)cc2)c1
REMARK SMILES IDX 19 1 18 2 17 3 16 4 14 5 15 6 12 7 13 8 11 9 8 10 9 11 89 12
REMARK SMILES IDX 10 13 88 14 7 15 3 16 4 17 90 18 5 19 6 20 2 21 1 22 20 23
REMARK SMILES IDX 21 24 22 25 23 26 24 27 25 28 26 29 87 30 27 31 86 32 28 33
REMARK SMILES IDX 29 34 30 35 80 36 31 37 85 38 79 39 81 40 32 41 84 42 78 43
REMARK SMILES IDX 77 44 33 46 65 47 45 48 64 49 46 50 49 51 63 52 82 53 47 54
REMARK SMILES IDX 48 55 62 57 83 58 50 59 34 60 35 61 43 62 36 63 38 64 44 65
REMARK SMILES IDX 37 66 39 67 40 68 41 69 42 70 66 71 67 72 75 73 68 74 70 75
REMARK SMILES IDX 76 76 69 77 71 78 72 79 73 80 74 81 51 82 52 83 60 84 53 85
REMARK SMILES IDX 55 86 61 87 54 88 56 89 57 90 58 91 59 92
REMARK H PARENT 81 45 49 56
REMARK Flexibility Score: inf
ROOT
ATOM      1  O   UNL     1      -3.791   0.407  -7.452  1.00  0.00    -0.374 OA
ENDROOT
BRANCH   1   2
ATOM      2  C   UNL     1      -4.895   1.277  -7.186  1.00  0.00     0.202 C 
BRANCH   2   3
ATOM      3  C   UNL     1      -6.275   0.614  -7.143  1.00  0.00     0.261 C 
BRANCH   3   4
ATOM      4  O   UNL     1      -6.405  -0.238  -5.991  1.00  0.00    -0.463 OA
BRANCH   4   5
ATOM      5  C   UNL     1      -6.577  -1.562  -6.236  1.00  0.00     0.313 C 
ATOM      6  O   UNL     1      -6.749  -2.047  -7.351  1.00  0.00    -0.252 OA
BRANCH   5   7
ATOM      7  C   UNL     1      -6.566  -2.424  -4.983  1.00  0.00     0.126 C 
ATOM      8  C   UNL     1      -8.002  -2.670  -4.525  1.00  0.00     0.025 C 
BRANCH   7   9
ATOM      9  C   UNL     1      -5.660  -1.993  -3.833  1.00  0.00    -0.034 A 
ATOM     10  C   UNL     1      -4.055  -1.373  -1.559  1.00  0.00    -0.018 A 
ATOM     11  C   UNL     1      -5.121  -0.546  -1.946  1.00  0.00     0.009 A 
ATOM     12  C   UNL     1      -3.778  -2.491  -2.357  1.00  0.00     0.009 A 
ATOM     13  C   UNL     1      -5.912  -0.850  -3.063  1.00  0.00     0.005 A 
ATOM     14  C   UNL     1      -4.566  -2.797  -3.474  1.00  0.00     0.005 A 
BRANCH  10  15
ATOM     15  C   UNL     1      -3.294  -1.116  -0.322  1.00  0.00    -0.018 A 
ATOM     16  C   UNL     1      -1.170  -0.801   0.864  1.00  0.00    -0.026 A 
ATOM     17  C   UNL     1      -1.865  -0.721   2.075  1.00  0.00     0.008 A 
ATOM     18  C   UNL     1      -1.891  -1.010  -0.324  1.00  0.00     0.016 A 
ATOM     19  C   UNL     1      -3.255  -0.817   2.099  1.00  0.00     0.001 A 
ATOM     20  C   UNL     1      -3.961  -1.010   0.911  1.00  0.00     0.009 A 
BRANCH  16  21
ATOM     21  C   UNL     1       0.296  -0.716   0.890  1.00  0.00     0.000 C 
ATOM     22  C   UNL     1       1.024  -0.041  -0.008  1.00  0.00     0.009 C 
ENDBRANCH  16  21
ENDBRANCH  10  15
ENDBRANCH   7   9
ENDBRANCH   5   7
ENDBRANCH   4   5
ENDBRANCH   3   4
ENDBRANCH   2   3
ENDBRANCH   1   2
BRANCH   1  23
ATOM     23  C   UNL     1      -3.340  -0.414  -6.375  1.00  0.00     0.202 C 
BRANCH  23  24
ATOM     24  C   UNL     1      -2.456   0.264  -5.322  1.00  0.00     0.261 C 
BRANCH  24  25
ATOM     25  O   UNL     1      -3.145   1.313  -4.622  1.00  0.00    -0.460 OA
BRANCH  25  26
ATOM     26  C   UNL     1      -2.677   2.558  -4.869  1.00  0.00     0.338 C 
ATOM     27  O   UNL     1      -1.692   2.857  -5.535  1.00  0.00    -0.246 OA
BRANCH  26  28
ATOM     28  C   UNL     1      -3.619   3.574  -4.366  1.00  0.00     0.060 A 
ATOM     29  C   UNL     1      -4.017   4.572  -5.264  1.00  0.00     0.016 A 
ATOM     30  C   UNL     1      -4.047   3.607  -3.036  1.00  0.00     0.016 A 
ATOM     31  C   UNL     1      -4.790   5.641  -4.822  1.00  0.00     0.010 A 
ATOM     32  C   UNL     1      -4.824   4.687  -2.593  1.00  0.00     0.010 A 
ATOM     33  C   UNL     1      -5.164   5.729  -3.474  1.00  0.00    -0.014 A 
BRANCH  33  34
ATOM     34  C   UNL     1      -5.810   6.976  -2.994  1.00  0.00     0.031 A 
ATOM     35  C   UNL     1      -4.987   8.012  -2.275  1.00  0.00     0.074 A 
ATOM     36  C   UNL     1      -7.110   7.213  -3.249  1.00  0.00     0.049 A 
ATOM     37  N   UNL     1      -5.332   9.209  -1.877  1.00  0.00    -0.248 NA
ATOM     38  C   UNL     1      -3.594   7.654  -1.966  1.00  0.00     0.031 C 
ATOM     39  C   UNL     1      -8.018   6.285  -3.921  1.00  0.00     0.029 A 
ATOM     40  N   UNL     1      -7.891   8.305  -2.967  1.00  0.00    -0.354 N 
ATOM     41  C   UNL     1      -4.207   9.743  -1.260  1.00  0.00     0.074 A 
ATOM     42  C   UNL     1      -3.175   8.730  -1.316  1.00  0.00     0.031 C 
ATOM     43  C   UNL     1      -9.239   6.844  -3.989  1.00  0.00     0.029 A 
ATOM     44  C   UNL     1      -9.200   8.163  -3.361  1.00  0.00     0.049 A 
ATOM     45  H   UNL     1      -7.546   9.114  -2.524  1.00  0.00     0.167 HD
ATOM     46  C   UNL     1      -4.039  10.973  -0.717  1.00  0.00     0.034 A 
ATOM     47  C   UNL     1     -10.248   9.001  -3.230  1.00  0.00     0.034 A 
ATOM     48  C   UNL     1      -5.056  11.989  -0.680  1.00  0.00     0.049 A 
ATOM     49  C   UNL     1     -10.035  10.362  -2.621  1.00  0.00     0.074 A 
ATOM     50  C   UNL     1      -4.959  13.287  -0.208  1.00  0.00     0.029 A 
ATOM     51  N   UNL     1      -6.361  11.821  -1.117  1.00  0.00    -0.354 N 
ATOM     52  N   UNL     1      -8.925  10.907  -2.184  1.00  0.00    -0.248 NA
ATOM     53  C   UNL     1     -11.211  11.239  -2.525  1.00  0.00     0.031 C 
ATOM     54  C   UNL     1      -6.213  13.896  -0.338  1.00  0.00     0.029 A 
ATOM     55  C   UNL     1      -7.085  12.984  -0.910  1.00  0.00     0.049 A 
ATOM     56  H   UNL     1      -6.720  10.996  -1.516  1.00  0.00     0.167 HD
ATOM     57  C   UNL     1      -9.263  12.197  -1.787  1.00  0.00     0.074 A 
ATOM     58  C   UNL     1     -10.676  12.361  -2.063  1.00  0.00     0.031 C 
ATOM     59  C   UNL     1      -8.480  13.152  -1.228  1.00  0.00     0.034 A 
BRANCH  46  60
ATOM     60  C   UNL     1      -2.683  11.306  -0.151  1.00  0.00     0.023 A 
ATOM     61  C   UNL     1      -1.609  11.561  -1.028  1.00  0.00     0.012 A 
ATOM     62  C   UNL     1      -2.486  11.426   1.238  1.00  0.00     0.148 A 
ATOM     63  C   UNL     1      -0.352  11.902  -0.530  1.00  0.00     0.002 A 
ATOM     64  C   UNL     1      -1.240  11.805   1.725  1.00  0.00     0.091 A 
ATOM     65  F   UNL     1      -3.513  11.156   2.056  1.00  0.00    -0.205 F 
ATOM     66  C   UNL     1      -0.170  12.034   0.844  1.00  0.00     0.022 A 
BRANCH  64  67
ATOM     67  S   UNL     1      -0.927  12.072   3.474  1.00  0.00     0.127 S 
ATOM     68  O   UNL     1      -0.124  10.898   3.813  1.00  0.00    -0.237 OA
ATOM     69  O   UNL     1      -0.186  13.335   3.467  1.00  0.00    -0.237 OA
ATOM     70  O   UNL     1      -2.236  12.142   4.108  1.00  0.00    -0.744 OA
ENDBRANCH  64  67
ENDBRANCH  46  60
BRANCH  47  71
ATOM     71  C   UNL     1     -11.588   8.591  -3.736  1.00  0.00     0.023 A 
ATOM     72  C   UNL     1     -12.133   9.229  -4.867  1.00  0.00     0.012 A 
ATOM     73  C   UNL     1     -12.312   7.553  -3.118  1.00  0.00     0.148 A 
ATOM     74  C   UNL     1     -13.385   8.858  -5.358  1.00  0.00     0.002 A 
ATOM     75  C   UNL     1     -13.533   7.150  -3.646  1.00  0.00     0.091 A 
ATOM     76  F   UNL     1     -11.787   6.973  -2.029  1.00  0.00    -0.205 F 
ATOM     77  C   UNL     1     -14.079   7.811  -4.756  1.00  0.00     0.022 A 
BRANCH  75  78
ATOM     78  S   UNL     1     -14.425   5.724  -3.015  1.00  0.00     0.127 S 
ATOM     79  O   UNL     1     -15.545   6.354  -2.322  1.00  0.00    -0.237 OA
ATOM     80  O   UNL     1     -14.779   5.019  -4.247  1.00  0.00    -0.237 OA
ATOM     81  O   UNL     1     -13.475   5.011  -2.171  1.00  0.00    -0.744 OA
ENDBRANCH  75  78
ENDBRANCH  47  71
BRANCH  59  82
ATOM     82  C   UNL     1      -9.125  14.471  -0.883  1.00  0.00     0.023 A 
ATOM     83  C   UNL     1     -10.011  14.546   0.210  1.00  0.00     0.012 A 
ATOM     84  C   UNL     1      -8.810  15.643  -1.598  1.00  0.00     0.148 A 
ATOM     85  C   UNL     1     -10.602  15.759   0.564  1.00  0.00     0.002 A 
ATOM     86  C   UNL     1      -9.367  16.858  -1.211  1.00  0.00     0.091 A 
ATOM     87  F   UNL     1      -7.981  15.552  -2.648  1.00  0.00    -0.205 F 
ATOM     88  C   UNL     1     -10.272  16.916  -0.139  1.00  0.00     0.022 A 
BRANCH  86  89
ATOM     89  S   UNL     1      -8.927  18.410  -2.002  1.00  0.00     0.127 S 
ATOM     90  O   UNL     1     -10.093  18.655  -2.848  1.00  0.00    -0.237 OA
ATOM     91  O   UNL     1      -8.798  19.319  -0.863  1.00  0.00    -0.237 OA
ATOM     92  O   UNL     1      -7.679  18.154  -2.710  1.00  0.00    -0.744 OA
ENDBRANCH  86  89
ENDBRANCH  59  82
ENDBRANCH  33  34
ENDBRANCH  26  28
ENDBRANCH  25  26
ENDBRANCH  24  25
ENDBRANCH  23  24
ENDBRANCH   1  23
TORSDOF 20
