REMARK SMILES CN(C(=O)C[C@@H]1SC(=O)N(c2ccccc2)C1=O)c1ccccc1C(=O)OCCOCCOC(=O)c1ccc(-c2c3nc(c(-c4cccc(S(=O)(=O)[O-])c4F)c4ccc([nH]4)c(-c4cccc(S(=O)(=O)[O-])c4F)c4nc(c(-c5cccc(S(=O)(=O)[O-])c5F)c5ccc2[nH]5)C=C4)C=C3)cc1
REMARK SMILES IDX 29 1 28 2 27 3 25 4 26 5 24 6 19 7 20 8 21 9 23 10 22 11
REMARK SMILES IDX 2 12 1 13 3 14 4 15 5 16 6 17 7 18 17 19 8 20 10 21 18 22
REMARK SMILES IDX 9 23 11 24 12 25 16 26 13 27 15 28 14 29 30 30 31 31 32 32
REMARK SMILES IDX 33 33 34 34 35 35 36 36 37 37 98 38 38 39 97 40 39 41 40 42
REMARK SMILES IDX 41 43 91 44 42 45 96 46 90 47 92 48 43 49 95 50 89 51 88 52
REMARK SMILES IDX 44 54 76 55 56 56 75 57 57 58 60 59 74 60 93 61 58 62 59 63
REMARK SMILES IDX 73 65 94 66 61 67 45 68 46 69 54 70 47 71 49 72 55 73 48 74
REMARK SMILES IDX 50 75 51 76 52 77 53 78 77 79 78 80 86 81 79 82 81 83 87 84
REMARK SMILES IDX 80 85 82 86 83 87 84 88 85 89 62 90 63 91 71 92 64 93 66 94
REMARK SMILES IDX 72 95 65 96 67 97 68 98 69 99 70 100
REMARK H PARENT 92 53 60 64
REMARK Flexibility Score: inf
ROOT
ATOM      1  C   UNL     1       4.920  -0.981  -0.254  1.00  0.00     0.202 C 
ENDROOT
BRANCH   1   2
ATOM      2  C   UNL     1       4.035   0.081   0.401  1.00  0.00     0.261 C 
BRANCH   2   3
ATOM      3  O   UNL     1       3.045   0.596  -0.511  1.00  0.00    -0.460 OA
BRANCH   3   4
ATOM      4  C   UNL     1       2.927   1.943  -0.536  1.00  0.00     0.340 C 
ATOM      5  O   UNL     1       3.545   2.738   0.158  1.00  0.00    -0.246 OA
BRANCH   4   6
ATOM      6  C   UNL     1       2.069   2.405  -1.652  1.00  0.00     0.083 A 
ATOM      7  C   UNL     1       0.786   1.925  -1.961  1.00  0.00     0.058 A 
ATOM      8  C   UNL     1       0.105   2.478  -3.064  1.00  0.00     0.027 A 
ATOM      9  C   UNL     1       0.681   3.479  -3.846  1.00  0.00     0.002 A 
ATOM     10  C   UNL     1       2.649   3.400  -2.462  1.00  0.00     0.018 A 
ATOM     11  C   UNL     1       1.959   3.933  -3.551  1.00  0.00     0.001 A 
BRANCH   7  12
ATOM     12  N   UNL     1       0.099   0.927  -1.203  1.00  0.00    -0.315 N 
ATOM     13  C   UNL     1      -0.156   1.262   0.202  1.00  0.00     0.153 C 
BRANCH  12  14
ATOM     14  C   UNL     1      -0.355  -0.201  -1.878  1.00  0.00     0.228 C 
ATOM     15  O   UNL     1      -0.177  -0.378  -3.090  1.00  0.00    -0.274 OA
BRANCH  14  16
ATOM     16  C   UNL     1      -1.016  -1.317  -1.109  1.00  0.00     0.125 C 
BRANCH  16  17
ATOM     17  C   UNL     1       0.018  -2.405  -0.852  1.00  0.00     0.156 C 
ATOM     18  S   UNL     1      -0.877  -3.963  -0.670  1.00  0.00    -0.050 SA
ATOM     19  C   UNL     1       0.739  -2.210   0.465  1.00  0.00     0.248 C 
ATOM     20  C   UNL     1      -0.525  -4.048   1.041  1.00  0.00     0.293 C 
ATOM     21  N   UNL     1       0.530  -3.235   1.349  1.00  0.00    -0.240 N 
ATOM     22  O   UNL     1       1.343  -1.178   0.734  1.00  0.00    -0.273 OA
ATOM     23  O   UNL     1      -1.216  -4.726   1.783  1.00  0.00    -0.261 OA
BRANCH  21  24
ATOM     24  C   UNL     1       1.122  -3.194   2.638  1.00  0.00     0.053 A 
ATOM     25  C   UNL     1       0.325  -3.097   3.779  1.00  0.00     0.027 A 
ATOM     26  C   UNL     1       2.512  -3.367   2.785  1.00  0.00     0.027 A 
ATOM     27  C   UNL     1       0.894  -3.214   5.048  1.00  0.00     0.002 A 
ATOM     28  C   UNL     1       3.067  -3.557   4.056  1.00  0.00     0.002 A 
ATOM     29  C   UNL     1       2.255  -3.478   5.186  1.00  0.00     0.000 A 
ENDBRANCH  21  24
ENDBRANCH  16  17
ENDBRANCH  14  16
ENDBRANCH  12  14
ENDBRANCH   7  12
ENDBRANCH   4   6
ENDBRANCH   3   4
ENDBRANCH   2   3
ENDBRANCH   1   2
BRANCH   1  30
ATOM     30  O   UNL     1       5.692  -0.570  -1.383  1.00  0.00    -0.374 OA
BRANCH  30  31
ATOM     31  C   UNL     1       4.984  -0.252  -2.576  1.00  0.00     0.202 C 
BRANCH  31  32
ATOM     32  C   UNL     1       4.388  -1.404  -3.402  1.00  0.00     0.261 C 
BRANCH  32  33
ATOM     33  O   UNL     1       3.699  -2.422  -2.658  1.00  0.00    -0.460 OA
BRANCH  33  34
ATOM     34  C   UNL     1       4.446  -3.524  -2.382  1.00  0.00     0.338 C 
ATOM     35  O   UNL     1       5.622  -3.701  -2.650  1.00  0.00    -0.246 OA
BRANCH  34  36
ATOM     36  C   UNL     1       3.649  -4.491  -1.594  1.00  0.00     0.060 A 
ATOM     37  C   UNL     1       4.166  -4.979  -0.387  1.00  0.00     0.016 A 
ATOM     38  C   UNL     1       2.442  -4.986  -2.080  1.00  0.00     0.016 A 
ATOM     39  C   UNL     1       3.483  -5.973   0.335  1.00  0.00     0.010 A 
ATOM     40  C   UNL     1       1.763  -5.973  -1.353  1.00  0.00     0.010 A 
ATOM     41  C   UNL     1       2.277  -6.495  -0.145  1.00  0.00    -0.014 A 
BRANCH  41  42
ATOM     42  C   UNL     1       1.602  -7.686   0.469  1.00  0.00     0.031 A 
ATOM     43  C   UNL     1       1.560  -8.960  -0.325  1.00  0.00     0.074 A 
ATOM     44  C   UNL     1       0.977  -7.665   1.667  1.00  0.00     0.049 A 
ATOM     45  N   UNL     1       0.942 -10.076  -0.050  1.00  0.00    -0.248 NA
ATOM     46  C   UNL     1       2.340  -8.992  -1.574  1.00  0.00     0.031 C 
ATOM     47  C   UNL     1       1.030  -6.575   2.620  1.00  0.00     0.029 A 
ATOM     48  N   UNL     1       0.111  -8.556   2.263  1.00  0.00    -0.354 N 
ATOM     49  C   UNL     1       1.290 -10.952  -1.064  1.00  0.00     0.074 A 
ATOM     50  C   UNL     1       2.077 -10.208  -2.022  1.00  0.00     0.031 C 
ATOM     51  C   UNL     1       0.107  -6.754   3.579  1.00  0.00     0.029 A 
ATOM     52  C   UNL     1      -0.565  -8.020   3.345  1.00  0.00     0.049 A 
ATOM     53  H   UNL     1      -0.014  -9.482   1.951  1.00  0.00     0.167 HD
ATOM     54  C   UNL     1       1.053 -12.280  -1.146  1.00  0.00     0.034 A 
ATOM     55  C   UNL     1      -1.600  -8.490   4.073  1.00  0.00     0.034 A 
ATOM     56  C   UNL     1       0.281 -13.021  -0.190  1.00  0.00     0.049 A 
ATOM     57  C   UNL     1      -1.986  -9.931   3.872  1.00  0.00     0.074 A 
ATOM     58  C   UNL     1       0.017 -14.378  -0.166  1.00  0.00     0.029 A 
ATOM     59  N   UNL     1      -0.364 -12.465   0.903  1.00  0.00    -0.354 N 
ATOM     60  N   UNL     1      -1.532 -10.784   2.988  1.00  0.00    -0.248 NA
ATOM     61  C   UNL     1      -2.918 -10.516   4.848  1.00  0.00     0.031 C 
ATOM     62  C   UNL     1      -0.815 -14.638   0.928  1.00  0.00     0.029 A 
ATOM     63  C   UNL     1      -1.032 -13.451   1.608  1.00  0.00     0.049 A 
ATOM     64  H   UNL     1      -0.349 -11.511   1.143  1.00  0.00     0.167 HD
ATOM     65  C   UNL     1      -2.025 -12.024   3.371  1.00  0.00     0.074 A 
ATOM     66  C   UNL     1      -2.841 -11.805   4.547  1.00  0.00     0.031 C 
ATOM     67  C   UNL     1      -1.791 -13.235   2.812  1.00  0.00     0.034 A 
BRANCH  54  68
ATOM     68  C   UNL     1       1.712 -13.010  -2.280  1.00  0.00     0.023 A 
ATOM     69  C   UNL     1       3.114 -13.174  -2.271  1.00  0.00     0.012 A 
ATOM     70  C   UNL     1       0.957 -13.534  -3.342  1.00  0.00     0.148 A 
ATOM     71  C   UNL     1       3.761 -13.810  -3.327  1.00  0.00     0.002 A 
ATOM     72  C   UNL     1       1.603 -14.210  -4.367  1.00  0.00     0.091 A 
ATOM     73  F   UNL     1      -0.370 -13.349  -3.334  1.00  0.00    -0.205 F 
ATOM     74  C   UNL     1       3.004 -14.335  -4.371  1.00  0.00     0.022 A 
BRANCH  72  75
ATOM     75  S   UNL     1       0.721 -14.981  -5.726  1.00  0.00     0.127 S 
ATOM     76  O   UNL     1       1.240 -14.239  -6.875  1.00  0.00    -0.237 OA
ATOM     77  O   UNL     1       1.180 -16.367  -5.636  1.00  0.00    -0.237 OA
ATOM     78  O   UNL     1      -0.696 -14.783  -5.454  1.00  0.00    -0.744 OA
ENDBRANCH  72  75
ENDBRANCH  54  68
BRANCH  55  79
ATOM     79  C   UNL     1      -2.244  -7.680   5.155  1.00  0.00     0.023 A 
ATOM     80  C   UNL     1      -1.978  -7.997   6.503  1.00  0.00     0.012 A 
ATOM     81  C   UNL     1      -3.172  -6.656   4.867  1.00  0.00     0.148 A 
ATOM     82  C   UNL     1      -2.668  -7.363   7.539  1.00  0.00     0.002 A 
ATOM     83  C   UNL     1      -3.826  -5.997   5.908  1.00  0.00     0.091 A 
ATOM     84  F   UNL     1      -3.436  -6.375   3.584  1.00  0.00    -0.205 F 
ATOM     85  C   UNL     1      -3.591  -6.365   7.242  1.00  0.00     0.022 A 
BRANCH  83  86
ATOM     86  S   UNL     1      -4.977  -4.639   5.648  1.00  0.00     0.127 S 
ATOM     87  O   UNL     1      -6.254  -5.252   6.007  1.00  0.00    -0.237 OA
ATOM     88  O   UNL     1      -4.488  -3.641   6.602  1.00  0.00    -0.237 OA
ATOM     89  O   UNL     1      -4.833  -4.250   4.252  1.00  0.00    -0.744 OA
ENDBRANCH  83  86
ENDBRANCH  55  79
BRANCH  67  90
ATOM     90  C   UNL     1      -2.341 -14.446   3.515  1.00  0.00     0.023 A 
ATOM     91  C   UNL     1      -3.725 -14.699   3.528  1.00  0.00     0.012 A 
ATOM     92  C   UNL     1      -1.459 -15.373   4.107  1.00  0.00     0.148 A 
ATOM     93  C   UNL     1      -4.227 -15.839   4.154  1.00  0.00     0.002 A 
ATOM     94  C   UNL     1      -1.961 -16.535   4.674  1.00  0.00     0.091 A 
ATOM     95  F   UNL     1      -0.146 -15.100   4.104  1.00  0.00    -0.205 F 
ATOM     96  C   UNL     1      -3.346 -16.762   4.714  1.00  0.00     0.022 A 
BRANCH  94  97
ATOM     97  S   UNL     1      -0.894 -17.830   5.315  1.00  0.00     0.127 S 
ATOM     98  O   UNL     1      -1.119 -17.716   6.755  1.00  0.00    -0.237 OA
ATOM     99  O   UNL     1      -1.465 -19.029   4.701  1.00  0.00    -0.237 OA
ATOM    100  O   UNL     1       0.452 -17.504   4.865  1.00  0.00    -0.744 OA
ENDBRANCH  94  97
ENDBRANCH  67  90
ENDBRANCH  41  42
ENDBRANCH  34  36
ENDBRANCH  33  34
ENDBRANCH  32  33
ENDBRANCH  31  32
ENDBRANCH  30  31
ENDBRANCH   1  30
TORSDOF 22
