REMARK SMILES CN1C(=O)C[C@H](C(=O)OCCOCCOC(=O)c2ccc(-c3c4nc(c(-c5cccc(S(=O)(=O)[O-])c5F)c5ccc([nH]5)c(-c5cccc(S(=O)(=O)[O-])c5F)c5nc(c(-c6cccc(S(=O)(=O)[O-])c6F)c6ccc3[nH]6)C=C5)C=C4)cc2)c2cccc(Cl)c21
REMARK SMILES IDX 13 1 12 2 11 3 10 4 9 5 7 6 8 7 6 8 1 9 2 10 3 11 87 12 4 13
REMARK SMILES IDX 5 14 81 15 85 16 82 17 84 18 86 19 83 20 14 21 15 22 16 23
REMARK SMILES IDX 17 24 18 25 19 26 80 27 20 28 79 29 21 30 22 31 23 32 73 33
REMARK SMILES IDX 24 34 78 35 72 36 74 37 25 38 77 39 71 40 70 41 26 43 58 44
REMARK SMILES IDX 38 45 57 46 39 47 42 48 56 49 75 50 40 51 41 52 55 54 76 55
REMARK SMILES IDX 43 56 27 57 28 58 36 59 29 60 31 61 37 62 30 63 32 64 33 65
REMARK SMILES IDX 34 66 35 67 59 68 60 69 68 70 61 71 63 72 69 73 62 74 64 75
REMARK SMILES IDX 65 76 66 77 67 78 44 79 45 80 53 81 46 82 48 83 54 84 47 85
REMARK SMILES IDX 49 86 50 87 51 88 52 89
REMARK H PARENT 74 42 42 53
REMARK Flexibility Score: inf
ROOT
ATOM      1  C   UNL     1      -2.758   3.949  -4.894  1.00  0.00     0.202 C 
ENDROOT
BRANCH   1   2
ATOM      2  O   UNL     1      -3.974   3.481  -5.478  1.00  0.00    -0.374 OA
BRANCH   2   3
ATOM      3  C   UNL     1      -4.825   2.690  -4.651  1.00  0.00     0.202 C 
BRANCH   3   4
ATOM      4  C   UNL     1      -4.467   1.206  -4.536  1.00  0.00     0.261 C 
BRANCH   4   5
ATOM      5  O   UNL     1      -3.229   0.996  -3.836  1.00  0.00    -0.463 OA
BRANCH   5   6
ATOM      6  C   UNL     1      -2.153   0.653  -4.595  1.00  0.00     0.314 C 
ATOM      7  O   UNL     1      -2.169   0.514  -5.813  1.00  0.00    -0.252 OA
BRANCH   6   8
ATOM      8  C   UNL     1      -0.909   0.400  -3.751  1.00  0.00     0.140 C 
ATOM      9  C   UNL     1       1.160  -0.111   0.005  1.00  0.00     0.153 C 
ATOM     10  N   UNL     1       0.428  -0.015  -1.246  1.00  0.00    -0.314 N 
ATOM     11  C   UNL     1       0.400   1.253  -1.817  1.00  0.00     0.227 C 
ATOM     12  C   UNL     1      -0.223  -1.159  -1.848  1.00  0.00     0.066 A 
ATOM     13  O   UNL     1       1.162   2.171  -1.505  1.00  0.00    -0.274 OA
ATOM     14  C   UNL     1      -0.721   1.527  -2.765  1.00  0.00     0.120 C 
ATOM     15  C   UNL     1      -0.906  -0.957  -3.076  1.00  0.00    -0.008 A 
ATOM     16  C   UNL     1      -0.190  -2.490  -1.348  1.00  0.00     0.065 A 
ATOM     17  C   UNL     1      -1.512  -2.040  -3.754  1.00  0.00     0.007 A 
ATOM     18  C   UNL     1      -0.839  -3.538  -2.026  1.00  0.00     0.023 A 
ATOM     19  Cl  UNL     1       0.674  -3.038   0.051  1.00  0.00    -0.082 Cl
ATOM     20  C   UNL     1      -1.498  -3.317  -3.223  1.00  0.00     0.002 A 
ENDBRANCH   6   8
ENDBRANCH   5   6
ENDBRANCH   4   5
ENDBRANCH   3   4
ENDBRANCH   2   3
ENDBRANCH   1   2
BRANCH   1  21
ATOM     21  C   UNL     1      -2.872   5.126  -3.920  1.00  0.00     0.261 C 
BRANCH  21  22
ATOM     22  O   UNL     1      -3.479   4.732  -2.674  1.00  0.00    -0.460 OA
BRANCH  22  23
ATOM     23  C   UNL     1      -4.683   5.290  -2.426  1.00  0.00     0.338 C 
ATOM     24  O   UNL     1      -5.271   6.120  -3.114  1.00  0.00    -0.246 OA
BRANCH  23  25
ATOM     25  C   UNL     1      -5.328   4.627  -1.282  1.00  0.00     0.060 A 
ATOM     26  C   UNL     1      -6.572   4.019  -1.502  1.00  0.00     0.016 A 
ATOM     27  C   UNL     1      -4.786   4.699   0.004  1.00  0.00     0.016 A 
ATOM     28  C   UNL     1      -7.306   3.530  -0.427  1.00  0.00     0.010 A 
ATOM     29  C   UNL     1      -5.537   4.224   1.085  1.00  0.00     0.010 A 
ATOM     30  C   UNL     1      -6.816   3.680   0.876  1.00  0.00    -0.014 A 
BRANCH  30  31
ATOM     31  C   UNL     1      -7.729   3.448   2.019  1.00  0.00     0.031 A 
ATOM     32  C   UNL     1      -8.507   4.613   2.567  1.00  0.00     0.074 A 
ATOM     33  C   UNL     1      -7.888   2.219   2.540  1.00  0.00     0.049 A 
ATOM     34  N   UNL     1      -9.365   4.642   3.551  1.00  0.00    -0.248 NA
ATOM     35  C   UNL     1      -8.298   5.917   1.912  1.00  0.00     0.031 C 
ATOM     36  C   UNL     1      -7.210   1.010   2.076  1.00  0.00     0.029 A 
ATOM     37  N   UNL     1      -8.667   1.791   3.585  1.00  0.00    -0.354 N 
ATOM     38  C   UNL     1      -9.789   5.962   3.643  1.00  0.00     0.074 A 
ATOM     39  C   UNL     1      -9.090   6.708   2.621  1.00  0.00     0.031 C 
ATOM     40  C   UNL     1      -7.591  -0.024   2.847  1.00  0.00     0.029 A 
ATOM     41  C   UNL     1      -8.525   0.454   3.865  1.00  0.00     0.049 A 
ATOM     42  H   UNL     1      -9.271   2.386   4.085  1.00  0.00     0.167 HD
ATOM     43  C   UNL     1     -10.695   6.501   4.490  1.00  0.00     0.034 A 
ATOM     44  C   UNL     1      -9.079  -0.295   4.839  1.00  0.00     0.034 A 
ATOM     45  C   UNL     1     -11.403   5.759   5.495  1.00  0.00     0.049 A 
ATOM     46  C   UNL     1     -10.046   0.339   5.803  1.00  0.00     0.074 A 
ATOM     47  C   UNL     1     -12.357   6.217   6.385  1.00  0.00     0.029 A 
ATOM     48  N   UNL     1     -11.230   4.408   5.747  1.00  0.00    -0.354 N 
ATOM     49  N   UNL     1     -10.497   1.569   5.825  1.00  0.00    -0.248 NA
ATOM     50  C   UNL     1     -10.597  -0.521   6.863  1.00  0.00     0.031 C 
ATOM     51  C   UNL     1     -12.757   5.142   7.183  1.00  0.00     0.029 A 
ATOM     52  C   UNL     1     -12.056   4.015   6.783  1.00  0.00     0.049 A 
ATOM     53  H   UNL     1     -10.611   3.817   5.261  1.00  0.00     0.167 HD
ATOM     54  C   UNL     1     -11.401   1.626   6.880  1.00  0.00     0.074 A 
ATOM     55  C   UNL     1     -11.442   0.304   7.469  1.00  0.00     0.031 C 
ATOM     56  C   UNL     1     -12.122   2.683   7.325  1.00  0.00     0.034 A 
BRANCH  43  57
ATOM     57  C   UNL     1     -11.013   7.960   4.341  1.00  0.00     0.023 A 
ATOM     58  C   UNL     1     -11.907   8.366   3.330  1.00  0.00     0.012 A 
ATOM     59  C   UNL     1     -10.505   8.911   5.246  1.00  0.00     0.148 A 
ATOM     60  C   UNL     1     -12.287   9.701   3.217  1.00  0.00     0.002 A 
ATOM     61  C   UNL     1     -10.909  10.237   5.143  1.00  0.00     0.091 A 
ATOM     62  F   UNL     1      -9.644   8.500   6.187  1.00  0.00    -0.205 F 
ATOM     63  C   UNL     1     -11.796  10.634   4.128  1.00  0.00     0.022 A 
BRANCH  61  64
ATOM     64  S   UNL     1     -10.377  11.509   6.294  1.00  0.00     0.127 S 
ATOM     65  O   UNL     1      -9.597  12.387   5.423  1.00  0.00    -0.237 OA
ATOM     66  O   UNL     1     -11.652  12.069   6.742  1.00  0.00    -0.237 OA
ATOM     67  O   UNL     1      -9.612  10.825   7.327  1.00  0.00    -0.744 OA
ENDBRANCH  61  64
ENDBRANCH  43  57
BRANCH  44  68
ATOM     68  C   UNL     1      -8.764  -1.747   4.915  1.00  0.00     0.023 A 
ATOM     69  C   UNL     1      -9.729  -2.683   4.498  1.00  0.00     0.012 A 
ATOM     70  C   UNL     1      -7.502  -2.199   5.346  1.00  0.00     0.148 A 
ATOM     71  C   UNL     1      -9.445  -4.049   4.516  1.00  0.00     0.002 A 
ATOM     72  C   UNL     1      -7.212  -3.558   5.325  1.00  0.00     0.091 A 
ATOM     73  F   UNL     1      -6.605  -1.287   5.745  1.00  0.00    -0.205 F 
ATOM     74  C   UNL     1      -8.186  -4.486   4.920  1.00  0.00     0.022 A 
BRANCH  72  75
ATOM     75  S   UNL     1      -5.590  -4.213   5.733  1.00  0.00     0.127 S 
ATOM     76  O   UNL     1      -5.882  -5.022   6.914  1.00  0.00    -0.237 OA
ATOM     77  O   UNL     1      -5.266  -4.976   4.527  1.00  0.00    -0.237 OA
ATOM     78  O   UNL     1      -4.740  -3.053   5.963  1.00  0.00    -0.744 OA
ENDBRANCH  72  75
ENDBRANCH  44  68
BRANCH  56  79
ATOM     79  C   UNL     1     -13.037   2.478   8.501  1.00  0.00     0.023 A 
ATOM     80  C   UNL     1     -12.497   2.481   9.801  1.00  0.00     0.012 A 
ATOM     81  C   UNL     1     -14.434   2.432   8.326  1.00  0.00     0.148 A 
ATOM     82  C   UNL     1     -13.336   2.438  10.913  1.00  0.00     0.002 A 
ATOM     83  C   UNL     1     -15.265   2.422   9.439  1.00  0.00     0.091 A 
ATOM     84  F   UNL     1     -14.919   2.424   7.076  1.00  0.00    -0.205 F 
ATOM     85  C   UNL     1     -14.718   2.421  10.733  1.00  0.00     0.022 A 
BRANCH  83  86
ATOM     86  S   UNL     1     -17.056   2.480   9.312  1.00  0.00     0.127 S 
ATOM     87  O   UNL     1     -17.434   1.167   9.835  1.00  0.00    -0.237 OA
ATOM     88  O   UNL     1     -17.391   3.604  10.187  1.00  0.00    -0.237 OA
ATOM     89  O   UNL     1     -17.356   2.695   7.903  1.00  0.00    -0.744 OA
ENDBRANCH  83  86
ENDBRANCH  56  79
ENDBRANCH  30  31
ENDBRANCH  23  25
ENDBRANCH  22  23
ENDBRANCH  21  22
ENDBRANCH   1  21
TORSDOF 17
