REMARK SMILES O=C(C[C@@H](NS(=O)(=O)c1ccc2c(c1)OCCO2)c1ccccc1)OCCOCCOC(=O)c1ccc(-c2c3nc(c(-c4cccc(S(=O)(=O)[O-])c4F)c4ccc([nH]4)c(-c4cccc(S(=O)(=O)[O-])c4F)c4nc(c(-c5cccc(S(=O)(=O)[O-])c5F)c5ccc2[nH]5)C=C4)C=C3)cc1
REMARK SMILES IDX 27 1 26 2 25 3 2 4 1 5 3 6 4 7 5 8 6 10 7 11 8 12 9 13 10 14
REMARK SMILES IDX 14 15 11 16 13 17 12 18 15 19 18 20 16 21 17 22 19 23 20 24
REMARK SMILES IDX 24 25 21 26 23 27 22 28 28 29 29 30 30 31 31 32 32 33 33 34
REMARK SMILES IDX 34 35 35 36 96 37 36 38 95 39 37 40 38 41 39 42 89 43 40 44
REMARK SMILES IDX 94 45 88 46 90 47 41 48 93 49 87 50 86 51 42 53 74 54 54 55
REMARK SMILES IDX 73 56 55 57 58 58 72 59 91 60 56 61 57 62 71 64 92 65 59 66
REMARK SMILES IDX 43 67 44 68 52 69 45 70 47 71 53 72 46 73 48 74 49 75 50 76
REMARK SMILES IDX 51 77 75 78 76 79 84 80 77 81 79 82 85 83 78 84 80 85 81 86
REMARK SMILES IDX 82 87 83 88 60 89 61 90 69 91 62 92 64 93 70 94 63 95 65 96
REMARK SMILES IDX 66 97 67 98 68 99
REMARK H PARENT 5 9 90 52 58 63
REMARK Flexibility Score: inf
ROOT
ATOM      1  C   UNL     1       4.570  -1.119  -0.073  1.00  0.00     0.202 C 
ENDROOT
BRANCH   1   2
ATOM      2  C   UNL     1       3.836  -0.545   1.147  1.00  0.00     0.261 C 
BRANCH   2   3
ATOM      3  O   UNL     1       3.222   0.764   1.002  1.00  0.00    -0.463 OA
BRANCH   3   4
ATOM      4  C   UNL     1       2.287   1.022   0.056  1.00  0.00     0.307 C 
ATOM      5  O   UNL     1       1.089   1.072   0.306  1.00  0.00    -0.252 OA
BRANCH   4   6
ATOM      6  C   UNL     1       2.842   1.365  -1.298  1.00  0.00     0.147 C 
BRANCH   6   7
ATOM      7  C   UNL     1       3.982   2.399  -1.322  1.00  0.00     0.111 C 
BRANCH   7   8
ATOM      8  N   UNL     1       5.036   2.101  -0.323  1.00  0.00    -0.203 NA
ATOM      9  H   UNL     1       5.598   1.342  -0.708  1.00  0.00     0.142 HD
BRANCH   8  10
ATOM     10  S   UNL     1       6.112   3.302   0.161  1.00  0.00     0.241 S 
ATOM     11  O   UNL     1       5.345   4.517   0.313  1.00  0.00    -0.207 OA
ATOM     12  O   UNL     1       6.866   2.733   1.256  1.00  0.00    -0.207 OA
BRANCH  10  13
ATOM     13  C   UNL     1       7.218   3.473  -1.200  1.00  0.00     0.086 A 
ATOM     14  C   UNL     1       7.877   2.352  -1.715  1.00  0.00     0.026 A 
ATOM     15  C   UNL     1       7.342   4.725  -1.800  1.00  0.00     0.072 A 
ATOM     16  C   UNL     1       8.623   2.480  -2.888  1.00  0.00     0.052 A 
ATOM     17  C   UNL     1       8.066   4.838  -2.977  1.00  0.00     0.162 A 
ATOM     18  C   UNL     1       8.708   3.720  -3.524  1.00  0.00     0.161 A 
ATOM     19  O   UNL     1       8.074   6.077  -3.563  1.00  0.00    -0.486 OA
ATOM     20  O   UNL     1       9.403   3.761  -4.706  1.00  0.00    -0.486 OA
ATOM     21  C   UNL     1       8.418   5.979  -4.946  1.00  0.00     0.271 C 
ATOM     22  C   UNL     1       9.649   5.106  -5.128  1.00  0.00     0.271 C 
ENDBRANCH  10  13
ENDBRANCH   8  10
ENDBRANCH   7   8
BRANCH   7  23
ATOM     23  C   UNL     1       4.545   2.411  -2.739  1.00  0.00    -0.029 A 
ATOM     24  C   UNL     1       5.117   1.254  -3.306  1.00  0.00     0.005 A 
ATOM     25  C   UNL     1       4.515   3.582  -3.504  1.00  0.00     0.005 A 
ATOM     26  C   UNL     1       5.644   1.269  -4.596  1.00  0.00     0.000 A 
ATOM     27  C   UNL     1       5.052   3.597  -4.794  1.00  0.00     0.000 A 
ATOM     28  C   UNL     1       5.617   2.444  -5.338  1.00  0.00     0.000 A 
ENDBRANCH   7  23
ENDBRANCH   6   7
ENDBRANCH   4   6
ENDBRANCH   3   4
ENDBRANCH   2   3
ENDBRANCH   1   2
BRANCH   1  29
ATOM     29  O   UNL     1       3.781  -1.555  -1.177  1.00  0.00    -0.374 OA
BRANCH  29  30
ATOM     30  C   UNL     1       2.594  -2.301  -0.924  1.00  0.00     0.202 C 
BRANCH  30  31
ATOM     31  C   UNL     1       2.822  -3.778  -0.622  1.00  0.00     0.261 C 
BRANCH  31  32
ATOM     32  O   UNL     1       3.327  -3.937   0.711  1.00  0.00    -0.460 OA
BRANCH  32  33
ATOM     33  C   UNL     1       4.633  -4.277   0.806  1.00  0.00     0.338 C 
ATOM     34  O   UNL     1       5.404  -4.502  -0.111  1.00  0.00    -0.246 OA
BRANCH  33  35
ATOM     35  C   UNL     1       5.052  -4.151   2.215  1.00  0.00     0.060 A 
ATOM     36  C   UNL     1       6.317  -3.611   2.478  1.00  0.00     0.016 A 
ATOM     37  C   UNL     1       4.229  -4.583   3.259  1.00  0.00     0.016 A 
ATOM     38  C   UNL     1       6.788  -3.558   3.787  1.00  0.00     0.010 A 
ATOM     39  C   UNL     1       4.702  -4.531   4.569  1.00  0.00     0.010 A 
ATOM     40  C   UNL     1       6.000  -4.061   4.829  1.00  0.00    -0.014 A 
BRANCH  40  41
ATOM     41  C   UNL     1       6.600  -4.263   6.165  1.00  0.00     0.031 A 
ATOM     42  C   UNL     1       7.094  -5.636   6.526  1.00  0.00     0.074 A 
ATOM     43  C   UNL     1       6.700  -3.241   7.032  1.00  0.00     0.049 A 
ATOM     44  N   UNL     1       7.645  -6.053   7.635  1.00  0.00    -0.248 NA
ATOM     45  C   UNL     1       6.941  -6.683   5.500  1.00  0.00     0.031 C 
ATOM     46  C   UNL     1       6.242  -1.875   6.785  1.00  0.00     0.029 A 
ATOM     47  N   UNL     1       7.200  -3.206   8.307  1.00  0.00    -0.354 N 
ATOM     48  C   UNL     1       7.894  -7.407   7.446  1.00  0.00     0.074 A 
ATOM     49  C   UNL     1       7.409  -7.751   6.128  1.00  0.00     0.031 C 
ATOM     50  C   UNL     1       6.455  -1.139   7.889  1.00  0.00     0.029 A 
ATOM     51  C   UNL     1       7.052  -1.985   8.920  1.00  0.00     0.049 A 
ATOM     52  H   UNL     1       7.624  -3.981   8.742  1.00  0.00     0.167 HD
ATOM     53  C   UNL     1       8.496  -8.280   8.287  1.00  0.00     0.034 A 
ATOM     54  C   UNL     1       7.354  -1.605  10.177  1.00  0.00     0.034 A 
ATOM     55  C   UNL     1       8.983  -7.926   9.591  1.00  0.00     0.049 A 
ATOM     56  C   UNL     1       8.011  -2.600  11.098  1.00  0.00     0.074 A 
ATOM     57  C   UNL     1       9.628  -8.725  10.517  1.00  0.00     0.029 A 
ATOM     58  N   UNL     1       8.871  -6.665  10.157  1.00  0.00    -0.354 N 
ATOM     59  N   UNL     1       8.348  -3.847  10.864  1.00  0.00    -0.248 NA
ATOM     60  C   UNL     1       8.367  -2.126  12.443  1.00  0.00     0.031 C 
ATOM     61  C   UNL     1       9.895  -7.949  11.650  1.00  0.00     0.029 A 
ATOM     62  C   UNL     1       9.434  -6.662  11.420  1.00  0.00     0.049 A 
ATOM     63  H   UNL     1       8.453  -5.887   9.723  1.00  0.00     0.167 HD
ATOM     64  C   UNL     1       8.987  -4.293  12.016  1.00  0.00     0.074 A 
ATOM     65  C   UNL     1       9.009  -3.176  12.938  1.00  0.00     0.031 C 
ATOM     66  C   UNL     1       9.495  -5.520  12.296  1.00  0.00     0.034 A 
BRANCH  53  67
ATOM     67  C   UNL     1       8.698  -9.689   7.796  1.00  0.00     0.023 A 
ATOM     68  C   UNL     1       9.676  -9.944   6.813  1.00  0.00     0.012 A 
ATOM     69  C   UNL     1       7.957 -10.761   8.329  1.00  0.00     0.148 A 
ATOM     70  C   UNL     1       9.894 -11.239   6.345  1.00  0.00     0.002 A 
ATOM     71  C   UNL     1       8.208 -12.056   7.886  1.00  0.00     0.091 A 
ATOM     72  F   UNL     1       7.014 -10.496   9.243  1.00  0.00    -0.205 F 
ATOM     73  C   UNL     1       9.167 -12.295   6.888  1.00  0.00     0.022 A 
BRANCH  71  74
ATOM     74  S   UNL     1       7.374 -13.492   8.570  1.00  0.00     0.127 S 
ATOM     75  O   UNL     1       6.514 -13.891   7.456  1.00  0.00    -0.237 OA
ATOM     76  O   UNL     1       8.491 -14.400   8.833  1.00  0.00    -0.237 OA
ATOM     77  O   UNL     1       6.678 -13.025   9.760  1.00  0.00    -0.744 OA
ENDBRANCH  71  74
ENDBRANCH  53  67
BRANCH  54  78
ATOM     78  C   UNL     1       7.079  -0.210  10.623  1.00  0.00     0.023 A 
ATOM     79  C   UNL     1       8.154   0.665  10.874  1.00  0.00     0.012 A 
ATOM     80  C   UNL     1       5.761   0.257  10.787  1.00  0.00     0.148 A 
ATOM     81  C   UNL     1       7.921   1.969  11.314  1.00  0.00     0.002 A 
ATOM     82  C   UNL     1       5.535   1.574  11.174  1.00  0.00     0.091 A 
ATOM     83  F   UNL     1       4.751  -0.595  10.563  1.00  0.00    -0.205 F 
ATOM     84  C   UNL     1       6.613   2.426  11.454  1.00  0.00     0.022 A 
BRANCH  82  85
ATOM     85  S   UNL     1       3.883   2.274  11.258  1.00  0.00     0.127 S 
ATOM     86  O   UNL     1       3.644   2.307  12.698  1.00  0.00    -0.237 OA
ATOM     87  O   UNL     1       4.074   3.585  10.635  1.00  0.00    -0.237 OA
ATOM     88  O   UNL     1       3.039   1.367  10.492  1.00  0.00    -0.744 OA
ENDBRANCH  82  85
ENDBRANCH  54  78
BRANCH  66  89
ATOM     89  C   UNL     1      10.149  -5.710  13.639  1.00  0.00     0.023 A 
ATOM     90  C   UNL     1       9.353  -5.784  14.799  1.00  0.00     0.012 A 
ATOM     91  C   UNL     1      11.542  -5.888  13.742  1.00  0.00     0.148 A 
ATOM     92  C   UNL     1       9.939  -5.997  16.047  1.00  0.00     0.002 A 
ATOM     93  C   UNL     1      12.114  -6.147  14.982  1.00  0.00     0.091 A 
ATOM     94  F   UNL     1      12.284  -5.795  12.628  1.00  0.00    -0.205 F 
ATOM     95  C   UNL     1      11.316  -6.189  16.136  1.00  0.00     0.022 A 
BRANCH  93  96
ATOM     96  S   UNL     1      13.864  -6.503  15.174  1.00  0.00     0.127 S 
ATOM     97  O   UNL     1      14.364  -5.248  15.732  1.00  0.00    -0.237 OA
ATOM     98  O   UNL     1      13.853  -7.627  16.112  1.00  0.00    -0.237 OA
ATOM     99  O   UNL     1      14.351  -6.837  13.842  1.00  0.00    -0.744 OA
ENDBRANCH  93  96
ENDBRANCH  66  89
ENDBRANCH  40  41
ENDBRANCH  33  35
ENDBRANCH  32  33
ENDBRANCH  31  32
ENDBRANCH  30  31
ENDBRANCH  29  30
ENDBRANCH   1  29
TORSDOF 22
