REMARK SMILES Cc1ccc(OCCNc2ccc(Cl)cc2C(=O)OCCOCCOC(=O)c2ccc(-c3c4nc(c(-c5cccc(S(=O)(=O)[O-])c5F)c5ccc([nH]5)c(-c5cccc(S(=O)(=O)[O-])c5F)c5nc(c(-c6cccc(S(=O)(=O)[O-])c6F)c6ccc3[nH]6)C=C5)C=C4)cc2)cc1C
REMARK SMILES IDX 21 1 20 2 19 3 17 4 18 5 16 6 10 7 11 8 12 9 15 10 13 11
REMARK SMILES IDX 14 12 9 13 8 15 7 16 6 17 5 18 1 19 2 20 3 21 92 22 4 23
REMARK SMILES IDX 91 24 93 25 22 26 23 27 24 28 25 29 26 30 27 31 28 32 29 33
REMARK SMILES IDX 90 34 30 35 89 36 31 37 32 38 33 39 83 40 34 41 88 42 82 43
REMARK SMILES IDX 84 44 35 45 87 46 81 47 80 48 36 50 68 51 48 52 67 53 49 54
REMARK SMILES IDX 52 55 66 56 85 57 50 58 51 59 65 61 86 62 53 63 37 64 38 65
REMARK SMILES IDX 46 66 39 67 41 68 47 69 40 70 42 71 43 72 44 73 45 74 69 75
REMARK SMILES IDX 70 76 78 77 71 78 73 79 79 80 72 81 74 82 75 83 76 84 77 85
REMARK SMILES IDX 54 86 55 87 63 88 56 89 58 90 64 91 57 92 59 93 60 94 61 95
REMARK SMILES IDX 62 96
REMARK H PARENT 9 14 84 49 52 60
REMARK Flexibility Score: inf
ROOT
ATOM      1  C   UNL     1      -0.722   2.272  -2.979  1.00  0.00     0.202 C 
ENDROOT
BRANCH   1   2
ATOM      2  C   UNL     1      -0.592   2.562  -1.482  1.00  0.00     0.261 C 
BRANCH   2   3
ATOM      3  O   UNL     1      -1.859   2.599  -0.793  1.00  0.00    -0.460 OA
BRANCH   3   4
ATOM      4  C   UNL     1      -1.858   3.384   0.316  1.00  0.00     0.340 C 
ATOM      5  O   UNL     1      -0.889   3.960   0.796  1.00  0.00    -0.246 OA
BRANCH   4   6
ATOM      6  C   UNL     1      -3.229   3.696   0.770  1.00  0.00     0.084 A 
ATOM      7  C   UNL     1      -4.075   2.787   1.437  1.00  0.00     0.049 A 
ATOM      8  C   UNL     1      -5.287   3.280   1.948  1.00  0.00     0.028 A 
ATOM      9  C   UNL     1      -5.649   4.623   1.801  1.00  0.00     0.022 A 
ATOM     10  C   UNL     1      -3.599   5.041   0.607  1.00  0.00     0.038 A 
ATOM     11  C   UNL     1      -4.801   5.497   1.131  1.00  0.00     0.042 A 
ATOM     12  Cl  UNL     1      -5.215   7.161   0.998  1.00  0.00    -0.084 Cl
BRANCH   7  13
ATOM     13  N   UNL     1      -3.669   1.527   1.833  1.00  0.00    -0.381 N 
ATOM     14  H   UNL     1      -2.925   1.455   2.474  1.00  0.00     0.160 HD
BRANCH  13  15
ATOM     15  C   UNL     1      -4.288   0.298   1.348  1.00  0.00     0.154 C 
BRANCH  15  16
ATOM     16  C   UNL     1      -3.271  -0.552   0.570  1.00  0.00     0.250 C 
BRANCH  16  17
ATOM     17  O   UNL     1      -2.333  -1.186   1.462  1.00  0.00    -0.492 OA
BRANCH  17  18
ATOM     18  C   UNL     1      -1.047  -0.746   1.313  1.00  0.00     0.119 A 
ATOM     19  C   UNL     1       2.997   0.636   0.707  1.00  0.00     0.044 C 
ATOM     20  C   UNL     1       1.618   0.097   0.950  1.00  0.00    -0.048 A 
ATOM     21  C   UNL     1       0.640   0.979   1.413  1.00  0.00     0.007 A 
ATOM     22  C   UNL     1       1.276  -1.255   0.767  1.00  0.00    -0.045 A 
ATOM     23  C   UNL     1      -0.672   0.554   1.593  1.00  0.00     0.047 A 
ATOM     24  C   UNL     1      -0.060  -1.661   0.976  1.00  0.00     0.050 A 
ATOM     25  C   UNL     1       2.278  -2.301   0.366  1.00  0.00     0.045 C 
ENDBRANCH  17  18
ENDBRANCH  16  17
ENDBRANCH  15  16
ENDBRANCH  13  15
ENDBRANCH   7  13
ENDBRANCH   4   6
ENDBRANCH   3   4
ENDBRANCH   2   3
ENDBRANCH   1   2
BRANCH   1  26
ATOM     26  O   UNL     1      -1.472   3.205  -3.752  1.00  0.00    -0.374 OA
BRANCH  26  27
ATOM     27  C   UNL     1      -2.843   3.373  -3.412  1.00  0.00     0.202 C 
BRANCH  27  28
ATOM     28  C   UNL     1      -3.808   2.214  -3.712  1.00  0.00     0.261 C 
BRANCH  28  29
ATOM     29  O   UNL     1      -3.436   0.924  -3.189  1.00  0.00    -0.460 OA
BRANCH  29  30
ATOM     30  C   UNL     1      -2.993   0.045  -4.124  1.00  0.00     0.338 C 
ATOM     31  O   UNL     1      -2.817   0.273  -5.316  1.00  0.00    -0.246 OA
BRANCH  30  32
ATOM     32  C   UNL     1      -2.657  -1.266  -3.534  1.00  0.00     0.060 A 
ATOM     33  C   UNL     1      -1.375  -1.786  -3.752  1.00  0.00     0.016 A 
ATOM     34  C   UNL     1      -3.641  -2.055  -2.937  1.00  0.00     0.016 A 
ATOM     35  C   UNL     1      -1.091  -3.117  -3.424  1.00  0.00     0.010 A 
ATOM     36  C   UNL     1      -3.350  -3.385  -2.602  1.00  0.00     0.010 A 
ATOM     37  C   UNL     1      -2.088  -3.941  -2.883  1.00  0.00    -0.014 A 
BRANCH  37  38
ATOM     38  C   UNL     1      -1.855  -5.402  -2.699  1.00  0.00     0.031 A 
ATOM     39  C   UNL     1      -2.483  -6.387  -3.645  1.00  0.00     0.074 A 
ATOM     40  C   UNL     1      -1.119  -5.864  -1.671  1.00  0.00     0.049 A 
ATOM     41  N   UNL     1      -2.430  -7.694  -3.626  1.00  0.00    -0.248 NA
ATOM     42  C   UNL     1      -3.264  -5.832  -4.762  1.00  0.00     0.031 C 
ATOM     43  C   UNL     1      -0.443  -5.023  -0.696  1.00  0.00     0.029 A 
ATOM     44  N   UNL     1      -0.849  -7.143  -1.250  1.00  0.00    -0.354 N 
ATOM     45  C   UNL     1      -3.173  -8.120  -4.718  1.00  0.00     0.074 A 
ATOM     46  C   UNL     1      -3.694  -6.933  -5.363  1.00  0.00     0.031 C 
ATOM     47  C   UNL     1       0.100  -5.794   0.261  1.00  0.00     0.029 A 
ATOM     48  C   UNL     1      -0.178  -7.194  -0.048  1.00  0.00     0.049 A 
ATOM     49  H   UNL     1      -1.110  -7.946  -1.757  1.00  0.00     0.167 HD
ATOM     50  C   UNL     1      -3.373  -9.382  -5.166  1.00  0.00     0.034 A 
ATOM     51  C   UNL     1       0.168  -8.246   0.721  1.00  0.00     0.034 A 
ATOM     52  C   UNL     1      -2.833 -10.563  -4.548  1.00  0.00     0.049 A 
ATOM     53  C   UNL     1      -0.107  -9.640   0.226  1.00  0.00     0.074 A 
ATOM     54  C   UNL     1      -2.925 -11.876  -4.978  1.00  0.00     0.029 A 
ATOM     55  N   UNL     1      -2.113 -10.581  -3.365  1.00  0.00    -0.354 N 
ATOM     56  N   UNL     1      -0.671 -10.018  -0.895  1.00  0.00    -0.248 NA
ATOM     57  C   UNL     1       0.351 -10.753   1.071  1.00  0.00     0.031 C 
ATOM     58  C   UNL     1      -2.272 -12.689  -4.045  1.00  0.00     0.029 A 
ATOM     59  C   UNL     1      -1.766 -11.882  -3.040  1.00  0.00     0.049 A 
ATOM     60  H   UNL     1      -1.883  -9.785  -2.833  1.00  0.00     0.167 HD
ATOM     61  C   UNL     1      -0.591 -11.405  -0.914  1.00  0.00     0.074 A 
ATOM     62  C   UNL     1       0.082 -11.802   0.305  1.00  0.00     0.031 C 
ATOM     63  C   UNL     1      -1.041 -12.269  -1.857  1.00  0.00     0.034 A 
BRANCH  50  64
ATOM     64  C   UNL     1      -4.168  -9.547  -6.432  1.00  0.00     0.023 A 
ATOM     65  C   UNL     1      -3.562  -9.243  -7.668  1.00  0.00     0.012 A 
ATOM     66  C   UNL     1      -5.481 -10.052  -6.409  1.00  0.00     0.148 A 
ATOM     67  C   UNL     1      -4.260  -9.416  -8.861  1.00  0.00     0.002 A 
ATOM     68  C   UNL     1      -6.159 -10.255  -7.606  1.00  0.00     0.091 A 
ATOM     69  F   UNL     1      -6.047 -10.310  -5.221  1.00  0.00    -0.205 F 
ATOM     70  C   UNL     1      -5.553  -9.931  -8.831  1.00  0.00     0.022 A 
BRANCH  68  71
ATOM     71  S   UNL     1      -7.804 -10.972  -7.671  1.00  0.00     0.127 S 
ATOM     72  O   UNL     1      -8.624  -9.800  -7.975  1.00  0.00    -0.237 OA
ATOM     73  O   UNL     1      -7.682 -11.931  -8.770  1.00  0.00    -0.237 OA
ATOM     74  O   UNL     1      -8.029 -11.575  -6.365  1.00  0.00    -0.744 OA
ENDBRANCH  68  71
ENDBRANCH  50  64
BRANCH  51  75
ATOM     75  C   UNL     1       0.878  -8.024   2.011  1.00  0.00     0.023 A 
ATOM     76  C   UNL     1       2.246  -8.344   2.111  1.00  0.00     0.012 A 
ATOM     77  C   UNL     1       0.213  -7.490   3.132  1.00  0.00     0.148 A 
ATOM     78  C   UNL     1       2.932  -8.162   3.312  1.00  0.00     0.002 A 
ATOM     79  C   UNL     1       0.913  -7.273   4.314  1.00  0.00     0.091 A 
ATOM     80  F   UNL     1      -1.094  -7.210   3.023  1.00  0.00    -0.205 F 
ATOM     81  C   UNL     1       2.270  -7.620   4.410  1.00  0.00     0.022 A 
BRANCH  79  82
ATOM     82  S   UNL     1       0.163  -6.491   5.748  1.00  0.00     0.127 S 
ATOM     83  O   UNL     1      -0.024  -7.628   6.645  1.00  0.00    -0.237 OA
ATOM     84  O   UNL     1       1.203  -5.547   6.160  1.00  0.00    -0.237 OA
ATOM     85  O   UNL     1      -1.055  -5.863   5.255  1.00  0.00    -0.744 OA
ENDBRANCH  79  82
ENDBRANCH  51  75
BRANCH  63  86
ATOM     86  C   UNL     1      -0.795 -13.738  -1.637  1.00  0.00     0.023 A 
ATOM     87  C   UNL     1      -1.561 -14.438  -0.684  1.00  0.00     0.012 A 
ATOM     88  C   UNL     1       0.139 -14.441  -2.425  1.00  0.00     0.148 A 
ATOM     89  C   UNL     1      -1.385 -15.810  -0.502  1.00  0.00     0.002 A 
ATOM     90  C   UNL     1       0.279 -15.815  -2.267  1.00  0.00     0.091 A 
ATOM     91  F   UNL     1       0.875 -13.754  -3.310  1.00  0.00    -0.205 F 
ATOM     92  C   UNL     1      -0.475 -16.499  -1.300  1.00  0.00     0.022 A 
BRANCH  90  93
ATOM     93  S   UNL     1       1.362 -16.794  -3.316  1.00  0.00     0.127 S 
ATOM     94  O   UNL     1       2.502 -17.027  -2.433  1.00  0.00    -0.237 OA
ATOM     95  O   UNL     1       0.548 -17.980  -3.587  1.00  0.00    -0.237 OA
ATOM     96  O   UNL     1       1.630 -15.970  -4.487  1.00  0.00    -0.744 OA
ENDBRANCH  90  93
ENDBRANCH  63  86
ENDBRANCH  37  38
ENDBRANCH  30  32
ENDBRANCH  29  30
ENDBRANCH  28  29
ENDBRANCH  27  28
ENDBRANCH  26  27
ENDBRANCH   1  26
TORSDOF 22
