REMARK SMILES O=C(OCCOCCOC(=O)c1cc(NS(=O)(=O)c2ccc3c(c2)OCCCO3)ccc1N1CCSCC1)c1ccc(-c2c3nc(c(-c4cccc(S(=O)(=O)[O-])c4F)c4ccc([nH]4)c(-c4cccc(S(=O)(=O)[O-])c4F)c4nc(c(-c5cccc(S(=O)(=O)[O-])c5F)c5ccc2[nH]5)C=C4)C=C3)cc1
REMARK SMILES IDX 7 1 6 2 5 3 4 4 3 5 2 6 1 7 39 8 40 9 101 10 41 11 100 12
REMARK SMILES IDX 42 13 43 14 44 15 94 16 45 17 99 18 93 19 95 20 46 21 98 22
REMARK SMILES IDX 92 23 91 24 47 26 79 27 59 28 78 29 60 30 63 31 77 32 96 33
REMARK SMILES IDX 61 34 62 35 76 37 97 38 64 39 48 40 49 41 57 42 50 43 52 44
REMARK SMILES IDX 58 45 51 46 53 47 54 48 55 49 56 50 80 51 81 52 89 53 82 54
REMARK SMILES IDX 84 55 90 56 83 57 85 58 86 59 87 60 88 61 65 62 66 63 74 64
REMARK SMILES IDX 67 65 69 66 75 67 68 68 70 69 71 70 72 71 73 72 8 73 9 74
REMARK SMILES IDX 10 75 11 76 12 77 13 78 32 79 14 80 31 81 30 82 33 83 34 84
REMARK SMILES IDX 38 85 35 86 37 87 36 88 15 89 16 91 17 92 18 93 19 94 20 95
REMARK SMILES IDX 24 96 21 97 23 98 22 99 25 100 26 101 27 102 29 104 28 105
REMARK H PARENT 95 25 63 36 15 90
REMARK Flexibility Score: 80.00
ROOT
ATOM      1  C   UNL     1       2.367   0.230   2.140  1.00  0.00     0.202 C 
ENDROOT
BRANCH   1   2
ATOM      2  O   UNL     1       3.639   0.416   1.511  1.00  0.00    -0.374 OA
BRANCH   2   3
ATOM      3  C   UNL     1       3.697   1.396   0.485  1.00  0.00     0.202 C 
BRANCH   3   4
ATOM      4  C   UNL     1       3.363   0.826  -0.893  1.00  0.00     0.261 C 
BRANCH   4   5
ATOM      5  O   UNL     1       2.013   0.323  -0.897  1.00  0.00    -0.460 OA
BRANCH   5   6
ATOM      6  C   UNL     1       1.620  -0.974  -0.935  1.00  0.00     0.338 C 
ATOM      7  O   UNL     1       0.420  -1.232  -1.001  1.00  0.00    -0.246 OA
BRANCH   6   8
ATOM      8  C   UNL     1       2.590  -2.104  -0.925  1.00  0.00     0.060 A 
ATOM      9  C   UNL     1       3.747  -2.122  -0.145  1.00  0.00     0.016 A 
ATOM     10  C   UNL     1       2.264  -3.256  -1.652  1.00  0.00     0.016 A 
ATOM     11  C   UNL     1       4.598  -3.209  -0.120  1.00  0.00     0.010 A 
ATOM     12  C   UNL     1       3.083  -4.386  -1.584  1.00  0.00     0.010 A 
ATOM     13  C   UNL     1       4.252  -4.361  -0.810  1.00  0.00    -0.014 A 
BRANCH  13  14
ATOM     14  C   UNL     1       5.156  -5.517  -0.717  1.00  0.00     0.031 A 
ATOM     15  C   UNL     1       5.936  -5.908  -1.927  1.00  0.00     0.074 A 
ATOM     16  C   UNL     1       5.296  -6.148   0.464  1.00  0.00     0.049 A 
ATOM     17  N   UNL     1       6.661  -6.970  -2.129  1.00  0.00    -0.248 NA
ATOM     18  C   UNL     1       5.886  -4.979  -3.071  1.00  0.00     0.031 C 
ATOM     19  C   UNL     1       4.636  -5.757   1.715  1.00  0.00     0.029 A 
ATOM     20  N   UNL     1       6.038  -7.244   0.812  1.00  0.00    -0.354 N 
ATOM     21  C   UNL     1       7.081  -6.887  -3.448  1.00  0.00     0.074 A 
ATOM     22  C   UNL     1       6.562  -5.651  -3.990  1.00  0.00     0.031 C 
ATOM     23  C   UNL     1       5.007  -6.597   2.692  1.00  0.00     0.029 A 
ATOM     24  C   UNL     1       5.858  -7.630   2.121  1.00  0.00     0.049 A 
ATOM     25  H   UNL     1       6.640  -7.710   0.188  1.00  0.00     0.167 HD
ATOM     26  C   UNL     1       7.824  -7.782  -4.136  1.00  0.00     0.034 A 
ATOM     27  C   UNL     1       6.296  -8.729   2.762  1.00  0.00     0.034 A 
ATOM     28  C   UNL     1       8.351  -8.977  -3.539  1.00  0.00     0.049 A 
ATOM     29  C   UNL     1       7.118  -9.708   1.969  1.00  0.00     0.074 A 
ATOM     30  C   UNL     1       9.101  -9.978  -4.124  1.00  0.00     0.029 A 
ATOM     31  N   UNL     1       8.180  -9.325  -2.204  1.00  0.00    -0.354 N 
ATOM     32  N   UNL     1       7.510  -9.631   0.718  1.00  0.00    -0.248 NA
ATOM     33  C   UNL     1       7.566 -10.919   2.667  1.00  0.00     0.031 C 
ATOM     34  C   UNL     1       9.371 -10.940  -3.144  1.00  0.00     0.029 A 
ATOM     35  C   UNL     1       8.815 -10.524  -1.942  1.00  0.00     0.049 A 
ATOM     36  H   UNL     1       7.680  -8.795  -1.542  1.00  0.00     0.167 HD
ATOM     37  C   UNL     1       8.268 -10.768   0.483  1.00  0.00     0.074 A 
ATOM     38  C   UNL     1       8.303 -11.505   1.733  1.00  0.00     0.031 C 
ATOM     39  C   UNL     1       8.865 -11.185  -0.661  1.00  0.00     0.034 A 
BRANCH  26  40
ATOM     40  C   UNL     1       8.061  -7.508  -5.595  1.00  0.00     0.023 A 
ATOM     41  C   UNL     1       8.940  -6.480  -5.992  1.00  0.00     0.012 A 
ATOM     42  C   UNL     1       7.393  -8.265  -6.578  1.00  0.00     0.148 A 
ATOM     43  C   UNL     1       9.120  -6.184  -7.343  1.00  0.00     0.002 A 
ATOM     44  C   UNL     1       7.611  -7.992  -7.923  1.00  0.00     0.091 A 
ATOM     45  F   UNL     1       6.541  -9.219  -6.180  1.00  0.00    -0.205 F 
ATOM     46  C   UNL     1       8.462  -6.943  -8.307  1.00  0.00     0.022 A 
BRANCH  44  47
ATOM     47  S   UNL     1       6.857  -8.948  -9.243  1.00  0.00     0.127 S 
ATOM     48  O   UNL     1       5.968  -7.960  -9.853  1.00  0.00    -0.237 OA
ATOM     49  O   UNL     1       8.017  -9.310 -10.057  1.00  0.00    -0.237 OA
ATOM     50  O   UNL     1       6.189 -10.071  -8.599  1.00  0.00    -0.744 OA
ENDBRANCH  44  47
ENDBRANCH  26  40
BRANCH  27  51
ATOM     51  C   UNL     1       5.962  -8.960   4.198  1.00  0.00     0.023 A 
ATOM     52  C   UNL     1       6.989  -8.960   5.160  1.00  0.00     0.012 A 
ATOM     53  C   UNL     1       4.631  -9.156   4.623  1.00  0.00     0.148 A 
ATOM     54  C   UNL     1       6.704  -9.182   6.510  1.00  0.00     0.002 A 
ATOM     55  C   UNL     1       4.347  -9.318   5.975  1.00  0.00     0.091 A 
ATOM     56  F   UNL     1       3.662  -9.174   3.696  1.00  0.00    -0.205 F 
ATOM     57  C   UNL     1       5.384  -9.350   6.918  1.00  0.00     0.022 A 
BRANCH  55  58
ATOM     58  S   UNL     1       2.663  -9.409   6.597  1.00  0.00     0.127 S 
ATOM     59  O   UNL     1       2.536 -10.830   6.910  1.00  0.00    -0.237 OA
ATOM     60  O   UNL     1       2.719  -8.525   7.763  1.00  0.00    -0.237 OA
ATOM     61  O   UNL     1       1.821  -8.916   5.516  1.00  0.00    -0.744 OA
ENDBRANCH  55  58
ENDBRANCH  27  51
BRANCH  39  62
ATOM     62  C   UNL     1       9.642 -12.468  -0.595  1.00  0.00     0.023 A 
ATOM     63  C   UNL     1       8.961 -13.699  -0.549  1.00  0.00     0.012 A 
ATOM     64  C   UNL     1      11.047 -12.447  -0.676  1.00  0.00     0.148 A 
ATOM     65  C   UNL     1       9.673 -14.896  -0.559  1.00  0.00     0.002 A 
ATOM     66  C   UNL     1      11.746 -13.644  -0.740  1.00  0.00     0.091 A 
ATOM     67  F   UNL     1      11.670 -11.260  -0.696  1.00  0.00    -0.205 F 
ATOM     68  C   UNL     1      11.062 -14.869  -0.669  1.00  0.00     0.022 A 
BRANCH  66  69
ATOM     69  S   UNL     1      13.521 -13.699  -0.994  1.00  0.00     0.127 S 
ATOM     70  O   UNL     1      13.999 -14.098   0.328  1.00  0.00    -0.237 OA
ATOM     71  O   UNL     1      13.655 -14.726  -2.028  1.00  0.00    -0.237 OA
ATOM     72  O   UNL     1      13.907 -12.361  -1.422  1.00  0.00    -0.744 OA
ENDBRANCH  66  69
ENDBRANCH  39  62
ENDBRANCH  13  14
ENDBRANCH   6   8
ENDBRANCH   5   6
ENDBRANCH   4   5
ENDBRANCH   3   4
ENDBRANCH   2   3
ENDBRANCH   1   2
BRANCH   1  73
ATOM     73  C   UNL     1       2.615   0.305   3.635  1.00  0.00     0.261 C 
BRANCH  73  74
ATOM     74  O   UNL     1       3.249   1.572   3.860  1.00  0.00    -0.460 OA
BRANCH  74  75
ATOM     75  C   UNL     1       4.595   1.580   4.008  1.00  0.00     0.340 C 
ATOM     76  O   UNL     1       5.347   0.625   4.097  1.00  0.00    -0.246 OA
BRANCH  75  77
ATOM     77  C   UNL     1       5.046   2.985   3.909  1.00  0.00     0.085 A 
ATOM     78  C   UNL     1       6.136   3.213   3.045  1.00  0.00     0.044 A 
ATOM     79  C   UNL     1       4.360   4.052   4.518  1.00  0.00     0.052 A 
ATOM     80  C   UNL     1       6.535   4.510   2.733  1.00  0.00     0.050 A 
ATOM     81  C   UNL     1       4.788   5.348   4.185  1.00  0.00     0.029 A 
ATOM     82  C   UNL     1       5.841   5.577   3.296  1.00  0.00     0.029 A 
BRANCH  79  83
ATOM     83  N   UNL     1       3.290   3.942   5.404  1.00  0.00    -0.369 N 
ATOM     84  C   UNL     1       3.249   2.866   6.413  1.00  0.00     0.127 C 
ATOM     85  C   UNL     1       1.980   4.358   4.874  1.00  0.00     0.127 C 
ATOM     86  C   UNL     1       2.545   3.334   7.685  1.00  0.00     0.091 C 
ATOM     87  C   UNL     1       1.142   5.002   5.978  1.00  0.00     0.091 C 
ATOM     88  S   UNL     1       0.822   3.874   7.379  1.00  0.00    -0.158 SA
ENDBRANCH  79  83
BRANCH  80  89
ATOM     89  N   UNL     1       7.489   4.830   1.729  1.00  0.00    -0.280 N 
ATOM     90  H   UNL     1       7.324   5.623   1.169  1.00  0.00     0.180 HD
BRANCH  89  91
ATOM     91  S   UNL     1       8.874   3.940   1.444  1.00  0.00     0.262 S 
ATOM     92  O   UNL     1       9.643   4.714   0.490  1.00  0.00    -0.201 OA
ATOM     93  O   UNL     1       9.443   3.536   2.709  1.00  0.00    -0.201 OA
BRANCH  91  94
ATOM     94  C   UNL     1       8.287   2.517   0.576  1.00  0.00     0.091 A 
ATOM     95  C   UNL     1       7.562   2.690  -0.614  1.00  0.00     0.026 A 
ATOM     96  C   UNL     1       8.605   1.245   1.059  1.00  0.00     0.072 A 
ATOM     97  C   UNL     1       7.243   1.578  -1.387  1.00  0.00     0.052 A 
ATOM     98  C   UNL     1       8.293   0.148   0.275  1.00  0.00     0.162 A 
ATOM     99  C   UNL     1       7.682   0.326  -0.967  1.00  0.00     0.161 A 
BRANCH  98 100
ATOM    100  O   UNL     1       8.619  -1.108   0.698  1.00  0.00    -0.490 OA
BRANCH 100 101
ATOM    101  C   UNL     1       9.860  -1.524   0.128  1.00  0.00     0.233 C 
BRANCH 101 102
ATOM    102  C   UNL     1       9.785  -1.901  -1.353  1.00  0.00     0.083 CG0
ATOM    103  G   UNL     1       9.056  -0.914  -2.262  1.00  0.00     0.000 G0
ENDBRANCH 101 102
ENDBRANCH 100 101
ENDBRANCH  98 100
BRANCH  99 104
ATOM    104  O   UNL     1       7.684  -0.700  -1.876  1.00  0.00    -0.490 OA
BRANCH 104 105
ATOM    105  C   UNL     1       9.056  -0.914  -2.262  1.00  0.00     0.233 CG0
ATOM    106  G   UNL     1       9.785  -1.901  -1.353  1.00  0.00     0.000 G0
ENDBRANCH 104 105
ENDBRANCH  99 104
ENDBRANCH  91  94
ENDBRANCH  89  91
ENDBRANCH  80  89
ENDBRANCH  75  77
ENDBRANCH  74  75
ENDBRANCH  73  74
ENDBRANCH   1  73
TORSDOF 21
