REMARK SMILES O=C(N[C@@H](Cc1c[nH]c2ccccc12)C(=O)N[C@@H](CS)C(=O)N[C@@H](CO)C(=O)OCCOCCOC(=O)c1ccc(-c2c3nc(c(-c4cccc(S(=O)(=O)[O-])c4F)c4ccc([nH]4)c(-c4cccc(S(=O)(=O)[O-])c4F)c4nc(c(-c5cccc(S(=O)(=O)[O-])c5F)c5ccc2[nH]5)C=C4)C=C3)cc1)c1ccc(F)cc1
REMARK SMILES IDX 30 1 29 2 27 3 28 4 24 5 23 6 21 7 22 8 18 10 17 11 15 12
REMARK SMILES IDX 16 13 4 15 3 16 1 17 2 18 101 20 102 21 107 22 103 23 106 24
REMARK SMILES IDX 104 25 105 26 5 27 6 28 7 29 14 30 8 31 9 32 13 33 10 35
REMARK SMILES IDX 12 36 11 37 19 38 20 39 25 41 26 42 31 44 32 45 33 46 34 47
REMARK SMILES IDX 35 48 36 49 37 50 38 51 39 52 100 53 40 54 99 55 41 56 42 57
REMARK SMILES IDX 43 58 93 59 44 60 98 61 92 62 94 63 45 64 97 65 91 66 90 67
REMARK SMILES IDX 46 69 78 70 58 71 77 72 59 73 62 74 76 75 95 76 60 77 61 78
REMARK SMILES IDX 75 80 96 81 63 82 47 83 48 84 56 85 49 86 51 87 57 88 50 89
REMARK SMILES IDX 52 90 53 91 54 92 55 93 79 94 80 95 88 96 81 97 83 98 89 99
REMARK SMILES IDX 82 100 84 101 85 102 86 103 87 104 64 105 65 106 73 107
REMARK SMILES IDX 66 108 68 109 74 110 67 111 69 112 70 113 71 114 72 115
REMARK H PARENT 23 9 17 14 3 19 8 34 20 40 26 43 94 68 62 79
REMARK Flexibility Score: inf
ROOT
ATOM      1  C   UNL     1       3.269  10.075   2.961  1.00  0.00     0.261 C 
ENDROOT
BRANCH   1   2
ATOM      2  O   UNL     1       4.022   8.947   2.493  1.00  0.00    -0.462 OA
BRANCH   2   3
ATOM      3  C   UNL     1       4.520   8.143   3.468  1.00  0.00     0.331 C 
ATOM      4  O   UNL     1       4.518   8.409   4.665  1.00  0.00    -0.250 OA
BRANCH   3   5
ATOM      5  C   UNL     1       5.154   6.876   2.895  1.00  0.00     0.218 C 
BRANCH   5   6
ATOM      6  N   UNL     1       4.673   6.489   1.552  1.00  0.00    -0.339 N 
ATOM      7  C   UNL     1       4.990   5.230   1.122  1.00  0.00     0.244 C 
ATOM      8  O   UNL     1       6.174   4.923   0.978  1.00  0.00    -0.273 OA
ATOM      9  H   UNL     1       4.149   7.108   0.993  1.00  0.00     0.164 HD
BRANCH   7  10
ATOM     10  C   UNL     1       3.853   4.190   0.951  1.00  0.00     0.181 C 
BRANCH  10  11
ATOM     11  N   UNL     1       4.374   2.961   1.561  1.00  0.00    -0.342 N 
ATOM     12  C   UNL     1       5.006   1.933   0.914  1.00  0.00     0.243 C 
ATOM     13  O   UNL     1       5.980   1.427   1.481  1.00  0.00    -0.273 OA
ATOM     14  H   UNL     1       4.256   2.865   2.534  1.00  0.00     0.164 HD
BRANCH  12  15
ATOM     15  C   UNL     1       4.492   1.345  -0.422  1.00  0.00     0.176 C 
BRANCH  15  16
ATOM     16  N   UNL     1       3.035   1.188  -0.370  1.00  0.00    -0.340 N 
ATOM     17  O   UNL     1       1.082   0.120   0.001  1.00  0.00    -0.269 OA
ATOM     18  C   UNL     1       2.307   0.069  -0.040  1.00  0.00     0.251 C 
ATOM     19  H   UNL     1       2.510   1.988  -0.601  1.00  0.00     0.164 HD
BRANCH  18  20
ATOM     20  C   UNL     1       2.988  -1.232   0.177  1.00  0.00     0.040 A 
ATOM     21  C   UNL     1       3.964  -1.410   1.167  1.00  0.00     0.017 A 
ATOM     22  C   UNL     1       2.638  -2.297  -0.662  1.00  0.00     0.017 A 
ATOM     23  C   UNL     1       4.652  -2.623   1.253  1.00  0.00     0.040 A 
ATOM     24  C   UNL     1       3.314  -3.515  -0.559  1.00  0.00     0.040 A 
ATOM     25  C   UNL     1       4.326  -3.660   0.385  1.00  0.00     0.123 A 
ATOM     26  F   UNL     1       4.997  -4.817   0.458  1.00  0.00    -0.207 F 
ENDBRANCH  18  20
ENDBRANCH  15  16
BRANCH  15  27
ATOM     27  C   UNL     1       5.060   1.874  -1.748  1.00  0.00     0.072 C 
BRANCH  27  28
ATOM     28  C   UNL     1       4.632   3.228  -2.220  1.00  0.00    -0.020 A 
ATOM     29  C   UNL     1       3.395   3.593  -2.721  1.00  0.00     0.087 A 
ATOM     30  C   UNL     1       5.454   4.403  -2.265  1.00  0.00     0.003 A 
ATOM     31  N   UNL     1       3.416   4.938  -2.985  1.00  0.00    -0.361 N 
ATOM     32  C   UNL     1       4.643   5.467  -2.660  1.00  0.00     0.046 A 
ATOM     33  C   UNL     1       6.804   4.667  -1.956  1.00  0.00     0.010 A 
ATOM     34  H   UNL     1       2.662   5.452  -3.354  1.00  0.00     0.166 HD
ATOM     35  C   UNL     1       5.098   6.791  -2.699  1.00  0.00     0.026 A 
ATOM     36  C   UNL     1       7.279   5.983  -2.000  1.00  0.00     0.001 A 
ATOM     37  C   UNL     1       6.431   7.030  -2.349  1.00  0.00     0.002 A 
ENDBRANCH  27  28
ENDBRANCH  15  27
ENDBRANCH  12  15
ENDBRANCH  10  11
BRANCH  10  38
ATOM     38  C   UNL     1       2.439   4.559   1.404  1.00  0.00     0.101 C 
BRANCH  38  39
ATOM     39  S   UNL     1       2.196   4.857   3.181  1.00  0.00    -0.177 SA
ATOM     40  H   UNL     1       2.439   3.710   3.871  1.00  0.00     0.102 HD
ENDBRANCH  38  39
ENDBRANCH  10  38
ENDBRANCH   7  10
ENDBRANCH   5   6
BRANCH   5  41
ATOM     41  C   UNL     1       6.677   7.063   2.935  1.00  0.00     0.193 C 
BRANCH  41  42
ATOM     42  O   UNL     1       7.111   7.817   1.804  1.00  0.00    -0.394 OA
ATOM     43  H   UNL     1       6.875   7.345   0.990  1.00  0.00     0.210 HD
ENDBRANCH  41  42
ENDBRANCH   5  41
ENDBRANCH   3   5
ENDBRANCH   2   3
ENDBRANCH   1   2
BRANCH   1  44
ATOM     44  C   UNL     1       2.208  10.455   1.929  1.00  0.00     0.202 C 
BRANCH  44  45
ATOM     45  O   UNL     1       1.183   9.486   1.693  1.00  0.00    -0.374 OA
BRANCH  45  46
ATOM     46  C   UNL     1       1.555   8.302   0.990  1.00  0.00     0.202 C 
BRANCH  46  47
ATOM     47  C   UNL     1       1.715   8.415  -0.532  1.00  0.00     0.261 C 
BRANCH  47  48
ATOM     48  O   UNL     1       2.702   9.377  -0.937  1.00  0.00    -0.460 OA
BRANCH  48  49
ATOM     49  C   UNL     1       2.189  10.512  -1.472  1.00  0.00     0.338 C 
ATOM     50  O   UNL     1       1.010  10.746  -1.712  1.00  0.00    -0.246 OA
BRANCH  49  51
ATOM     51  C   UNL     1       3.236  11.537  -1.601  1.00  0.00     0.060 A 
ATOM     52  C   UNL     1       3.055  12.743  -0.909  1.00  0.00     0.016 A 
ATOM     53  C   UNL     1       4.322  11.365  -2.461  1.00  0.00     0.016 A 
ATOM     54  C   UNL     1       3.939  13.800  -1.107  1.00  0.00     0.010 A 
ATOM     55  C   UNL     1       5.199  12.433  -2.669  1.00  0.00     0.010 A 
ATOM     56  C   UNL     1       4.989  13.666  -2.023  1.00  0.00    -0.014 A 
BRANCH  56  57
ATOM     57  C   UNL     1       5.758  14.863  -2.436  1.00  0.00     0.031 A 
ATOM     58  C   UNL     1       5.388  15.549  -3.722  1.00  0.00     0.074 A 
ATOM     59  C   UNL     1       6.769  15.329  -1.682  1.00  0.00     0.049 A 
ATOM     60  N   UNL     1       5.952  16.572  -4.308  1.00  0.00    -0.248 NA
ATOM     61  C   UNL     1       4.227  15.005  -4.448  1.00  0.00     0.031 C 
ATOM     62  C   UNL     1       7.208  14.755  -0.411  1.00  0.00     0.029 A 
ATOM     63  N   UNL     1       7.628  16.378  -1.894  1.00  0.00    -0.354 N 
ATOM     64  C   UNL     1       5.239  16.775  -5.483  1.00  0.00     0.074 A 
ATOM     65  C   UNL     1       4.205  15.765  -5.533  1.00  0.00     0.031 C 
ATOM     66  C   UNL     1       8.278  15.440   0.029  1.00  0.00     0.029 A 
ATOM     67  C   UNL     1       8.613  16.482  -0.941  1.00  0.00     0.049 A 
ATOM     68  H   UNL     1       7.546  16.997  -2.655  1.00  0.00     0.167 HD
ATOM     69  C   UNL     1       5.421  17.725  -6.430  1.00  0.00     0.034 A 
ATOM     70  C   UNL     1       9.677  17.307  -0.875  1.00  0.00     0.034 A 
ATOM     71  C   UNL     1       6.436  18.740  -6.364  1.00  0.00     0.049 A 
ATOM     72  C   UNL     1       9.869  18.344  -1.952  1.00  0.00     0.074 A 
ATOM     73  C   UNL     1       6.679  19.772  -7.253  1.00  0.00     0.029 A 
ATOM     74  N   UNL     1       7.381  18.847  -5.356  1.00  0.00    -0.354 N 
ATOM     75  N   UNL     1       9.124  18.591  -3.003  1.00  0.00    -0.248 NA
ATOM     76  C   UNL     1      11.028  19.239  -1.818  1.00  0.00     0.031 C 
ATOM     77  C   UNL     1       7.787  20.491  -6.793  1.00  0.00     0.029 A 
ATOM     78  C   UNL     1       8.214  19.924  -5.602  1.00  0.00     0.049 A 
ATOM     79  H   UNL     1       7.449  18.246  -4.579  1.00  0.00     0.167 HD
ATOM     80  C   UNL     1       9.697  19.694  -3.628  1.00  0.00     0.074 A 
ATOM     81  C   UNL     1      10.846  20.073  -2.833  1.00  0.00     0.031 C 
ATOM     82  C   UNL     1       9.312  20.329  -4.762  1.00  0.00     0.034 A 
BRANCH  69  83
ATOM     83  C   UNL     1       4.487  17.725  -7.610  1.00  0.00     0.023 A 
ATOM     84  C   UNL     1       3.156  18.158  -7.447  1.00  0.00     0.012 A 
ATOM     85  C   UNL     1       4.940  17.346  -8.889  1.00  0.00     0.148 A 
ATOM     86  C   UNL     1       2.281  18.187  -8.532  1.00  0.00     0.002 A 
ATOM     87  C   UNL     1       4.074  17.418  -9.974  1.00  0.00     0.091 A 
ATOM     88  F   UNL     1       6.202  16.912  -9.019  1.00  0.00    -0.205 F 
ATOM     89  C   UNL     1       2.742  17.828  -9.796  1.00  0.00     0.022 A 
BRANCH  87  90
ATOM     90  S   UNL     1       4.595  17.045 -11.652  1.00  0.00     0.127 S 
ATOM     91  O   UNL     1       3.922  15.770 -11.893  1.00  0.00    -0.237 OA
ATOM     92  O   UNL     1       4.047  18.175 -12.403  1.00  0.00    -0.237 OA
ATOM     93  O   UNL     1       6.049  16.989 -11.617  1.00  0.00    -0.744 OA
ENDBRANCH  87  90
ENDBRANCH  69  83
BRANCH  70  94
ATOM     94  C   UNL     1      10.624  17.210   0.271  1.00  0.00     0.023 A 
ATOM     95  C   UNL     1      10.672  18.247   1.223  1.00  0.00     0.012 A 
ATOM     96  C   UNL     1      11.464  16.091   0.432  1.00  0.00     0.148 A 
ATOM     97  C   UNL     1      11.559  18.183   2.300  1.00  0.00     0.002 A 
ATOM     98  C   UNL     1      12.306  16.009   1.535  1.00  0.00     0.091 A 
ATOM     99  F   UNL     1      11.417  15.124  -0.495  1.00  0.00    -0.205 F 
ATOM    100  C   UNL     1      12.367  17.061   2.461  1.00  0.00     0.022 A 
BRANCH  98 101
ATOM    101  S   UNL     1      13.289  14.547   1.888  1.00  0.00     0.127 S 
ATOM    102  O   UNL     1      14.640  15.020   1.599  1.00  0.00    -0.237 OA
ATOM    103  O   UNL     1      13.003  14.326   3.306  1.00  0.00    -0.237 OA
ATOM    104  O   UNL     1      12.778  13.508   1.004  1.00  0.00    -0.744 OA
ENDBRANCH  98 101
ENDBRANCH  70  94
BRANCH  82 105
ATOM    105  C   UNL     1      10.096  21.540  -5.195  1.00  0.00     0.023 A 
ATOM    106  C   UNL     1      11.371  21.384  -5.771  1.00  0.00     0.012 A 
ATOM    107  C   UNL     1       9.518  22.824  -5.126  1.00  0.00     0.148 A 
ATOM    108  C   UNL     1      12.070  22.492  -6.250  1.00  0.00     0.002 A 
ATOM    109  C   UNL     1      10.200  23.915  -5.649  1.00  0.00     0.091 A 
ATOM    110  F   UNL     1       8.310  22.951  -4.558  1.00  0.00    -0.205 F 
ATOM    111  C   UNL     1      11.480  23.753  -6.202  1.00  0.00     0.022 A 
BRANCH 109 112
ATOM    112  S   UNL     1       9.475  25.558  -5.722  1.00  0.00     0.127 S 
ATOM    113  O   UNL     1      10.243  26.267  -4.700  1.00  0.00    -0.237 OA
ATOM    114  O   UNL     1       9.766  25.965  -7.097  1.00  0.00    -0.237 OA
ATOM    115  O   UNL     1       8.058  25.385  -5.430  1.00  0.00    -0.744 OA
ENDBRANCH 109 112
ENDBRANCH  82 105
ENDBRANCH  56  57
ENDBRANCH  49  51
ENDBRANCH  48  49
ENDBRANCH  47  48
ENDBRANCH  46  47
ENDBRANCH  45  46
ENDBRANCH  44  45
ENDBRANCH   1  44
TORSDOF 29
