REMARK SMILES COCC[C@H]([NH3+])C(=O)N1CC(n2cc(C(=O)OCCOCCOC(=O)c3ccc(-c4c5nc(c(-c6cccc(S(=O)(=O)[O-])c6F)c6ccc([nH]6)c(-c6cccc(S(=O)(=O)[O-])c6F)c6nc(c(-c7cccc(S(=O)(=O)[O-])c7F)c7ccc4[nH]7)C=C6)C=C5)cc3)nn2)C1
REMARK SMILES IDX 19 1 18 2 17 3 15 4 16 5 14 6 12 7 13 8 90 9 89 10 11 11
REMARK SMILES IDX 7 12 8 13 9 14 10 15 91 16 5 17 4 18 3 19 2 20 1 21 6 22
REMARK SMILES IDX 20 26 21 27 22 28 23 29 24 30 25 31 26 32 27 33 88 34 28 35
REMARK SMILES IDX 87 36 29 37 30 38 31 39 81 40 32 41 86 42 80 43 82 44 33 45
REMARK SMILES IDX 85 46 79 47 78 48 34 50 66 51 46 52 65 53 47 54 50 55 64 56
REMARK SMILES IDX 83 57 48 58 49 59 63 61 84 62 51 63 35 64 36 65 44 66 37 67
REMARK SMILES IDX 39 68 45 69 38 70 40 71 41 72 42 73 43 74 67 75 68 76 76 77
REMARK SMILES IDX 69 78 71 79 77 80 70 81 72 82 73 83 74 84 75 85 52 86 53 87
REMARK SMILES IDX 61 88 54 89 56 90 62 91 55 92 57 93 58 94 59 95 60 96
REMARK H PARENT 6 23 6 24 6 25 82 49 50 60
REMARK Flexibility Score: inf
ROOT
ATOM      1  C   UNL     1       1.026   3.342  13.398  1.00  0.00     0.202 C 
ENDROOT
BRANCH   1   2
ATOM      2  C   UNL     1       1.536   3.909  12.069  1.00  0.00     0.261 C 
BRANCH   2   3
ATOM      3  O   UNL     1       1.351   3.031  10.950  1.00  0.00    -0.458 OA
BRANCH   3   4
ATOM      4  C   UNL     1       2.452   2.283  10.625  1.00  0.00     0.360 C 
ATOM      5  O   UNL     1       3.549   2.412  11.146  1.00  0.00    -0.244 OA
BRANCH   4   6
ATOM      6  C   UNL     1       2.139   1.213   9.685  1.00  0.00     0.190 A 
ATOM      7  N   UNL     1       1.356  -0.078   8.136  1.00  0.00    -0.245 N 
ATOM      8  C   UNL     1       1.099   1.100   8.783  1.00  0.00     0.147 A 
ATOM      9  N   UNL     1       2.398  -0.719   8.687  1.00  0.00    -0.066 NA
ATOM     10  N   UNL     1       2.899   0.067   9.627  1.00  0.00    -0.123 NA
BRANCH   7  11
ATOM     11  C   UNL     1       0.657  -0.549   6.984  1.00  0.00     0.148 C 
ATOM     12  C   UNL     1       0.617  -1.336   3.807  1.00  0.00     0.280 C 
ATOM     13  O   UNL     1       0.166  -2.474   3.667  1.00  0.00    -0.268 OA
ATOM     14  N   UNL     1       1.077  -0.894   5.015  1.00  0.00    -0.333 N 
ATOM     15  C   UNL     1       1.337  -1.683   6.215  1.00  0.00     0.149 C 
ATOM     16  C   UNL     1       0.885   0.346   5.748  1.00  0.00     0.149 C 
BRANCH  12  17
ATOM     17  C   UNL     1       0.887  -0.457   2.575  1.00  0.00     0.273 C 
BRANCH  17  18
ATOM     18  C   UNL     1       2.403  -0.355   2.309  1.00  0.00     0.104 C 
BRANCH  18  19
ATOM     19  C   UNL     1       2.857  -1.128   1.065  1.00  0.00     0.166 C 
BRANCH  19  20
ATOM     20  O   UNL     1       2.591  -0.466  -0.172  1.00  0.00    -0.384 OA
ATOM     21  C   UNL     1       1.224  -0.463  -0.560  1.00  0.00     0.194 C 
ENDBRANCH  19  20
ENDBRANCH  18  19
ENDBRANCH  17  18
BRANCH  17  22
ATOM     22  N   UNL     1       0.258   0.873   2.636  1.00  0.00    -0.347 N 
ATOM     23  H   UNL     1       0.659   1.404   3.409  1.00  0.00     0.345 HD
ATOM     24  H   UNL     1      -0.746   0.767   2.780  1.00  0.00     0.345 HD
ATOM     25  H   UNL     1       0.425   1.368   1.760  1.00  0.00     0.345 HD
ENDBRANCH  17  22
ENDBRANCH  12  17
ENDBRANCH   7  11
ENDBRANCH   4   6
ENDBRANCH   3   4
ENDBRANCH   2   3
ENDBRANCH   1   2
BRANCH   1  26
ATOM     26  O   UNL     1       1.507   2.086  13.868  1.00  0.00    -0.374 OA
BRANCH  26  27
ATOM     27  C   UNL     1       1.174   0.881  13.187  1.00  0.00     0.202 C 
BRANCH  27  28
ATOM     28  C   UNL     1      -0.274   0.431  13.098  1.00  0.00     0.261 C 
BRANCH  28  29
ATOM     29  O   UNL     1      -1.133   1.465  12.646  1.00  0.00    -0.460 OA
BRANCH  29  30
ATOM     30  C   UNL     1      -1.819   2.077  13.631  1.00  0.00     0.338 C 
ATOM     31  O   UNL     1      -1.523   2.130  14.837  1.00  0.00    -0.246 OA
BRANCH  30  32
ATOM     32  C   UNL     1      -3.090   2.526  13.111  1.00  0.00     0.060 A 
ATOM     33  C   UNL     1      -3.922   3.359  13.857  1.00  0.00     0.016 A 
ATOM     34  C   UNL     1      -3.600   1.775  12.075  1.00  0.00     0.016 A 
ATOM     35  C   UNL     1      -5.290   3.063  13.859  1.00  0.00     0.010 A 
ATOM     36  C   UNL     1      -4.955   1.705  11.983  1.00  0.00     0.010 A 
ATOM     37  C   UNL     1      -5.782   2.011  13.057  1.00  0.00    -0.014 A 
BRANCH  37  38
ATOM     38  C   UNL     1      -7.226   1.730  12.792  1.00  0.00     0.031 A 
ATOM     39  C   UNL     1      -7.708   3.053  12.124  1.00  0.00     0.074 A 
ATOM     40  C   UNL     1      -7.889   0.511  13.014  1.00  0.00     0.049 A 
ATOM     41  N   UNL     1      -8.234   4.042  12.791  1.00  0.00    -0.248 NA
ATOM     42  C   UNL     1      -7.187   3.591  10.815  1.00  0.00     0.031 C 
ATOM     43  C   UNL     1      -7.484  -0.794  13.645  1.00  0.00     0.029 A 
ATOM     44  N   UNL     1      -9.208   0.143  12.701  1.00  0.00    -0.354 N 
ATOM     45  C   UNL     1      -8.567   5.000  11.827  1.00  0.00     0.074 A 
ATOM     46  C   UNL     1      -7.600   4.864  10.803  1.00  0.00     0.031 C 
ATOM     47  C   UNL     1      -8.365  -1.807  13.355  1.00  0.00     0.029 A 
ATOM     48  C   UNL     1      -9.509  -1.273  12.642  1.00  0.00     0.049 A 
ATOM     49  H   UNL     1      -9.901   0.821  12.528  1.00  0.00     0.167 HD
ATOM     50  C   UNL     1      -9.869   5.385  11.716  1.00  0.00     0.034 A 
ATOM     51  C   UNL     1     -10.672  -1.907  12.193  1.00  0.00     0.034 A 
ATOM     52  C   UNL     1     -10.535   5.024  12.945  1.00  0.00     0.049 A 
ATOM     53  C   UNL     1     -11.724  -0.863  12.171  1.00  0.00     0.074 A 
ATOM     54  C   UNL     1     -10.316   5.288  14.283  1.00  0.00     0.029 A 
ATOM     55  N   UNL     1     -11.155   3.808  12.866  1.00  0.00    -0.354 N 
ATOM     56  N   UNL     1     -12.171  -0.350  13.284  1.00  0.00    -0.248 NA
ATOM     57  C   UNL     1     -11.679   0.003  10.998  1.00  0.00     0.031 C 
ATOM     58  C   UNL     1     -10.511   4.042  14.949  1.00  0.00     0.029 A 
ATOM     59  C   UNL     1     -11.059   3.136  14.045  1.00  0.00     0.049 A 
ATOM     60  H   UNL     1     -11.611   3.465  12.064  1.00  0.00     0.167 HD
ATOM     61  C   UNL     1     -11.908   0.998  13.118  1.00  0.00     0.074 A 
ATOM     62  C   UNL     1     -11.606   1.156  11.675  1.00  0.00     0.031 C 
ATOM     63  C   UNL     1     -11.530   1.783  14.174  1.00  0.00     0.034 A 
BRANCH  50  64
ATOM     64  C   UNL     1     -10.665   5.497  10.408  1.00  0.00     0.023 A 
ATOM     65  C   UNL     1     -12.007   5.919  10.553  1.00  0.00     0.012 A 
ATOM     66  C   UNL     1     -10.309   4.967   9.137  1.00  0.00     0.148 A 
ATOM     67  C   UNL     1     -12.948   5.786   9.525  1.00  0.00     0.002 A 
ATOM     68  C   UNL     1     -11.238   4.883   8.097  1.00  0.00     0.091 A 
ATOM     69  F   UNL     1      -9.096   4.452   8.934  1.00  0.00    -0.205 F 
ATOM     70  C   UNL     1     -12.563   5.273   8.294  1.00  0.00     0.022 A 
BRANCH  68  71
ATOM     71  S   UNL     1     -10.821   4.242   6.461  1.00  0.00     0.127 S 
ATOM     72  O   UNL     1     -11.714   3.092   6.350  1.00  0.00    -0.237 OA
ATOM     73  O   UNL     1     -11.168   5.377   5.605  1.00  0.00    -0.237 OA
ATOM     74  O   UNL     1      -9.398   3.929   6.502  1.00  0.00    -0.744 OA
ENDBRANCH  68  71
ENDBRANCH  50  64
BRANCH  51  75
ATOM     75  C   UNL     1     -10.907  -3.174  11.366  1.00  0.00     0.023 A 
ATOM     76  C   UNL     1     -12.176  -3.740  11.011  1.00  0.00     0.012 A 
ATOM     77  C   UNL     1      -9.812  -3.632  10.624  1.00  0.00     0.148 A 
ATOM     78  C   UNL     1     -12.312  -4.685   9.952  1.00  0.00     0.002 A 
ATOM     79  C   UNL     1      -9.948  -4.536   9.569  1.00  0.00     0.091 A 
ATOM     80  F   UNL     1      -8.619  -3.102  10.899  1.00  0.00    -0.205 F 
ATOM     81  C   UNL     1     -11.194  -5.065   9.215  1.00  0.00     0.022 A 
BRANCH  79  82
ATOM     82  S   UNL     1      -8.516  -4.990   8.587  1.00  0.00     0.127 S 
ATOM     83  O   UNL     1      -8.569  -6.451   8.638  1.00  0.00    -0.237 OA
ATOM     84  O   UNL     1      -8.839  -4.402   7.291  1.00  0.00    -0.237 OA
ATOM     85  O   UNL     1      -7.366  -4.408   9.268  1.00  0.00    -0.744 OA
ENDBRANCH  79  82
ENDBRANCH  51  75
BRANCH  63  86
ATOM     86  C   UNL     1     -11.609   1.245  15.581  1.00  0.00     0.023 A 
ATOM     87  C   UNL     1     -10.751   0.282  16.162  1.00  0.00     0.012 A 
ATOM     88  C   UNL     1     -12.527   1.911  16.403  1.00  0.00     0.148 A 
ATOM     89  C   UNL     1     -10.881  -0.056  17.520  1.00  0.00     0.002 A 
ATOM     90  C   UNL     1     -12.630   1.599  17.745  1.00  0.00     0.091 A 
ATOM     91  F   UNL     1     -13.257   2.892  15.853  1.00  0.00    -0.205 F 
ATOM     92  C   UNL     1     -11.830   0.595  18.308  1.00  0.00     0.022 A 
BRANCH  90  93
ATOM     93  S   UNL     1     -13.759   2.494  18.802  1.00  0.00     0.127 S 
ATOM     94  O   UNL     1     -14.760   1.471  19.097  1.00  0.00    -0.237 OA
ATOM     95  O   UNL     1     -12.900   2.862  19.928  1.00  0.00    -0.237 OA
ATOM     96  O   UNL     1     -14.240   3.628  18.023  1.00  0.00    -0.744 OA
ENDBRANCH  90  93
ENDBRANCH  63  86
ENDBRANCH  37  38
ENDBRANCH  30  32
ENDBRANCH  29  30
ENDBRANCH  28  29
ENDBRANCH  27  28
ENDBRANCH  26  27
ENDBRANCH   1  26
TORSDOF 23
