REMARK SMILES CS(=O)(=O)Nc1cc(C(=O)OCCOCCOC(=O)c2ccc(-c3c4nc(c(-c5cccc(S(=O)(=O)[O-])c5F)c5ccc([nH]5)c(-c5cccc(S(=O)(=O)[O-])c5F)c5nc(c(-c6cccc(S(=O)(=O)[O-])c6F)c6ccc3[nH]6)C=C5)C=C4)cc2)ccc1N1CC[NH+](CC(=O)N2CCCC2)CC1
REMARK SMILES IDX 14 1 13 2 12 3 11 4 9 5 10 6 8 7 6 8 7 9 85 10 84 11 83 12
REMARK SMILES IDX 5 13 2 15 1 16 3 17 4 18 86 19 87 20 99 21 88 22 98 23 89 24
REMARK SMILES IDX 90 26 91 27 92 28 93 29 94 30 97 31 95 32 96 33 15 34 16 35
REMARK SMILES IDX 17 36 18 37 19 38 20 39 21 40 82 41 22 42 81 43 23 44 24 45
REMARK SMILES IDX 25 46 75 47 26 48 80 49 74 50 76 51 27 52 79 53 73 54 72 55
REMARK SMILES IDX 28 57 60 58 40 59 59 60 41 61 44 62 58 63 77 64 42 65 43 66
REMARK SMILES IDX 57 68 78 69 45 70 29 71 30 72 38 73 31 74 33 75 39 76 32 77
REMARK SMILES IDX 34 78 35 79 36 80 37 81 61 82 62 83 70 84 63 85 65 86 71 87
REMARK SMILES IDX 64 88 66 89 67 90 68 91 69 92 46 93 47 94 55 95 48 96 50 97
REMARK SMILES IDX 56 98 49 99 51 100 52 101 53 102 54 103
REMARK H PARENT 5 14 89 25 76 56 44 67
REMARK Flexibility Score: inf
ROOT
ATOM      1  O   UNL     1       2.573   6.952   5.049  1.00  0.00    -0.374 OA
ENDROOT
BRANCH   1   2
ATOM      2  C   UNL     1       3.245   6.437   6.200  1.00  0.00     0.202 C 
BRANCH   2   3
ATOM      3  C   UNL     1       2.744   5.092   6.734  1.00  0.00     0.261 C 
BRANCH   3   4
ATOM      4  O   UNL     1       2.857   4.059   5.742  1.00  0.00    -0.460 OA
BRANCH   4   5
ATOM      5  C   UNL     1       1.673   3.630   5.246  1.00  0.00     0.338 C 
ATOM      6  O   UNL     1       0.558   3.935   5.634  1.00  0.00    -0.246 OA
BRANCH   5   7
ATOM      7  C   UNL     1       1.883   2.845   4.012  1.00  0.00     0.062 A 
ATOM      8  C   UNL     1       1.067   2.342   1.784  1.00  0.00     0.073 A 
ATOM      9  C   UNL     1       0.967   3.050   2.982  1.00  0.00     0.044 A 
ATOM     10  C   UNL     1       2.083   1.365   1.590  1.00  0.00     0.062 A 
ATOM     11  C   UNL     1       3.017   1.217   2.640  1.00  0.00     0.029 A 
ATOM     12  C   UNL     1       2.939   1.959   3.829  1.00  0.00     0.018 A 
BRANCH   8  13
ATOM     13  N   UNL     1       0.216   2.845   0.757  1.00  0.00    -0.282 N 
ATOM     14  H   UNL     1       0.418   3.739   0.398  1.00  0.00     0.180 HD
BRANCH  13  15
ATOM     15  S   UNL     1      -1.083   2.045   0.120  1.00  0.00     0.229 S 
ATOM     16  C   UNL     1      -1.046   0.355   0.680  1.00  0.00     0.183 C 
ATOM     17  O   UNL     1      -0.871   2.064  -1.316  1.00  0.00    -0.207 OA
ATOM     18  O   UNL     1      -2.268   2.668   0.670  1.00  0.00    -0.207 OA
ENDBRANCH  13  15
ENDBRANCH   8  13
BRANCH  10  19
ATOM     19  N   UNL     1       2.180   0.581   0.431  1.00  0.00    -0.359 N 
ATOM     20  C   UNL     1       2.982  -0.677   0.437  1.00  0.00     0.178 C 
ATOM     21  C   UNL     1       2.320   1.297  -0.834  1.00  0.00     0.178 C 
ATOM     22  C   UNL     1       2.770  -1.522  -0.859  1.00  0.00     0.284 C 
ATOM     23  C   UNL     1       1.896   0.412  -2.014  1.00  0.00     0.284 C 
ATOM     24  N   UNL     1       2.693  -0.805  -2.149  1.00  0.00    -0.324 N 
ATOM     25  H   UNL     1       2.206  -1.450  -2.773  1.00  0.00     0.348 HD
BRANCH  24  26
ATOM     26  C   UNL     1       3.953  -0.610  -2.886  1.00  0.00     0.363 C 
BRANCH  26  27
ATOM     27  C   UNL     1       5.132  -0.020  -2.111  1.00  0.00     0.277 C 
ATOM     28  O   UNL     1       5.803  -0.756  -1.379  1.00  0.00    -0.268 OA
ATOM     29  N   UNL     1       5.470   1.312  -2.280  1.00  0.00    -0.338 N 
ATOM     30  C   UNL     1       4.745   2.393  -2.943  1.00  0.00     0.119 C 
ATOM     31  C   UNL     1       6.727   1.797  -1.733  1.00  0.00     0.119 C 
ATOM     32  C   UNL     1       5.735   3.546  -3.019  1.00  0.00     0.023 C 
ATOM     33  C   UNL     1       6.639   3.311  -1.815  1.00  0.00     0.023 C 
ENDBRANCH  26  27
ENDBRANCH  24  26
ENDBRANCH  10  19
ENDBRANCH   5   7
ENDBRANCH   4   5
ENDBRANCH   3   4
ENDBRANCH   2   3
ENDBRANCH   1   2
BRANCH   1  34
ATOM     34  C   UNL     1       3.007   6.459   3.780  1.00  0.00     0.202 C 
BRANCH  34  35
ATOM     35  C   UNL     1       4.293   7.076   3.213  1.00  0.00     0.261 C 
BRANCH  35  36
ATOM     36  O   UNL     1       5.452   6.711   3.982  1.00  0.00    -0.460 OA
BRANCH  36  37
ATOM     37  C   UNL     1       5.981   7.716   4.724  1.00  0.00     0.338 C 
ATOM     38  O   UNL     1       5.642   8.886   4.723  1.00  0.00    -0.246 OA
BRANCH  37  39
ATOM     39  C   UNL     1       6.933   7.164   5.709  1.00  0.00     0.060 A 
ATOM     40  C   UNL     1       6.758   7.534   7.050  1.00  0.00     0.016 A 
ATOM     41  C   UNL     1       8.003   6.350   5.332  1.00  0.00     0.016 A 
ATOM     42  C   UNL     1       7.686   7.136   8.011  1.00  0.00     0.010 A 
ATOM     43  C   UNL     1       8.936   5.958   6.298  1.00  0.00     0.010 A 
ATOM     44  C   UNL     1       8.803   6.381   7.634  1.00  0.00    -0.014 A 
BRANCH  44  45
ATOM     45  C   UNL     1       9.895   6.149   8.611  1.00  0.00     0.031 A 
ATOM     46  C   UNL     1      11.152   6.971   8.514  1.00  0.00     0.074 A 
ATOM     47  C   UNL     1       9.771   5.215   9.571  1.00  0.00     0.049 A 
ATOM     48  N   UNL     1      12.234   6.915   9.245  1.00  0.00    -0.248 NA
ATOM     49  C   UNL     1      11.199   7.986   7.448  1.00  0.00     0.031 C 
ATOM     50  C   UNL     1       8.608   4.348   9.762  1.00  0.00     0.029 A 
ATOM     51  N   UNL     1      10.650   4.818  10.548  1.00  0.00    -0.354 N 
ATOM     52  C   UNL     1      13.104   7.855   8.706  1.00  0.00     0.074 A 
ATOM     53  C   UNL     1      12.426   8.468   7.585  1.00  0.00     0.031 C 
ATOM     54  C   UNL     1       8.862   3.495  10.768  1.00  0.00     0.029 A 
ATOM     55  C   UNL     1      10.210   3.739  11.278  1.00  0.00     0.049 A 
ATOM     56  H   UNL     1      11.513   5.264  10.711  1.00  0.00     0.167 HD
ATOM     57  C   UNL     1      14.352   8.185   9.115  1.00  0.00     0.034 A 
ATOM     58  C   UNL     1      10.834   3.013  12.227  1.00  0.00     0.034 A 
ATOM     59  C   UNL     1      15.012   7.600  10.251  1.00  0.00     0.049 A 
ATOM     60  C   UNL     1      12.221   3.409  12.666  1.00  0.00     0.074 A 
ATOM     61  C   UNL     1      16.242   7.930  10.791  1.00  0.00     0.029 A 
ATOM     62  N   UNL     1      14.508   6.556  11.008  1.00  0.00    -0.354 N 
ATOM     63  N   UNL     1      12.970   4.399  12.245  1.00  0.00    -0.248 NA
ATOM     64  C   UNL     1      12.835   2.609  13.737  1.00  0.00     0.031 C 
ATOM     65  C   UNL     1      16.500   7.059  11.854  1.00  0.00     0.029 A 
ATOM     66  C   UNL     1      15.412   6.213  11.999  1.00  0.00     0.049 A 
ATOM     67  H   UNL     1      13.637   6.122  10.864  1.00  0.00     0.167 HD
ATOM     68  C   UNL     1      14.123   4.364  13.021  1.00  0.00     0.074 A 
ATOM     69  C   UNL     1      13.965   3.268  13.955  1.00  0.00     0.031 C 
ATOM     70  C   UNL     1      15.221   5.157  12.959  1.00  0.00     0.034 A 
BRANCH  57  71
ATOM     71  C   UNL     1      15.093   9.242   8.342  1.00  0.00     0.023 A 
ATOM     72  C   UNL     1      14.727  10.596   8.473  1.00  0.00     0.012 A 
ATOM     73  C   UNL     1      16.210   8.899   7.555  1.00  0.00     0.148 A 
ATOM     74  C   UNL     1      15.449  11.592   7.817  1.00  0.00     0.002 A 
ATOM     75  C   UNL     1      16.951   9.901   6.939  1.00  0.00     0.091 A 
ATOM     76  F   UNL     1      16.527   7.603   7.426  1.00  0.00    -0.205 F 
ATOM     77  C   UNL     1      16.567  11.246   7.062  1.00  0.00     0.022 A 
BRANCH  75  78
ATOM     78  S   UNL     1      18.453   9.565   6.013  1.00  0.00     0.127 S 
ATOM     79  O   UNL     1      18.036   9.889   4.649  1.00  0.00    -0.237 OA
ATOM     80  O   UNL     1      19.397  10.513   6.604  1.00  0.00    -0.237 OA
ATOM     81  O   UNL     1      18.768   8.163   6.249  1.00  0.00    -0.744 OA
ENDBRANCH  75  78
ENDBRANCH  57  71
BRANCH  58  82
ATOM     82  C   UNL     1      10.149   1.840  12.841  1.00  0.00     0.023 A 
ATOM     83  C   UNL     1       9.761   1.881  14.194  1.00  0.00     0.012 A 
ATOM     84  C   UNL     1       9.881   0.682  12.085  1.00  0.00     0.148 A 
ATOM     85  C   UNL     1       9.154   0.777  14.793  1.00  0.00     0.002 A 
ATOM     86  C   UNL     1       9.222  -0.391  12.671  1.00  0.00     0.091 A 
ATOM     87  F   UNL     1      10.275   0.654  10.804  1.00  0.00    -0.205 F 
ATOM     88  C   UNL     1       8.875  -0.355  14.030  1.00  0.00     0.022 A 
BRANCH  86  89
ATOM     89  S   UNL     1       8.704  -1.828  11.726  1.00  0.00     0.127 S 
ATOM     90  O   UNL     1       9.651  -2.842  12.179  1.00  0.00    -0.237 OA
ATOM     91  O   UNL     1       7.329  -2.016  12.189  1.00  0.00    -0.237 OA
ATOM     92  O   UNL     1       8.814  -1.434  10.327  1.00  0.00    -0.744 OA
ENDBRANCH  86  89
ENDBRANCH  58  82
BRANCH  70  93
ATOM     93  C   UNL     1      16.328   4.908  13.951  1.00  0.00     0.023 A 
ATOM     94  C   UNL     1      17.144   3.767  13.824  1.00  0.00     0.012 A 
ATOM     95  C   UNL     1      16.607   5.848  14.964  1.00  0.00     0.148 A 
ATOM     96  C   UNL     1      18.198   3.547  14.710  1.00  0.00     0.002 A 
ATOM     97  C   UNL     1      17.691   5.648  15.810  1.00  0.00     0.091 A 
ATOM     98  F   UNL     1      15.809   6.919  15.079  1.00  0.00    -0.205 F 
ATOM     99  C   UNL     1      18.479   4.492  15.694  1.00  0.00     0.022 A 
BRANCH  97 100
ATOM    100  S   UNL     1      18.187   6.861  17.040  1.00  0.00     0.127 S 
ATOM    101  O   UNL     1      17.782   6.206  18.283  1.00  0.00    -0.237 OA
ATOM    102  O   UNL     1      19.634   6.938  16.834  1.00  0.00    -0.237 OA
ATOM    103  O   UNL     1      17.465   8.083  16.713  1.00  0.00    -0.744 OA
ENDBRANCH  97 100
ENDBRANCH  70  93
ENDBRANCH  44  45
ENDBRANCH  37  39
ENDBRANCH  36  37
ENDBRANCH  35  36
ENDBRANCH  34  35
ENDBRANCH   1  34
TORSDOF 22
