REMARK SMILES O=C(OCCOCCOC(=O)[C@H]1CCCN(C(=O)C2CCN(S(=O)(=O)c3ccccc3)CC2)C1)c1ccc(-c2c3nc(c(-c4cccc(S(=O)(=O)[O-])c4F)c4ccc([nH]4)c(-c4cccc(S(=O)(=O)[O-])c4F)c4nc(c(-c5cccc(S(=O)(=O)[O-])c5F)c5ccc2[nH]5)C=C4)C=C3)cc1
REMARK SMILES IDX 7 1 6 2 5 3 4 4 3 5 2 6 1 7 35 8 36 9 97 10 37 11 96 12
REMARK SMILES IDX 38 13 39 14 40 15 90 16 41 17 95 18 89 19 91 20 42 21 94 22
REMARK SMILES IDX 88 23 87 24 43 26 75 27 55 28 74 29 56 30 59 31 73 32 92 33
REMARK SMILES IDX 57 34 58 35 72 37 93 38 60 39 44 40 45 41 53 42 46 43 48 44
REMARK SMILES IDX 54 45 47 46 49 47 50 48 51 49 52 50 76 51 77 52 85 53 78 54
REMARK SMILES IDX 80 55 86 56 79 57 81 58 82 59 83 60 84 61 61 62 62 63 70 64
REMARK SMILES IDX 63 65 65 66 71 67 64 68 66 69 67 70 68 71 69 72 8 73 9 74
REMARK SMILES IDX 10 75 11 76 12 77 13 78 34 79 14 80 16 81 15 82 17 83 18 84
REMARK SMILES IDX 19 85 20 86 33 87 21 88 32 89 22 90 23 91 24 92 25 93 26 94
REMARK SMILES IDX 27 95 31 96 28 97 30 98 29 99
REMARK H PARENT 91 25 59 36
REMARK Flexibility Score: inf
ROOT
ATOM      1  C   UNL     1       2.853  -0.080  -6.358  1.00  0.00     0.202 C 
ENDROOT
BRANCH   1   2
ATOM      2  O   UNL     1       2.478   0.709  -5.221  1.00  0.00    -0.374 OA
BRANCH   2   3
ATOM      3  C   UNL     1       2.219   0.060  -3.970  1.00  0.00     0.202 C 
BRANCH   3   4
ATOM      4  C   UNL     1       1.177  -1.069  -3.877  1.00  0.00     0.261 C 
BRANCH   4   5
ATOM      5  O   UNL     1       1.265  -2.002  -4.965  1.00  0.00    -0.460 OA
BRANCH   5   6
ATOM      6  C   UNL     1       0.331  -2.180  -5.937  1.00  0.00     0.338 C 
ATOM      7  O   UNL     1       0.350  -3.211  -6.603  1.00  0.00    -0.246 OA
BRANCH   6   8
ATOM      8  C   UNL     1      -0.683  -1.127  -6.255  1.00  0.00     0.060 A 
ATOM      9  C   UNL     1      -0.533   0.215  -5.908  1.00  0.00     0.016 A 
ATOM     10  C   UNL     1      -1.817  -1.488  -6.995  1.00  0.00     0.016 A 
ATOM     11  C   UNL     1      -1.515   1.150  -6.147  1.00  0.00     0.010 A 
ATOM     12  C   UNL     1      -2.792  -0.533  -7.309  1.00  0.00     0.010 A 
ATOM     13  C   UNL     1      -2.655   0.781  -6.845  1.00  0.00    -0.014 A 
BRANCH  13  14
ATOM     14  C   UNL     1      -3.717   1.794  -6.919  1.00  0.00     0.031 A 
ATOM     15  C   UNL     1      -4.900   1.640  -6.015  1.00  0.00     0.074 A 
ATOM     16  C   UNL     1      -3.493   2.923  -7.617  1.00  0.00     0.049 A 
ATOM     17  N   UNL     1      -5.911   2.442  -5.842  1.00  0.00    -0.248 NA
ATOM     18  C   UNL     1      -4.937   0.430  -5.172  1.00  0.00     0.031 C 
ATOM     19  C   UNL     1      -2.290   3.196  -8.411  1.00  0.00     0.029 A 
ATOM     20  N   UNL     1      -4.231   4.069  -7.727  1.00  0.00    -0.354 N 
ATOM     21  C   UNL     1      -6.737   1.807  -4.926  1.00  0.00     0.074 A 
ATOM     22  C   UNL     1      -6.097   0.568  -4.550  1.00  0.00     0.031 C 
ATOM     23  C   UNL     1      -2.354   4.448  -8.889  1.00  0.00     0.029 A 
ATOM     24  C   UNL     1      -3.627   5.037  -8.496  1.00  0.00     0.049 A 
ATOM     25  H   UNL     1      -5.108   4.189  -7.298  1.00  0.00     0.167 HD
ATOM     26  C   UNL     1      -7.931   2.224  -4.451  1.00  0.00     0.034 A 
ATOM     27  C   UNL     1      -4.073   6.257  -8.850  1.00  0.00     0.034 A 
ATOM     28  C   UNL     1      -8.525   3.476  -4.819  1.00  0.00     0.049 A 
ATOM     29  C   UNL     1      -5.423   6.679  -8.336  1.00  0.00     0.074 A 
ATOM     30  C   UNL     1      -9.755   3.989  -4.459  1.00  0.00     0.029 A 
ATOM     31  N   UNL     1      -7.916   4.417  -5.640  1.00  0.00    -0.354 N 
ATOM     32  N   UNL     1      -6.208   6.062  -7.483  1.00  0.00    -0.248 NA
ATOM     33  C   UNL     1      -5.949   7.957  -8.827  1.00  0.00     0.031 C 
ATOM     34  C   UNL     1      -9.895   5.238  -5.076  1.00  0.00     0.029 A 
ATOM     35  C   UNL     1      -8.745   5.509  -5.804  1.00  0.00     0.049 A 
ATOM     36  H   UNL     1      -7.023   4.320  -6.044  1.00  0.00     0.167 HD
ATOM     37  C   UNL     1      -7.318   6.880  -7.325  1.00  0.00     0.074 A 
ATOM     38  C   UNL     1      -7.084   8.054  -8.147  1.00  0.00     0.031 C 
ATOM     39  C   UNL     1      -8.442   6.676  -6.595  1.00  0.00     0.034 A 
BRANCH  26  40
ATOM     40  C   UNL     1      -8.662   1.286  -3.534  1.00  0.00     0.023 A 
ATOM     41  C   UNL     1      -8.263   1.155  -2.189  1.00  0.00     0.012 A 
ATOM     42  C   UNL     1      -9.717   0.495  -4.025  1.00  0.00     0.148 A 
ATOM     43  C   UNL     1      -8.885   0.225  -1.355  1.00  0.00     0.002 A 
ATOM     44  C   UNL     1     -10.353  -0.406  -3.180  1.00  0.00     0.091 A 
ATOM     45  F   UNL     1     -10.051   0.606  -5.319  1.00  0.00    -0.205 F 
ATOM     46  C   UNL     1      -9.932  -0.550  -1.848  1.00  0.00     0.022 A 
BRANCH  44  47
ATOM     47  S   UNL     1     -11.733  -1.419  -3.721  1.00  0.00     0.127 S 
ATOM     48  O   UNL     1     -11.101  -2.730  -3.858  1.00  0.00    -0.237 OA
ATOM     49  O   UNL     1     -12.662  -1.303  -2.596  1.00  0.00    -0.237 OA
ATOM     50  O   UNL     1     -12.208  -0.817  -4.959  1.00  0.00    -0.744 OA
ENDBRANCH  44  47
ENDBRANCH  26  40
BRANCH  27  51
ATOM     51  C   UNL     1      -3.244   7.147  -9.713  1.00  0.00     0.023 A 
ATOM     52  C   UNL     1      -2.753   8.362  -9.198  1.00  0.00     0.012 A 
ATOM     53  C   UNL     1      -2.908   6.783 -11.033  1.00  0.00     0.148 A 
ATOM     54  C   UNL     1      -1.961   9.202  -9.985  1.00  0.00     0.002 A 
ATOM     55  C   UNL     1      -2.071   7.595 -11.791  1.00  0.00     0.091 A 
ATOM     56  F   UNL     1      -3.408   5.640 -11.526  1.00  0.00    -0.205 F 
ATOM     57  C   UNL     1      -1.608   8.813 -11.274  1.00  0.00     0.022 A 
BRANCH  55  58
ATOM     58  S   UNL     1      -1.469   7.089 -13.407  1.00  0.00     0.127 S 
ATOM     59  O   UNL     1      -2.340   7.843 -14.303  1.00  0.00    -0.237 OA
ATOM     60  O   UNL     1      -0.077   7.541 -13.375  1.00  0.00    -0.237 OA
ATOM     61  O   UNL     1      -1.621   5.640 -13.435  1.00  0.00    -0.744 OA
ENDBRANCH  55  58
ENDBRANCH  27  51
BRANCH  39  62
ATOM     62  C   UNL     1      -9.490   7.750  -6.643  1.00  0.00     0.023 A 
ATOM     63  C   UNL     1     -10.314   7.862  -7.780  1.00  0.00     0.012 A 
ATOM     64  C   UNL     1      -9.718   8.578  -5.529  1.00  0.00     0.148 A 
ATOM     65  C   UNL     1     -11.339   8.804  -7.815  1.00  0.00     0.002 A 
ATOM     66  C   UNL     1     -10.771   9.482  -5.554  1.00  0.00     0.091 A 
ATOM     67  F   UNL     1      -8.903   8.468  -4.469  1.00  0.00    -0.205 F 
ATOM     68  C   UNL     1     -11.577   9.603  -6.698  1.00  0.00     0.022 A 
BRANCH  66  69
ATOM     69  S   UNL     1     -11.201  10.468  -4.116  1.00  0.00     0.127 S 
ATOM     70  O   UNL     1     -10.581  11.751  -4.437  1.00  0.00    -0.237 OA
ATOM     71  O   UNL     1     -12.664  10.468  -4.159  1.00  0.00    -0.237 OA
ATOM     72  O   UNL     1     -10.637   9.760  -2.974  1.00  0.00    -0.744 OA
ENDBRANCH  66  69
ENDBRANCH  39  62
ENDBRANCH  13  14
ENDBRANCH   6   8
ENDBRANCH   5   6
ENDBRANCH   4   5
ENDBRANCH   3   4
ENDBRANCH   2   3
ENDBRANCH   1   2
BRANCH   1  73
ATOM     73  C   UNL     1       3.682   0.761  -7.342  1.00  0.00     0.261 C 
BRANCH  73  74
ATOM     74  O   UNL     1       4.979   1.006  -6.784  1.00  0.00    -0.463 OA
BRANCH  74  75
ATOM     75  C   UNL     1       4.995   1.997  -5.854  1.00  0.00     0.310 C 
ATOM     76  O   UNL     1       4.565   3.126  -6.038  1.00  0.00    -0.252 OA
BRANCH  75  77
ATOM     77  C   UNL     1       5.594   1.512  -4.550  1.00  0.00     0.119 C 
ATOM     78  C   UNL     1       5.734  -0.021  -4.519  1.00  0.00     0.019 C 
ATOM     79  C   UNL     1       6.937   2.209  -4.296  1.00  0.00     0.134 C 
ATOM     80  C   UNL     1       6.401  -0.462  -3.247  1.00  0.00     0.022 C 
ATOM     81  N   UNL     1       7.686   1.591  -3.179  1.00  0.00    -0.342 N 
ATOM     82  C   UNL     1       7.781   0.155  -3.271  1.00  0.00     0.119 C 
BRANCH  81  83
ATOM     83  C   UNL     1       8.215   2.366  -2.167  1.00  0.00     0.225 C 
ATOM     84  O   UNL     1       7.956   3.575  -2.117  1.00  0.00    -0.275 OA
BRANCH  83  85
ATOM     85  C   UNL     1       9.142   1.796  -1.054  1.00  0.00     0.081 C 
ATOM     86  C   UNL     1      10.437   1.113  -1.466  1.00  0.00     0.030 C 
ATOM     87  C   UNL     1       8.487   1.079   0.114  1.00  0.00     0.030 C 
ATOM     88  C   UNL     1      10.472  -0.411  -1.471  1.00  0.00     0.103 C 
ATOM     89  C   UNL     1       8.343  -0.423  -0.040  1.00  0.00     0.103 C 
ATOM     90  N   UNL     1       9.558  -1.139  -0.514  1.00  0.00    -0.198 NA
BRANCH  90  91
ATOM     91  S   UNL     1       9.281  -2.755  -1.142  1.00  0.00     0.243 S 
ATOM     92  O   UNL     1       8.524  -2.627  -2.369  1.00  0.00    -0.207 OA
ATOM     93  O   UNL     1      10.577  -3.405  -1.166  1.00  0.00    -0.207 OA
BRANCH  91  94
ATOM     94  C   UNL     1       8.233  -3.644  -0.015  1.00  0.00     0.082 A 
ATOM     95  C   UNL     1       8.704  -4.830   0.556  1.00  0.00     0.022 A 
ATOM     96  C   UNL     1       6.879  -3.303   0.110  1.00  0.00     0.022 A 
ATOM     97  C   UNL     1       7.834  -5.642   1.287  1.00  0.00     0.001 A 
ATOM     98  C   UNL     1       6.024  -4.095   0.878  1.00  0.00     0.001 A 
ATOM     99  C   UNL     1       6.502  -5.266   1.462  1.00  0.00     0.000 A 
ENDBRANCH  91  94
ENDBRANCH  90  91
ENDBRANCH  83  85
ENDBRANCH  81  83
ENDBRANCH  75  77
ENDBRANCH  74  75
ENDBRANCH  73  74
ENDBRANCH   1  73
TORSDOF 21
