REMARK SMILES Cc1cc(C(=O)Nc2nc(CC(=O)OCCOCCOC(=O)c3ccc(-c4c5nc(c(-c6cccc(S(=O)(=O)[O-])c6F)c6ccc([nH]6)c(-c6cccc(S(=O)(=O)[O-])c6F)c6nc(c(-c7cccc(S(=O)(=O)[O-])c7F)c7ccc4[nH]7)C=C6)C=C5)cc3)cs2)sc1C
REMARK SMILES IDX 17 1 16 2 15 3 14 4 12 5 13 6 11 7 10 8 8 9 9 10 87 11 86 12
REMARK SMILES IDX 7 13 5 14 6 15 4 17 1 18 2 19 3 20 89 21 88 22 90 23 18 24
REMARK SMILES IDX 19 25 20 26 21 27 22 28 23 29 24 30 85 31 25 32 84 33 26 34
REMARK SMILES IDX 27 35 28 36 78 37 29 38 83 39 77 40 79 41 30 42 82 43 76 44
REMARK SMILES IDX 75 45 31 47 63 48 43 49 62 50 44 51 47 52 61 53 80 54 45 55
REMARK SMILES IDX 46 56 60 58 81 59 48 60 32 61 33 62 41 63 34 64 36 65 42 66
REMARK SMILES IDX 35 67 37 68 38 69 39 70 40 71 64 72 65 73 73 74 66 75 68 76
REMARK SMILES IDX 74 77 67 78 69 79 70 80 71 81 72 82 49 83 50 84 58 85 51 86
REMARK SMILES IDX 53 87 59 88 52 89 54 90 55 91 56 92 57 93
REMARK H PARENT 7 16 79 46 47 57
REMARK Flexibility Score: inf
ROOT
ATOM      1  O   UNL     1       7.222   4.623   2.249  1.00  0.00    -0.374 OA
ENDROOT
BRANCH   1   2
ATOM      2  C   UNL     1       7.156   3.750   3.381  1.00  0.00     0.202 C 
BRANCH   2   3
ATOM      3  C   UNL     1       5.754   3.484   3.939  1.00  0.00     0.261 C 
BRANCH   3   4
ATOM      4  O   UNL     1       4.947   2.707   3.030  1.00  0.00    -0.463 OA
BRANCH   4   5
ATOM      5  C   UNL     1       3.776   3.272   2.637  1.00  0.00     0.311 C 
ATOM      6  O   UNL     1       3.371   4.368   3.017  1.00  0.00    -0.252 OA
BRANCH   5   7
ATOM      7  C   UNL     1       2.968   2.439   1.675  1.00  0.00     0.179 C 
BRANCH   7   8
ATOM      8  C   UNL     1       3.661   1.322   0.965  1.00  0.00     0.065 A 
ATOM      9  C   UNL     1       3.700  -0.764   0.252  1.00  0.00     0.189 A 
ATOM     10  N   UNL     1       3.122   0.050   1.096  1.00  0.00    -0.224 NA
ATOM     11  S   UNL     1       5.084  -0.175  -0.541  1.00  0.00    -0.105 S 
ATOM     12  C   UNL     1       4.656   1.398   0.004  1.00  0.00     0.093 A 
BRANCH   9  13
ATOM     13  N   UNL     1       3.268  -1.979  -0.179  1.00  0.00    -0.297 N 
ATOM     14  C   UNL     1       1.952  -2.389  -0.214  1.00  0.00     0.267 C 
ATOM     15  O   UNL     1       1.754  -3.602  -0.333  1.00  0.00    -0.268 OA
ATOM     16  H   UNL     1       3.949  -2.618  -0.490  1.00  0.00     0.172 HD
BRANCH  14  17
ATOM     17  C   UNL     1       0.837  -1.437  -0.228  1.00  0.00     0.093 A 
ATOM     18  C   UNL     1      -2.781  -0.560   0.376  1.00  0.00     0.045 C 
ATOM     19  C   UNL     1      -1.329  -0.538   0.041  1.00  0.00    -0.037 A 
ATOM     20  C   UNL     1      -0.471  -1.688   0.148  1.00  0.00     0.029 A 
ATOM     21  C   UNL     1      -0.606   0.567  -0.374  1.00  0.00     0.005 A 
ATOM     22  S   UNL     1       0.916   0.100  -0.989  1.00  0.00    -0.135 S 
ATOM     23  C   UNL     1      -1.004   2.004  -0.417  1.00  0.00     0.056 C 
ENDBRANCH  14  17
ENDBRANCH   9  13
ENDBRANCH   7   8
ENDBRANCH   5   7
ENDBRANCH   4   5
ENDBRANCH   3   4
ENDBRANCH   2   3
ENDBRANCH   1   2
BRANCH   1  24
ATOM     24  C   UNL     1       6.826   4.072   0.995  1.00  0.00     0.202 C 
BRANCH  24  25
ATOM     25  C   UNL     1       7.843   3.138   0.327  1.00  0.00     0.261 C 
BRANCH  25  26
ATOM     26  O   UNL     1       8.054   1.940   1.096  1.00  0.00    -0.460 OA
BRANCH  26  27
ATOM     27  C   UNL     1       9.352   1.690   1.384  1.00  0.00     0.338 C 
ATOM     28  O   UNL     1      10.329   2.271   0.925  1.00  0.00    -0.246 OA
BRANCH  27  29
ATOM     29  C   UNL     1       9.476   0.722   2.488  1.00  0.00     0.060 A 
ATOM     30  C   UNL     1      10.175   1.148   3.623  1.00  0.00     0.016 A 
ATOM     31  C   UNL     1       9.036  -0.599   2.380  1.00  0.00     0.016 A 
ATOM     32  C   UNL     1      10.504   0.235   4.621  1.00  0.00     0.010 A 
ATOM     33  C   UNL     1       9.369  -1.517   3.388  1.00  0.00     0.010 A 
ATOM     34  C   UNL     1      10.146  -1.114   4.489  1.00  0.00    -0.014 A 
BRANCH  34  35
ATOM     35  C   UNL     1      10.712  -2.090   5.457  1.00  0.00     0.031 A 
ATOM     36  C   UNL     1      11.922  -2.902   5.075  1.00  0.00     0.074 A 
ATOM     37  C   UNL     1      10.205  -2.188   6.699  1.00  0.00     0.049 A 
ATOM     38  N   UNL     1      12.662  -3.682   5.820  1.00  0.00    -0.248 NA
ATOM     39  C   UNL     1      12.361  -2.821   3.672  1.00  0.00     0.031 C 
ATOM     40  C   UNL     1       9.027  -1.473   7.187  1.00  0.00     0.029 A 
ATOM     41  N   UNL     1      10.621  -2.928   7.777  1.00  0.00    -0.354 N 
ATOM     42  C   UNL     1      13.648  -4.189   4.982  1.00  0.00     0.074 A 
ATOM     43  C   UNL     1      13.396  -3.649   3.663  1.00  0.00     0.031 C 
ATOM     44  C   UNL     1       8.813  -1.811   8.470  1.00  0.00     0.029 A 
ATOM     45  C   UNL     1       9.837  -2.764   8.894  1.00  0.00     0.049 A 
ATOM     46  H   UNL     1      11.408  -3.520   7.753  1.00  0.00     0.167 HD
ATOM     47  C   UNL     1      14.686  -5.006   5.285  1.00  0.00     0.034 A 
ATOM     48  C   UNL     1       9.939  -3.311  10.122  1.00  0.00     0.034 A 
ATOM     49  C   UNL     1      14.950  -5.528   6.599  1.00  0.00     0.049 A 
ATOM     50  C   UNL     1      11.107  -4.211  10.434  1.00  0.00     0.074 A 
ATOM     51  C   UNL     1      16.003  -6.325   7.013  1.00  0.00     0.029 A 
ATOM     52  N   UNL     1      14.152  -5.314   7.711  1.00  0.00    -0.354 N 
ATOM     53  N   UNL     1      12.113  -4.556   9.668  1.00  0.00    -0.248 NA
ATOM     54  C   UNL     1      11.175  -4.760  11.797  1.00  0.00     0.031 C 
ATOM     55  C   UNL     1      15.832  -6.607   8.374  1.00  0.00     0.029 A 
ATOM     56  C   UNL     1      14.681  -5.971   8.810  1.00  0.00     0.049 A 
ATOM     57  H   UNL     1      13.328  -4.774   7.719  1.00  0.00     0.167 HD
ATOM     58  C   UNL     1      12.947  -5.338  10.461  1.00  0.00     0.074 A 
ATOM     59  C   UNL     1      12.343  -5.388  11.777  1.00  0.00     0.031 C 
ATOM     60  C   UNL     1      14.096  -5.976  10.126  1.00  0.00     0.034 A 
BRANCH  47  61
ATOM     61  C   UNL     1      15.650  -5.348   4.179  1.00  0.00     0.023 A 
ATOM     62  C   UNL     1      16.575  -4.377   3.745  1.00  0.00     0.012 A 
ATOM     63  C   UNL     1      15.688  -6.639   3.616  1.00  0.00     0.148 A 
ATOM     64  C   UNL     1      17.506  -4.676   2.752  1.00  0.00     0.002 A 
ATOM     65  C   UNL     1      16.643  -6.940   2.652  1.00  0.00     0.091 A 
ATOM     66  F   UNL     1      14.785  -7.541   4.025  1.00  0.00    -0.205 F 
ATOM     67  C   UNL     1      17.547  -5.958   2.213  1.00  0.00     0.022 A 
BRANCH  65  68
ATOM     68  S   UNL     1      16.820  -8.583   1.946  1.00  0.00     0.127 S 
ATOM     69  O   UNL     1      16.294  -8.382   0.596  1.00  0.00    -0.237 OA
ATOM     70  O   UNL     1      18.267  -8.793   2.010  1.00  0.00    -0.237 OA
ATOM     71  O   UNL     1      16.041  -9.470   2.797  1.00  0.00    -0.744 OA
ENDBRANCH  65  68
ENDBRANCH  47  61
BRANCH  48  72
ATOM     72  C   UNL     1       8.940  -2.968  11.173  1.00  0.00     0.023 A 
ATOM     73  C   UNL     1       9.328  -2.182  12.275  1.00  0.00     0.012 A 
ATOM     74  C   UNL     1       7.604  -3.402  11.076  1.00  0.00     0.148 A 
ATOM     75  C   UNL     1       8.412  -1.858  13.276  1.00  0.00     0.002 A 
ATOM     76  C   UNL     1       6.683  -3.029  12.048  1.00  0.00     0.091 A 
ATOM     77  F   UNL     1       7.258  -4.171  10.034  1.00  0.00    -0.205 F 
ATOM     78  C   UNL     1       7.087  -2.271  13.157  1.00  0.00     0.022 A 
BRANCH  76  79
ATOM     79  S   UNL     1       4.933  -3.407  11.896  1.00  0.00     0.127 S 
ATOM     80  O   UNL     1       4.782  -4.513  12.837  1.00  0.00    -0.237 OA
ATOM     81  O   UNL     1       4.311  -2.151  12.316  1.00  0.00    -0.237 OA
ATOM     82  O   UNL     1       4.729  -3.731  10.491  1.00  0.00    -0.744 OA
ENDBRANCH  76  79
ENDBRANCH  48  72
BRANCH  60  83
ATOM     83  C   UNL     1      14.783  -6.778  11.201  1.00  0.00     0.023 A 
ATOM     84  C   UNL     1      14.216  -7.995  11.629  1.00  0.00     0.012 A 
ATOM     85  C   UNL     1      16.008  -6.357  11.755  1.00  0.00     0.148 A 
ATOM     86  C   UNL     1      14.835  -8.760  12.618  1.00  0.00     0.002 A 
ATOM     87  C   UNL     1      16.643  -7.147  12.708  1.00  0.00     0.091 A 
ATOM     88  F   UNL     1      16.527  -5.187  11.354  1.00  0.00    -0.205 F 
ATOM     89  C   UNL     1      16.052  -8.341  13.150  1.00  0.00     0.022 A 
BRANCH  87  90
ATOM     90  S   UNL     1      18.256  -6.719  13.375  1.00  0.00     0.127 S 
ATOM     91  O   UNL     1      17.899  -6.090  14.644  1.00  0.00    -0.237 OA
ATOM     92  O   UNL     1      18.903  -8.026  13.504  1.00  0.00    -0.237 OA
ATOM     93  O   UNL     1      18.869  -5.845  12.384  1.00  0.00    -0.744 OA
ENDBRANCH  87  90
ENDBRANCH  60  83
ENDBRANCH  34  35
ENDBRANCH  27  29
ENDBRANCH  26  27
ENDBRANCH  25  26
ENDBRANCH  24  25
ENDBRANCH   1  24
TORSDOF 20
