REMARK SMILES O=C(OCCOCCOC(=O)c1cccc(CS(=O)(=O)Nc2ncccn2)c1)c1ccc(-c2c3nc(c(-c4cccc(S(=O)(=O)[O-])c4F)c4ccc([nH]4)c(-c4cccc(S(=O)(=O)[O-])c4F)c4nc(c(-c5cccc(S(=O)(=O)[O-])c5F)c5ccc2[nH]5)C=C4)C=C3)cc1
REMARK SMILES IDX 7 1 6 2 5 3 4 4 3 5 2 6 1 7 29 8 30 9 91 10 31 11 90 12
REMARK SMILES IDX 32 13 33 14 34 15 84 16 35 17 89 18 83 19 85 20 36 21 88 22
REMARK SMILES IDX 82 23 81 24 37 26 69 27 49 28 68 29 50 30 53 31 67 32 86 33
REMARK SMILES IDX 51 34 52 35 66 37 87 38 54 39 38 40 39 41 47 42 40 43 42 44
REMARK SMILES IDX 48 45 41 46 43 47 44 48 45 49 46 50 70 51 71 52 79 53 72 54
REMARK SMILES IDX 74 55 80 56 73 57 75 58 76 59 77 60 78 61 55 62 56 63 64 64
REMARK SMILES IDX 57 65 59 66 65 67 58 68 60 69 61 70 62 71 63 72 8 73 9 74
REMARK SMILES IDX 10 75 11 76 12 77 13 78 28 79 14 80 16 81 15 82 17 83 18 84
REMARK SMILES IDX 19 85 20 86 21 87 22 89 23 90 27 91 24 92 26 93 25 94
REMARK H PARENT 85 25 53 36 21 88
REMARK Flexibility Score: inf
ROOT
ATOM      1  C   UNL     1       2.298   1.324  -1.274  1.00  0.00     0.202 C 
ENDROOT
BRANCH   1   2
ATOM      2  O   UNL     1       3.627   0.913  -0.954  1.00  0.00    -0.374 OA
BRANCH   2   3
ATOM      3  C   UNL     1       3.978  -0.438  -1.250  1.00  0.00     0.202 C 
BRANCH   3   4
ATOM      4  C   UNL     1       3.745  -1.415  -0.098  1.00  0.00     0.261 C 
BRANCH   4   5
ATOM      5  O   UNL     1       2.379  -1.360   0.334  1.00  0.00    -0.460 OA
BRANCH   5   6
ATOM      6  C   UNL     1       1.856  -0.552   1.289  1.00  0.00     0.338 C 
ATOM      7  O   UNL     1       0.634  -0.511   1.418  1.00  0.00    -0.246 OA
BRANCH   6   8
ATOM      8  C   UNL     1       2.694   0.250   2.231  1.00  0.00     0.060 A 
ATOM      9  C   UNL     1       3.925   0.826   1.915  1.00  0.00     0.016 A 
ATOM     10  C   UNL     1       2.166   0.488   3.510  1.00  0.00     0.016 A 
ATOM     11  C   UNL     1       4.655   1.543   2.838  1.00  0.00     0.010 A 
ATOM     12  C   UNL     1       2.881   1.241   4.447  1.00  0.00     0.010 A 
ATOM     13  C   UNL     1       4.142   1.742   4.111  1.00  0.00    -0.014 A 
BRANCH  13  14
ATOM     14  C   UNL     1       5.063   2.335   5.086  1.00  0.00     0.031 A 
ATOM     15  C   UNL     1       5.734   1.413   6.052  1.00  0.00     0.074 A 
ATOM     16  C   UNL     1       5.421   3.623   4.946  1.00  0.00     0.049 A 
ATOM     17  N   UNL     1       6.604   1.685   6.982  1.00  0.00    -0.248 NA
ATOM     18  C   UNL     1       5.399  -0.020   5.939  1.00  0.00     0.031 C 
ATOM     19  C   UNL     1       4.913   4.532   3.912  1.00  0.00     0.029 A 
ATOM     20  N   UNL     1       6.322   4.380   5.640  1.00  0.00    -0.354 N 
ATOM     21  C   UNL     1       6.861   0.476   7.614  1.00  0.00     0.074 A 
ATOM     22  C   UNL     1       6.089  -0.541   6.940  1.00  0.00     0.031 C 
ATOM     23  C   UNL     1       5.525   5.720   4.032  1.00  0.00     0.029 A 
ATOM     24  C   UNL     1       6.406   5.677   5.191  1.00  0.00     0.049 A 
ATOM     25  H   UNL     1       6.858   4.031   6.389  1.00  0.00     0.167 HD
ATOM     26  C   UNL     1       7.661   0.253   8.679  1.00  0.00     0.034 A 
ATOM     27  C   UNL     1       7.096   6.713   5.699  1.00  0.00     0.034 A 
ATOM     28  C   UNL     1       8.424   1.294   9.305  1.00  0.00     0.049 A 
ATOM     29  C   UNL     1       7.933   6.448   6.921  1.00  0.00     0.074 A 
ATOM     30  C   UNL     1       9.235   1.224  10.419  1.00  0.00     0.029 A 
ATOM     31  N   UNL     1       8.456   2.611   8.860  1.00  0.00    -0.354 N 
ATOM     32  N   UNL     1       8.158   5.307   7.533  1.00  0.00    -0.248 NA
ATOM     33  C   UNL     1       8.615   7.599   7.520  1.00  0.00     0.031 C 
ATOM     34  C   UNL     1       9.732   2.508  10.668  1.00  0.00     0.029 A 
ATOM     35  C   UNL     1       9.264   3.369   9.683  1.00  0.00     0.049 A 
ATOM     36  H   UNL     1       7.973   2.953   8.073  1.00  0.00     0.167 HD
ATOM     37  C   UNL     1       9.030   5.596   8.572  1.00  0.00     0.074 A 
ATOM     38  C   UNL     1       9.309   7.019   8.489  1.00  0.00     0.031 C 
ATOM     39  C   UNL     1       9.544   4.775   9.521  1.00  0.00     0.034 A 
BRANCH  26  40
ATOM     40  C   UNL     1       7.666  -1.137   9.252  1.00  0.00     0.023 A 
ATOM     41  C   UNL     1       8.301  -2.195   8.571  1.00  0.00     0.012 A 
ATOM     42  C   UNL     1       6.987  -1.399  10.458  1.00  0.00     0.148 A 
ATOM     43  C   UNL     1       8.223  -3.500   9.061  1.00  0.00     0.002 A 
ATOM     44  C   UNL     1       6.951  -2.693  10.962  1.00  0.00     0.091 A 
ATOM     45  F   UNL     1       6.359  -0.386  11.070  1.00  0.00    -0.205 F 
ATOM     46  C   UNL     1       7.555  -3.747  10.258  1.00  0.00     0.022 A 
BRANCH  44  47
ATOM     47  S   UNL     1       6.162  -3.099  12.523  1.00  0.00     0.127 S 
ATOM     48  O   UNL     1       5.014  -3.888  12.076  1.00  0.00    -0.237 OA
ATOM     49  O   UNL     1       7.205  -3.870  13.200  1.00  0.00    -0.237 OA
ATOM     50  O   UNL     1       5.838  -1.828  13.154  1.00  0.00    -0.744 OA
ENDBRANCH  44  47
ENDBRANCH  26  40
BRANCH  27  51
ATOM     51  C   UNL     1       7.014   8.065   5.074  1.00  0.00     0.023 A 
ATOM     52  C   UNL     1       8.163   8.646   4.505  1.00  0.00     0.012 A 
ATOM     53  C   UNL     1       5.796   8.775   5.025  1.00  0.00     0.148 A 
ATOM     54  C   UNL     1       8.108   9.916   3.927  1.00  0.00     0.002 A 
ATOM     55  C   UNL     1       5.735  10.014   4.397  1.00  0.00     0.091 A 
ATOM     56  F   UNL     1       4.713   8.220   5.588  1.00  0.00    -0.205 F 
ATOM     57  C   UNL     1       6.894  10.595   3.864  1.00  0.00     0.022 A 
BRANCH  55  58
ATOM     58  S   UNL     1       4.189  10.898   4.160  1.00  0.00     0.127 S 
ATOM     59  O   UNL     1       4.337  12.014   5.090  1.00  0.00    -0.237 OA
ATOM     60  O   UNL     1       4.263  11.261   2.744  1.00  0.00    -0.237 OA
ATOM     61  O   UNL     1       3.137   9.942   4.478  1.00  0.00    -0.744 OA
ENDBRANCH  55  58
ENDBRANCH  27  51
BRANCH  39  62
ATOM     62  C   UNL     1      10.498   5.389  10.506  1.00  0.00     0.023 A 
ATOM     63  C   UNL     1      10.014   6.235  11.522  1.00  0.00     0.012 A 
ATOM     64  C   UNL     1      11.864   5.053  10.465  1.00  0.00     0.148 A 
ATOM     65  C   UNL     1      10.888   6.766  12.468  1.00  0.00     0.002 A 
ATOM     66  C   UNL     1      12.716   5.538  11.445  1.00  0.00     0.091 A 
ATOM     67  F   UNL     1      12.300   4.264   9.473  1.00  0.00    -0.205 F 
ATOM     68  C   UNL     1      12.234   6.405  12.439  1.00  0.00     0.022 A 
BRANCH  66  69
ATOM     69  S   UNL     1      14.434   5.028  11.547  1.00  0.00     0.127 S 
ATOM     70  O   UNL     1      15.126   6.215  11.048  1.00  0.00    -0.237 OA
ATOM     71  O   UNL     1      14.600   4.779  12.979  1.00  0.00    -0.237 OA
ATOM     72  O   UNL     1      14.547   3.839  10.713  1.00  0.00    -0.744 OA
ENDBRANCH  66  69
ENDBRANCH  39  62
ENDBRANCH  13  14
ENDBRANCH   6   8
ENDBRANCH   5   6
ENDBRANCH   4   5
ENDBRANCH   3   4
ENDBRANCH   2   3
ENDBRANCH   1   2
BRANCH   1  73
ATOM     73  C   UNL     1       2.352   2.427  -2.331  1.00  0.00     0.261 C 
BRANCH  73  74
ATOM     74  O   UNL     1       2.945   1.887  -3.520  1.00  0.00    -0.460 OA
BRANCH  74  75
ATOM     75  C   UNL     1       4.297   1.867  -3.511  1.00  0.00     0.338 C 
ATOM     76  O   UNL     1       5.062   2.496  -2.786  1.00  0.00    -0.246 OA
BRANCH  75  77
ATOM     77  C   UNL     1       4.747   0.855  -4.472  1.00  0.00     0.060 A 
ATOM     78  C   UNL     1       5.802  -0.001  -4.141  1.00  0.00     0.016 A 
ATOM     79  C   UNL     1       4.184   0.831  -5.744  1.00  0.00     0.020 A 
ATOM     80  C   UNL     1       6.239  -0.943  -5.065  1.00  0.00     0.001 A 
ATOM     81  C   UNL     1       4.740   0.010  -6.724  1.00  0.00    -0.030 A 
ATOM     82  C   UNL     1       5.706  -0.940  -6.353  1.00  0.00     0.005 A 
BRANCH  81  83
ATOM     83  C   UNL     1       4.347   0.235  -8.154  1.00  0.00     0.195 C 
BRANCH  83  84
ATOM     84  S   UNL     1       5.734   0.873  -9.140  1.00  0.00     0.239 S 
ATOM     85  O   UNL     1       6.924   0.088  -8.871  1.00  0.00    -0.206 OA
ATOM     86  O   UNL     1       5.265   0.926 -10.515  1.00  0.00    -0.206 OA
BRANCH  84  87
ATOM     87  N   UNL     1       6.129   2.433  -8.748  1.00  0.00    -0.251 N 
ATOM     88  H   UNL     1       6.579   3.004  -9.412  1.00  0.00     0.183 HD
BRANCH  87  89
ATOM     89  C   UNL     1       5.831   2.944  -7.486  1.00  0.00     0.236 A 
ATOM     90  N   UNL     1       4.761   3.740  -7.404  1.00  0.00    -0.221 NA
ATOM     91  N   UNL     1       6.782   2.780  -6.565  1.00  0.00    -0.221 NA
ATOM     92  C   UNL     1       4.679   4.477  -6.275  1.00  0.00     0.117 A 
ATOM     93  C   UNL     1       6.620   3.502  -5.435  1.00  0.00     0.117 A 
ATOM     94  C   UNL     1       5.590   4.396  -5.247  1.00  0.00     0.040 A 
ENDBRANCH  87  89
ENDBRANCH  84  87
ENDBRANCH  83  84
ENDBRANCH  81  83
ENDBRANCH  75  77
ENDBRANCH  74  75
ENDBRANCH  73  74
ENDBRANCH   1  73
TORSDOF 21
