REMARK SMILES O=C(CCC(=O)OCCOCCOC(=O)c1ccc(-c2c3nc(c(-c4cccc(S(=O)(=O)[O-])c4F)c4ccc([nH]4)c(-c4cccc(S(=O)(=O)[O-])c4F)c4nc(c(-c5cccc(S(=O)(=O)[O-])c5F)c5ccc2[nH]5)C=C4)C=C3)cc1)Nc1ccc(C(=O)N2CCOCC2)cc1
REMARK SMILES IDX 9 1 8 2 7 3 5 4 6 5 4 6 3 7 2 8 1 9 79 10 80 12 81 13 93 14
REMARK SMILES IDX 82 15 92 16 83 17 84 18 85 19 86 20 87 21 91 22 88 23 90 24
REMARK SMILES IDX 89 25 10 26 11 27 12 28 13 29 14 30 15 31 16 32 17 33 78 34
REMARK SMILES IDX 18 35 77 36 19 37 20 38 21 39 71 40 22 41 76 42 70 43 72 44
REMARK SMILES IDX 23 45 75 46 69 47 68 48 24 50 56 51 36 52 55 53 37 54 40 55
REMARK SMILES IDX 54 56 73 57 38 58 39 59 53 61 74 62 41 63 25 64 26 65 34 66
REMARK SMILES IDX 27 67 29 68 35 69 28 70 30 71 31 72 32 73 33 74 57 75 58 76
REMARK SMILES IDX 66 77 59 78 61 79 67 80 60 81 62 82 63 83 64 84 65 85 42 86
REMARK SMILES IDX 43 87 51 88 44 89 46 90 52 91 45 92 47 93 48 94 49 95 50 96
REMARK H PARENT 79 11 72 49 40 60
REMARK Flexibility Score: inf
ROOT
ATOM      1  C   UNL     1       6.517   1.373   1.393  1.00  0.00     0.202 C 
ENDROOT
BRANCH   1   2
ATOM      2  C   UNL     1       5.953   2.400   0.404  1.00  0.00     0.261 C 
BRANCH   2   3
ATOM      3  O   UNL     1       4.761   1.892  -0.240  1.00  0.00    -0.463 OA
BRANCH   3   4
ATOM      4  C   UNL     1       4.819   1.672  -1.582  1.00  0.00     0.306 C 
ATOM      5  O   UNL     1       5.791   1.893  -2.290  1.00  0.00    -0.252 OA
BRANCH   4   6
ATOM      6  C   UNL     1       3.505   1.127  -2.104  1.00  0.00     0.132 C 
BRANCH   6   7
ATOM      7  C   UNL     1       3.057  -0.199  -1.492  1.00  0.00     0.112 C 
BRANCH   7   8
ATOM      8  C   UNL     1       2.081  -0.082  -0.331  1.00  0.00     0.224 C 
ATOM      9  O   UNL     1       0.999  -0.661  -0.379  1.00  0.00    -0.275 OA
ATOM     10  N   UNL     1       2.553   0.671   0.720  1.00  0.00    -0.326 N 
ATOM     11  H   UNL     1       3.452   1.058   0.612  1.00  0.00     0.169 HD
BRANCH  10  12
ATOM     12  C   UNL     1       1.895   0.951   1.928  1.00  0.00     0.041 A 
ATOM     13  C   UNL     1       2.321   2.082   2.624  1.00  0.00     0.027 A 
ATOM     14  C   UNL     1       0.827   0.204   2.424  1.00  0.00     0.027 A 
ATOM     15  C   UNL     1       1.623   2.506   3.752  1.00  0.00     0.016 A 
ATOM     16  C   UNL     1       0.154   0.614   3.582  1.00  0.00     0.016 A 
ATOM     17  C   UNL     1       0.545   1.770   4.258  1.00  0.00     0.040 A 
BRANCH  17  18
ATOM     18  C   UNL     1      -0.271   2.398   5.327  1.00  0.00     0.254 C 
ATOM     19  O   UNL     1      -0.293   3.628   5.322  1.00  0.00    -0.269 OA
ATOM     20  N   UNL     1      -1.062   1.654   6.184  1.00  0.00    -0.334 N 
ATOM     21  C   UNL     1      -0.926   0.266   6.620  1.00  0.00     0.148 C 
ATOM     22  C   UNL     1      -2.283   2.280   6.681  1.00  0.00     0.148 C 
ATOM     23  C   UNL     1      -2.182  -0.546   6.257  1.00  0.00     0.181 C 
ATOM     24  C   UNL     1      -3.451   1.469   6.115  1.00  0.00     0.181 C 
ATOM     25  O   UNL     1      -3.408   0.115   6.611  1.00  0.00    -0.378 OA
ENDBRANCH  17  18
ENDBRANCH  10  12
ENDBRANCH   7   8
ENDBRANCH   6   7
ENDBRANCH   4   6
ENDBRANCH   3   4
ENDBRANCH   2   3
ENDBRANCH   1   2
BRANCH   1  26
ATOM     26  O   UNL     1       7.228   0.280   0.806  1.00  0.00    -0.374 OA
BRANCH  26  27
ATOM     27  C   UNL     1       6.437  -0.761   0.244  1.00  0.00     0.202 C 
BRANCH  27  28
ATOM     28  C   UNL     1       5.929  -1.838   1.212  1.00  0.00     0.261 C 
BRANCH  28  29
ATOM     29  O   UNL     1       5.145  -1.291   2.284  1.00  0.00    -0.460 OA
BRANCH  29  30
ATOM     30  C   UNL     1       5.824  -1.140   3.447  1.00  0.00     0.338 C 
ATOM     31  O   UNL     1       6.980  -1.476   3.671  1.00  0.00    -0.246 OA
BRANCH  30  32
ATOM     32  C   UNL     1       5.032  -0.354   4.411  1.00  0.00     0.060 A 
ATOM     33  C   UNL     1       5.654   0.730   5.045  1.00  0.00     0.016 A 
ATOM     34  C   UNL     1       3.731  -0.710   4.751  1.00  0.00     0.016 A 
ATOM     35  C   UNL     1       4.995   1.431   6.059  1.00  0.00     0.010 A 
ATOM     36  C   UNL     1       3.078   0.003   5.762  1.00  0.00     0.010 A 
ATOM     37  C   UNL     1       3.705   1.060   6.453  1.00  0.00    -0.014 A 
BRANCH  37  38
ATOM     38  C   UNL     1       3.043   1.687   7.639  1.00  0.00     0.031 A 
ATOM     39  C   UNL     1       2.698   0.833   8.837  1.00  0.00     0.074 A 
ATOM     40  C   UNL     1       2.706   2.994   7.660  1.00  0.00     0.049 A 
ATOM     41  N   UNL     1       2.104   1.172   9.953  1.00  0.00    -0.248 NA
ATOM     42  C   UNL     1       3.071  -0.590   8.773  1.00  0.00     0.031 C 
ATOM     43  C   UNL     1       2.978   3.964   6.602  1.00  0.00     0.029 A 
ATOM     44  N   UNL     1       2.000   3.720   8.593  1.00  0.00    -0.354 N 
ATOM     45  C   UNL     1       2.038   0.015  10.719  1.00  0.00     0.074 A 
ATOM     46  C   UNL     1       2.572  -1.056   9.907  1.00  0.00     0.031 C 
ATOM     47  C   UNL     1       2.350   5.119   6.885  1.00  0.00     0.029 A 
ATOM     48  C   UNL     1       1.666   4.987   8.166  1.00  0.00     0.049 A 
ATOM     49  H   UNL     1       1.758   3.368   9.479  1.00  0.00     0.167 HD
ATOM     50  C   UNL     1       1.633  -0.140  12.003  1.00  0.00     0.034 A 
ATOM     51  C   UNL     1       0.902   5.940   8.736  1.00  0.00     0.034 A 
ATOM     52  C   UNL     1       1.141   0.928  12.831  1.00  0.00     0.049 A 
ATOM     53  C   UNL     1       0.393   5.731  10.138  1.00  0.00     0.074 A 
ATOM     54  C   UNL     1       0.824   0.897  14.178  1.00  0.00     0.029 A 
ATOM     55  N   UNL     1       0.868   2.212  12.388  1.00  0.00    -0.354 N 
ATOM     56  N   UNL     1       0.524   4.686  10.918  1.00  0.00    -0.248 NA
ATOM     57  C   UNL     1      -0.285   6.872  10.772  1.00  0.00     0.031 C 
ATOM     58  C   UNL     1       0.316   2.151  14.538  1.00  0.00     0.029 A 
ATOM     59  C   UNL     1       0.358   2.975  13.425  1.00  0.00     0.049 A 
ATOM     60  H   UNL     1       1.015   2.535  11.469  1.00  0.00     0.167 HD
ATOM     61  C   UNL     1       0.020   5.070  12.157  1.00  0.00     0.074 A 
ATOM     62  C   UNL     1      -0.428   6.441  12.018  1.00  0.00     0.031 C 
ATOM     63  C   UNL     1      -0.047   4.354  13.307  1.00  0.00     0.034 A 
BRANCH  50  64
ATOM     64  C   UNL     1       1.764  -1.515  12.609  1.00  0.00     0.023 A 
ATOM     65  C   UNL     1       3.045  -2.052  12.856  1.00  0.00     0.012 A 
ATOM     66  C   UNL     1       0.624  -2.261  12.962  1.00  0.00     0.148 A 
ATOM     67  C   UNL     1       3.191  -3.330  13.393  1.00  0.00     0.002 A 
ATOM     68  C   UNL     1       0.777  -3.514  13.546  1.00  0.00     0.091 A 
ATOM     69  F   UNL     1      -0.585  -1.746  12.703  1.00  0.00    -0.205 F 
ATOM     70  C   UNL     1       2.057  -4.056  13.747  1.00  0.00     0.022 A 
BRANCH  68  71
ATOM     71  S   UNL     1      -0.618  -4.492  14.112  1.00  0.00     0.127 S 
ATOM     72  O   UNL     1      -0.651  -5.560  13.113  1.00  0.00    -0.237 OA
ATOM     73  O   UNL     1      -0.178  -4.915  15.442  1.00  0.00    -0.237 OA
ATOM     74  O   UNL     1      -1.764  -3.594  14.109  1.00  0.00    -0.744 OA
ENDBRANCH  68  71
ENDBRANCH  50  64
BRANCH  51  75
ATOM     75  C   UNL     1       0.684   7.244   8.044  1.00  0.00     0.023 A 
ATOM     76  C   UNL     1       1.405   8.374   8.479  1.00  0.00     0.012 A 
ATOM     77  C   UNL     1      -0.225   7.377   6.975  1.00  0.00     0.148 A 
ATOM     78  C   UNL     1       1.204   9.620   7.885  1.00  0.00     0.002 A 
ATOM     79  C   UNL     1      -0.387   8.613   6.356  1.00  0.00     0.091 A 
ATOM     80  F   UNL     1      -0.926   6.300   6.598  1.00  0.00    -0.205 F 
ATOM     81  C   UNL     1       0.316   9.737   6.820  1.00  0.00     0.022 A 
BRANCH  79  82
ATOM     82  S   UNL     1      -1.448   8.873   4.928  1.00  0.00     0.127 S 
ATOM     83  O   UNL     1      -2.408   9.848   5.442  1.00  0.00    -0.237 OA
ATOM     84  O   UNL     1      -0.500   9.406   3.949  1.00  0.00    -0.237 OA
ATOM     85  O   UNL     1      -2.007   7.572   4.593  1.00  0.00    -0.744 OA
ENDBRANCH  79  82
ENDBRANCH  51  75
BRANCH  63  86
ATOM     86  C   UNL     1      -0.567   5.051  14.540  1.00  0.00     0.023 A 
ATOM     87  C   UNL     1      -1.924   5.420  14.631  1.00  0.00     0.012 A 
ATOM     88  C   UNL     1       0.288   5.304  15.632  1.00  0.00     0.148 A 
ATOM     89  C   UNL     1      -2.408   6.075  15.764  1.00  0.00     0.002 A 
ATOM     90  C   UNL     1      -0.214   5.904  16.781  1.00  0.00     0.091 A 
ATOM     91  F   UNL     1       1.581   4.964  15.526  1.00  0.00    -0.205 F 
ATOM     92  C   UNL     1      -1.557   6.307  16.841  1.00  0.00     0.022 A 
BRANCH  90  93
ATOM     93  S   UNL     1       0.784   6.145  18.256  1.00  0.00     0.127 S 
ATOM     94  O   UNL     1       1.018   7.588  18.226  1.00  0.00    -0.237 OA
ATOM     95  O   UNL     1      -0.117   5.696  19.317  1.00  0.00    -0.237 OA
ATOM     96  O   UNL     1       1.967   5.314  18.079  1.00  0.00    -0.744 OA
ENDBRANCH  90  93
ENDBRANCH  63  86
ENDBRANCH  37  38
ENDBRANCH  30  32
ENDBRANCH  29  30
ENDBRANCH  28  29
ENDBRANCH  27  28
ENDBRANCH  26  27
ENDBRANCH   1  26
TORSDOF 21
