REMARK SMILES C[C@@H](C(=O)OCCOCCOC(=O)c1ccc(-c2c3nc(c(-c4cccc(S(=O)(=O)[O-])c4F)c4ccc([nH]4)c(-c4cccc(S(=O)(=O)[O-])c4F)c4nc(c(-c5cccc(S(=O)(=O)[O-])c5F)c5ccc2[nH]5)C=C4)C=C3)cc1)n1ccc(C(=O)N2CC[NH+](Cc3cccc(F)c3)CC2)n1
REMARK SMILES IDX 7 1 6 2 5 3 3 4 4 5 2 6 1 7 77 8 78 9 97 10 79 11 80 12
REMARK SMILES IDX 81 13 82 14 83 15 84 16 96 17 85 18 95 19 86 20 87 22 88 23
REMARK SMILES IDX 89 24 94 25 90 26 92 27 91 28 93 29 8 30 9 31 10 32 11 33
REMARK SMILES IDX 12 34 13 35 14 36 15 37 76 38 16 39 75 40 17 41 18 42 19 43
REMARK SMILES IDX 69 44 20 45 74 46 68 47 70 48 21 49 73 50 67 51 66 52 22 54
REMARK SMILES IDX 54 55 34 56 53 57 35 58 38 59 52 60 71 61 36 62 37 63 51 65
REMARK SMILES IDX 72 66 39 67 23 68 24 69 32 70 25 71 27 72 33 73 26 74 28 75
REMARK SMILES IDX 29 76 30 77 31 78 55 79 56 80 64 81 57 82 59 83 65 84 58 85
REMARK SMILES IDX 60 86 61 87 62 88 63 89 40 90 41 91 49 92 42 93 44 94 50 95
REMARK SMILES IDX 43 96 45 97 46 98 47 99 48 100
REMARK H PARENT 86 21 70 53 38 64
REMARK Flexibility Score: inf
ROOT
ATOM      1  C   UNL     1       2.004  -1.753   4.212  1.00  0.00     0.202 C 
ENDROOT
BRANCH   1   2
ATOM      2  C   UNL     1       2.159  -2.761   3.070  1.00  0.00     0.261 C 
BRANCH   2   3
ATOM      3  O   UNL     1       1.866  -2.156   1.800  1.00  0.00    -0.462 OA
BRANCH   3   4
ATOM      4  C   UNL     1       0.938  -2.795   1.038  1.00  0.00     0.330 C 
ATOM      5  O   UNL     1       0.499  -3.915   1.284  1.00  0.00    -0.250 OA
BRANCH   4   6
ATOM      6  C   UNL     1       0.465  -1.968  -0.150  1.00  0.00     0.213 C 
ATOM      7  C   UNL     1       1.234  -0.667  -0.396  1.00  0.00     0.046 C 
BRANCH   6   8
ATOM      8  N   UNL     1      -0.982  -1.779  -0.045  1.00  0.00    -0.258 N 
ATOM      9  C   UNL     1      -1.935  -2.742  -0.229  1.00  0.00     0.110 A 
ATOM     10  N   UNL     1      -1.507  -0.583   0.303  1.00  0.00    -0.167 NA
ATOM     11  C   UNL     1      -3.135  -2.159   0.094  1.00  0.00     0.056 A 
ATOM     12  C   UNL     1      -2.832  -0.808   0.412  1.00  0.00     0.150 A 
BRANCH  12  13
ATOM     13  C   UNL     1      -3.800   0.187   0.914  1.00  0.00     0.274 C 
ATOM     14  O   UNL     1      -4.805  -0.191   1.524  1.00  0.00    -0.267 OA
ATOM     15  N   UNL     1      -3.567   1.556   0.693  1.00  0.00    -0.326 N 
ATOM     16  C   UNL     1      -4.483   2.471   1.365  1.00  0.00     0.181 C 
ATOM     17  C   UNL     1      -2.922   2.040  -0.531  1.00  0.00     0.181 C 
ATOM     18  C   UNL     1      -4.078   3.953   1.314  1.00  0.00     0.284 C 
ATOM     19  C   UNL     1      -2.566   3.538  -0.518  1.00  0.00     0.284 C 
ATOM     20  N   UNL     1      -3.580   4.445   0.027  1.00  0.00    -0.328 N 
ATOM     21  H   UNL     1      -3.100   5.323   0.226  1.00  0.00     0.348 HD
BRANCH  20  22
ATOM     22  C   UNL     1      -4.576   4.962  -0.913  1.00  0.00     0.299 C 
BRANCH  22  23
ATOM     23  C   UNL     1      -5.559   3.981  -1.506  1.00  0.00     0.009 A 
ATOM     24  C   UNL     1      -5.295   3.351  -2.733  1.00  0.00     0.010 A 
ATOM     25  C   UNL     1      -6.747   3.664  -0.833  1.00  0.00     0.048 A 
ATOM     26  C   UNL     1      -6.155   2.369  -3.232  1.00  0.00     0.004 A 
ATOM     27  C   UNL     1      -7.590   2.676  -1.331  1.00  0.00     0.123 A 
ATOM     28  C   UNL     1      -7.298   2.016  -2.517  1.00  0.00     0.039 A 
ATOM     29  F   UNL     1      -8.689   2.341  -0.642  1.00  0.00    -0.207 F 
ENDBRANCH  22  23
ENDBRANCH  20  22
ENDBRANCH  12  13
ENDBRANCH   6   8
ENDBRANCH   4   6
ENDBRANCH   3   4
ENDBRANCH   2   3
ENDBRANCH   1   2
BRANCH   1  30
ATOM     30  O   UNL     1       0.707  -1.179   4.377  1.00  0.00    -0.374 OA
BRANCH  30  31
ATOM     31  C   UNL     1       0.314  -0.165   3.448  1.00  0.00     0.202 C 
BRANCH  31  32
ATOM     32  C   UNL     1       0.974   1.212   3.609  1.00  0.00     0.261 C 
BRANCH  32  33
ATOM     33  O   UNL     1       2.389   1.185   3.338  1.00  0.00    -0.460 OA
BRANCH  33  34
ATOM     34  C   UNL     1       3.179   1.474   4.400  1.00  0.00     0.338 C 
ATOM     35  O   UNL     1       2.814   1.825   5.517  1.00  0.00    -0.246 OA
BRANCH  34  36
ATOM     36  C   UNL     1       4.584   1.131   4.110  1.00  0.00     0.060 A 
ATOM     37  C   UNL     1       5.235   0.265   4.998  1.00  0.00     0.016 A 
ATOM     38  C   UNL     1       5.282   1.708   3.046  1.00  0.00     0.016 A 
ATOM     39  C   UNL     1       6.598   0.011   4.857  1.00  0.00     0.010 A 
ATOM     40  C   UNL     1       6.654   1.458   2.912  1.00  0.00     0.010 A 
ATOM     41  C   UNL     1       7.326   0.639   3.838  1.00  0.00    -0.014 A 
BRANCH  41  42
ATOM     42  C   UNL     1       8.807   0.545   3.833  1.00  0.00     0.031 A 
ATOM     43  C   UNL     1       9.616   1.687   4.388  1.00  0.00     0.074 A 
ATOM     44  C   UNL     1       9.427  -0.548   3.354  1.00  0.00     0.049 A 
ATOM     45  N   UNL     1      10.915   1.814   4.478  1.00  0.00    -0.248 NA
ATOM     46  C   UNL     1       8.861   2.839   4.909  1.00  0.00     0.031 C 
ATOM     47  C   UNL     1       8.758  -1.719   2.792  1.00  0.00     0.029 A 
ATOM     48  N   UNL     1      10.764  -0.839   3.246  1.00  0.00    -0.354 N 
ATOM     49  C   UNL     1      11.135   3.064   5.045  1.00  0.00     0.074 A 
ATOM     50  C   UNL     1       9.836   3.664   5.263  1.00  0.00     0.031 C 
ATOM     51  C   UNL     1       9.689  -2.591   2.368  1.00  0.00     0.029 A 
ATOM     52  C   UNL     1      11.018  -2.033   2.614  1.00  0.00     0.049 A 
ATOM     53  H   UNL     1      11.474  -0.249   3.588  1.00  0.00     0.167 HD
ATOM     54  C   UNL     1      12.310   3.652   5.374  1.00  0.00     0.034 A 
ATOM     55  C   UNL     1      12.187  -2.603   2.259  1.00  0.00     0.034 A 
ATOM     56  C   UNL     1      13.600   3.049   5.178  1.00  0.00     0.049 A 
ATOM     57  C   UNL     1      13.482  -1.921   2.619  1.00  0.00     0.074 A 
ATOM     58  C   UNL     1      14.844   3.549   5.520  1.00  0.00     0.029 A 
ATOM     59  N   UNL     1      13.815   1.818   4.579  1.00  0.00    -0.354 N 
ATOM     60  N   UNL     1      13.670  -0.797   3.268  1.00  0.00    -0.248 NA
ATOM     61  C   UNL     1      14.726  -2.602   2.231  1.00  0.00     0.031 C 
ATOM     62  C   UNL     1      15.814   2.628   5.109  1.00  0.00     0.029 A 
ATOM     63  C   UNL     1      15.172   1.545   4.531  1.00  0.00     0.049 A 
ATOM     64  H   UNL     1      13.107   1.225   4.237  1.00  0.00     0.167 HD
ATOM     65  C   UNL     1      15.048  -0.653   3.394  1.00  0.00     0.074 A 
ATOM     66  C   UNL     1      15.647  -1.816   2.773  1.00  0.00     0.031 C 
ATOM     67  C   UNL     1      15.754   0.358   3.959  1.00  0.00     0.034 A 
BRANCH  54  68
ATOM     68  C   UNL     1      12.251   5.011   6.019  1.00  0.00     0.023 A 
ATOM     69  C   UNL     1      11.834   5.125   7.361  1.00  0.00     0.012 A 
ATOM     70  C   UNL     1      12.655   6.165   5.320  1.00  0.00     0.148 A 
ATOM     71  C   UNL     1      11.793   6.369   7.989  1.00  0.00     0.002 A 
ATOM     72  C   UNL     1      12.649   7.397   5.965  1.00  0.00     0.091 A 
ATOM     73  F   UNL     1      13.024   6.040   4.037  1.00  0.00    -0.205 F 
ATOM     74  C   UNL     1      12.210   7.502   7.295  1.00  0.00     0.022 A 
BRANCH  72  75
ATOM     75  S   UNL     1      13.235   8.901   5.178  1.00  0.00     0.127 S 
ATOM     76  O   UNL     1      11.981   9.608   4.923  1.00  0.00    -0.237 OA
ATOM     77  O   UNL     1      14.068   9.495   6.225  1.00  0.00    -0.237 OA
ATOM     78  O   UNL     1      13.966   8.474   3.993  1.00  0.00    -0.744 OA
ENDBRANCH  72  75
ENDBRANCH  54  68
BRANCH  55  79
ATOM     79  C   UNL     1      12.187  -3.913   1.549  1.00  0.00     0.023 A 
ATOM     80  C   UNL     1      12.649  -5.066   2.212  1.00  0.00     0.012 A 
ATOM     81  C   UNL     1      11.706  -4.026   0.230  1.00  0.00     0.148 A 
ATOM     82  C   UNL     1      12.658  -6.302   1.565  1.00  0.00     0.002 A 
ATOM     83  C   UNL     1      11.666  -5.270  -0.389  1.00  0.00     0.091 A 
ATOM     84  F   UNL     1      11.290  -2.913  -0.392  1.00  0.00    -0.205 F 
ATOM     85  C   UNL     1      12.156  -6.407   0.271  1.00  0.00     0.022 A 
BRANCH  83  86
ATOM     86  S   UNL     1      10.912  -5.514  -2.001  1.00  0.00     0.127 S 
ATOM     87  O   UNL     1      12.080  -5.736  -2.848  1.00  0.00    -0.237 OA
ATOM     88  O   UNL     1      10.082  -6.697  -1.772  1.00  0.00    -0.237 OA
ATOM     89  O   UNL     1      10.155  -4.298  -2.268  1.00  0.00    -0.744 OA
ENDBRANCH  83  86
ENDBRANCH  55  79
BRANCH  67  90
ATOM     90  C   UNL     1      17.257   0.248   3.963  1.00  0.00     0.023 A 
ATOM     91  C   UNL     1      17.974   0.445   2.766  1.00  0.00     0.012 A 
ATOM     92  C   UNL     1      17.962   0.033   5.164  1.00  0.00     0.148 A 
ATOM     93  C   UNL     1      19.368   0.400   2.760  1.00  0.00     0.002 A 
ATOM     94  C   UNL     1      19.353   0.034   5.157  1.00  0.00     0.091 A 
ATOM     95  F   UNL     1      17.262  -0.171   6.289  1.00  0.00    -0.205 F 
ATOM     96  C   UNL     1      20.057   0.207   3.955  1.00  0.00     0.022 A 
BRANCH  94  97
ATOM     97  S   UNL     1      20.321  -0.114   6.664  1.00  0.00     0.127 S 
ATOM     98  O   UNL     1      20.817  -1.486   6.565  1.00  0.00    -0.237 OA
ATOM     99  O   UNL     1      21.343   0.917   6.481  1.00  0.00    -0.237 OA
ATOM    100  O   UNL     1      19.396   0.142   7.760  1.00  0.00    -0.744 OA
ENDBRANCH  94  97
ENDBRANCH  67  90
ENDBRANCH  41  42
ENDBRANCH  34  36
ENDBRANCH  33  34
ENDBRANCH  32  33
ENDBRANCH  31  32
ENDBRANCH  30  31
ENDBRANCH   1  30
TORSDOF 21
