REMARK SMILES O=C(OCCOCCOC(=O)[C@@H]1CN(c2nc(-c3ccccc3)no2)CC[NH2+]1)c1ccc(-c2c3nc(c(-c4cccc(S(=O)(=O)[O-])c4F)c4ccc([nH]4)c(-c4cccc(S(=O)(=O)[O-])c4F)c4nc(c(-c5cccc(S(=O)(=O)[O-])c5F)c5ccc2[nH]5)C=C4)C=C3)cc1
REMARK SMILES IDX 5 1 4 2 3 3 2 4 1 5 29 6 30 7 91 8 31 9 90 10 32 11 33 12
REMARK SMILES IDX 34 13 84 14 35 15 89 16 83 17 85 18 36 19 88 20 82 21 81 22
REMARK SMILES IDX 37 24 69 25 49 26 68 27 50 28 53 29 67 30 86 31 51 32 52 33
REMARK SMILES IDX 66 35 87 36 54 37 38 38 39 39 47 40 40 41 42 42 48 43 41 44
REMARK SMILES IDX 43 45 44 46 45 47 46 48 70 49 71 50 79 51 72 52 74 53 80 54
REMARK SMILES IDX 73 55 75 56 76 57 77 58 78 59 55 60 56 61 64 62 57 63 59 64
REMARK SMILES IDX 65 65 58 66 60 67 61 68 62 69 63 70 6 71 7 72 8 73 9 74
REMARK SMILES IDX 10 75 11 76 12 77 13 78 28 79 14 80 27 81 26 84 15 85 16 86
REMARK SMILES IDX 25 87 17 88 24 89 18 90 19 91 23 92 20 93 22 94 21 95
REMARK H PARENT 85 23 53 34 28 82 28 83
REMARK Flexibility Score: inf
ROOT
ATOM      1  C   UNL     1       4.627   0.571  -1.082  1.00  0.00     0.202 C 
ENDROOT
BRANCH   1   2
ATOM      2  C   UNL     1       4.180  -0.871  -0.788  1.00  0.00     0.261 C 
BRANCH   2   3
ATOM      3  O   UNL     1       2.761  -0.980  -0.589  1.00  0.00    -0.460 OA
BRANCH   3   4
ATOM      4  C   UNL     1       2.118  -1.085   0.602  1.00  0.00     0.338 C 
ATOM      5  O   UNL     1       0.908  -1.300   0.612  1.00  0.00    -0.246 OA
BRANCH   4   6
ATOM      6  C   UNL     1       2.831  -0.922   1.903  1.00  0.00     0.060 A 
ATOM      7  C   UNL     1       3.995  -0.172   2.049  1.00  0.00     0.016 A 
ATOM      8  C   UNL     1       2.269  -1.486   3.055  1.00  0.00     0.016 A 
ATOM      9  C   UNL     1       4.646  -0.034   3.245  1.00  0.00     0.010 A 
ATOM     10  C   UNL     1       2.889  -1.311   4.297  1.00  0.00     0.010 A 
ATOM     11  C   UNL     1       4.086  -0.590   4.379  1.00  0.00    -0.014 A 
BRANCH  11  12
ATOM     12  C   UNL     1       4.900  -0.468   5.587  1.00  0.00     0.031 A 
ATOM     13  C   UNL     1       5.683  -1.661   6.014  1.00  0.00     0.074 A 
ATOM     14  C   UNL     1       5.083   0.754   6.118  1.00  0.00     0.049 A 
ATOM     15  N   UNL     1       6.470  -1.799   7.039  1.00  0.00    -0.248 NA
ATOM     16  C   UNL     1       5.587  -2.857   5.155  1.00  0.00     0.031 C 
ATOM     17  C   UNL     1       4.479   1.995   5.614  1.00  0.00     0.029 A 
ATOM     18  N   UNL     1       5.852   1.163   7.169  1.00  0.00    -0.354 N 
ATOM     19  C   UNL     1       6.904  -3.115   6.995  1.00  0.00     0.074 A 
ATOM     20  C   UNL     1       6.327  -3.728   5.822  1.00  0.00     0.031 C 
ATOM     21  C   UNL     1       4.899   3.025   6.363  1.00  0.00     0.029 A 
ATOM     22  C   UNL     1       5.727   2.504   7.442  1.00  0.00     0.049 A 
ATOM     23  H   UNL     1       6.437   0.558   7.680  1.00  0.00     0.167 HD
ATOM     24  C   UNL     1       7.699  -3.747   7.883  1.00  0.00     0.034 A 
ATOM     25  C   UNL     1       6.188   3.207   8.491  1.00  0.00     0.034 A 
ATOM     26  C   UNL     1       8.250  -3.087   9.031  1.00  0.00     0.049 A 
ATOM     27  C   UNL     1       6.998   2.457   9.510  1.00  0.00     0.074 A 
ATOM     28  C   UNL     1       9.024  -3.615  10.044  1.00  0.00     0.029 A 
ATOM     29  N   UNL     1       8.068  -1.738   9.318  1.00  0.00    -0.354 N 
ATOM     30  N   UNL     1       7.383   1.201   9.492  1.00  0.00    -0.248 NA
ATOM     31  C   UNL     1       7.445   3.210  10.686  1.00  0.00     0.031 C 
ATOM     32  C   UNL     1       9.275  -2.593  10.966  1.00  0.00     0.029 A 
ATOM     33  C   UNL     1       8.702  -1.416  10.501  1.00  0.00     0.049 A 
ATOM     34  H   UNL     1       7.562  -1.106   8.759  1.00  0.00     0.167 HD
ATOM     35  C   UNL     1       8.140   1.017  10.639  1.00  0.00     0.074 A 
ATOM     36  C   UNL     1       8.177   2.301  11.316  1.00  0.00     0.031 C 
ATOM     37  C   UNL     1       8.740  -0.107  11.105  1.00  0.00     0.034 A 
BRANCH  24  38
ATOM     38  C   UNL     1       7.925  -5.217   7.675  1.00  0.00     0.023 A 
ATOM     39  C   UNL     1       8.741  -5.678   6.622  1.00  0.00     0.012 A 
ATOM     40  C   UNL     1       7.285  -6.149   8.514  1.00  0.00     0.148 A 
ATOM     41  C   UNL     1       8.884  -7.046   6.385  1.00  0.00     0.002 A 
ATOM     42  C   UNL     1       7.471  -7.508   8.302  1.00  0.00     0.091 A 
ATOM     43  F   UNL     1       6.484  -5.688   9.485  1.00  0.00    -0.205 F 
ATOM     44  C   UNL     1       8.257  -7.959   7.229  1.00  0.00     0.022 A 
BRANCH  42  45
ATOM     45  S   UNL     1       6.753  -8.760   9.369  1.00  0.00     0.127 S 
ATOM     46  O   UNL     1       5.815  -9.420   8.462  1.00  0.00    -0.237 OA
ATOM     47  O   UNL     1       7.924  -9.562   9.724  1.00  0.00    -0.237 OA
ATOM     48  O   UNL     1       6.142  -8.044  10.480  1.00  0.00    -0.744 OA
ENDBRANCH  42  45
ENDBRANCH  24  38
BRANCH  25  49
ATOM     49  C   UNL     1       5.857   4.652   8.641  1.00  0.00     0.023 A 
ATOM     50  C   UNL     1       6.880   5.617   8.605  1.00  0.00     0.012 A 
ATOM     51  C   UNL     1       4.522   5.078   8.808  1.00  0.00     0.148 A 
ATOM     52  C   UNL     1       6.586   6.973   8.764  1.00  0.00     0.002 A 
ATOM     53  C   UNL     1       4.229   6.433   8.909  1.00  0.00     0.091 A 
ATOM     54  F   UNL     1       3.559   4.147   8.856  1.00  0.00    -0.205 F 
ATOM     55  C   UNL     1       5.262   7.381   8.906  1.00  0.00     0.022 A 
BRANCH  53  56
ATOM     56  S   UNL     1       2.544   7.054   8.976  1.00  0.00     0.127 S 
ATOM     57  O   UNL     1       2.461   7.543  10.349  1.00  0.00    -0.237 OA
ATOM     58  O   UNL     1       2.566   8.097   7.950  1.00  0.00    -0.237 OA
ATOM     59  O   UNL     1       1.691   5.917   8.657  1.00  0.00    -0.744 OA
ENDBRANCH  53  56
ENDBRANCH  25  49
BRANCH  37  60
ATOM     60  C   UNL     1       9.525   0.022  12.379  1.00  0.00     0.023 A 
ATOM     61  C   UNL     1       8.856   0.163  13.609  1.00  0.00     0.012 A 
ATOM     62  C   UNL     1      10.928  -0.092  12.353  1.00  0.00     0.148 A 
ATOM     63  C   UNL     1       9.578   0.220  14.798  1.00  0.00     0.002 A 
ATOM     64  C   UNL     1      11.635  -0.095  13.545  1.00  0.00     0.091 A 
ATOM     65  F   UNL     1      11.539  -0.206  11.164  1.00  0.00    -0.205 F 
ATOM     66  C   UNL     1      10.964   0.075  14.767  1.00  0.00     0.022 A 
BRANCH  64  67
ATOM     67  S   UNL     1      13.403  -0.394  13.606  1.00  0.00     0.127 S 
ATOM     68  O   UNL     1      13.915   0.925  13.973  1.00  0.00    -0.237 OA
ATOM     69  O   UNL     1      13.508  -1.406  14.658  1.00  0.00    -0.237 OA
ATOM     70  O   UNL     1      13.779  -0.862  12.278  1.00  0.00    -0.744 OA
ENDBRANCH  64  67
ENDBRANCH  37  60
ENDBRANCH  11  12
ENDBRANCH   4   6
ENDBRANCH   3   4
ENDBRANCH   2   3
ENDBRANCH   1   2
BRANCH   1  71
ATOM     71  O   UNL     1       4.105   1.643  -0.293  1.00  0.00    -0.374 OA
BRANCH  71  72
ATOM     72  C   UNL     1       2.704   1.916  -0.372  1.00  0.00     0.202 C 
BRANCH  72  73
ATOM     73  C   UNL     1       2.477   3.412  -0.577  1.00  0.00     0.261 C 
BRANCH  73  74
ATOM     74  O   UNL     1       2.896   3.709  -1.913  1.00  0.00    -0.459 OA
BRANCH  74  75
ATOM     75  C   UNL     1       4.241   3.908  -2.037  1.00  0.00     0.366 C 
ATOM     76  O   UNL     1       4.978   4.365  -1.169  1.00  0.00    -0.245 OA
BRANCH  75  77
ATOM     77  C   UNL     1       4.699   3.509  -3.426  1.00  0.00     0.313 C 
ATOM     78  C   UNL     1       4.185   4.588  -4.374  1.00  0.00     0.199 C 
ATOM     79  N   UNL     1       4.169   2.165  -3.830  1.00  0.00    -0.332 N 
ATOM     80  N   UNL     1       4.535   4.265  -5.755  1.00  0.00    -0.312 N 
ATOM     81  C   UNL     1       4.633   1.849  -5.188  1.00  0.00     0.283 C 
ATOM     82  H   UNL     1       3.149   2.182  -3.813  1.00  0.00     0.347 HD
ATOM     83  H   UNL     1       4.505   1.455  -3.179  1.00  0.00     0.347 HD
ATOM     84  C   UNL     1       4.223   2.916  -6.229  1.00  0.00     0.183 C 
BRANCH  80  85
ATOM     85  C   UNL     1       5.564   4.944  -6.282  1.00  0.00     0.324 A 
ATOM     86  N   UNL     1       6.629   5.408  -5.679  1.00  0.00    -0.171 NA
ATOM     87  O   UNL     1       5.428   5.391  -7.564  1.00  0.00    -0.315 OA
ATOM     88  C   UNL     1       7.169   6.225  -6.634  1.00  0.00     0.204 A 
ATOM     89  N   UNL     1       6.486   6.272  -7.788  1.00  0.00    -0.055 NA
BRANCH  88  90
ATOM     90  C   UNL     1       8.401   6.949  -6.422  1.00  0.00     0.023 A 
ATOM     91  C   UNL     1       8.400   8.347  -6.366  1.00  0.00     0.012 A 
ATOM     92  C   UNL     1       9.608   6.247  -6.329  1.00  0.00     0.012 A 
ATOM     93  C   UNL     1       9.606   9.040  -6.264  1.00  0.00     0.001 A 
ATOM     94  C   UNL     1      10.813   6.943  -6.242  1.00  0.00     0.001 A 
ATOM     95  C   UNL     1      10.812   8.338  -6.221  1.00  0.00     0.000 A 
ENDBRANCH  88  90
ENDBRANCH  80  85
ENDBRANCH  75  77
ENDBRANCH  74  75
ENDBRANCH  73  74
ENDBRANCH  72  73
ENDBRANCH  71  72
ENDBRANCH   1  71
TORSDOF 19
