REMARK SMILES CCSc1ccc(-c2cc(Cl)cc3c2O[C@@H](C(F)(F)F)C(C(=O)OCCOCCOC(=O)c2ccc(-c4c5nc(c(-c6cccc(S(=O)(=O)[O-])c6F)c6ccc([nH]6)c(-c6cccc(S(=O)(=O)[O-])c6F)c6nc(c(-c7cccc(S(=O)(=O)[O-])c7F)c7ccc4[nH]7)C=C6)C=C5)cc2)=C3)cc1
REMARK SMILES IDX 27 1 26 2 25 3 24 4 22 5 23 6 21 7 8 8 9 9 14 10 10 11 13 12
REMARK SMILES IDX 15 13 11 14 12 15 96 16 16 17 7 18 4 19 5 20 98 21 6 22
REMARK SMILES IDX 97 23 3 24 2 25 1 26 17 27 18 28 19 29 20 30 28 31 29 32
REMARK SMILES IDX 30 33 31 34 32 35 33 36 34 37 95 38 35 39 94 40 36 41 37 42
REMARK SMILES IDX 38 43 88 44 39 45 93 46 87 47 89 48 40 49 92 50 86 51 85 52
REMARK SMILES IDX 41 54 73 55 53 56 72 57 54 58 57 59 71 60 90 61 55 62 56 63
REMARK SMILES IDX 70 65 91 66 58 67 42 68 43 69 51 70 44 71 46 72 52 73 45 74
REMARK SMILES IDX 47 75 48 76 49 77 50 78 74 79 75 80 83 81 76 82 78 83 84 84
REMARK SMILES IDX 77 85 79 86 80 87 81 88 82 89 59 90 60 91 68 92 61 93 63 94
REMARK SMILES IDX 69 95 62 96 64 97 65 98 66 99 67 100
REMARK H PARENT 89 53 57 64
REMARK Flexibility Score: inf
ROOT
ATOM      1  O   UNL     1      11.985  -3.675  -1.852  1.00  0.00    -0.374 OA
ENDROOT
BRANCH   1   2
ATOM      2  C   UNL     1      13.323  -3.209  -1.969  1.00  0.00     0.202 C 
BRANCH   2   3
ATOM      3  C   UNL     1      13.614  -1.722  -1.708  1.00  0.00     0.261 C 
BRANCH   3   4
ATOM      4  O   UNL     1      12.589  -1.066  -0.945  1.00  0.00    -0.460 OA
BRANCH   4   5
ATOM      5  C   UNL     1      12.270   0.180  -1.342  1.00  0.00     0.338 C 
ATOM      6  O   UNL     1      12.848   0.815  -2.214  1.00  0.00    -0.246 OA
BRANCH   5   7
ATOM      7  C   UNL     1      11.001   0.663  -0.747  1.00  0.00     0.087 C 
ATOM      8  C   UNL     1       7.762  -1.904  -1.120  1.00  0.00     0.026 A 
ATOM      9  C   UNL     1       8.084  -2.730  -2.223  1.00  0.00     0.033 A 
ATOM     10  C   UNL     1       8.681  -0.866  -0.866  1.00  0.00     0.135 A 
ATOM     11  C   UNL     1       9.000  -2.313  -3.188  1.00  0.00     0.042 A 
ATOM     12  C   UNL     1       9.390  -0.313  -1.943  1.00  0.00     0.019 A 
ATOM     13  O   UNL     1       9.253  -0.740   0.415  1.00  0.00    -0.475 OA
ATOM     14  Cl  UNL     1       9.315  -3.313  -4.549  1.00  0.00    -0.084 Cl
ATOM     15  C   UNL     1       9.576  -1.055  -3.103  1.00  0.00     0.032 A 
ATOM     16  C   UNL     1      10.126   0.950  -1.726  1.00  0.00     0.027 C 
ATOM     17  C   UNL     1      10.358   0.252   0.562  1.00  0.00     0.316 C 
BRANCH   8  18
ATOM     18  C   UNL     1       6.269  -1.776  -0.908  1.00  0.00    -0.015 A 
ATOM     19  C   UNL     1       3.447  -1.643  -1.456  1.00  0.00     0.007 A 
ATOM     20  C   UNL     1       4.070  -2.854  -1.139  1.00  0.00     0.015 A 
ATOM     21  C   UNL     1       4.224  -0.485  -1.428  1.00  0.00     0.015 A 
ATOM     22  C   UNL     1       5.445  -2.917  -0.849  1.00  0.00     0.010 A 
ATOM     23  C   UNL     1       5.608  -0.550  -1.148  1.00  0.00     0.010 A 
BRANCH  19  24
ATOM     24  S   UNL     1       1.749  -1.730  -2.018  1.00  0.00    -0.126 SA
BRANCH  24  25
ATOM     25  C   UNL     1       0.984  -0.175  -1.448  1.00  0.00     0.071 C 
ATOM     26  C   UNL     1       1.002  -0.041   0.062  1.00  0.00     0.016 C 
ENDBRANCH  24  25
ENDBRANCH  19  24
ENDBRANCH   8  18
BRANCH  17  27
ATOM     27  C   UNL     1      11.333   0.039   1.743  1.00  0.00     0.430 C 
ATOM     28  F   UNL     1      11.841   1.244   2.119  1.00  0.00    -0.167 F 
ATOM     29  F   UNL     1      10.697  -0.462   2.828  1.00  0.00    -0.167 F 
ATOM     30  F   UNL     1      12.378  -0.766   1.486  1.00  0.00    -0.167 F 
ENDBRANCH  17  27
ENDBRANCH   5   7
ENDBRANCH   4   5
ENDBRANCH   3   4
ENDBRANCH   2   3
ENDBRANCH   1   2
BRANCH   1  31
ATOM     31  C   UNL     1      11.374  -3.647  -0.564  1.00  0.00     0.202 C 
BRANCH  31  32
ATOM     32  C   UNL     1      11.927  -4.554   0.539  1.00  0.00     0.261 C 
BRANCH  32  33
ATOM     33  O   UNL     1      13.298  -4.291   0.870  1.00  0.00    -0.460 OA
BRANCH  33  34
ATOM     34  C   UNL     1      14.153  -5.297   0.571  1.00  0.00     0.338 C 
ATOM     35  O   UNL     1      13.880  -6.374   0.052  1.00  0.00    -0.246 OA
BRANCH  34  36
ATOM     36  C   UNL     1      15.537  -4.864   0.803  1.00  0.00     0.060 A 
ATOM     37  C   UNL     1      16.416  -4.853  -0.288  1.00  0.00     0.016 A 
ATOM     38  C   UNL     1      15.988  -4.570   2.090  1.00  0.00     0.016 A 
ATOM     39  C   UNL     1      17.766  -4.584  -0.087  1.00  0.00     0.010 A 
ATOM     40  C   UNL     1      17.345  -4.308   2.290  1.00  0.00     0.010 A 
ATOM     41  C   UNL     1      18.244  -4.349   1.209  1.00  0.00    -0.014 A 
BRANCH  41  42
ATOM     42  C   UNL     1      19.703  -4.271   1.450  1.00  0.00     0.031 A 
ATOM     43  C   UNL     1      20.409  -5.453   2.054  1.00  0.00     0.074 A 
ATOM     44  C   UNL     1      20.385  -3.154   1.139  1.00  0.00     0.049 A 
ATOM     45  N   UNL     1      21.663  -5.581   2.398  1.00  0.00    -0.248 NA
ATOM     46  C   UNL     1      19.590  -6.649   2.310  1.00  0.00     0.031 C 
ATOM     47  C   UNL     1      19.804  -1.950   0.548  1.00  0.00     0.029 A 
ATOM     48  N   UNL     1      21.710  -2.844   1.308  1.00  0.00    -0.354 N 
ATOM     49  C   UNL     1      21.780  -6.855   2.939  1.00  0.00     0.074 A 
ATOM     50  C   UNL     1      20.465  -7.457   2.890  1.00  0.00     0.031 C 
ATOM     51  C   UNL     1      20.763  -1.016   0.434  1.00  0.00     0.029 A 
ATOM     52  C   UNL     1      22.014  -1.546   0.972  1.00  0.00     0.049 A 
ATOM     53  H   UNL     1      22.378  -3.487   1.638  1.00  0.00     0.167 HD
ATOM     54  C   UNL     1      22.884  -7.473   3.419  1.00  0.00     0.034 A 
ATOM     55  C   UNL     1      23.163  -0.857   1.113  1.00  0.00     0.034 A 
ATOM     56  C   UNL     1      24.190  -6.870   3.454  1.00  0.00     0.049 A 
ATOM     57  C   UNL     1      24.372  -1.557   1.675  1.00  0.00     0.074 A 
ATOM     58  C   UNL     1      25.383  -7.425   3.881  1.00  0.00     0.029 A 
ATOM     59  N   UNL     1      24.471  -5.570   3.062  1.00  0.00    -0.354 N 
ATOM     60  N   UNL     1      24.494  -2.798   2.082  1.00  0.00    -0.248 NA
ATOM     61  C   UNL     1      25.612  -0.773   1.766  1.00  0.00     0.031 C 
ATOM     62  C   UNL     1      26.379  -6.448   3.781  1.00  0.00     0.029 A 
ATOM     63  C   UNL     1      25.816  -5.299   3.249  1.00  0.00     0.049 A 
ATOM     64  H   UNL     1      23.812  -4.934   2.703  1.00  0.00     0.167 HD
ATOM     65  C   UNL     1      25.828  -2.954   2.441  1.00  0.00     0.074 A 
ATOM     66  C   UNL     1      26.478  -1.685   2.186  1.00  0.00     0.031 C 
ATOM     67  C   UNL     1      26.457  -4.045   2.946  1.00  0.00     0.034 A 
BRANCH  54  68
ATOM     68  C   UNL     1      22.730  -8.881   3.935  1.00  0.00     0.023 A 
ATOM     69  C   UNL     1      22.491  -9.937   3.031  1.00  0.00     0.012 A 
ATOM     70  C   UNL     1      22.869  -9.166   5.308  1.00  0.00     0.148 A 
ATOM     71  C   UNL     1      22.355 -11.247   3.489  1.00  0.00     0.002 A 
ATOM     72  C   UNL     1      22.781 -10.481   5.750  1.00  0.00     0.091 A 
ATOM     73  F   UNL     1      23.076  -8.148   6.154  1.00  0.00    -0.205 F 
ATOM     74  C   UNL     1      22.510 -11.520   4.845  1.00  0.00     0.022 A 
BRANCH  72  75
ATOM     75  S   UNL     1      23.044 -10.946   7.465  1.00  0.00     0.127 S 
ATOM     76  O   UNL     1      21.699 -11.352   7.871  1.00  0.00    -0.237 OA
ATOM     77  O   UNL     1      24.001 -12.046   7.340  1.00  0.00    -0.237 OA
ATOM     78  O   UNL     1      23.564  -9.760   8.130  1.00  0.00    -0.744 OA
ENDBRANCH  72  75
ENDBRANCH  54  68
BRANCH  55  79
ATOM     79  C   UNL     1      23.227   0.572   0.698  1.00  0.00     0.023 A 
ATOM     80  C   UNL     1      23.999   0.942  -0.420  1.00  0.00     0.012 A 
ATOM     81  C   UNL     1      22.508   1.563   1.395  1.00  0.00     0.148 A 
ATOM     82  C   UNL     1      24.080   2.277  -0.817  1.00  0.00     0.002 A 
ATOM     83  C   UNL     1      22.546   2.882   0.960  1.00  0.00     0.091 A 
ATOM     84  F   UNL     1      21.789   1.191   2.464  1.00  0.00    -0.205 F 
ATOM     85  C   UNL     1      23.346   3.244  -0.135  1.00  0.00     0.022 A 
BRANCH  83  86
ATOM     86  S   UNL     1      21.536   4.170   1.697  1.00  0.00     0.127 S 
ATOM     87  O   UNL     1      22.544   5.013   2.335  1.00  0.00    -0.237 OA
ATOM     88  O   UNL     1      20.895   4.759   0.521  1.00  0.00    -0.237 OA
ATOM     89  O   UNL     1      20.621   3.487   2.601  1.00  0.00    -0.744 OA
ENDBRANCH  83  86
ENDBRANCH  55  79
BRANCH  67  90
ATOM     90  C   UNL     1      27.937  -3.937   3.215  1.00  0.00     0.023 A 
ATOM     91  C   UNL     1      28.405  -3.157   4.290  1.00  0.00     0.012 A 
ATOM     92  C   UNL     1      28.858  -4.672   2.441  1.00  0.00     0.148 A 
ATOM     93  C   UNL     1      29.770  -3.081   4.569  1.00  0.00     0.002 A 
ATOM     94  C   UNL     1      30.210  -4.634   2.758  1.00  0.00     0.091 A 
ATOM     95  F   UNL     1      28.394  -5.396   1.412  1.00  0.00    -0.205 F 
ATOM     96  C   UNL     1      30.670  -3.828   3.811  1.00  0.00     0.022 A 
BRANCH  94  97
ATOM     97  S   UNL     1      31.429  -5.638   1.903  1.00  0.00     0.127 S 
ATOM     98  O   UNL     1      32.174  -4.628   1.153  1.00  0.00    -0.237 OA
ATOM     99  O   UNL     1      32.167  -6.241   3.014  1.00  0.00    -0.237 OA
ATOM    100  O   UNL     1      30.675  -6.585   1.092  1.00  0.00    -0.744 OA
ENDBRANCH  94  97
ENDBRANCH  67  90
ENDBRANCH  41  42
ENDBRANCH  34  36
ENDBRANCH  33  34
ENDBRANCH  32  33
ENDBRANCH  31  32
ENDBRANCH   1  31
TORSDOF 21
