REMARK SMILES CC1=Nc2ncnn2[C@H](c2ccc(F)cc2)[C@@H]1C(=O)OCCOCCOC(=O)c1ccc(-c2c3nc(c(-c4cccc(S(=O)(=O)[O-])c4F)c4ccc([nH]4)c(-c4cccc(S(=O)(=O)[O-])c4F)c4nc(c(-c5cccc(S(=O)(=O)[O-])c5F)c5ccc2[nH]5)C=C4)C=C3)cc1
REMARK SMILES IDX 24 1 23 2 22 3 21 4 20 5 18 6 19 7 17 8 1 9 2 10 3 11 4 12
REMARK SMILES IDX 9 13 5 14 8 15 6 16 7 17 10 18 11 19 16 20 12 21 15 22 13 23
REMARK SMILES IDX 14 24 25 25 26 26 27 27 28 28 29 29 30 30 91 31 31 32 90 33
REMARK SMILES IDX 32 34 33 35 34 36 84 37 35 38 89 39 83 40 85 41 36 42 88 43
REMARK SMILES IDX 82 44 81 45 37 47 69 48 49 49 68 50 50 51 53 52 67 53 86 54
REMARK SMILES IDX 51 55 52 56 66 58 87 59 54 60 38 61 39 62 47 63 40 64 42 65
REMARK SMILES IDX 48 66 41 67 43 68 44 69 45 70 46 71 70 72 71 73 79 74 72 75
REMARK SMILES IDX 74 76 80 77 73 78 75 79 76 80 77 81 78 82 55 83 56 84 64 85
REMARK SMILES IDX 57 86 59 87 65 88 58 89 60 90 61 91 62 92 63 93
REMARK H PARENT 85 46 53 57
REMARK Flexibility Score: inf
ROOT
ATOM      1  C   UNL     1      -0.394  -2.264   2.046  1.00  0.00     0.202 C 
ENDROOT
BRANCH   1   2
ATOM      2  O   UNL     1      -1.594  -3.008   2.208  1.00  0.00    -0.374 OA
BRANCH   2   3
ATOM      3  C   UNL     1      -2.137  -3.735   1.108  1.00  0.00     0.202 C 
BRANCH   3   4
ATOM      4  C   UNL     1      -2.470  -2.961  -0.164  1.00  0.00     0.261 C 
BRANCH   4   5
ATOM      5  O   UNL     1      -1.308  -2.537  -0.904  1.00  0.00    -0.463 OA
BRANCH   5   6
ATOM      6  C   UNL     1      -1.180  -1.194  -1.089  1.00  0.00     0.317 C 
ATOM      7  O   UNL     1      -1.836  -0.337  -0.512  1.00  0.00    -0.251 OA
BRANCH   6   8
ATOM      8  C   UNL     1      -0.139  -0.879  -2.129  1.00  0.00     0.173 C 
ATOM      9  C   UNL     1       1.428   0.350  -0.450  1.00  0.00     0.063 C 
ATOM     10  C   UNL     1       0.606   0.390  -1.719  1.00  0.00     0.036 C 
ATOM     11  N   UNL     1       0.555   1.530  -2.333  1.00  0.00    -0.220 NA
ATOM     12  C   UNL     1      -0.186   1.636  -3.455  1.00  0.00     0.248 A 
ATOM     13  C   UNL     1      -0.724  -0.796  -3.558  1.00  0.00     0.161 C 
ATOM     14  N   UNL     1      -0.362   2.686  -4.228  1.00  0.00    -0.198 NA
ATOM     15  N   UNL     1      -0.852   0.579  -4.019  1.00  0.00    -0.221 N 
ATOM     16  C   UNL     1      -1.070   2.199  -5.286  1.00  0.00     0.248 A 
ATOM     17  N   UNL     1      -1.380   0.904  -5.218  1.00  0.00    -0.157 NA
BRANCH  13  18
ATOM     18  C   UNL     1      -1.992  -1.603  -3.863  1.00  0.00    -0.022 A 
ATOM     19  C   UNL     1      -1.964  -2.581  -4.874  1.00  0.00     0.009 A 
ATOM     20  C   UNL     1      -3.212  -1.383  -3.193  1.00  0.00     0.009 A 
ATOM     21  C   UNL     1      -3.092  -3.359  -5.151  1.00  0.00     0.039 A 
ATOM     22  C   UNL     1      -4.321  -2.197  -3.432  1.00  0.00     0.039 A 
ATOM     23  C   UNL     1      -4.250  -3.180  -4.407  1.00  0.00     0.123 A 
ATOM     24  F   UNL     1      -5.319  -3.953  -4.642  1.00  0.00    -0.207 F 
ENDBRANCH  13  18
ENDBRANCH   6   8
ENDBRANCH   5   6
ENDBRANCH   4   5
ENDBRANCH   3   4
ENDBRANCH   2   3
ENDBRANCH   1   2
BRANCH   1  25
ATOM     25  C   UNL     1       0.920  -3.016   1.864  1.00  0.00     0.261 C 
BRANCH  25  26
ATOM     26  O   UNL     1       0.871  -4.015   0.859  1.00  0.00    -0.460 OA
BRANCH  26  27
ATOM     27  C   UNL     1       0.624  -5.240   1.366  1.00  0.00     0.338 C 
ATOM     28  O   UNL     1       0.163  -5.492   2.485  1.00  0.00    -0.246 OA
BRANCH  27  29
ATOM     29  C   UNL     1       1.106  -6.274   0.459  1.00  0.00     0.060 A 
ATOM     30  C   UNL     1       0.911  -7.594   0.877  1.00  0.00     0.016 A 
ATOM     31  C   UNL     1       1.985  -5.942  -0.582  1.00  0.00     0.016 A 
ATOM     32  C   UNL     1       1.767  -8.559   0.408  1.00  0.00     0.010 A 
ATOM     33  C   UNL     1       2.848  -6.909  -1.044  1.00  0.00     0.010 A 
ATOM     34  C   UNL     1       2.782  -8.179  -0.473  1.00  0.00    -0.014 A 
BRANCH  34  35
ATOM     35  C   UNL     1       3.799  -9.164  -0.759  1.00  0.00     0.031 A 
ATOM     36  C   UNL     1       3.408 -10.179  -1.753  1.00  0.00     0.074 A 
ATOM     37  C   UNL     1       5.027  -9.088  -0.218  1.00  0.00     0.049 A 
ATOM     38  N   UNL     1       3.291 -11.454  -1.584  1.00  0.00    -0.248 NA
ATOM     39  C   UNL     1       2.981  -9.690  -3.071  1.00  0.00     0.031 C 
ATOM     40  C   UNL     1       5.608  -7.950   0.503  1.00  0.00     0.029 A 
ATOM     41  N   UNL     1       6.071  -9.954  -0.342  1.00  0.00    -0.354 N 
ATOM     42  C   UNL     1       3.002 -11.951  -2.849  1.00  0.00     0.074 A 
ATOM     43  C   UNL     1       2.639 -10.827  -3.671  1.00  0.00     0.031 C 
ATOM     44  C   UNL     1       6.952  -8.086   0.516  1.00  0.00     0.029 A 
ATOM     45  C   UNL     1       7.300  -9.366  -0.079  1.00  0.00     0.049 A 
ATOM     46  H   UNL     1       5.964 -10.900  -0.592  1.00  0.00     0.167 HD
ATOM     47  C   UNL     1       3.352 -13.210  -3.216  1.00  0.00     0.034 A 
ATOM     48  C   UNL     1       8.508  -9.855  -0.439  1.00  0.00     0.034 A 
ATOM     49  C   UNL     1       3.622 -14.061  -2.092  1.00  0.00     0.049 A 
ATOM     50  C   UNL     1       8.347 -11.301  -0.717  1.00  0.00     0.074 A 
ATOM     51  C   UNL     1       2.911 -14.489  -0.991  1.00  0.00     0.029 A 
ATOM     52  N   UNL     1       4.938 -14.354  -1.843  1.00  0.00    -0.354 N 
ATOM     53  N   UNL     1       8.076 -12.203   0.185  1.00  0.00    -0.248 NA
ATOM     54  C   UNL     1       8.181 -11.730  -2.098  1.00  0.00     0.031 C 
ATOM     55  C   UNL     1       3.878 -14.664   0.039  1.00  0.00     0.029 A 
ATOM     56  C   UNL     1       5.129 -14.333  -0.487  1.00  0.00     0.049 A 
ATOM     57  H   UNL     1       5.626 -14.547  -2.521  1.00  0.00     0.167 HD
ATOM     58  C   UNL     1       7.319 -13.155  -0.486  1.00  0.00     0.074 A 
ATOM     59  C   UNL     1       7.557 -12.893  -1.900  1.00  0.00     0.031 C 
ATOM     60  C   UNL     1       6.345 -13.866   0.154  1.00  0.00     0.034 A 
BRANCH  47  61
ATOM     61  C   UNL     1       3.789 -13.561  -4.611  1.00  0.00     0.023 A 
ATOM     62  C   UNL     1       3.845 -14.923  -4.966  1.00  0.00     0.012 A 
ATOM     63  C   UNL     1       4.371 -12.637  -5.509  1.00  0.00     0.148 A 
ATOM     64  C   UNL     1       4.450 -15.341  -6.157  1.00  0.00     0.002 A 
ATOM     65  C   UNL     1       4.870 -13.046  -6.738  1.00  0.00     0.091 A 
ATOM     66  F   UNL     1       4.579 -11.369  -5.132  1.00  0.00    -0.205 F 
ATOM     67  C   UNL     1       4.939 -14.400  -7.057  1.00  0.00     0.022 A 
BRANCH  65  68
ATOM     68  S   UNL     1       5.386 -11.826  -7.949  1.00  0.00     0.127 S 
ATOM     69  O   UNL     1       6.810 -11.702  -7.661  1.00  0.00    -0.237 OA
ATOM     70  O   UNL     1       5.063 -12.489  -9.214  1.00  0.00    -0.237 OA
ATOM     71  O   UNL     1       4.555 -10.660  -7.666  1.00  0.00    -0.744 OA
ENDBRANCH  65  68
ENDBRANCH  47  61
BRANCH  48  72
ATOM     72  C   UNL     1       9.739  -9.117  -0.808  1.00  0.00     0.023 A 
ATOM     73  C   UNL     1      10.974  -9.792  -0.789  1.00  0.00     0.012 A 
ATOM     74  C   UNL     1       9.686  -7.844  -1.421  1.00  0.00     0.148 A 
ATOM     75  C   UNL     1      12.110  -9.235  -1.388  1.00  0.00     0.002 A 
ATOM     76  C   UNL     1      10.823  -7.284  -1.994  1.00  0.00     0.091 A 
ATOM     77  F   UNL     1       8.505  -7.221  -1.533  1.00  0.00    -0.205 F 
ATOM     78  C   UNL     1      12.035  -7.984  -1.993  1.00  0.00     0.022 A 
BRANCH  76  79
ATOM     79  S   UNL     1      10.789  -5.666  -2.779  1.00  0.00     0.127 S 
ATOM     80  O   UNL     1      12.048  -5.075  -2.322  1.00  0.00    -0.237 OA
ATOM     81  O   UNL     1      10.755  -6.015  -4.196  1.00  0.00    -0.237 OA
ATOM     82  O   UNL     1       9.600  -5.003  -2.256  1.00  0.00    -0.744 OA
ENDBRANCH  76  79
ENDBRANCH  48  72
BRANCH  60  83
ATOM     83  C   UNL     1       6.340 -13.890   1.663  1.00  0.00     0.023 A 
ATOM     84  C   UNL     1       6.167 -12.716   2.425  1.00  0.00     0.012 A 
ATOM     85  C   UNL     1       6.297 -15.136   2.317  1.00  0.00     0.148 A 
ATOM     86  C   UNL     1       5.973 -12.781   3.807  1.00  0.00     0.002 A 
ATOM     87  C   UNL     1       6.048 -15.198   3.684  1.00  0.00     0.091 A 
ATOM     88  F   UNL     1       6.461 -16.247   1.582  1.00  0.00    -0.205 F 
ATOM     89  C   UNL     1       5.896 -14.022   4.434  1.00  0.00     0.022 A 
BRANCH  87  90
ATOM     90  S   UNL     1       5.779 -16.766   4.520  1.00  0.00     0.127 S 
ATOM     91  O   UNL     1       7.056 -16.976   5.198  1.00  0.00    -0.237 OA
ATOM     92  O   UNL     1       4.657 -16.462   5.410  1.00  0.00    -0.237 OA
ATOM     93  O   UNL     1       5.457 -17.724   3.470  1.00  0.00    -0.744 OA
ENDBRANCH  87  90
ENDBRANCH  60  83
ENDBRANCH  34  35
ENDBRANCH  27  29
ENDBRANCH  26  27
ENDBRANCH  25  26
ENDBRANCH   1  25
TORSDOF 18
