REMARK SMILES COc1ccc(C(=O)N2CC[C@@H](C(=O)OCCOCCOC(=O)c3ccc(-c4c5nc(c(-c6cccc(S(=O)(=O)[O-])c6F)c6ccc([nH]6)c(-c6cccc(S(=O)(=O)[O-])c6F)c6nc(c(-c7cccc(S(=O)(=O)[O-])c7F)c7ccc4[nH]7)C=C6)C=C5)cc3)[C@H]2C)cc1O
REMARK SMILES IDX 18 1 17 2 16 3 15 4 13 5 14 6 12 7 9 8 10 9 87 10 11 11
REMARK SMILES IDX 88 12 7 13 8 14 6 15 3 16 4 17 90 18 5 19 89 20 2 21 1 22
REMARK SMILES IDX 91 23 19 25 20 26 21 27 22 28 23 29 24 30 25 31 86 32 26 33
REMARK SMILES IDX 85 34 27 35 28 36 29 37 79 38 30 39 84 40 78 41 80 42 31 43
REMARK SMILES IDX 83 44 77 45 76 46 32 48 64 49 44 50 63 51 45 52 48 53 62 54
REMARK SMILES IDX 81 55 46 56 47 57 61 59 82 60 49 61 33 62 34 63 42 64 35 65
REMARK SMILES IDX 37 66 43 67 36 68 38 69 39 70 40 71 41 72 65 73 66 74 74 75
REMARK SMILES IDX 67 76 69 77 75 78 68 79 70 80 71 81 72 82 73 83 50 84 51 85
REMARK SMILES IDX 59 86 52 87 54 88 60 89 53 90 55 91 56 92 57 93 58 94
REMARK H PARENT 91 24 80 47 48 58
REMARK Flexibility Score: inf
ROOT
ATOM      1  O   UNL     1      -3.682  -8.990  -0.156  1.00  0.00    -0.374 OA
ENDROOT
BRANCH   1   2
ATOM      2  C   UNL     1      -2.375  -9.038   0.420  1.00  0.00     0.202 C 
BRANCH   2   3
ATOM      3  C   UNL     1      -1.273  -9.626  -0.468  1.00  0.00     0.261 C 
BRANCH   3   4
ATOM      4  O   UNL     1      -0.886  -8.681  -1.484  1.00  0.00    -0.463 OA
BRANCH   4   5
ATOM      5  C   UNL     1      -1.405  -8.871  -2.715  1.00  0.00     0.311 C 
ATOM      6  O   UNL     1      -1.999  -9.882  -3.073  1.00  0.00    -0.252 OA
BRANCH   5   7
ATOM      7  C   UNL     1      -1.183  -7.703  -3.650  1.00  0.00     0.123 C 
ATOM      8  N   UNL     1      -0.406  -5.518  -4.181  1.00  0.00    -0.335 N 
ATOM      9  C   UNL     1       0.190  -6.476  -5.096  1.00  0.00     0.121 C 
ATOM     10  C   UNL     1      -1.282  -6.220  -3.200  1.00  0.00     0.096 C 
ATOM     11  C   UNL     1       0.174  -7.783  -4.334  1.00  0.00     0.039 C 
ATOM     12  C   UNL     1      -0.916  -5.916  -1.754  1.00  0.00     0.032 C 
BRANCH   8  13
ATOM     13  C   UNL     1      -0.603  -4.224  -4.660  1.00  0.00     0.254 C 
ATOM     14  O   UNL     1      -0.854  -4.004  -5.845  1.00  0.00    -0.269 OA
BRANCH  13  15
ATOM     15  C   UNL     1      -0.362  -3.065  -3.752  1.00  0.00     0.043 A 
ATOM     16  C   UNL     1       0.140  -0.824  -2.090  1.00  0.00     0.160 A 
ATOM     17  C   UNL     1      -0.506  -0.680  -3.327  1.00  0.00     0.051 A 
ATOM     18  C   UNL     1       0.565  -2.099  -1.721  1.00  0.00     0.158 A 
ATOM     19  C   UNL     1      -0.773  -1.788  -4.144  1.00  0.00     0.018 A 
ATOM     20  C   UNL     1       0.370  -3.188  -2.573  1.00  0.00     0.064 A 
BRANCH  16  21
ATOM     21  O   UNL     1       0.270   0.354  -1.414  1.00  0.00    -0.493 OA
ATOM     22  C   UNL     1       0.741   0.336  -0.074  1.00  0.00     0.278 C 
ENDBRANCH  16  21
BRANCH  18  23
ATOM     23  O   UNL     1       1.167  -2.409  -0.537  1.00  0.00    -0.504 OA
ATOM     24  H   UNL     1       1.335  -1.737   0.093  1.00  0.00     0.293 HD
ENDBRANCH  18  23
ENDBRANCH  13  15
ENDBRANCH   8  13
ENDBRANCH   5   7
ENDBRANCH   4   5
ENDBRANCH   3   4
ENDBRANCH   2   3
ENDBRANCH   1   2
BRANCH   1  25
ATOM     25  C   UNL     1      -4.016  -7.843  -0.936  1.00  0.00     0.202 C 
BRANCH  25  26
ATOM     26  C   UNL     1      -4.420  -6.574  -0.168  1.00  0.00     0.261 C 
BRANCH  26  27
ATOM     27  O   UNL     1      -3.349  -6.047   0.635  1.00  0.00    -0.460 OA
BRANCH  27  28
ATOM     28  C   UNL     1      -3.442  -6.329   1.956  1.00  0.00     0.338 C 
ATOM     29  O   UNL     1      -4.375  -6.885   2.518  1.00  0.00    -0.246 OA
BRANCH  28  30
ATOM     30  C   UNL     1      -2.160  -6.050   2.638  1.00  0.00     0.060 A 
ATOM     31  C   UNL     1      -1.692  -7.023   3.530  1.00  0.00     0.016 A 
ATOM     32  C   UNL     1      -1.455  -4.855   2.467  1.00  0.00     0.016 A 
ATOM     33  C   UNL     1      -0.568  -6.776   4.313  1.00  0.00     0.010 A 
ATOM     34  C   UNL     1      -0.323  -4.609   3.256  1.00  0.00     0.010 A 
ATOM     35  C   UNL     1       0.095  -5.545   4.219  1.00  0.00    -0.014 A 
BRANCH  35  36
ATOM     36  C   UNL     1       1.113  -5.194   5.243  1.00  0.00     0.031 A 
ATOM     37  C   UNL     1       0.741  -4.240   6.349  1.00  0.00     0.074 A 
ATOM     38  C   UNL     1       2.338  -5.751   5.226  1.00  0.00     0.049 A 
ATOM     39  N   UNL     1       1.459  -3.821   7.359  1.00  0.00    -0.248 NA
ATOM     40  C   UNL     1      -0.622  -3.686   6.311  1.00  0.00     0.031 C 
ATOM     41  C   UNL     1       2.820  -6.701   4.225  1.00  0.00     0.029 A 
ATOM     42  N   UNL     1       3.403  -5.589   6.078  1.00  0.00    -0.354 N 
ATOM     43  C   UNL     1       0.647  -2.938   8.062  1.00  0.00     0.074 A 
ATOM     44  C   UNL     1      -0.609  -2.862   7.348  1.00  0.00     0.031 C 
ATOM     45  C   UNL     1       4.090  -7.031   4.514  1.00  0.00     0.029 A 
ATOM     46  C   UNL     1       4.520  -6.297   5.703  1.00  0.00     0.049 A 
ATOM     47  H   UNL     1       3.369  -5.021   6.880  1.00  0.00     0.167 HD
ATOM     48  C   UNL     1       0.910  -2.264   9.208  1.00  0.00     0.034 A 
ATOM     49  C   UNL     1       5.753  -6.337   6.248  1.00  0.00     0.034 A 
ATOM     50  C   UNL     1       2.153  -2.347   9.928  1.00  0.00     0.049 A 
ATOM     51  C   UNL     1       6.036  -5.545   7.498  1.00  0.00     0.074 A 
ATOM     52  C   UNL     1       2.502  -1.729  11.116  1.00  0.00     0.029 A 
ATOM     53  N   UNL     1       3.256  -3.081   9.522  1.00  0.00    -0.354 N 
ATOM     54  N   UNL     1       5.226  -4.793   8.204  1.00  0.00    -0.248 NA
ATOM     55  C   UNL     1       7.398  -5.635   8.047  1.00  0.00     0.031 C 
ATOM     56  C   UNL     1       3.830  -2.059  11.408  1.00  0.00     0.029 A 
ATOM     57  C   UNL     1       4.293  -2.921  10.426  1.00  0.00     0.049 A 
ATOM     58  H   UNL     1       3.297  -3.636   8.709  1.00  0.00     0.167 HD
ATOM     59  C   UNL     1       5.965  -4.359   9.300  1.00  0.00     0.074 A 
ATOM     60  C   UNL     1       7.284  -4.944   9.172  1.00  0.00     0.031 C 
ATOM     61  C   UNL     1       5.587  -3.544  10.317  1.00  0.00     0.034 A 
BRANCH  48  62
ATOM     62  C   UNL     1      -0.181  -1.382   9.762  1.00  0.00     0.023 A 
ATOM     63  C   UNL     1      -1.339  -1.963  10.318  1.00  0.00     0.012 A 
ATOM     64  C   UNL     1      -0.043   0.019   9.766  1.00  0.00     0.148 A 
ATOM     65  C   UNL     1      -2.361  -1.163  10.828  1.00  0.00     0.002 A 
ATOM     66  C   UNL     1      -1.043   0.809  10.322  1.00  0.00     0.091 A 
ATOM     67  F   UNL     1       1.055   0.556   9.215  1.00  0.00    -0.205 F 
ATOM     68  C   UNL     1      -2.209   0.221  10.839  1.00  0.00     0.022 A 
BRANCH  66  69
ATOM     69  S   UNL     1      -0.905   2.594  10.455  1.00  0.00     0.127 S 
ATOM     70  O   UNL     1      -1.885   3.040   9.466  1.00  0.00    -0.237 OA
ATOM     71  O   UNL     1      -1.291   2.830  11.846  1.00  0.00    -0.237 OA
ATOM     72  O   UNL     1       0.482   2.913  10.147  1.00  0.00    -0.744 OA
ENDBRANCH  66  69
ENDBRANCH  48  62
BRANCH  49  73
ATOM     73  C   UNL     1       6.811  -7.191   5.636  1.00  0.00     0.023 A 
ATOM     74  C   UNL     1       7.277  -8.326   6.327  1.00  0.00     0.012 A 
ATOM     75  C   UNL     1       7.351  -6.886   4.372  1.00  0.00     0.148 A 
ATOM     76  C   UNL     1       8.286  -9.123   5.785  1.00  0.00     0.002 A 
ATOM     77  C   UNL     1       8.313  -7.716   3.812  1.00  0.00     0.091 A 
ATOM     78  F   UNL     1       6.903  -5.793   3.738  1.00  0.00    -0.205 F 
ATOM     79  C   UNL     1       8.796  -8.825   4.525  1.00  0.00     0.022 A 
BRANCH  77  80
ATOM     80  S   UNL     1       8.938  -7.482   2.145  1.00  0.00     0.127 S 
ATOM     81  O   UNL     1      10.335  -7.136   2.395  1.00  0.00    -0.237 OA
ATOM     82  O   UNL     1       8.725  -8.805   1.558  1.00  0.00    -0.237 OA
ATOM     83  O   UNL     1       8.123  -6.425   1.562  1.00  0.00    -0.744 OA
ENDBRANCH  77  80
ENDBRANCH  49  73
BRANCH  61  84
ATOM     84  C   UNL     1       6.591  -3.272  11.410  1.00  0.00     0.023 A 
ATOM     85  C   UNL     1       7.719  -2.466  11.154  1.00  0.00     0.012 A 
ATOM     86  C   UNL     1       6.380  -3.766  12.713  1.00  0.00     0.148 A 
ATOM     87  C   UNL     1       8.640  -2.192  12.165  1.00  0.00     0.002 A 
ATOM     88  C   UNL     1       7.274  -3.444  13.729  1.00  0.00     0.091 A 
ATOM     89  F   UNL     1       5.312  -4.545  12.937  1.00  0.00    -0.205 F 
ATOM     90  C   UNL     1       8.412  -2.670  13.453  1.00  0.00     0.022 A 
BRANCH  88  91
ATOM     91  S   UNL     1       7.009  -3.932  15.437  1.00  0.00     0.127 S 
ATOM     92  O   UNL     1       8.045  -4.947  15.621  1.00  0.00    -0.237 OA
ATOM     93  O   UNL     1       7.247  -2.681  16.157  1.00  0.00    -0.237 OA
ATOM     94  O   UNL     1       5.638  -4.420  15.509  1.00  0.00    -0.744 OA
ENDBRANCH  88  91
ENDBRANCH  61  84
ENDBRANCH  35  36
ENDBRANCH  28  30
ENDBRANCH  27  28
ENDBRANCH  26  27
ENDBRANCH  25  26
ENDBRANCH   1  25
TORSDOF 21
