REMARK SMILES O=C(OCCOCCOC(=O)c1ccc(-c2c3nc(c(-c4cccc(S(=O)(=O)[O-])c4F)c4ccc([nH]4)c(-c4cccc(S(=O)(=O)[O-])c4F)c4nc(c(-c5cccc(S(=O)(=O)[O-])c5F)c5ccc2[nH]5)C=C4)C=C3)cc1)C1=Cc2cc(S(F)(F)(F)(F)F)cc(Br)c2O[C@@H]1C(F)(F)F
REMARK SMILES IDX 7 1 6 2 5 3 4 4 3 5 2 6 1 7 75 8 76 9 91 10 77 11 90 12
REMARK SMILES IDX 78 13 89 14 79 15 87 16 86 17 88 18 92 19 93 20 94 21 95 22
REMARK SMILES IDX 80 23 81 24 82 25 83 26 84 27 85 28 8 29 9 30 10 31 11 32
REMARK SMILES IDX 12 33 13 34 74 35 14 36 73 37 15 38 16 39 17 40 67 41 18 42
REMARK SMILES IDX 72 43 66 44 68 45 19 46 71 47 65 48 64 49 20 51 52 52 32 53
REMARK SMILES IDX 51 54 33 55 36 56 50 57 69 58 34 59 35 60 49 62 70 63 37 64
REMARK SMILES IDX 21 65 22 66 30 67 23 68 25 69 31 70 24 71 26 72 27 73 28 74
REMARK SMILES IDX 29 75 53 76 54 77 62 78 55 79 57 80 63 81 56 82 58 83 59 84
REMARK SMILES IDX 60 85 61 86 38 87 39 88 47 89 40 90 42 91 48 92 41 93 43 94
REMARK SMILES IDX 44 95 45 96 46 97
REMARK H PARENT 68 50 36 61
REMARK Flexibility Score: inf
ROOT
ATOM      1  C   UNL     1       3.068  -1.407   0.152  1.00  0.00     0.202 C 
ENDROOT
BRANCH   1   2
ATOM      2  O   UNL     1       4.488  -1.407   0.152  1.00  0.00    -0.374 OA
BRANCH   2   3
ATOM      3  C   UNL     1       4.961  -0.523   1.158  1.00  0.00     0.202 C 
BRANCH   3   4
ATOM      4  C   UNL     1       4.455   0.882   0.877  1.00  0.00     0.261 C 
BRANCH   4   5
ATOM      5  O   UNL     1       3.035   0.882   0.877  1.00  0.00    -0.460 OA
BRANCH   5   6
ATOM      6  C   UNL     1       2.325   0.070  -0.047  1.00  0.00     0.338 C 
ATOM      7  O   UNL     1       1.054   0.070  -0.047  1.00  0.00    -0.246 OA
BRANCH   6   8
ATOM      8  C   UNL     1       3.085  -0.799  -1.036  1.00  0.00     0.087 C 
ATOM      9  C   UNL     1       4.445  -0.799  -1.036  1.00  0.00     0.027 C 
ATOM     10  C   UNL     1       2.325  -1.668  -2.025  1.00  0.00     0.316 C 
ATOM     11  C   UNL     1       5.205   0.070  -0.047  1.00  0.00     0.020 A 
ATOM     12  O   UNL     1       3.505  -0.495   1.514  1.00  0.00    -0.474 OA
ATOM     13  C   UNL     1       6.366   0.736  -0.404  1.00  0.00     0.036 A 
ATOM     14  C   UNL     1       4.777   0.058   1.210  1.00  0.00     0.142 A 
ATOM     15  C   UNL     1       7.167   1.122   0.696  1.00  0.00     0.109 A 
ATOM     16  C   UNL     1       5.553   0.575   2.218  1.00  0.00     0.062 A 
ATOM     17  C   UNL     1       6.740   1.196   1.944  1.00  0.00     0.044 A 
ATOM     18  Br  UNL     1       4.950   0.422   4.077  1.00  0.00    -0.047 Br
BRANCH  10  19
ATOM     19  C   UNL     1       2.692  -3.126  -1.804  1.00  0.00     0.430 C 
ATOM     20  F   UNL     1       2.370  -3.482  -0.563  1.00  0.00    -0.167 F 
ATOM     21  F   UNL     1       2.027  -3.887  -2.669  1.00  0.00    -0.167 F 
ATOM     22  F   UNL     1       3.999  -3.287  -1.987  1.00  0.00    -0.167 F 
ENDBRANCH  10  19
BRANCH  15  23
ATOM     23  S   UNL     1       8.896   1.545   0.371  1.00  0.00     0.310 S 
ATOM     24  F   UNL     1       9.251   1.561   1.917  1.00  0.00    -0.094 F 
ATOM     25  F   UNL     1       8.518   3.068   0.513  1.00  0.00    -0.094 F 
ATOM     26  F   UNL     1      10.381   1.912   0.089  1.00  0.00    -0.094 F 
ATOM     27  F   UNL     1       9.283   0.014   0.372  1.00  0.00    -0.094 F 
ATOM     28  F   UNL     1       7.417   1.156   0.768  1.00  0.00    -0.094 F 
ENDBRANCH  15  23
ENDBRANCH   6   8
ENDBRANCH   5   6
ENDBRANCH   4   5
ENDBRANCH   3   4
ENDBRANCH   2   3
ENDBRANCH   1   2
BRANCH   1  29
ATOM     29  C   UNL     1       2.561  -1.867   1.510  1.00  0.00     0.261 C 
BRANCH  29  30
ATOM     30  O   UNL     1       3.035  -0.983   2.515  1.00  0.00    -0.460 OA
BRANCH  30  31
ATOM     31  C   UNL     1       4.431  -0.811   2.710  1.00  0.00     0.338 C 
ATOM     32  O   UNL     1       5.257  -1.449   1.984  1.00  0.00    -0.246 OA
BRANCH  31  33
ATOM     33  C   UNL     1       4.937   0.135   3.787  1.00  0.00     0.060 A 
ATOM     34  C   UNL     1       6.074   0.899   3.580  1.00  0.00     0.016 A 
ATOM     35  C   UNL     1       4.356   0.073   4.979  1.00  0.00     0.016 A 
ATOM     36  C   UNL     1       6.694   1.338   4.773  1.00  0.00     0.010 A 
ATOM     37  C   UNL     1       4.952   0.643   6.078  1.00  0.00     0.010 A 
ATOM     38  C   UNL     1       6.109   1.362   5.957  1.00  0.00    -0.014 A 
BRANCH  38  39
ATOM     39  C   UNL     1       6.689   2.148   7.121  1.00  0.00     0.031 A 
ATOM     40  C   UNL     1       7.016   1.392   8.248  1.00  0.00     0.074 A 
ATOM     41  C   UNL     1       6.997   3.489   6.973  1.00  0.00     0.049 A 
ATOM     42  N   UNL     1       7.687   1.793   9.330  1.00  0.00    -0.248 NA
ATOM     43  C   UNL     1       6.660  -0.024   8.423  1.00  0.00     0.031 C 
ATOM     44  C   UNL     1       6.678   4.257   5.835  1.00  0.00     0.029 A 
ATOM     45  N   UNL     1       7.648   4.311   7.866  1.00  0.00    -0.354 N 
ATOM     46  C   UNL     1       7.822   0.781  10.190  1.00  0.00     0.074 A 
ATOM     47  C   UNL     1       7.158  -0.400   9.621  1.00  0.00     0.031 C 
ATOM     48  C   UNL     1       7.120   5.525   6.044  1.00  0.00     0.029 A 
ATOM     49  C   UNL     1       7.723   5.572   7.315  1.00  0.00     0.049 A 
ATOM     50  H   UNL     1       7.999   4.044   8.746  1.00  0.00     0.167 HD
ATOM     51  C   UNL     1       8.474   0.796  11.423  1.00  0.00     0.034 A 
ATOM     52  C   UNL     1       8.280   6.710   7.875  1.00  0.00     0.034 A 
ATOM     53  C   UNL     1       9.069   1.925  11.964  1.00  0.00     0.049 A 
ATOM     54  C   UNL     1       8.881   6.740   9.136  1.00  0.00     0.074 A 
ATOM     55  C   UNL     1       9.737   1.956  13.203  1.00  0.00     0.029 A 
ATOM     56  N   UNL     1       9.122   3.191  11.424  1.00  0.00    -0.354 N 
ATOM     57  N   UNL     1       9.050   5.719   9.977  1.00  0.00    -0.248 NA
ATOM     58  C   UNL     1       9.445   7.948   9.752  1.00  0.00     0.031 C 
ATOM     59  C   UNL     1      10.179   3.224  13.412  1.00  0.00     0.029 A 
ATOM     60  C   UNL     1       9.793   4.007  12.308  1.00  0.00     0.049 A 
ATOM     61  H   UNL     1       8.745   3.465  10.557  1.00  0.00     0.167 HD
ATOM     62  C   UNL     1       9.685   6.130  11.077  1.00  0.00     0.074 A 
ATOM     63  C   UNL     1       9.941   7.572  10.951  1.00  0.00     0.031 C 
ATOM     64  C   UNL     1      10.063   5.361  12.178  1.00  0.00     0.034 A 
BRANCH  51  65
ATOM     65  C   UNL     1       8.535  -0.498  12.219  1.00  0.00     0.023 A 
ATOM     66  C   UNL     1       9.130  -1.632  11.691  1.00  0.00     0.012 A 
ATOM     67  C   UNL     1       7.983  -0.508  13.426  1.00  0.00     0.148 A 
ATOM     68  C   UNL     1       8.836  -2.818  12.403  1.00  0.00     0.002 A 
ATOM     69  C   UNL     1       7.851  -1.685  14.124  1.00  0.00     0.091 A 
ATOM     70  F   UNL     1       7.555   0.630  13.965  1.00  0.00    -0.205 F 
ATOM     71  C   UNL     1       8.363  -2.854  13.636  1.00  0.00     0.022 A 
BRANCH  69  72
ATOM     72  S   UNL     1       6.985  -1.685  15.714  1.00  0.00     0.127 S 
ATOM     73  O   UNL     1       5.777  -2.622  15.637  1.00  0.00    -0.237 OA
ATOM     74  O   UNL     1       7.936  -2.168  16.812  1.00  0.00    -0.237 OA
ATOM     75  O   UNL     1       6.455  -0.100  16.075  1.00  0.00    -0.744 OA
ENDBRANCH  69  72
ENDBRANCH  51  65
BRANCH  52  76
ATOM     76  C   UNL     1       8.233   8.000   7.072  1.00  0.00     0.023 A 
ATOM     77  C   UNL     1       9.435   8.601   6.735  1.00  0.00     0.012 A 
ATOM     78  C   UNL     1       7.072   8.527   6.702  1.00  0.00     0.148 A 
ATOM     79  C   UNL     1       9.298   9.922   6.247  1.00  0.00     0.002 A 
ATOM     80  C   UNL     1       7.023   9.764   6.106  1.00  0.00     0.091 A 
ATOM     81  F   UNL     1       5.945   7.851   6.910  1.00  0.00    -0.205 F 
ATOM     82  C   UNL     1       8.170  10.441   5.797  1.00  0.00     0.022 A 
BRANCH  80  83
ATOM     83  S   UNL     1       5.418  10.508   5.724  1.00  0.00     0.127 S 
ATOM     84  O   UNL     1       5.282  11.838   6.468  1.00  0.00    -0.237 OA
ATOM     85  O   UNL     1       5.316  10.754   4.217  1.00  0.00    -0.237 OA
ATOM     86  O   UNL     1       4.168   9.449   6.214  1.00  0.00    -0.744 OA
ENDBRANCH  80  83
ENDBRANCH  52  76
BRANCH  64  87
ATOM     87  C   UNL     1      10.818   6.049  13.304  1.00  0.00     0.023 A 
ATOM     88  C   UNL     1      10.307   7.179  13.921  1.00  0.00     0.012 A 
ATOM     89  C   UNL     1      12.032   5.595  13.594  1.00  0.00     0.148 A 
ATOM     90  C   UNL     1      11.275   7.934  14.625  1.00  0.00     0.002 A 
ATOM     91  C   UNL     1      12.876   6.321  14.399  1.00  0.00     0.091 A 
ATOM     92  F   UNL     1      12.434   4.428  13.099  1.00  0.00    -0.205 F 
ATOM     93  C   UNL     1      12.457   7.478  14.995  1.00  0.00     0.022 A 
BRANCH  91  94
ATOM     94  S   UNL     1      14.567   5.736  14.675  1.00  0.00     0.127 S 
ATOM     95  O   UNL     1      15.559   6.793  14.184  1.00  0.00    -0.237 OA
ATOM     96  O   UNL     1      14.783   5.489  16.170  1.00  0.00    -0.237 OA
ATOM     97  O   UNL     1      14.813   4.279  13.816  1.00  0.00    -0.744 OA
ENDBRANCH  91  94
ENDBRANCH  64  87
ENDBRANCH  38  39
ENDBRANCH  31  33
ENDBRANCH  30  31
ENDBRANCH  29  30
ENDBRANCH   1  29
TORSDOF 19
