REMARK SMILES Cc1cc(-n2cnc(C(=O)OCCOCCOC(=O)c3ccc(-c4c5nc(c(-c6cccc(S(=O)(=O)[O-])c6F)c6ccc([nH]6)c(-c6cccc(S(=O)(=O)[O-])c6F)c6nc(c(-c7cccc(S(=O)(=O)[O-])c7F)c7ccc4[nH]7)C=C6)C=C5)cc3)c2)nc(Cl)n1
REMARK SMILES IDX 15 1 14 2 13 3 12 4 11 5 9 6 10 7 8 8 5 9 6 10 83 11 7 12
REMARK SMILES IDX 4 13 1 14 2 15 3 16 87 17 85 18 84 19 86 20 16 21 17 22
REMARK SMILES IDX 18 23 19 24 20 25 21 26 82 27 22 28 81 29 23 30 24 31 25 32
REMARK SMILES IDX 75 33 26 34 80 35 74 36 76 37 27 38 79 39 73 40 72 41 28 43
REMARK SMILES IDX 60 44 40 45 59 46 41 47 44 48 58 49 77 50 42 51 43 52 57 54
REMARK SMILES IDX 78 55 45 56 29 57 30 58 38 59 31 60 33 61 39 62 32 63 34 64
REMARK SMILES IDX 35 65 36 66 37 67 61 68 62 69 70 70 63 71 65 72 71 73 64 74
REMARK SMILES IDX 66 75 67 76 68 77 69 78 46 79 47 80 55 81 48 82 50 83 56 84
REMARK SMILES IDX 49 85 51 86 52 87 53 88 54 89
REMARK H PARENT 76 42 44 53
REMARK Flexibility Score: inf
ROOT
ATOM      1  C   UNL     1      -6.830   4.238  -4.358  1.00  0.00     0.202 C 
ENDROOT
BRANCH   1   2
ATOM      2  O   UNL     1      -7.937   3.359  -4.549  1.00  0.00    -0.374 OA
BRANCH   2   3
ATOM      3  C   UNL     1      -8.215   2.325  -3.605  1.00  0.00     0.202 C 
BRANCH   3   4
ATOM      4  C   UNL     1      -7.312   1.091  -3.595  1.00  0.00     0.261 C 
BRANCH   4   5
ATOM      5  O   UNL     1      -5.979   1.404  -3.170  1.00  0.00    -0.458 OA
BRANCH   5   6
ATOM      6  C   UNL     1      -5.060   1.511  -4.180  1.00  0.00     0.358 C 
ATOM      7  O   UNL     1      -5.257   1.196  -5.339  1.00  0.00    -0.244 OA
BRANCH   6   8
ATOM      8  C   UNL     1      -3.837   2.165  -3.710  1.00  0.00     0.166 A 
ATOM      9  N   UNL     1      -2.103   2.784  -2.514  1.00  0.00    -0.289 N 
ATOM     10  C   UNL     1      -2.170   3.527  -3.665  1.00  0.00     0.206 A 
ATOM     11  C   UNL     1      -3.232   2.002  -2.483  1.00  0.00     0.130 A 
ATOM     12  N   UNL     1      -3.152   3.122  -4.443  1.00  0.00    -0.229 NA
BRANCH   9  13
ATOM     13  C   UNL     1      -1.010   2.740  -1.621  1.00  0.00     0.143 A 
ATOM     14  C   UNL     1       0.962   0.130   0.175  1.00  0.00     0.067 C 
ATOM     15  C   UNL     1       0.470   1.451  -0.334  1.00  0.00     0.044 A 
ATOM     16  C   UNL     1      -0.706   1.516  -1.048  1.00  0.00     0.071 A 
ATOM     17  N   UNL     1       1.220   2.540  -0.089  1.00  0.00    -0.223 NA
ATOM     18  C   UNL     1       0.794   3.684  -0.645  1.00  0.00     0.224 A 
ATOM     19  N   UNL     1      -0.250   3.839  -1.469  1.00  0.00    -0.200 NA
ATOM     20  Cl  UNL     1       1.703   5.083  -0.292  1.00  0.00    -0.041 Cl
ENDBRANCH   9  13
ENDBRANCH   6   8
ENDBRANCH   5   6
ENDBRANCH   4   5
ENDBRANCH   3   4
ENDBRANCH   2   3
ENDBRANCH   1   2
BRANCH   1  21
ATOM     21  C   UNL     1      -6.886   5.282  -3.252  1.00  0.00     0.261 C 
BRANCH  21  22
ATOM     22  O   UNL     1      -7.141   4.695  -1.990  1.00  0.00    -0.460 OA
BRANCH  22  23
ATOM     23  C   UNL     1      -8.451   4.724  -1.655  1.00  0.00     0.338 C 
ATOM     24  O   UNL     1      -9.397   4.993  -2.373  1.00  0.00    -0.246 OA
BRANCH  23  25
ATOM     25  C   UNL     1      -8.570   4.461  -0.223  1.00  0.00     0.060 A 
ATOM     26  C   UNL     1      -9.874   4.322   0.262  1.00  0.00     0.016 A 
ATOM     27  C   UNL     1      -7.487   4.811   0.589  1.00  0.00     0.016 A 
ATOM     28  C   UNL     1     -10.147   4.842   1.501  1.00  0.00     0.010 A 
ATOM     29  C   UNL     1      -7.768   5.370   1.801  1.00  0.00     0.010 A 
ATOM     30  C   UNL     1      -9.104   5.468   2.185  1.00  0.00    -0.014 A 
BRANCH  30  31
ATOM     31  C   UNL     1      -9.412   6.214   3.377  1.00  0.00     0.031 A 
ATOM     32  C   UNL     1      -9.416   5.344   4.569  1.00  0.00     0.074 A 
ATOM     33  C   UNL     1      -9.530   7.555   3.348  1.00  0.00     0.049 A 
ATOM     34  N   UNL     1     -10.449   4.893   5.203  1.00  0.00    -0.248 NA
ATOM     35  C   UNL     1      -8.148   4.691   4.942  1.00  0.00     0.031 C 
ATOM     36  C   UNL     1      -9.234   8.479   2.248  1.00  0.00     0.029 A 
ATOM     37  N   UNL     1      -9.812   8.396   4.373  1.00  0.00    -0.354 N 
ATOM     38  C   UNL     1      -9.911   4.120   6.223  1.00  0.00     0.074 A 
ATOM     39  C   UNL     1      -8.563   3.799   5.839  1.00  0.00     0.031 C 
ATOM     40  C   UNL     1      -9.092   9.730   2.749  1.00  0.00     0.029 A 
ATOM     41  C   UNL     1      -9.399   9.710   4.168  1.00  0.00     0.049 A 
ATOM     42  H   UNL     1     -10.271   8.102   5.193  1.00  0.00     0.167 HD
ATOM     43  C   UNL     1     -10.462   4.106   7.465  1.00  0.00     0.034 A 
ATOM     44  C   UNL     1      -9.228  10.641   5.145  1.00  0.00     0.034 A 
ATOM     45  C   UNL     1     -11.783   4.667   7.479  1.00  0.00     0.049 A 
ATOM     46  C   UNL     1      -9.989  10.153   6.326  1.00  0.00     0.074 A 
ATOM     47  C   UNL     1     -12.970   4.375   6.840  1.00  0.00     0.029 A 
ATOM     48  N   UNL     1     -11.886   5.968   7.910  1.00  0.00    -0.354 N 
ATOM     49  N   UNL     1     -11.286  10.022   6.346  1.00  0.00    -0.248 NA
ATOM     50  C   UNL     1      -9.263   9.370   7.316  1.00  0.00     0.031 C 
ATOM     51  C   UNL     1     -13.536   5.643   6.519  1.00  0.00     0.029 A 
ATOM     52  C   UNL     1     -12.701   6.636   7.036  1.00  0.00     0.049 A 
ATOM     53  H   UNL     1     -11.451   6.352   8.706  1.00  0.00     0.167 HD
ATOM     54  C   UNL     1     -11.502   8.827   7.021  1.00  0.00     0.074 A 
ATOM     55  C   UNL     1     -10.229   8.519   7.672  1.00  0.00     0.031 C 
ATOM     56  C   UNL     1     -12.583   8.045   6.737  1.00  0.00     0.034 A 
BRANCH  43  57
ATOM     57  C   UNL     1      -9.637   3.963   8.709  1.00  0.00     0.023 A 
ATOM     58  C   UNL     1     -10.275   3.534   9.885  1.00  0.00     0.012 A 
ATOM     59  C   UNL     1      -8.312   4.449   8.825  1.00  0.00     0.148 A 
ATOM     60  C   UNL     1      -9.614   3.567  11.117  1.00  0.00     0.002 A 
ATOM     61  C   UNL     1      -7.628   4.388  10.028  1.00  0.00     0.091 A 
ATOM     62  F   UNL     1      -7.752   5.103   7.800  1.00  0.00    -0.205 F 
ATOM     63  C   UNL     1      -8.282   3.969  11.185  1.00  0.00     0.022 A 
BRANCH  61  64
ATOM     64  S   UNL     1      -5.895   4.845  10.140  1.00  0.00     0.127 S 
ATOM     65  O   UNL     1      -5.977   6.138  10.813  1.00  0.00    -0.237 OA
ATOM     66  O   UNL     1      -5.350   3.755  10.948  1.00  0.00    -0.237 OA
ATOM     67  O   UNL     1      -5.413   4.863   8.764  1.00  0.00    -0.744 OA
ENDBRANCH  61  64
ENDBRANCH  43  57
BRANCH  44  68
ATOM     68  C   UNL     1      -8.195  11.707   5.292  1.00  0.00     0.023 A 
ATOM     69  C   UNL     1      -8.330  12.645   6.341  1.00  0.00     0.012 A 
ATOM     70  C   UNL     1      -6.944  11.631   4.641  1.00  0.00     0.148 A 
ATOM     71  C   UNL     1      -7.246  13.421   6.772  1.00  0.00     0.002 A 
ATOM     72  C   UNL     1      -5.870  12.413   5.067  1.00  0.00     0.091 A 
ATOM     73  F   UNL     1      -6.769  10.726   3.671  1.00  0.00    -0.205 F 
ATOM     74  C   UNL     1      -6.012  13.294   6.145  1.00  0.00     0.022 A 
BRANCH  72  75
ATOM     75  S   UNL     1      -4.242  12.294   4.309  1.00  0.00     0.127 S 
ATOM     76  O   UNL     1      -3.880  13.702   4.142  1.00  0.00    -0.237 OA
ATOM     77  O   UNL     1      -3.482  11.584   5.334  1.00  0.00    -0.237 OA
ATOM     78  O   UNL     1      -4.441  11.576   3.056  1.00  0.00    -0.744 OA
ENDBRANCH  72  75
ENDBRANCH  44  68
BRANCH  56  79
ATOM     79  C   UNL     1     -13.655   8.618   5.847  1.00  0.00     0.023 A 
ATOM     80  C   UNL     1     -13.474   8.799   4.458  1.00  0.00     0.012 A 
ATOM     81  C   UNL     1     -14.936   8.770   6.396  1.00  0.00     0.148 A 
ATOM     82  C   UNL     1     -14.559   9.121   3.636  1.00  0.00     0.002 A 
ATOM     83  C   UNL     1     -16.016   9.053   5.572  1.00  0.00     0.091 A 
ATOM     84  F   UNL     1     -15.080   8.578   7.716  1.00  0.00    -0.205 F 
ATOM     85  C   UNL     1     -15.833   9.232   4.191  1.00  0.00     0.022 A 
BRANCH  83  86
ATOM     86  S   UNL     1     -17.693   9.103   6.204  1.00  0.00     0.127 S 
ATOM     87  O   UNL     1     -18.042  10.511   6.033  1.00  0.00    -0.237 OA
ATOM     88  O   UNL     1     -18.390   8.184   5.303  1.00  0.00    -0.237 OA
ATOM     89  O   UNL     1     -17.620   8.646   7.587  1.00  0.00    -0.744 OA
ENDBRANCH  83  86
ENDBRANCH  56  79
ENDBRANCH  30  31
ENDBRANCH  23  25
ENDBRANCH  22  23
ENDBRANCH  21  22
ENDBRANCH   1  21
TORSDOF 18
