REMARK SMILES Cc1cc(C)n(-c2nc(C)c(C)c(Oc3cccc(C(=O)OCCOCCOC(=O)c4ccc(-c5c6nc(c(-c7cccc(S(=O)(=O)[O-])c7F)c7ccc([nH]7)c(-c7cccc(S(=O)(=O)[O-])c7F)c7nc(c(-c8cccc(S(=O)(=O)[O-])c8F)c8ccc5[nH]8)C=C7)C=C6)cc4)c3)n2)n1
REMARK SMILES IDX 25 1 24 2 23 3 22 4 20 5 21 6 19 7 15 8 16 9 94 10 17 11
REMARK SMILES IDX 18 12 14 13 13 14 7 15 8 16 95 17 9 18 10 19 11 20 12 21
REMARK SMILES IDX 6 22 1 23 2 24 3 25 96 26 4 27 5 28 26 29 27 30 28 31 29 32
REMARK SMILES IDX 30 33 31 34 32 35 93 36 33 37 92 38 34 39 35 40 36 41 86 42
REMARK SMILES IDX 37 43 91 44 85 45 87 46 38 47 90 48 84 49 83 50 39 52 71 53
REMARK SMILES IDX 51 54 70 55 52 56 55 57 69 58 88 59 53 60 54 61 68 63 89 64
REMARK SMILES IDX 56 65 40 66 41 67 49 68 42 69 44 70 50 71 43 72 45 73 46 74
REMARK SMILES IDX 47 75 48 76 72 77 73 78 81 79 74 80 76 81 82 82 75 83 77 84
REMARK SMILES IDX 78 85 79 86 80 87 57 88 58 89 66 90 59 91 61 92 67 93 60 94
REMARK SMILES IDX 62 95 63 96 64 97 65 98
REMARK H PARENT 87 51 55 62
REMARK Flexibility Score: inf
ROOT
ATOM      1  O   UNL     1      -7.748   3.437   0.497  1.00  0.00    -0.374 OA
ENDROOT
BRANCH   1   2
ATOM      2  C   UNL     1      -7.365   2.427   1.431  1.00  0.00     0.202 C 
BRANCH   2   3
ATOM      3  C   UNL     1      -5.902   1.979   1.478  1.00  0.00     0.261 C 
BRANCH   3   4
ATOM      4  O   UNL     1      -5.002   3.034   1.848  1.00  0.00    -0.460 OA
BRANCH   4   5
ATOM      5  C   UNL     1      -4.242   3.506   0.827  1.00  0.00     0.338 C 
ATOM      6  O   UNL     1      -4.231   3.098  -0.323  1.00  0.00    -0.246 OA
BRANCH   5   7
ATOM      7  C   UNL     1      -3.556   4.751   1.232  1.00  0.00     0.063 A 
ATOM      8  C   UNL     1      -2.136   6.009   2.710  1.00  0.00     0.130 A 
ATOM      9  C   UNL     1      -2.126   7.072   1.802  1.00  0.00     0.047 A 
ATOM     10  C   UNL     1      -2.921   4.877   2.466  1.00  0.00     0.062 A 
ATOM     11  C   UNL     1      -2.826   6.975   0.603  1.00  0.00     0.005 A 
ATOM     12  C   UNL     1      -3.515   5.802   0.304  1.00  0.00     0.016 A 
BRANCH   8  13
ATOM     13  O   UNL     1      -1.354   6.165   3.832  1.00  0.00    -0.439 OA
BRANCH  13  14
ATOM     14  C   UNL     1      -0.531   5.106   4.213  1.00  0.00     0.227 A 
ATOM     15  C   UNL     1       0.213   2.972   3.885  1.00  0.00     0.254 A 
ATOM     16  N   UNL     1       0.799   2.932   5.100  1.00  0.00    -0.216 NA
ATOM     17  N   UNL     1      -0.403   4.051   3.387  1.00  0.00    -0.175 NA
ATOM     18  C   UNL     1       0.805   4.074   5.828  1.00  0.00     0.050 A 
ATOM     19  C   UNL     1       1.678   4.028   7.048  1.00  0.00     0.067 C 
ATOM     20  C   UNL     1       0.101   5.207   5.442  1.00  0.00     0.033 A 
ATOM     21  C   UNL     1       0.052   6.452   6.270  1.00  0.00     0.052 C 
BRANCH  15  22
ATOM     22  N   UNL     1       0.219   1.775   3.092  1.00  0.00    -0.203 N 
ATOM     23  C   UNL     1       0.964   0.172   0.004  1.00  0.00     0.069 C 
ATOM     24  C   UNL     1       0.567   0.529   1.387  1.00  0.00     0.060 A 
ATOM     25  C   UNL     1       0.288  -0.344   2.456  1.00  0.00     0.049 A 
ATOM     26  N   UNL     1       0.432   1.810   1.742  1.00  0.00    -0.170 NA
ATOM     27  C   UNL     1       0.035   0.472   3.537  1.00  0.00     0.045 A 
ATOM     28  C   UNL     1      -0.442   0.137   4.903  1.00  0.00     0.067 C 
ENDBRANCH  15  22
ENDBRANCH  13  14
ENDBRANCH   8  13
ENDBRANCH   5   7
ENDBRANCH   4   5
ENDBRANCH   3   4
ENDBRANCH   2   3
ENDBRANCH   1   2
BRANCH   1  29
ATOM     29  C   UNL     1      -7.294   4.776   0.670  1.00  0.00     0.202 C 
BRANCH  29  30
ATOM     30  C   UNL     1      -7.844   5.602   1.822  1.00  0.00     0.261 C 
BRANCH  30  31
ATOM     31  O   UNL     1      -7.639   4.973   3.072  1.00  0.00    -0.460 OA
BRANCH  31  32
ATOM     32  C   UNL     1      -8.736   4.331   3.537  1.00  0.00     0.338 C 
ATOM     33  O   UNL     1      -9.737   4.031   2.916  1.00  0.00    -0.246 OA
BRANCH  32  34
ATOM     34  C   UNL     1      -8.587   4.163   4.983  1.00  0.00     0.060 A 
ATOM     35  C   UNL     1      -9.642   3.521   5.634  1.00  0.00     0.016 A 
ATOM     36  C   UNL     1      -7.639   4.943   5.660  1.00  0.00     0.016 A 
ATOM     37  C   UNL     1      -9.909   3.890   6.928  1.00  0.00     0.010 A 
ATOM     38  C   UNL     1      -7.921   5.327   6.942  1.00  0.00     0.010 A 
ATOM     39  C   UNL     1      -9.107   4.874   7.511  1.00  0.00    -0.014 A 
BRANCH  39  40
ATOM     40  C   UNL     1      -9.483   5.380   8.807  1.00  0.00     0.031 A 
ATOM     41  C   UNL     1      -9.117   4.434   9.878  1.00  0.00     0.074 A 
ATOM     42  C   UNL     1      -9.997   6.614   8.960  1.00  0.00     0.049 A 
ATOM     43  N   UNL     1      -9.915   3.689  10.567  1.00  0.00    -0.248 NA
ATOM     44  C   UNL     1      -7.692   4.093  10.029  1.00  0.00     0.031 C 
ATOM     45  C   UNL     1     -10.108   7.683   7.960  1.00  0.00     0.029 A 
ATOM     46  N   UNL     1     -10.406   7.226  10.099  1.00  0.00    -0.354 N 
ATOM     47  C   UNL     1      -9.081   2.988  11.429  1.00  0.00     0.074 A 
ATOM     48  C   UNL     1      -7.759   3.062  10.870  1.00  0.00     0.031 C 
ATOM     49  C   UNL     1     -10.294   8.864   8.596  1.00  0.00     0.029 A 
ATOM     50  C   UNL     1     -10.445   8.615  10.019  1.00  0.00     0.049 A 
ATOM     51  H   UNL     1     -10.653   6.730  10.913  1.00  0.00     0.167 HD
ATOM     52  C   UNL     1      -9.477   2.697  12.695  1.00  0.00     0.034 A 
ATOM     53  C   UNL     1     -10.497   9.470  11.073  1.00  0.00     0.034 A 
ATOM     54  C   UNL     1     -10.902   2.840  12.843  1.00  0.00     0.049 A 
ATOM     55  C   UNL     1     -10.963   8.684  12.242  1.00  0.00     0.074 A 
ATOM     56  C   UNL     1     -12.006   2.258  12.254  1.00  0.00     0.029 A 
ATOM     57  N   UNL     1     -11.342   4.007  13.421  1.00  0.00    -0.354 N 
ATOM     58  N   UNL     1     -12.156   8.169  12.334  1.00  0.00    -0.248 NA
ATOM     59  C   UNL     1      -9.951   8.083  13.097  1.00  0.00     0.031 C 
ATOM     60  C   UNL     1     -12.956   3.313  12.127  1.00  0.00     0.029 A 
ATOM     61  C   UNL     1     -12.415   4.464  12.704  1.00  0.00     0.049 A 
ATOM     62  H   UNL     1     -10.952   4.440  14.214  1.00  0.00     0.167 HD
ATOM     63  C   UNL     1     -11.945   6.911  12.884  1.00  0.00     0.074 A 
ATOM     64  C   UNL     1     -10.588   6.957  13.430  1.00  0.00     0.031 C 
ATOM     65  C   UNL     1     -12.764   5.864  12.574  1.00  0.00     0.034 A 
BRANCH  52  66
ATOM     66  C   UNL     1      -8.548   2.678  13.883  1.00  0.00     0.023 A 
ATOM     67  C   UNL     1      -9.065   2.174  15.094  1.00  0.00     0.012 A 
ATOM     68  C   UNL     1      -7.302   3.348  13.948  1.00  0.00     0.148 A 
ATOM     69  C   UNL     1      -8.393   2.355  16.307  1.00  0.00     0.002 A 
ATOM     70  C   UNL     1      -6.592   3.441  15.137  1.00  0.00     0.091 A 
ATOM     71  F   UNL     1      -6.847   4.032  12.895  1.00  0.00    -0.205 F 
ATOM     72  C   UNL     1      -7.149   2.975  16.328  1.00  0.00     0.022 A 
BRANCH  70  73
ATOM     73  S   UNL     1      -4.953   4.176  15.201  1.00  0.00     0.127 S 
ATOM     74  O   UNL     1      -5.217   5.425  15.908  1.00  0.00    -0.237 OA
ATOM     75  O   UNL     1      -4.209   3.175  15.964  1.00  0.00    -0.237 OA
ATOM     76  O   UNL     1      -4.524   4.305  13.813  1.00  0.00    -0.744 OA
ENDBRANCH  70  73
ENDBRANCH  52  66
BRANCH  53  77
ATOM     77  C   UNL     1      -9.863  10.802  11.258  1.00  0.00     0.023 A 
ATOM     78  C   UNL     1     -10.299  11.630  12.314  1.00  0.00     0.012 A 
ATOM     79  C   UNL     1      -8.639  11.119  10.629  1.00  0.00     0.148 A 
ATOM     80  C   UNL     1      -9.521  12.706  12.762  1.00  0.00     0.002 A 
ATOM     81  C   UNL     1      -7.866  12.187  11.081  1.00  0.00     0.091 A 
ATOM     82  F   UNL     1      -8.187  10.319   9.655  1.00  0.00    -0.205 F 
ATOM     83  C   UNL     1      -8.298  12.975  12.156  1.00  0.00     0.022 A 
BRANCH  81  84
ATOM     84  S   UNL     1      -6.247  12.560  10.390  1.00  0.00     0.127 S 
ATOM     85  O   UNL     1      -6.360  13.992  10.112  1.00  0.00    -0.237 OA
ATOM     86  O   UNL     1      -5.361  12.221  11.501  1.00  0.00    -0.237 OA
ATOM     87  O   UNL     1      -6.116  11.726   9.203  1.00  0.00    -0.744 OA
ENDBRANCH  81  84
ENDBRANCH  53  77
BRANCH  65  88
ATOM     88  C   UNL     1     -14.041   6.160  11.822  1.00  0.00     0.023 A 
ATOM     89  C   UNL     1     -14.050   6.659  10.501  1.00  0.00     0.012 A 
ATOM     90  C   UNL     1     -15.251   5.736  12.394  1.00  0.00     0.148 A 
ATOM     91  C   UNL     1     -15.243   6.742   9.775  1.00  0.00     0.002 A 
ATOM     92  C   UNL     1     -16.424   5.768  11.652  1.00  0.00     0.091 A 
ATOM     93  F   UNL     1     -15.224   5.266  13.651  1.00  0.00    -0.205 F 
ATOM     94  C   UNL     1     -16.428   6.279  10.345  1.00  0.00     0.022 A 
BRANCH  92  95
ATOM     95  S   UNL     1     -17.945   5.053  12.277  1.00  0.00     0.127 S 
ATOM     96  O   UNL     1     -18.744   6.242  12.567  1.00  0.00    -0.237 OA
ATOM     97  O   UNL     1     -18.412   4.264  11.136  1.00  0.00    -0.237 OA
ATOM     98  O   UNL     1     -17.568   4.255  13.437  1.00  0.00    -0.744 OA
ENDBRANCH  92  95
ENDBRANCH  65  88
ENDBRANCH  39  40
ENDBRANCH  32  34
ENDBRANCH  31  32
ENDBRANCH  30  31
ENDBRANCH  29  30
ENDBRANCH   1  29
TORSDOF 20
