REMARK SMILES O=C(CC1CCN(C(=O)c2ccc3[nH]ccc3c2)CC1)OCCOCCOC(=O)c1ccc(-c2c3nc(c(-c4cccc(S(=O)(=O)[O-])c4F)c4ccc([nH]4)c(-c4cccc(S(=O)(=O)[O-])c4F)c4nc(c(-c5cccc(S(=O)(=O)[O-])c5F)c5ccc2[nH]5)C=C4)C=C3)cc1
REMARK SMILES IDX 25 1 24 2 23 3 22 4 21 5 2 6 1 7 3 8 4 9 5 10 20 11 6 12
REMARK SMILES IDX 19 13 7 14 8 15 9 16 10 17 11 18 18 19 12 20 17 21 13 22
REMARK SMILES IDX 16 23 14 24 15 25 26 27 27 28 28 29 29 30 30 31 31 32 92 33
REMARK SMILES IDX 32 34 91 35 33 36 34 37 35 38 85 39 36 40 90 41 84 42 86 43
REMARK SMILES IDX 37 44 89 45 83 46 82 47 38 49 70 50 50 51 69 52 51 53 54 54
REMARK SMILES IDX 68 55 87 56 52 57 53 58 67 60 88 61 55 62 39 63 40 64 48 65
REMARK SMILES IDX 41 66 43 67 49 68 42 69 44 70 45 71 46 72 47 73 71 74 72 75
REMARK SMILES IDX 80 76 73 77 75 78 81 79 74 80 76 81 77 82 78 83 79 84 56 85
REMARK SMILES IDX 57 86 65 87 58 88 60 89 66 90 59 91 61 92 62 93 63 94 64 95
REMARK H PARENT 14 26 86 48 54 59
REMARK Flexibility Score: inf
ROOT
ATOM      1  C   UNL     1       2.764  -2.797   0.500  1.00  0.00     0.202 C 
ENDROOT
BRANCH   1   2
ATOM      2  O   UNL     1       4.044  -2.365   0.069  1.00  0.00    -0.374 OA
BRANCH   2   3
ATOM      3  C   UNL     1       4.644  -1.208   0.633  1.00  0.00     0.202 C 
BRANCH   3   4
ATOM      4  C   UNL     1       3.798  -0.082   1.241  1.00  0.00     0.261 C 
BRANCH   4   5
ATOM      5  O   UNL     1       2.501   0.244   0.692  1.00  0.00    -0.463 OA
BRANCH   5   6
ATOM      6  C   UNL     1       2.075   0.465  -0.562  1.00  0.00     0.306 C 
ATOM      7  O   UNL     1       0.938   0.895  -0.750  1.00  0.00    -0.252 OA
BRANCH   6   8
ATOM      8  C   UNL     1       2.950   0.118  -1.731  1.00  0.00     0.126 C 
BRANCH   8   9
ATOM      9  C   UNL     1       3.930   1.153  -2.293  1.00  0.00     0.003 C 
ATOM     10  C   UNL     1       4.829   1.882  -1.291  1.00  0.00     0.026 C 
ATOM     11  C   UNL     1       3.251   2.192  -3.195  1.00  0.00     0.026 C 
ATOM     12  C   UNL     1       4.090   2.945  -0.490  1.00  0.00     0.120 C 
ATOM     13  C   UNL     1       2.583   3.326  -2.424  1.00  0.00     0.120 C 
ATOM     14  N   UNL     1       3.456   3.889  -1.388  1.00  0.00    -0.339 N 
ATOM     15  C   UNL     1       3.683   5.234  -1.130  1.00  0.00     0.253 C 
ATOM     16  O   UNL     1       4.326   5.646  -0.168  1.00  0.00    -0.269 OA
BRANCH  15  17
ATOM     17  C   UNL     1       3.268   6.227  -2.124  1.00  0.00     0.040 A 
ATOM     18  C   UNL     1       1.927   6.465  -2.425  1.00  0.00     0.016 A 
ATOM     19  C   UNL     1       4.306   6.938  -2.738  1.00  0.00     0.024 A 
ATOM     20  C   UNL     1       1.589   7.395  -3.411  1.00  0.00     0.027 A 
ATOM     21  C   UNL     1       3.979   7.891  -3.709  1.00  0.00     0.000 A 
ATOM     22  C   UNL     1       2.636   8.092  -4.031  1.00  0.00     0.045 A 
ATOM     23  C   UNL     1       4.749   8.781  -4.501  1.00  0.00     0.028 A 
ATOM     24  N   UNL     1       2.606   9.069  -5.000  1.00  0.00    -0.361 N 
ATOM     25  C   UNL     1       3.876   9.497  -5.285  1.00  0.00     0.083 A 
ATOM     26  H   UNL     1       1.788   9.411  -5.427  1.00  0.00     0.166 HD
ENDBRANCH  15  17
ENDBRANCH   8   9
ENDBRANCH   6   8
ENDBRANCH   5   6
ENDBRANCH   4   5
ENDBRANCH   3   4
ENDBRANCH   2   3
ENDBRANCH   1   2
BRANCH   1  27
ATOM     27  C   UNL     1       2.710  -3.521   1.840  1.00  0.00     0.261 C 
BRANCH  27  28
ATOM     28  O   UNL     1       3.158  -2.701   2.926  1.00  0.00    -0.460 OA
BRANCH  28  29
ATOM     29  C   UNL     1       4.426  -2.939   3.327  1.00  0.00     0.338 C 
ATOM     30  O   UNL     1       5.204  -3.765   2.865  1.00  0.00    -0.246 OA
BRANCH  29  31
ATOM     31  C   UNL     1       4.828  -1.939   4.329  1.00  0.00     0.060 A 
ATOM     32  C   UNL     1       6.091  -1.348   4.194  1.00  0.00     0.016 A 
ATOM     33  C   UNL     1       4.014  -1.649   5.427  1.00  0.00     0.016 A 
ATOM     34  C   UNL     1       6.583  -0.531   5.204  1.00  0.00     0.010 A 
ATOM     35  C   UNL     1       4.513  -0.837   6.445  1.00  0.00     0.010 A 
ATOM     36  C   UNL     1       5.822  -0.331   6.362  1.00  0.00    -0.014 A 
BRANCH  36  37
ATOM     37  C   UNL     1       6.492   0.192   7.572  1.00  0.00     0.031 A 
ATOM     38  C   UNL     1       6.953  -0.796   8.609  1.00  0.00     0.074 A 
ATOM     39  C   UNL     1       6.712   1.508   7.724  1.00  0.00     0.049 A 
ATOM     40  N   UNL     1       7.565  -0.584   9.743  1.00  0.00    -0.248 NA
ATOM     41  C   UNL     1       6.683  -2.218   8.331  1.00  0.00     0.031 C 
ATOM     42  C   UNL     1       6.325   2.546   6.770  1.00  0.00     0.029 A 
ATOM     43  N   UNL     1       7.305   2.193   8.751  1.00  0.00    -0.354 N 
ATOM     44  C   UNL     1       7.717  -1.835  10.330  1.00  0.00     0.074 A 
ATOM     45  C   UNL     1       7.125  -2.801   9.434  1.00  0.00     0.031 C 
ATOM     46  C   UNL     1       6.677   3.744   7.267  1.00  0.00     0.029 A 
ATOM     47  C   UNL     1       7.288   3.556   8.581  1.00  0.00     0.049 A 
ATOM     48  H   UNL     1       7.705   1.752   9.535  1.00  0.00     0.167 HD
ATOM     49  C   UNL     1       8.307  -2.150  11.506  1.00  0.00     0.034 A 
ATOM     50  C   UNL     1       7.706   4.535   9.405  1.00  0.00     0.034 A 
ATOM     51  C   UNL     1       8.908  -1.181  12.380  1.00  0.00     0.049 A 
ATOM     52  C   UNL     1       8.339   4.158  10.720  1.00  0.00     0.074 A 
ATOM     53  C   UNL     1       9.579  -1.393  13.570  1.00  0.00     0.029 A 
ATOM     54  N   UNL     1       8.894   0.189  12.165  1.00  0.00    -0.354 N 
ATOM     55  N   UNL     1       8.576   2.965  11.213  1.00  0.00    -0.248 NA
ATOM     56  C   UNL     1       8.795   5.262  11.575  1.00  0.00     0.031 C 
ATOM     57  C   UNL     1       9.933  -0.146  14.097  1.00  0.00     0.029 A 
ATOM     58  C   UNL     1       9.527   0.839  13.209  1.00  0.00     0.049 A 
ATOM     59  H   UNL     1       8.493   0.634  11.383  1.00  0.00     0.167 HD
ATOM     60  C   UNL     1       9.248   3.174  12.412  1.00  0.00     0.074 A 
ATOM     61  C   UNL     1       9.393   4.608  12.561  1.00  0.00     0.031 C 
ATOM     62  C   UNL     1       9.701   2.266  13.313  1.00  0.00     0.034 A 
BRANCH  49  63
ATOM     63  C   UNL     1       8.321  -3.601  11.915  1.00  0.00     0.023 A 
ATOM     64  C   UNL     1       9.128  -4.526  11.220  1.00  0.00     0.012 A 
ATOM     65  C   UNL     1       7.553  -4.042  13.010  1.00  0.00     0.148 A 
ATOM     66  C   UNL     1       9.138  -5.873  11.584  1.00  0.00     0.002 A 
ATOM     67  C   UNL     1       7.608  -5.375  13.398  1.00  0.00     0.091 A 
ATOM     68  F   UNL     1       6.772  -3.155  13.642  1.00  0.00    -0.205 F 
ATOM     69  C   UNL     1       8.388  -6.295  12.678  1.00  0.00     0.022 A 
BRANCH  67  70
ATOM     70  S   UNL     1       6.741  -5.998  14.842  1.00  0.00     0.127 S 
ATOM     71  O   UNL     1       5.704  -6.826  14.229  1.00  0.00    -0.237 OA
ATOM     72  O   UNL     1       7.793  -6.749  15.530  1.00  0.00    -0.237 OA
ATOM     73  O   UNL     1       6.262  -4.826  15.561  1.00  0.00    -0.744 OA
ENDBRANCH  67  70
ENDBRANCH  49  63
BRANCH  50  74
ATOM     74  C   UNL     1       7.582   5.962   8.996  1.00  0.00     0.023 A 
ATOM     75  C   UNL     1       8.743   6.708   8.716  1.00  0.00     0.012 A 
ATOM     76  C   UNL     1       6.322   6.579   8.874  1.00  0.00     0.148 A 
ATOM     77  C   UNL     1       8.654   8.052   8.353  1.00  0.00     0.002 A 
ATOM     78  C   UNL     1       6.237   7.904   8.461  1.00  0.00     0.091 A 
ATOM     79  F   UNL     1       5.230   5.855   9.158  1.00  0.00    -0.205 F 
ATOM     80  C   UNL     1       7.403   8.647   8.216  1.00  0.00     0.022 A 
BRANCH  78  81
ATOM     81  S   UNL     1       4.668   8.722   8.154  1.00  0.00     0.127 S 
ATOM     82  O   UNL     1       4.630   9.707   9.232  1.00  0.00    -0.237 OA
ATOM     83  O   UNL     1       4.876   9.278   6.818  1.00  0.00    -0.237 OA
ATOM     84  O   UNL     1       3.658   7.675   8.223  1.00  0.00    -0.744 OA
ENDBRANCH  78  81
ENDBRANCH  50  74
BRANCH  62  85
ATOM     85  C   UNL     1      10.448   2.788  14.513  1.00  0.00     0.023 A 
ATOM     86  C   UNL     1       9.764   3.489  15.526  1.00  0.00     0.012 A 
ATOM     87  C   UNL     1      11.825   2.527  14.663  1.00  0.00     0.148 A 
ATOM     88  C   UNL     1      10.447   3.960  16.646  1.00  0.00     0.002 A 
ATOM     89  C   UNL     1      12.487   2.949  15.809  1.00  0.00     0.091 A 
ATOM     90  F   UNL     1      12.463   1.873  13.681  1.00  0.00    -0.205 F 
ATOM     91  C   UNL     1      11.804   3.681  16.793  1.00  0.00     0.022 A 
BRANCH  89  92
ATOM     92  S   UNL     1      14.206   2.541  16.130  1.00  0.00     0.127 S 
ATOM     93  O   UNL     1      14.862   3.831  15.924  1.00  0.00    -0.237 OA
ATOM     94  O   UNL     1      14.163   2.094  17.523  1.00  0.00    -0.237 OA
ATOM     95  O   UNL     1      14.557   1.500  15.173  1.00  0.00    -0.744 OA
ENDBRANCH  89  92
ENDBRANCH  62  85
ENDBRANCH  36  37
ENDBRANCH  29  31
ENDBRANCH  28  29
ENDBRANCH  27  28
ENDBRANCH   1  27
TORSDOF 19
