REMARK SMILES CC1=C[C@H](C)[C@H](CN2C[C@@]34C=C[C@@H](O3)[C@H](C(=O)OCCOCCOC(=O)c3ccc(-c5c6nc(c(-c7cccc(S(=O)(=O)[O-])c7F)c7ccc([nH]7)c(-c7cccc(S(=O)(=O)[O-])c7F)c7nc(c(-c8cccc(S(=O)(=O)[O-])c8F)c8ccc5[nH]8)C=C7)C=C6)cc3)[C@@H]4C2=O)[C@H](C)C1
REMARK SMILES IDX 22 1 21 2 20 3 19 4 18 5 16 6 17 7 15 8 8 9 9 10 91 11 10 12
REMARK SMILES IDX 90 13 92 14 11 15 14 16 12 17 13 18 7 19 6 20 1 21 2 22 3 23
REMARK SMILES IDX 95 24 4 25 93 26 5 27 94 28 23 29 24 30 25 31 26 32 27 33
REMARK SMILES IDX 28 34 89 35 29 36 88 37 30 38 31 39 32 40 82 41 33 42 87 43
REMARK SMILES IDX 81 44 83 45 34 46 86 47 80 48 79 49 35 51 67 52 47 53 66 54
REMARK SMILES IDX 48 55 51 56 65 57 84 58 49 59 50 60 64 62 85 63 52 64 36 65
REMARK SMILES IDX 37 66 45 67 38 68 40 69 46 70 39 71 41 72 42 73 43 74 44 75
REMARK SMILES IDX 68 76 69 77 77 78 70 79 72 80 78 81 71 82 73 83 74 84 75 85
REMARK SMILES IDX 76 86 53 87 54 88 62 89 55 90 57 91 63 92 56 93 58 94 59 95
REMARK SMILES IDX 60 96 61 97
REMARK H PARENT 83 50 51 61
REMARK Flexibility Score: inf
ROOT
ATOM      1  C   UNL     1      -7.293  -0.112   9.459  1.00  0.00     0.202 C 
ENDROOT
BRANCH   1   2
ATOM      2  O   UNL     1      -8.327  -0.272   8.490  1.00  0.00    -0.374 OA
BRANCH   2   3
ATOM      3  C   UNL     1      -8.536  -1.562   7.923  1.00  0.00     0.202 C 
BRANCH   3   4
ATOM      4  C   UNL     1      -7.423  -2.167   7.050  1.00  0.00     0.261 C 
BRANCH   4   5
ATOM      5  O   UNL     1      -6.101  -1.895   7.543  1.00  0.00    -0.463 OA
BRANCH   5   6
ATOM      6  C   UNL     1      -5.438  -0.969   6.822  1.00  0.00     0.312 C 
ATOM      7  O   UNL     1      -5.842  -0.462   5.776  1.00  0.00    -0.252 OA
BRANCH   6   8
ATOM      8  C   UNL     1      -4.160  -0.482   7.424  1.00  0.00     0.148 C 
ATOM      9  N   UNL     1      -1.362  -1.937   5.396  1.00  0.00    -0.339 N 
ATOM     10  C   UNL     1      -0.727  -1.521   6.684  1.00  0.00     0.160 C 
ATOM     11  C   UNL     1      -2.782  -2.039   5.651  1.00  0.00     0.230 C 
ATOM     12  C   UNL     1      -1.923  -1.347   7.635  1.00  0.00     0.117 C 
ATOM     13  C   UNL     1      -2.981  -0.934   6.623  1.00  0.00     0.133 C 
ATOM     14  O   UNL     1      -3.630  -2.634   5.002  1.00  0.00    -0.274 OA
ATOM     15  C   UNL     1      -2.356  -2.501   8.505  1.00  0.00     0.009 C 
ATOM     16  O   UNL     1      -2.153  -0.267   8.556  1.00  0.00    -0.360 OA
ATOM     17  C   UNL     1      -3.384  -2.055   9.238  1.00  0.00     0.004 C 
ATOM     18  C   UNL     1      -3.595  -0.636   8.835  1.00  0.00     0.157 C 
BRANCH   9  19
ATOM     19  C   UNL     1      -1.211  -1.116   4.209  1.00  0.00     0.124 C 
BRANCH  19  20
ATOM     20  C   UNL     1       0.103  -0.900   3.462  1.00  0.00     0.018 C 
ATOM     21  C   UNL     1       1.588  -0.030  -0.676  1.00  0.00     0.039 C 
ATOM     22  C   UNL     1       1.151  -0.361   0.721  1.00  0.00    -0.077 C 
ATOM     23  C   UNL     1       0.941  -1.624   1.115  1.00  0.00    -0.025 C 
ATOM     24  C   UNL     1       0.994   0.796   1.651  1.00  0.00     0.034 C 
ATOM     25  C   UNL     1       0.480  -2.058   2.483  1.00  0.00     0.014 C 
ATOM     26  C   UNL     1       0.049   0.556   2.832  1.00  0.00    -0.005 C 
ATOM     27  C   UNL     1      -0.582  -3.152   2.290  1.00  0.00     0.012 C 
ATOM     28  C   UNL     1      -1.363   1.084   2.463  1.00  0.00     0.008 C 
ENDBRANCH  19  20
ENDBRANCH   9  19
ENDBRANCH   6   8
ENDBRANCH   5   6
ENDBRANCH   4   5
ENDBRANCH   3   4
ENDBRANCH   2   3
ENDBRANCH   1   2
BRANCH   1  29
ATOM     29  C   UNL     1      -7.219  -1.088  10.642  1.00  0.00     0.261 C 
BRANCH  29  30
ATOM     30  O   UNL     1      -7.046  -2.461  10.243  1.00  0.00    -0.460 OA
BRANCH  30  31
ATOM     31  C   UNL     1      -7.887  -3.327  10.864  1.00  0.00     0.338 C 
ATOM     32  O   UNL     1      -8.659  -3.070  11.773  1.00  0.00    -0.246 OA
BRANCH  31  33
ATOM     33  C   UNL     1      -7.895  -4.638  10.189  1.00  0.00     0.060 A 
ATOM     34  C   UNL     1      -9.067  -5.016   9.520  1.00  0.00     0.016 A 
ATOM     35  C   UNL     1      -6.854  -5.549  10.367  1.00  0.00     0.016 A 
ATOM     36  C   UNL     1      -9.223  -6.328   9.075  1.00  0.00     0.010 A 
ATOM     37  C   UNL     1      -7.019  -6.870   9.927  1.00  0.00     0.010 A 
ATOM     38  C   UNL     1      -8.222  -7.276   9.321  1.00  0.00    -0.014 A 
BRANCH  38  39
ATOM     39  C   UNL     1      -8.508  -8.712   9.078  1.00  0.00     0.031 A 
ATOM     40  C   UNL     1      -8.950  -9.581  10.226  1.00  0.00     0.074 A 
ATOM     41  C   UNL     1      -8.398  -9.235   7.844  1.00  0.00     0.049 A 
ATOM     42  N   UNL     1      -9.289 -10.844  10.225  1.00  0.00    -0.248 NA
ATOM     43  C   UNL     1      -9.020  -8.942  11.552  1.00  0.00     0.031 C 
ATOM     44  C   UNL     1      -7.966  -8.505   6.654  1.00  0.00     0.029 A 
ATOM     45  N   UNL     1      -8.620 -10.513   7.395  1.00  0.00    -0.354 N 
ATOM     46  C   UNL     1      -9.588 -11.160  11.545  1.00  0.00     0.074 A 
ATOM     47  C   UNL     1      -9.384  -9.957  12.324  1.00  0.00     0.031 C 
ATOM     48  C   UNL     1      -7.925  -9.355   5.614  1.00  0.00     0.029 A 
ATOM     49  C   UNL     1      -8.320 -10.688   6.065  1.00  0.00     0.049 A 
ATOM     50  H   UNL     1      -8.963 -11.235   7.970  1.00  0.00     0.167 HD
ATOM     51  C   UNL     1     -10.014 -12.337  12.061  1.00  0.00     0.034 A 
ATOM     52  C   UNL     1      -8.349 -11.800   5.303  1.00  0.00     0.034 A 
ATOM     53  C   UNL     1     -10.250 -13.524  11.285  1.00  0.00     0.049 A 
ATOM     54  C   UNL     1      -8.832 -13.096   5.900  1.00  0.00     0.074 A 
ATOM     55  C   UNL     1     -10.754 -14.742  11.708  1.00  0.00     0.029 A 
ATOM     56  N   UNL     1      -9.989 -13.649   9.930  1.00  0.00    -0.354 N 
ATOM     57  N   UNL     1      -9.265 -13.334   7.115  1.00  0.00    -0.248 NA
ATOM     58  C   UNL     1      -8.866 -14.268   5.012  1.00  0.00     0.031 C 
ATOM     59  C   UNL     1     -10.780 -15.610  10.611  1.00  0.00     0.029 A 
ATOM     60  C   UNL     1     -10.304 -14.927   9.503  1.00  0.00     0.049 A 
ATOM     61  H   UNL     1      -9.631 -12.934   9.356  1.00  0.00     0.167 HD
ATOM     62  C   UNL     1      -9.647 -14.672   7.129  1.00  0.00     0.074 A 
ATOM     63  C   UNL     1      -9.418 -15.186   5.794  1.00  0.00     0.031 C 
ATOM     64  C   UNL     1     -10.124 -15.413   8.159  1.00  0.00     0.034 A 
BRANCH  51  65
ATOM     65  C   UNL     1     -10.297 -12.393  13.538  1.00  0.00     0.023 A 
ATOM     66  C   UNL     1     -11.485 -11.822  14.036  1.00  0.00     0.012 A 
ATOM     67  C   UNL     1      -9.431 -13.070  14.418  1.00  0.00     0.148 A 
ATOM     68  C   UNL     1     -11.797 -11.905  15.392  1.00  0.00     0.002 A 
ATOM     69  C   UNL     1      -9.765 -13.178  15.763  1.00  0.00     0.091 A 
ATOM     70  F   UNL     1      -8.294 -13.584  13.927  1.00  0.00    -0.205 F 
ATOM     71  C   UNL     1     -10.944 -12.591  16.253  1.00  0.00     0.022 A 
BRANCH  69  72
ATOM     72  S   UNL     1      -8.761 -14.097  16.936  1.00  0.00     0.127 S 
ATOM     73  O   UNL     1      -8.129 -13.018  17.692  1.00  0.00    -0.237 OA
ATOM     74  O   UNL     1      -9.768 -14.854  17.681  1.00  0.00    -0.237 OA
ATOM     75  O   UNL     1      -7.861 -14.915  16.135  1.00  0.00    -0.744 OA
ENDBRANCH  69  72
ENDBRANCH  51  65
BRANCH  52  76
ATOM     76  C   UNL     1      -7.944 -11.725   3.871  1.00  0.00     0.023 A 
ATOM     77  C   UNL     1      -8.919 -11.850   2.864  1.00  0.00     0.012 A 
ATOM     78  C   UNL     1      -6.601 -11.508   3.506  1.00  0.00     0.148 A 
ATOM     79  C   UNL     1      -8.561 -11.784   1.517  1.00  0.00     0.002 A 
ATOM     80  C   UNL     1      -6.259 -11.392   2.163  1.00  0.00     0.091 A 
ATOM     81  F   UNL     1      -5.683 -11.419   4.478  1.00  0.00    -0.205 F 
ATOM     82  C   UNL     1      -7.235 -11.543   1.167  1.00  0.00     0.022 A 
BRANCH  80  83
ATOM     83  S   UNL     1      -4.595 -10.964   1.641  1.00  0.00     0.127 S 
ATOM     84  O   UNL     1      -4.067 -12.261   1.226  1.00  0.00    -0.237 OA
ATOM     85  O   UNL     1      -4.847 -10.024   0.547  1.00  0.00    -0.237 OA
ATOM     86  O   UNL     1      -3.968 -10.362   2.810  1.00  0.00    -0.744 OA
ENDBRANCH  80  83
ENDBRANCH  52  76
BRANCH  64  87
ATOM     87  C   UNL     1     -10.448 -16.860   7.892  1.00  0.00     0.023 A 
ATOM     88  C   UNL     1      -9.399 -17.789   7.752  1.00  0.00     0.012 A 
ATOM     89  C   UNL     1     -11.781 -17.312   7.858  1.00  0.00     0.148 A 
ATOM     90  C   UNL     1      -9.671 -19.143   7.557  1.00  0.00     0.002 A 
ATOM     91  C   UNL     1     -12.045 -18.669   7.705  1.00  0.00     0.091 A 
ATOM     92  F   UNL     1     -12.768 -16.411   7.971  1.00  0.00    -0.205 F 
ATOM     93  C   UNL     1     -10.992 -19.584   7.546  1.00  0.00     0.022 A 
BRANCH  91  94
ATOM     94  S   UNL     1     -13.715 -19.329   7.770  1.00  0.00     0.127 S 
ATOM     95  O   UNL     1     -14.019 -19.516   6.353  1.00  0.00    -0.237 OA
ATOM     96  O   UNL     1     -13.536 -20.571   8.524  1.00  0.00    -0.237 OA
ATOM     97  O   UNL     1     -14.510 -18.321   8.460  1.00  0.00    -0.744 OA
ENDBRANCH  91  94
ENDBRANCH  64  87
ENDBRANCH  38  39
ENDBRANCH  31  33
ENDBRANCH  30  31
ENDBRANCH  29  30
ENDBRANCH   1  29
TORSDOF 19
