REMARK SMILES CC[NH2+][C@]1(C(=O)OCCOCCOC(=O)c2ccc(-c3c4nc(c(-c5cccc(S(=O)(=O)[O-])c5F)c5ccc([nH]5)c(-c5cccc(S(=O)(=O)[O-])c5F)c5nc(c(-c6cccc(S(=O)(=O)[O-])c6F)c6ccc3[nH]6)C=C5)C=C4)cc2)CC[C@@H](Sc2ccc(OC)cc2)C1
REMARK SMILES IDX 10 1 9 2 8 3 7 4 5 5 6 6 4 7 79 8 91 9 80 10 81 11 3 12 2 15
REMARK SMILES IDX 1 16 82 17 83 18 84 19 90 20 85 21 89 22 86 23 87 24 88 25
REMARK SMILES IDX 11 26 12 27 13 28 14 29 15 30 16 31 17 32 78 33 18 34 77 35
REMARK SMILES IDX 19 36 20 37 21 38 71 39 22 40 76 41 70 42 72 43 23 44 75 45
REMARK SMILES IDX 69 46 68 47 24 49 56 50 36 51 55 52 37 53 40 54 54 55 73 56
REMARK SMILES IDX 38 57 39 58 53 60 74 61 41 62 25 63 26 64 34 65 27 66 29 67
REMARK SMILES IDX 35 68 28 69 30 70 31 71 32 72 33 73 57 74 58 75 66 76 59 77
REMARK SMILES IDX 61 78 67 79 60 80 62 81 63 82 64 83 65 84 42 85 43 86 51 87
REMARK SMILES IDX 44 88 46 89 52 90 45 91 47 92 48 93 49 94 50 95
REMARK H PARENT 3 13 3 14 72 48 40 59
REMARK Flexibility Score: inf
ROOT
ATOM      1  O   UNL     1       1.027  -0.213  -0.374  1.00  0.00    -0.374 OA
ENDROOT
BRANCH   1   2
ATOM      2  C   UNL     1       2.246   0.530  -0.256  1.00  0.00     0.202 C 
BRANCH   2   3
ATOM      3  C   UNL     1       2.141   1.913   0.397  1.00  0.00     0.261 C 
BRANCH   3   4
ATOM      4  O   UNL     1       1.922   1.799   1.816  1.00  0.00    -0.459 OA
BRANCH   4   5
ATOM      5  C   UNL     1       0.662   2.058   2.251  1.00  0.00     0.368 C 
ATOM      6  O   UNL     1      -0.234   2.465   1.514  1.00  0.00    -0.245 OA
BRANCH   5   7
ATOM      7  C   UNL     1       0.402   1.635   3.730  1.00  0.00     0.195 C 
ATOM      8  C   UNL     1      -0.492   2.736   4.351  1.00  0.00     0.082 C 
ATOM      9  C   UNL     1      -0.550   0.423   3.751  1.00  0.00     0.096 C 
ATOM     10  C   UNL     1      -1.401   2.052   5.369  1.00  0.00     0.022 C 
ATOM     11  C   UNL     1      -1.426   0.573   4.987  1.00  0.00     0.059 C 
BRANCH   7  12
ATOM     12  N   UNL     1       1.623   1.462   4.557  1.00  0.00    -0.332 N 
ATOM     13  H   UNL     1       2.243   2.249   4.362  1.00  0.00     0.347 HD
ATOM     14  H   UNL     1       1.291   1.411   5.519  1.00  0.00     0.347 HD
BRANCH  12  15
ATOM     15  C   UNL     1       2.391   0.231   4.346  1.00  0.00     0.257 C 
ATOM     16  C   UNL     1       3.697   0.277   5.129  1.00  0.00     0.071 C 
ENDBRANCH  12  15
ENDBRANCH   7  12
BRANCH  11  17
ATOM     17  S   UNL     1      -3.102  -0.190   4.864  1.00  0.00    -0.122 SA
BRANCH  17  18
ATOM     18  C   UNL     1      -3.796   0.518   3.377  1.00  0.00     0.008 A 
ATOM     19  C   UNL     1      -4.783   1.501   3.461  1.00  0.00     0.019 A 
ATOM     20  C   UNL     1      -3.443   0.033   2.113  1.00  0.00     0.019 A 
ATOM     21  C   UNL     1      -5.349   2.035   2.296  1.00  0.00     0.047 A 
ATOM     22  C   UNL     1      -3.972   0.599   0.947  1.00  0.00     0.047 A 
ATOM     23  C   UNL     1      -4.924   1.611   1.034  1.00  0.00     0.118 A 
BRANCH  23  24
ATOM     24  O   UNL     1      -5.528   2.230  -0.026  1.00  0.00    -0.497 OA
ATOM     25  C   UNL     1      -4.893   2.073  -1.291  1.00  0.00     0.278 C 
ENDBRANCH  23  24
ENDBRANCH  17  18
ENDBRANCH  11  17
ENDBRANCH   5   7
ENDBRANCH   4   5
ENDBRANCH   3   4
ENDBRANCH   2   3
ENDBRANCH   1   2
BRANCH   1  26
ATOM     26  C   UNL     1       0.597  -0.902   0.797  1.00  0.00     0.202 C 
BRANCH  26  27
ATOM     27  C   UNL     1       1.157  -2.308   1.019  1.00  0.00     0.261 C 
BRANCH  27  28
ATOM     28  O   UNL     1       2.569  -2.265   1.277  1.00  0.00    -0.460 OA
BRANCH  28  29
ATOM     29  C   UNL     1       3.336  -2.584   0.209  1.00  0.00     0.338 C 
ATOM     30  O   UNL     1       2.950  -3.015  -0.869  1.00  0.00    -0.246 OA
BRANCH  29  31
ATOM     31  C   UNL     1       4.726  -2.155   0.442  1.00  0.00     0.060 A 
ATOM     32  C   UNL     1       5.353  -1.447  -0.592  1.00  0.00     0.016 A 
ATOM     33  C   UNL     1       5.420  -2.469   1.613  1.00  0.00     0.016 A 
ATOM     34  C   UNL     1       6.698  -1.114  -0.492  1.00  0.00     0.010 A 
ATOM     35  C   UNL     1       6.775  -2.137   1.709  1.00  0.00     0.010 A 
ATOM     36  C   UNL     1       7.429  -1.501   0.638  1.00  0.00    -0.014 A 
BRANCH  36  37
ATOM     37  C   UNL     1       8.905  -1.379   0.619  1.00  0.00     0.031 A 
ATOM     38  C   UNL     1       9.733  -2.609   0.365  1.00  0.00     0.074 A 
ATOM     39  C   UNL     1       9.498  -0.185   0.796  1.00  0.00     0.049 A 
ATOM     40  N   UNL     1      11.033  -2.736   0.312  1.00  0.00    -0.248 NA
ATOM     41  C   UNL     1       8.998  -3.866   0.142  1.00  0.00     0.031 C 
ATOM     42  C   UNL     1       8.800   1.076   1.039  1.00  0.00     0.029 A 
ATOM     43  N   UNL     1      10.827   0.153   0.820  1.00  0.00    -0.354 N 
ATOM     44  C   UNL     1      11.273  -4.085   0.085  1.00  0.00     0.074 A 
ATOM     45  C   UNL     1       9.985  -4.740   0.021  1.00  0.00     0.031 C 
ATOM     46  C   UNL     1       9.710   2.050   1.215  1.00  0.00     0.029 A 
ATOM     47  C   UNL     1      11.051   1.475   1.123  1.00  0.00     0.049 A 
ATOM     48  H   UNL     1      11.551  -0.488   0.637  1.00  0.00     0.167 HD
ATOM     49  C   UNL     1      12.459  -4.720  -0.071  1.00  0.00     0.034 A 
ATOM     50  C   UNL     1      12.206   2.138   1.328  1.00  0.00     0.034 A 
ATOM     51  C   UNL     1      13.736  -4.061  -0.028  1.00  0.00     0.049 A 
ATOM     52  C   UNL     1      13.512   1.403   1.173  1.00  0.00     0.074 A 
ATOM     53  C   UNL     1      14.991  -4.606  -0.225  1.00  0.00     0.029 A 
ATOM     54  N   UNL     1      13.922  -2.715   0.247  1.00  0.00    -0.354 N 
ATOM     55  N   UNL     1      13.723   0.151   0.845  1.00  0.00    -0.248 NA
ATOM     56  C   UNL     1      14.742   2.182   1.382  1.00  0.00     0.031 C 
ATOM     57  C   UNL     1      15.940  -3.597  -0.033  1.00  0.00     0.029 A 
ATOM     58  C   UNL     1      15.273  -2.414   0.242  1.00  0.00     0.049 A 
ATOM     59  H   UNL     1      13.200  -2.068   0.420  1.00  0.00     0.167 HD
ATOM     60  C   UNL     1      15.104   0.001   0.772  1.00  0.00     0.074 A 
ATOM     61  C   UNL     1      15.679   1.296   1.071  1.00  0.00     0.031 C 
ATOM     62  C   UNL     1      15.831  -1.109   0.493  1.00  0.00     0.034 A 
BRANCH  49  63
ATOM     63  C   UNL     1      12.432  -6.206  -0.317  1.00  0.00     0.023 A 
ATOM     64  C   UNL     1      11.988  -6.705  -1.559  1.00  0.00     0.012 A 
ATOM     65  C   UNL     1      12.901  -7.104   0.661  1.00  0.00     0.148 A 
ATOM     66  C   UNL     1      11.982  -8.076  -1.811  1.00  0.00     0.002 A 
ATOM     67  C   UNL     1      12.936  -8.466   0.385  1.00  0.00     0.091 A 
ATOM     68  F   UNL     1      13.297  -6.612   1.843  1.00  0.00    -0.205 F 
ATOM     69  C   UNL     1      12.466  -8.954  -0.845  1.00  0.00     0.022 A 
BRANCH  67  70
ATOM     70  S   UNL     1      13.614  -9.669   1.532  1.00  0.00     0.127 S 
ATOM     71  O   UNL     1      12.412 -10.393   1.944  1.00  0.00    -0.237 OA
ATOM     72  O   UNL     1      14.521 -10.433   0.674  1.00  0.00    -0.237 OA
ATOM     73  O   UNL     1      14.270  -8.902   2.581  1.00  0.00    -0.744 OA
ENDBRANCH  67  70
ENDBRANCH  49  63
BRANCH  50  74
ATOM     74  C   UNL     1      12.180   3.584   1.683  1.00  0.00     0.023 A 
ATOM     75  C   UNL     1      12.657   4.539   0.765  1.00  0.00     0.012 A 
ATOM     76  C   UNL     1      11.671   4.018   2.923  1.00  0.00     0.148 A 
ATOM     77  C   UNL     1      12.657   5.896   1.087  1.00  0.00     0.002 A 
ATOM     78  C   UNL     1      11.621   5.375   3.215  1.00  0.00     0.091 A 
ATOM     79  F   UNL     1      11.236   3.092   3.789  1.00  0.00    -0.205 F 
ATOM     80  C   UNL     1      12.130   6.315   2.306  1.00  0.00     0.022 A 
BRANCH  78  81
ATOM     81  S   UNL     1      10.844   6.013   4.703  1.00  0.00     0.127 S 
ATOM     82  O   UNL     1      11.993   6.528   5.443  1.00  0.00    -0.237 OA
ATOM     83  O   UNL     1       9.950   7.036   4.160  1.00  0.00    -0.237 OA
ATOM     84  O   UNL     1      10.161   4.878   5.309  1.00  0.00    -0.744 OA
ENDBRANCH  78  81
ENDBRANCH  50  74
BRANCH  62  85
ATOM     85  C   UNL     1      17.331  -0.974   0.451  1.00  0.00     0.023 A 
ATOM     86  C   UNL     1      18.057  -0.790   1.644  1.00  0.00     0.012 A 
ATOM     87  C   UNL     1      18.027  -1.105  -0.768  1.00  0.00     0.148 A 
ATOM     88  C   UNL     1      19.449  -0.703   1.621  1.00  0.00     0.002 A 
ATOM     89  C   UNL     1      19.416  -1.071  -0.777  1.00  0.00     0.091 A 
ATOM     90  F   UNL     1      17.318  -1.264  -1.895  1.00  0.00    -0.205 F 
ATOM     91  C   UNL     1      20.128  -0.856   0.414  1.00  0.00     0.022 A 
BRANCH  89  92
ATOM     92  S   UNL     1      20.378  -1.357  -2.267  1.00  0.00     0.127 S 
ATOM     93  O   UNL     1      20.913  -0.023  -2.536  1.00  0.00    -0.237 OA
ATOM     94  O   UNL     1      21.370  -2.332  -1.812  1.00  0.00    -0.237 OA
ATOM     95  O   UNL     1      19.441  -1.865  -3.260  1.00  0.00    -0.744 OA
ENDBRANCH  89  92
ENDBRANCH  62  85
ENDBRANCH  36  37
ENDBRANCH  29  31
ENDBRANCH  28  29
ENDBRANCH  27  28
ENDBRANCH  26  27
ENDBRANCH   1  26
TORSDOF 22
