REMARK SMILES O=C(OCCOCCOC(=O)c1ccc(-c2c3nc(c(-c4cccc(S(=O)(=O)[O-])c4F)c4ccc([nH]4)c(-c4cccc(S(=O)(=O)[O-])c4F)c4nc(c(-c5cccc(S(=O)(=O)[O-])c5F)c5ccc2[nH]5)C=C4)C=C3)cc1)C1=Cc2ccc(Cl)c(Cl)c2O[C@@H]1C(F)(F)F
REMARK SMILES IDX 7 1 6 2 5 3 4 4 3 5 2 6 1 7 75 8 76 9 86 10 77 11 85 12
REMARK SMILES IDX 78 13 84 14 79 15 82 16 80 17 83 18 81 19 87 20 88 21 89 22
REMARK SMILES IDX 90 23 8 24 9 25 10 26 11 27 12 28 13 29 74 30 14 31 73 32
REMARK SMILES IDX 15 33 16 34 17 35 67 36 18 37 72 38 66 39 68 40 19 41 71 42
REMARK SMILES IDX 65 43 64 44 20 46 52 47 32 48 51 49 33 50 36 51 50 52 69 53
REMARK SMILES IDX 34 54 35 55 49 57 70 58 37 59 21 60 22 61 30 62 23 63 25 64
REMARK SMILES IDX 31 65 24 66 26 67 27 68 28 69 29 70 53 71 54 72 62 73 55 74
REMARK SMILES IDX 57 75 63 76 56 77 58 78 59 79 60 80 61 81 38 82 39 83 47 84
REMARK SMILES IDX 40 85 42 86 48 87 41 88 43 89 44 90 45 91 46 92
REMARK H PARENT 68 45 36 56
REMARK Flexibility Score: inf
ROOT
ATOM      1  C   UNL     1       2.675  -2.892   1.072  1.00  0.00     0.202 C 
ENDROOT
BRANCH   1   2
ATOM      2  O   UNL     1       3.897  -2.435   0.473  1.00  0.00    -0.374 OA
BRANCH   2   3
ATOM      3  C   UNL     1       4.275  -1.179  -0.440  1.00  0.00     0.202 C 
BRANCH   3   4
ATOM      4  C   UNL     1       3.479   0.851  -0.527  1.00  0.00     0.261 C 
BRANCH   4   5
ATOM      5  O   UNL     1       2.548   1.419  -1.623  1.00  0.00    -0.460 OA
BRANCH   5   6
ATOM      6  C   UNL     1       2.687   0.803  -2.799  1.00  0.00     0.338 C 
ATOM      7  O   UNL     1       2.075   0.938  -3.827  1.00  0.00    -0.246 OA
BRANCH   6   8
ATOM      8  C   UNL     1       3.526  -0.258  -2.299  1.00  0.00     0.087 C 
ATOM      9  C   UNL     1       4.927   0.204  -2.126  1.00  0.00     0.027 C 
ATOM     10  C   UNL     1       2.356  -0.810  -0.855  1.00  0.00     0.316 C 
ATOM     11  C   UNL     1       5.686   0.511  -0.506  1.00  0.00     0.019 A 
ATOM     12  O   UNL     1       3.120  -0.420   0.873  1.00  0.00    -0.474 OA
ATOM     13  C   UNL     1       6.923   1.089  -0.464  1.00  0.00     0.013 A 
ATOM     14  C   UNL     1       4.792   0.313   0.973  1.00  0.00     0.148 A 
ATOM     15  C   UNL     1       7.312   1.548   0.802  1.00  0.00     0.023 A 
ATOM     16  C   UNL     1       5.182   0.966   2.115  1.00  0.00     0.102 A 
ATOM     17  C   UNL     1       6.477   1.547   1.999  1.00  0.00     0.063 A 
ATOM     18  Cl  UNL     1       4.069   1.373   3.345  1.00  0.00    -0.079 Cl
ATOM     19  Cl  UNL     1       7.196   2.438   3.302  1.00  0.00    -0.083 Cl
BRANCH  10  20
ATOM     20  C   UNL     1       1.833  -2.167  -1.483  1.00  0.00     0.430 C 
ATOM     21  F   UNL     1       0.903  -2.823  -0.767  1.00  0.00    -0.167 F 
ATOM     22  F   UNL     1       1.207  -1.850  -2.657  1.00  0.00    -0.167 F 
ATOM     23  F   UNL     1       2.804  -3.038  -1.841  1.00  0.00    -0.167 F 
ENDBRANCH  10  20
ENDBRANCH   6   8
ENDBRANCH   5   6
ENDBRANCH   4   5
ENDBRANCH   3   4
ENDBRANCH   2   3
ENDBRANCH   1   2
BRANCH   1  24
ATOM     24  C   UNL     1       2.791  -3.364   2.517  1.00  0.00     0.261 C 
BRANCH  24  25
ATOM     25  O   UNL     1       3.356  -2.372   3.355  1.00  0.00    -0.460 OA
BRANCH  25  26
ATOM     26  C   UNL     1       4.692  -2.491   3.506  1.00  0.00     0.338 C 
ATOM     27  O   UNL     1       5.446  -3.244   2.914  1.00  0.00    -0.246 OA
BRANCH  26  28
ATOM     28  C   UNL     1       5.127  -1.546   4.543  1.00  0.00     0.060 A 
ATOM     29  C   UNL     1       6.454  -1.114   4.502  1.00  0.00     0.016 A 
ATOM     30  C   UNL     1       4.241  -1.082   5.530  1.00  0.00     0.016 A 
ATOM     31  C   UNL     1       6.902  -0.216   5.459  1.00  0.00     0.010 A 
ATOM     32  C   UNL     1       4.685  -0.167   6.474  1.00  0.00     0.010 A 
ATOM     33  C   UNL     1       6.024   0.241   6.452  1.00  0.00    -0.014 A 
BRANCH  33  34
ATOM     34  C   UNL     1       6.600   0.932   7.614  1.00  0.00     0.031 A 
ATOM     35  C   UNL     1       7.019   0.074   8.764  1.00  0.00     0.074 A 
ATOM     36  C   UNL     1       6.798   2.259   7.609  1.00  0.00     0.049 A 
ATOM     37  N   UNL     1       7.686   0.403   9.834  1.00  0.00    -0.248 NA
ATOM     38  C   UNL     1       6.638  -1.349   8.697  1.00  0.00     0.031 C 
ATOM     39  C   UNL     1       6.393   3.168   6.544  1.00  0.00     0.029 A 
ATOM     40  N   UNL     1       7.402   3.068   8.532  1.00  0.00    -0.354 N 
ATOM     41  C   UNL     1       7.791  -0.766  10.573  1.00  0.00     0.074 A 
ATOM     42  C   UNL     1       7.107  -1.807   9.844  1.00  0.00     0.031 C 
ATOM     43  C   UNL     1       6.801   4.412   6.848  1.00  0.00     0.029 A 
ATOM     44  C   UNL     1       7.442   4.390   8.159  1.00  0.00     0.049 A 
ATOM     45  H   UNL     1       7.771   2.736   9.382  1.00  0.00     0.167 HD
ATOM     46  C   UNL     1       8.412  -0.951  11.757  1.00  0.00     0.034 A 
ATOM     47  C   UNL     1       7.933   5.454   8.820  1.00  0.00     0.034 A 
ATOM     48  C   UNL     1       9.053   0.106  12.483  1.00  0.00     0.049 A 
ATOM     49  C   UNL     1       8.580   5.223  10.161  1.00  0.00     0.074 A 
ATOM     50  C   UNL     1       9.727   0.035  13.686  1.00  0.00     0.029 A 
ATOM     51  N   UNL     1       9.063   1.436  12.090  1.00  0.00    -0.354 N 
ATOM     52  N   UNL     1       8.783   4.094  10.800  1.00  0.00    -0.248 NA
ATOM     53  C   UNL     1       9.093   6.408  10.860  1.00  0.00     0.031 C 
ATOM     54  C   UNL     1      10.092   1.334  14.051  1.00  0.00     0.029 A 
ATOM     55  C   UNL     1       9.711   2.203  13.039  1.00  0.00     0.049 A 
ATOM     56  H   UNL     1       8.666   1.783  11.258  1.00  0.00     0.167 HD
ATOM     57  C   UNL     1       9.489   4.427  11.950  1.00  0.00     0.074 A 
ATOM     58  C   UNL     1       9.690   5.862  11.910  1.00  0.00     0.031 C 
ATOM     59  C   UNL     1       9.931   3.624  12.950  1.00  0.00     0.034 A 
BRANCH  46  60
ATOM     60  C   UNL     1       8.376  -2.334  12.339  1.00  0.00     0.023 A 
ATOM     61  C   UNL     1       9.098  -3.382  11.732  1.00  0.00     0.012 A 
ATOM     62  C   UNL     1       7.612  -2.594  13.490  1.00  0.00     0.148 A 
ATOM     63  C   UNL     1       9.027  -4.678  12.241  1.00  0.00     0.002 A 
ATOM     64  C   UNL     1       7.589  -3.874  14.023  1.00  0.00     0.091 A 
ATOM     65  F   UNL     1       6.903  -1.590  14.027  1.00  0.00    -0.205 F 
ATOM     66  C   UNL     1       8.282  -4.921  13.392  1.00  0.00     0.022 A 
BRANCH  64  67
ATOM     67  S   UNL     1       6.722  -4.269  15.543  1.00  0.00     0.127 S 
ATOM     68  O   UNL     1       5.665  -5.157  15.058  1.00  0.00    -0.237 OA
ATOM     69  O   UNL     1       7.766  -4.933  16.323  1.00  0.00    -0.237 OA
ATOM     70  O   UNL     1       6.264  -3.000  16.090  1.00  0.00    -0.744 OA
ENDBRANCH  64  67
ENDBRANCH  46  60
BRANCH  47  71
ATOM     71  C   UNL     1       7.862   6.819   8.227  1.00  0.00     0.023 A 
ATOM     72  C   UNL     1       9.048   7.494   7.878  1.00  0.00     0.012 A 
ATOM     73  C   UNL     1       6.624   7.463   8.029  1.00  0.00     0.148 A 
ATOM     74  C   UNL     1       9.007   8.800   7.388  1.00  0.00     0.002 A 
ATOM     75  C   UNL     1       6.587   8.743   7.489  1.00  0.00     0.091 A 
ATOM     76  F   UNL     1       5.507   6.808   8.373  1.00  0.00    -0.205 F 
ATOM     77  C   UNL     1       7.777   9.422   7.189  1.00  0.00     0.022 A 
BRANCH  75  78
ATOM     78  S   UNL     1       5.049   9.583   7.099  1.00  0.00     0.127 S 
ATOM     79  O   UNL     1       5.079  10.709   8.029  1.00  0.00    -0.237 OA
ATOM     80  O   UNL     1       5.252   9.938   5.694  1.00  0.00    -0.237 OA
ATOM     81  O   UNL     1       3.993   8.607   7.329  1.00  0.00    -0.744 OA
ENDBRANCH  75  78
ENDBRANCH  47  71
BRANCH  59  82
ATOM     82  C   UNL     1      10.739   4.264  14.049  1.00  0.00     0.023 A 
ATOM     83  C   UNL     1      10.131   5.142  14.968  1.00  0.00     0.012 A 
ATOM     84  C   UNL     1      12.100   3.933  14.203  1.00  0.00     0.148 A 
ATOM     85  C   UNL     1      10.879   5.719  15.994  1.00  0.00     0.002 A 
ATOM     86  C   UNL     1      12.821   4.460  15.264  1.00  0.00     0.091 A 
ATOM     87  F   UNL     1      12.662   3.106  13.310  1.00  0.00    -0.205 F 
ATOM     88  C   UNL     1      12.219   5.368  16.149  1.00  0.00     0.022 A 
BRANCH  86  89
ATOM     89  S   UNL     1      14.516   3.976  15.606  1.00  0.00     0.127 S 
ATOM     90  O   UNL     1      15.249   5.188  15.246  1.00  0.00    -0.237 OA
ATOM     91  O   UNL     1      14.473   3.691  17.040  1.00  0.00    -0.237 OA
ATOM     92  O   UNL     1      14.781   2.814  14.767  1.00  0.00    -0.744 OA
ENDBRANCH  86  89
ENDBRANCH  59  82
ENDBRANCH  33  34
ENDBRANCH  26  28
ENDBRANCH  25  26
ENDBRANCH  24  25
ENDBRANCH   1  24
TORSDOF 18
