REMARK SMILES C/C(=N\Nc1nc(-c2ccc(Cl)cc2)cs1)c1nnn(-c2ccc(C(=O)OCCOCCOC(=O)c3ccc(-c4c5nc(c(-c6cccc(S(=O)(=O)[O-])c6F)c6ccc([nH]6)c(-c6cccc(S(=O)(=O)[O-])c6F)c6nc(c(-c7cccc(S(=O)(=O)[O-])c7F)c7ccc4[nH]7)C=C6)C=C5)cc3)cc2)c1C
REMARK SMILES IDX 29 1 28 2 27 3 25 4 26 5 24 6 21 7 22 8 100 9 23 10 99 11
REMARK SMILES IDX 20 12 17 13 18 14 101 15 19 16 102 17 2 18 1 19 3 20 4 21
REMARK SMILES IDX 5 23 6 24 16 25 7 26 15 27 8 28 9 29 14 30 10 31 13 32 11 33
REMARK SMILES IDX 12 34 30 35 31 36 32 37 33 38 34 39 35 40 36 41 37 42 98 43
REMARK SMILES IDX 38 44 97 45 39 46 40 47 41 48 91 49 42 50 96 51 90 52 92 53
REMARK SMILES IDX 43 54 95 55 89 56 88 57 44 59 76 60 56 61 75 62 57 63 60 64
REMARK SMILES IDX 74 65 93 66 58 67 59 68 73 70 94 71 61 72 45 73 46 74 54 75
REMARK SMILES IDX 47 76 49 77 55 78 48 79 50 80 51 81 52 82 53 83 77 84 78 85
REMARK SMILES IDX 86 86 79 87 81 88 87 89 80 90 82 91 83 92 84 93 85 94 62 95
REMARK SMILES IDX 63 96 71 97 64 98 66 99 72 100 65 101 67 102 68 103 69 104
REMARK SMILES IDX 70 105
REMARK H PARENT 4 22 92 58 60 69
REMARK Flexibility Score: inf
ROOT
ATOM      1  C   UNL     1       9.217   7.559  -5.173  1.00  0.00     0.202 C 
ENDROOT
BRANCH   1   2
ATOM      2  C   UNL     1       9.109   6.536  -4.042  1.00  0.00     0.261 C 
BRANCH   2   3
ATOM      3  O   UNL     1       7.928   5.731  -4.146  1.00  0.00    -0.460 OA
BRANCH   3   4
ATOM      4  C   UNL     1       6.978   6.001  -3.221  1.00  0.00     0.338 C 
ATOM      5  O   UNL     1       7.054   6.791  -2.295  1.00  0.00    -0.246 OA
BRANCH   4   6
ATOM      6  C   UNL     1       5.727   5.288  -3.554  1.00  0.00     0.060 A 
ATOM      7  C   UNL     1       3.365   3.861  -3.693  1.00  0.00     0.067 A 
ATOM      8  C   UNL     1       3.311   5.208  -3.329  1.00  0.00     0.029 A 
ATOM      9  C   UNL     1       4.556   3.283  -4.156  1.00  0.00     0.029 A 
ATOM     10  C   UNL     1       4.509   5.914  -3.238  1.00  0.00     0.018 A 
ATOM     11  C   UNL     1       5.747   3.998  -4.085  1.00  0.00     0.018 A 
BRANCH   7  12
ATOM     12  N   UNL     1       2.300   3.014  -3.318  1.00  0.00    -0.217 N 
ATOM     13  C   UNL     1       1.097   1.549  -2.236  1.00  0.00     0.132 A 
ATOM     14  N   UNL     1       0.261   2.388  -2.924  1.00  0.00    -0.128 NA
ATOM     15  C   UNL     1       2.409   1.951  -2.433  1.00  0.00     0.071 A 
ATOM     16  N   UNL     1       1.000   3.344  -3.478  1.00  0.00    -0.061 NA
ATOM     17  C   UNL     1       3.675   1.538  -1.766  1.00  0.00     0.069 C 
BRANCH  13  18
ATOM     18  C   UNL     1       0.648   0.504  -1.325  1.00  0.00     0.087 C 
ATOM     19  C   UNL     1       1.226   0.569   0.067  1.00  0.00     0.071 C 
ATOM     20  N   UNL     1      -0.140  -0.401  -1.833  1.00  0.00    -0.176 NA
BRANCH  20  21
ATOM     21  N   UNL     1      -0.514  -1.562  -1.194  1.00  0.00    -0.252 N 
ATOM     22  H   UNL     1      -0.951  -2.227  -1.773  1.00  0.00     0.193 HD
BRANCH  21  23
ATOM     23  C   UNL     1      -0.380  -1.943   0.102  1.00  0.00     0.203 A 
ATOM     24  N   UNL     1      -0.608  -1.194   1.155  1.00  0.00    -0.219 NA
ATOM     25  S   UNL     1       0.235  -3.513   0.493  1.00  0.00    -0.103 S 
ATOM     26  C   UNL     1       0.035  -1.709   2.261  1.00  0.00     0.084 A 
ATOM     27  C   UNL     1       0.559  -2.973   2.095  1.00  0.00     0.097 A 
BRANCH  26  28
ATOM     28  C   UNL     1       0.206  -0.874   3.435  1.00  0.00     0.001 A 
ATOM     29  C   UNL     1      -0.908  -0.227   3.985  1.00  0.00     0.012 A 
ATOM     30  C   UNL     1       1.484  -0.589   3.935  1.00  0.00     0.012 A 
ATOM     31  C   UNL     1      -0.752   0.674   5.041  1.00  0.00     0.021 A 
ATOM     32  C   UNL     1       1.642   0.323   4.984  1.00  0.00     0.021 A 
ATOM     33  C   UNL     1       0.523   0.946   5.535  1.00  0.00     0.041 A 
ATOM     34  Cl  UNL     1       0.718   2.073   6.820  1.00  0.00    -0.084 Cl
ENDBRANCH  26  28
ENDBRANCH  21  23
ENDBRANCH  20  21
ENDBRANCH  13  18
ENDBRANCH   7  12
ENDBRANCH   4   6
ENDBRANCH   3   4
ENDBRANCH   2   3
ENDBRANCH   1   2
BRANCH   1  35
ATOM     35  O   UNL     1       8.218   8.574  -5.277  1.00  0.00    -0.374 OA
BRANCH  35  36
ATOM     36  C   UNL     1       6.878   8.239  -5.626  1.00  0.00     0.202 C 
BRANCH  36  37
ATOM     37  C   UNL     1       6.580   7.739  -7.032  1.00  0.00     0.261 C 
BRANCH  37  38
ATOM     38  O   UNL     1       7.295   6.554  -7.333  1.00  0.00    -0.460 OA
BRANCH  38  39
ATOM     39  C   UNL     1       8.379   6.758  -8.119  1.00  0.00     0.338 C 
ATOM     40  O   UNL     1       8.893   7.821  -8.400  1.00  0.00    -0.246 OA
BRANCH  39  41
ATOM     41  C   UNL     1       8.784   5.468  -8.688  1.00  0.00     0.060 A 
ATOM     42  C   UNL     1       9.787   5.533  -9.654  1.00  0.00     0.016 A 
ATOM     43  C   UNL     1       7.965   4.339  -8.524  1.00  0.00     0.016 A 
ATOM     44  C   UNL     1       9.764   4.594 -10.652  1.00  0.00     0.010 A 
ATOM     45  C   UNL     1       7.952   3.395  -9.517  1.00  0.00     0.010 A 
ATOM     46  C   UNL     1       8.765   3.614 -10.622  1.00  0.00    -0.014 A 
BRANCH  46  47
ATOM     47  C   UNL     1       8.595   2.810 -11.805  1.00  0.00     0.031 A 
ATOM     48  C   UNL     1       9.706   1.866 -12.008  1.00  0.00     0.074 A 
ATOM     49  C   UNL     1       7.517   2.921 -12.602  1.00  0.00     0.049 A 
ATOM     50  N   UNL     1      10.665   1.973 -12.864  1.00  0.00    -0.248 NA
ATOM     51  C   UNL     1       9.895   0.812 -11.004  1.00  0.00     0.031 C 
ATOM     52  C   UNL     1       6.257   3.629 -12.359  1.00  0.00     0.029 A 
ATOM     53  N   UNL     1       7.290   2.292 -13.781  1.00  0.00    -0.354 N 
ATOM     54  C   UNL     1      11.453   0.848 -12.660  1.00  0.00     0.074 A 
ATOM     55  C   UNL     1      11.068   0.305 -11.384  1.00  0.00     0.031 C 
ATOM     56  C   UNL     1       5.320   3.166 -13.221  1.00  0.00     0.029 A 
ATOM     57  C   UNL     1       5.955   2.251 -14.154  1.00  0.00     0.049 A 
ATOM     58  H   UNL     1       8.010   1.897 -14.325  1.00  0.00     0.167 HD
ATOM     59  C   UNL     1      12.163   0.299 -13.681  1.00  0.00     0.034 A 
ATOM     60  C   UNL     1       5.425   1.429 -15.094  1.00  0.00     0.034 A 
ATOM     61  C   UNL     1      12.262   1.195 -14.804  1.00  0.00     0.049 A 
ATOM     62  C   UNL     1       6.537   1.007 -15.983  1.00  0.00     0.074 A 
ATOM     63  C   UNL     1      12.799   2.451 -15.008  1.00  0.00     0.029 A 
ATOM     64  N   UNL     1      11.389   0.982 -15.844  1.00  0.00    -0.354 N 
ATOM     65  N   UNL     1       7.189   1.838 -16.748  1.00  0.00    -0.248 NA
ATOM     66  C   UNL     1       7.238  -0.228 -15.662  1.00  0.00     0.031 C 
ATOM     67  C   UNL     1      11.879   3.105 -15.881  1.00  0.00     0.029 A 
ATOM     68  C   UNL     1      10.869   2.197 -16.205  1.00  0.00     0.049 A 
ATOM     69  H   UNL     1      11.176   0.113 -16.255  1.00  0.00     0.167 HD
ATOM     70  C   UNL     1       8.520   1.460 -16.616  1.00  0.00     0.074 A 
ATOM     71  C   UNL     1       8.477   0.124 -16.020  1.00  0.00     0.031 C 
ATOM     72  C   UNL     1       9.529   2.376 -16.721  1.00  0.00     0.034 A 
BRANCH  59  73
ATOM     73  C   UNL     1      12.426  -1.176 -13.823  1.00  0.00     0.023 A 
ATOM     74  C   UNL     1      13.354  -1.573 -14.807  1.00  0.00     0.012 A 
ATOM     75  C   UNL     1      11.615  -2.185 -13.252  1.00  0.00     0.148 A 
ATOM     76  C   UNL     1      13.437  -2.900 -15.237  1.00  0.00     0.002 A 
ATOM     77  C   UNL     1      11.755  -3.514 -13.626  1.00  0.00     0.091 A 
ATOM     78  F   UNL     1      10.603  -1.856 -12.444  1.00  0.00    -0.205 F 
ATOM     79  C   UNL     1      12.642  -3.873 -14.642  1.00  0.00     0.022 A 
BRANCH  77  80
ATOM     80  S   UNL     1      10.777  -4.812 -12.861  1.00  0.00     0.127 S 
ATOM     81  O   UNL     1       9.833  -5.131 -13.927  1.00  0.00    -0.237 OA
ATOM     82  O   UNL     1      11.791  -5.833 -12.600  1.00  0.00    -0.237 OA
ATOM     83  O   UNL     1      10.210  -4.216 -11.657  1.00  0.00    -0.744 OA
ENDBRANCH  77  80
ENDBRANCH  59  73
BRANCH  60  84
ATOM     84  C   UNL     1       4.136   0.699 -15.037  1.00  0.00     0.023 A 
ATOM     85  C   UNL     1       3.560   0.189 -16.217  1.00  0.00     0.012 A 
ATOM     86  C   UNL     1       3.617   0.259 -13.798  1.00  0.00     0.148 A 
ATOM     87  C   UNL     1       2.513  -0.742 -16.162  1.00  0.00     0.002 A 
ATOM     88  C   UNL     1       2.574  -0.660 -13.748  1.00  0.00     0.091 A 
ATOM     89  F   UNL     1       4.208   0.671 -12.669  1.00  0.00    -0.205 F 
ATOM     90  C   UNL     1       2.025  -1.171 -14.930  1.00  0.00     0.022 A 
BRANCH  88  91
ATOM     91  S   UNL     1       1.917  -1.279 -12.193  1.00  0.00     0.127 S 
ATOM     92  O   UNL     1       0.482  -1.042 -12.359  1.00  0.00    -0.237 OA
ATOM     93  O   UNL     1       2.315  -2.683 -12.234  1.00  0.00    -0.237 OA
ATOM     94  O   UNL     1       2.541  -0.479 -11.147  1.00  0.00    -0.744 OA
ENDBRANCH  88  91
ENDBRANCH  60  84
BRANCH  72  95
ATOM     95  C   UNL     1       9.168   3.769 -17.180  1.00  0.00     0.023 A 
ATOM     96  C   UNL     1       8.338   4.624 -16.421  1.00  0.00     0.012 A 
ATOM     97  C   UNL     1       9.810   4.285 -18.316  1.00  0.00     0.148 A 
ATOM     98  C   UNL     1       8.132   5.953 -16.804  1.00  0.00     0.002 A 
ATOM     99  C   UNL     1       9.636   5.618 -18.671  1.00  0.00     0.091 A 
ATOM    100  F   UNL     1      10.608   3.466 -19.018  1.00  0.00    -0.205 F 
ATOM    101  C   UNL     1       8.790   6.453 -17.924  1.00  0.00     0.022 A 
BRANCH  99 102
ATOM    102  S   UNL     1      10.544   6.355 -20.031  1.00  0.00     0.127 S 
ATOM    103  O   UNL     1       9.502   6.514 -21.043  1.00  0.00    -0.237 OA
ATOM    104  O   UNL     1      11.024   7.607 -19.445  1.00  0.00    -0.237 OA
ATOM    105  O   UNL     1      11.603   5.410 -20.366  1.00  0.00    -0.744 OA
ENDBRANCH  99 102
ENDBRANCH  72  95
ENDBRANCH  46  47
ENDBRANCH  39  41
ENDBRANCH  38  39
ENDBRANCH  37  38
ENDBRANCH  36  37
ENDBRANCH  35  36
ENDBRANCH   1  35
TORSDOF 22
