REMARK SMILES O=C(OCCOCCOC(=O)c1cccnc1-c1ccccn1)c1ccc(-c2c3nc(c(-c4cccc(S(=O)(=O)[O-])c4F)c4ccc([nH]4)c(-c4cccc(S(=O)(=O)[O-])c4F)c4nc(c(-c5cccc(S(=O)(=O)[O-])c5F)c5ccc2[nH]5)C=C4)C=C3)cc1
REMARK SMILES IDX 5 1 4 2 3 3 2 4 1 5 24 6 25 7 86 8 26 9 85 10 27 11 28 12
REMARK SMILES IDX 29 13 79 14 30 15 84 16 78 17 80 18 31 19 83 20 77 21 76 22
REMARK SMILES IDX 32 24 64 25 44 26 63 27 45 28 48 29 62 30 81 31 46 32 47 33
REMARK SMILES IDX 61 35 82 36 49 37 33 38 34 39 42 40 35 41 37 42 43 43 36 44
REMARK SMILES IDX 38 45 39 46 40 47 41 48 65 49 66 50 74 51 67 52 69 53 75 54
REMARK SMILES IDX 68 55 70 56 71 57 72 58 73 59 50 60 51 61 59 62 52 63 54 64
REMARK SMILES IDX 60 65 53 66 55 67 56 68 57 69 58 70 6 71 7 72 8 73 9 74
REMARK SMILES IDX 10 75 11 76 12 77 13 78 17 79 14 80 16 81 15 82 18 83 19 84
REMARK SMILES IDX 23 85 20 86 22 87 21 88
REMARK H PARENT 80 23 48 34
REMARK Flexibility Score: inf
ROOT
ATOM      1  C   UNL     1       3.956  -0.121   1.337  1.00  0.00     0.202 C 
ENDROOT
BRANCH   1   2
ATOM      2  C   UNL     1       3.353   0.931   0.406  1.00  0.00     0.261 C 
BRANCH   2   3
ATOM      3  O   UNL     1       1.970   0.672   0.114  1.00  0.00    -0.460 OA
BRANCH   3   4
ATOM      4  C   UNL     1       1.505   0.339  -1.123  1.00  0.00     0.338 C 
ATOM      5  O   UNL     1       0.321   0.491  -1.399  1.00  0.00    -0.246 OA
BRANCH   4   6
ATOM      6  C   UNL     1       2.435  -0.212  -2.146  1.00  0.00     0.060 A 
ATOM      7  C   UNL     1       3.457  -1.080  -1.787  1.00  0.00     0.016 A 
ATOM      8  C   UNL     1       2.242   0.040  -3.501  1.00  0.00     0.016 A 
ATOM      9  C   UNL     1       4.383  -1.567  -2.672  1.00  0.00     0.010 A 
ATOM     10  C   UNL     1       3.057  -0.608  -4.441  1.00  0.00     0.010 A 
ATOM     11  C   UNL     1       4.118  -1.428  -4.016  1.00  0.00    -0.014 A 
BRANCH  11  12
ATOM     12  C   UNL     1       4.941  -2.228  -4.933  1.00  0.00     0.031 A 
ATOM     13  C   UNL     1       5.816  -1.515  -5.898  1.00  0.00     0.074 A 
ATOM     14  C   UNL     1       4.913  -3.573  -4.833  1.00  0.00     0.049 A 
ATOM     15  N   UNL     1       6.472  -1.998  -6.911  1.00  0.00    -0.248 NA
ATOM     16  C   UNL     1       5.968  -0.062  -5.704  1.00  0.00     0.031 C 
ATOM     17  C   UNL     1       4.166  -4.341  -3.824  1.00  0.00     0.029 A 
ATOM     18  N   UNL     1       5.519  -4.542  -5.588  1.00  0.00    -0.354 N 
ATOM     19  C   UNL     1       7.031  -0.898  -7.540  1.00  0.00     0.074 A 
ATOM     20  C   UNL     1       6.686   0.272  -6.766  1.00  0.00     0.031 C 
ATOM     21  C   UNL     1       4.353  -5.652  -4.029  1.00  0.00     0.029 A 
ATOM     22  C   UNL     1       5.132  -5.818  -5.243  1.00  0.00     0.049 A 
ATOM     23  H   UNL     1       6.166  -4.346  -6.304  1.00  0.00     0.167 HD
ATOM     24  C   UNL     1       7.739  -0.888  -8.688  1.00  0.00     0.034 A 
ATOM     25  C   UNL     1       5.316  -6.982  -5.892  1.00  0.00     0.034 A 
ATOM     26  C   UNL     1       8.070  -2.084  -9.408  1.00  0.00     0.049 A 
ATOM     27  C   UNL     1       6.071  -6.926  -7.190  1.00  0.00     0.074 A 
ATOM     28  C   UNL     1       8.792  -2.212 -10.577  1.00  0.00     0.029 A 
ATOM     29  N   UNL     1       7.677  -3.361  -9.028  1.00  0.00    -0.354 N 
ATOM     30  N   UNL     1       6.632  -5.891  -7.770  1.00  0.00    -0.248 NA
ATOM     31  C   UNL     1       6.220  -8.186  -7.927  1.00  0.00     0.031 C 
ATOM     32  C   UNL     1       8.796  -3.564 -10.930  1.00  0.00     0.029 A 
ATOM     33  C   UNL     1       8.117  -4.284  -9.956  1.00  0.00     0.049 A 
ATOM     34  H   UNL     1       7.162  -3.576  -8.217  1.00  0.00     0.167 HD
ATOM     35  C   UNL     1       7.217  -6.375  -8.930  1.00  0.00     0.074 A 
ATOM     36  C   UNL     1       6.968  -7.804  -8.953  1.00  0.00     0.031 C 
ATOM     37  C   UNL     1       7.882  -5.705  -9.903  1.00  0.00     0.034 A 
BRANCH  24  38
ATOM     38  C   UNL     1       8.116   0.447  -9.255  1.00  0.00     0.023 A 
ATOM     39  C   UNL     1       9.124   1.226  -8.656  1.00  0.00     0.012 A 
ATOM     40  C   UNL     1       7.452   0.927 -10.400  1.00  0.00     0.148 A 
ATOM     41  C   UNL     1       9.447   2.480  -9.176  1.00  0.00     0.002 A 
ATOM     42  C   UNL     1       7.812   2.152 -10.940  1.00  0.00     0.091 A 
ATOM     43  F   UNL     1       6.470   0.182 -10.927  1.00  0.00    -0.205 F 
ATOM     44  C   UNL     1       8.799   2.937 -10.322  1.00  0.00     0.022 A 
BRANCH  42  45
ATOM     45  S   UNL     1       7.084   2.795 -12.449  1.00  0.00     0.127 S 
ATOM     46  O   UNL     1       6.418   4.004 -11.964  1.00  0.00    -0.237 OA
ATOM     47  O   UNL     1       8.267   3.040 -13.274  1.00  0.00    -0.237 OA
ATOM     48  O   UNL     1       6.193   1.757 -12.946  1.00  0.00    -0.744 OA
ENDBRANCH  42  45
ENDBRANCH  24  38
BRANCH  25  49
ATOM     49  C   UNL     1       4.730  -8.255  -5.377  1.00  0.00     0.023 A 
ATOM     50  C   UNL     1       5.581  -9.309  -4.994  1.00  0.00     0.012 A 
ATOM     51  C   UNL     1       3.334  -8.434  -5.271  1.00  0.00     0.148 A 
ATOM     52  C   UNL     1       5.055 -10.529  -4.561  1.00  0.00     0.002 A 
ATOM     53  C   UNL     1       2.818  -9.629  -4.782  1.00  0.00     0.091 A 
ATOM     54  F   UNL     1       2.532  -7.429  -5.652  1.00  0.00    -0.205 F 
ATOM     55  C   UNL     1       3.676 -10.686  -4.448  1.00  0.00     0.022 A 
BRANCH  53  56
ATOM     56  S   UNL     1       1.062  -9.873  -4.489  1.00  0.00     0.127 S 
ATOM     57  O   UNL     1       0.702 -10.785  -5.571  1.00  0.00    -0.237 OA
ATOM     58  O   UNL     1       1.056 -10.470  -3.153  1.00  0.00    -0.237 OA
ATOM     59  O   UNL     1       0.465  -8.545  -4.552  1.00  0.00    -0.744 OA
ENDBRANCH  53  56
ENDBRANCH  25  49
BRANCH  37  60
ATOM     60  C   UNL     1       8.415  -6.515 -11.048  1.00  0.00     0.023 A 
ATOM     61  C   UNL     1       7.534  -7.006 -12.029  1.00  0.00     0.012 A 
ATOM     62  C   UNL     1       9.804  -6.682 -11.204  1.00  0.00     0.148 A 
ATOM     63  C   UNL     1       8.030  -7.671 -13.147  1.00  0.00     0.002 A 
ATOM     64  C   UNL     1      10.293  -7.293 -12.348  1.00  0.00     0.091 A 
ATOM     65  F   UNL     1      10.615  -6.217 -10.242  1.00  0.00    -0.205 F 
ATOM     66  C   UNL     1       9.408  -7.799 -13.315  1.00  0.00     0.022 A 
BRANCH  64  67
ATOM     67  S   UNL     1      12.049  -7.396 -12.704  1.00  0.00     0.127 S 
ATOM     68  O   UNL     1      12.285  -8.836 -12.621  1.00  0.00    -0.237 OA
ATOM     69  O   UNL     1      12.120  -6.841 -14.056  1.00  0.00    -0.237 OA
ATOM     70  O   UNL     1      12.717  -6.599 -11.684  1.00  0.00    -0.744 OA
ENDBRANCH  64  67
ENDBRANCH  37  60
ENDBRANCH  11  12
ENDBRANCH   4   6
ENDBRANCH   3   4
ENDBRANCH   2   3
ENDBRANCH   1   2
BRANCH   1  71
ATOM     71  O   UNL     1       3.597  -1.466   1.101  1.00  0.00    -0.374 OA
BRANCH  71  72
ATOM     72  C   UNL     1       2.388  -1.936   1.667  1.00  0.00     0.202 C 
BRANCH  72  73
ATOM     73  C   UNL     1       2.774  -3.012   2.672  1.00  0.00     0.261 C 
BRANCH  73  74
ATOM     74  O   UNL     1       3.540  -2.384   3.720  1.00  0.00    -0.460 OA
BRANCH  74  75
ATOM     75  C   UNL     1       4.893  -2.291   3.546  1.00  0.00     0.340 C 
ATOM     76  O   UNL     1       5.566  -2.859   2.708  1.00  0.00    -0.246 OA
BRANCH  75  77
ATOM     77  C   UNL     1       5.383  -1.342   4.572  1.00  0.00     0.088 A 
ATOM     78  C   UNL     1       4.814  -1.461   5.854  1.00  0.00     0.019 A 
ATOM     79  C   UNL     1       6.281  -0.291   4.338  1.00  0.00     0.103 A 
ATOM     80  C   UNL     1       5.140  -0.560   6.856  1.00  0.00     0.021 A 
ATOM     81  N   UNL     1       6.594   0.599   5.335  1.00  0.00    -0.254 NA
ATOM     82  C   UNL     1       6.039   0.437   6.553  1.00  0.00     0.112 A 
BRANCH  79  83
ATOM     83  C   UNL     1       6.871   0.105   3.042  1.00  0.00     0.089 A 
ATOM     84  C   UNL     1       6.599   1.372   2.499  1.00  0.00     0.031 A 
ATOM     85  N   UNL     1       7.724  -0.751   2.434  1.00  0.00    -0.255 NA
ATOM     86  C   UNL     1       7.154   1.738   1.274  1.00  0.00     0.004 A 
ATOM     87  C   UNL     1       8.269  -0.361   1.254  1.00  0.00     0.112 A 
ATOM     88  C   UNL     1       8.009   0.853   0.635  1.00  0.00     0.020 A 
ENDBRANCH  79  83
ENDBRANCH  75  77
ENDBRANCH  74  75
ENDBRANCH  73  74
ENDBRANCH  72  73
ENDBRANCH  71  72
ENDBRANCH   1  71
TORSDOF 18
