REMARK SMILES CC(C)C(=O)Nc1ccc2c([C@H](C(=O)OCCOCCOC(=O)c3ccc(-c4c5nc(c(-c6cccc(S(=O)(=O)[O-])c6F)c6ccc([nH]6)c(-c6cccc(S(=O)(=O)[O-])c6F)c6nc(c(-c7cccc(S(=O)(=O)[O-])c7F)c7ccc4[nH]7)C=C6)C=C5)cc3)[NH+]3CC[NH+](CC(=O)N(C)C)CC3)c[nH]c2c1
REMARK SMILES IDX 18 1 17 2 16 3 15 4 13 5 14 6 12 7 11 8 7 9 8 10 102 11 9 12
REMARK SMILES IDX 101 13 10 14 100 15 99 16 6 18 4 19 5 20 2 22 1 23 3 24
REMARK SMILES IDX 87 25 88 26 98 27 89 29 97 30 90 31 91 33 92 34 93 35 94 36
REMARK SMILES IDX 95 37 96 38 19 39 20 40 21 41 22 42 23 43 24 44 25 45 86 46
REMARK SMILES IDX 26 47 85 48 27 49 28 50 29 51 79 52 30 53 84 54 78 55 80 56
REMARK SMILES IDX 31 57 83 58 77 59 76 60 32 62 64 63 44 64 63 65 45 66 48 67
REMARK SMILES IDX 62 68 81 69 46 70 47 71 61 73 82 74 49 75 33 76 34 77 42 78
REMARK SMILES IDX 35 79 37 80 43 81 36 82 38 83 39 84 40 85 41 86 65 87 66 88
REMARK SMILES IDX 74 89 67 90 69 91 75 92 68 93 70 94 71 95 72 96 73 97 50 98
REMARK SMILES IDX 51 99 59 100 52 101 54 102 60 103 53 104 55 105 56 106
REMARK SMILES IDX 57 107 58 108
REMARK H PARENT 100 17 6 21 87 28 90 32 80 61 48 72
REMARK Flexibility Score: inf
ROOT
ATOM      1  O   UNL     1      -1.122  -4.224  -0.523  1.00  0.00    -0.374 OA
ENDROOT
BRANCH   1   2
ATOM      2  C   UNL     1      -1.932  -3.633   0.498  1.00  0.00     0.202 C 
BRANCH   2   3
ATOM      3  C   UNL     1      -1.952  -4.254   1.912  1.00  0.00     0.261 C 
BRANCH   3   4
ATOM      4  O   UNL     1      -0.655  -4.440   2.528  1.00  0.00    -0.459 OA
BRANCH   4   5
ATOM      5  C   UNL     1      -0.415  -5.686   3.054  1.00  0.00     0.370 C 
ATOM      6  O   UNL     1      -1.201  -6.623   2.942  1.00  0.00    -0.245 OA
BRANCH   5   7
ATOM      7  C   UNL     1       0.905  -5.727   3.875  1.00  0.00     0.328 C 
BRANCH   7   8
ATOM      8  C   UNL     1       0.627  -6.058   5.332  1.00  0.00     0.046 A 
ATOM      9  C   UNL     1       3.083  -6.830   8.651  1.00  0.00     0.043 A 
ATOM     10  C   UNL     1       3.749  -6.498   7.481  1.00  0.00     0.027 A 
ATOM     11  C   UNL     1       1.698  -7.035   8.659  1.00  0.00     0.052 A 
ATOM     12  C   UNL     1       3.038  -6.188   6.326  1.00  0.00     0.013 A 
ATOM     13  C   UNL     1       0.997  -6.704   7.494  1.00  0.00     0.048 A 
ATOM     14  C   UNL     1       1.633  -6.267   6.335  1.00  0.00     0.009 A 
ATOM     15  N   UNL     1      -0.351  -6.709   7.233  1.00  0.00    -0.361 N 
ATOM     16  C   UNL     1      -0.588  -6.295   5.951  1.00  0.00     0.094 A 
ATOM     17  H   UNL     1      -1.048  -6.972   7.877  1.00  0.00     0.166 HD
BRANCH   9  18
ATOM     18  N   UNL     1       3.774  -6.971   9.854  1.00  0.00    -0.326 N 
ATOM     19  C   UNL     1       4.721  -6.161  10.411  1.00  0.00     0.226 C 
ATOM     20  O   UNL     1       5.311  -6.588  11.412  1.00  0.00    -0.274 OA
ATOM     21  H   UNL     1       3.546  -7.773  10.379  1.00  0.00     0.169 HD
BRANCH  19  22
ATOM     22  C   UNL     1       5.010  -4.731   9.918  1.00  0.00     0.072 C 
ATOM     23  C   UNL     1       6.003  -4.634   8.765  1.00  0.00     0.018 C 
ATOM     24  C   UNL     1       3.770  -3.865   9.701  1.00  0.00     0.018 C 
ENDBRANCH  19  22
ENDBRANCH   9  18
ENDBRANCH   7   8
BRANCH   7  25
ATOM     25  N   UNL     1       1.911  -6.742   3.460  1.00  0.00    -0.310 N 
ATOM     26  C   UNL     1       1.422  -8.034   2.994  1.00  0.00     0.325 C 
ATOM     27  C   UNL     1       3.027  -6.287   2.651  1.00  0.00     0.325 C 
ATOM     28  H   UNL     1       2.288  -6.910   4.393  1.00  0.00     0.349 HD
ATOM     29  C   UNL     1       1.088  -8.094   1.488  1.00  0.00     0.325 C 
ATOM     30  C   UNL     1       2.640  -6.162   1.188  1.00  0.00     0.325 C 
ATOM     31  N   UNL     1       1.901  -7.270   0.573  1.00  0.00    -0.318 N 
ATOM     32  H   UNL     1       1.216  -6.752   0.022  1.00  0.00     0.348 HD
BRANCH  31  33
ATOM     33  C   UNL     1       2.644  -8.069  -0.411  1.00  0.00     0.364 C 
BRANCH  33  34
ATOM     34  C   UNL     1       3.839  -8.775   0.234  1.00  0.00     0.277 C 
ATOM     35  O   UNL     1       3.689  -9.876   0.773  1.00  0.00    -0.268 OA
ATOM     36  N   UNL     1       5.047  -8.088   0.303  1.00  0.00    -0.344 N 
ATOM     37  C   UNL     1       5.475  -7.019  -0.589  1.00  0.00     0.146 C 
ATOM     38  C   UNL     1       6.010  -8.527   1.293  1.00  0.00     0.146 C 
ENDBRANCH  33  34
ENDBRANCH  31  33
ENDBRANCH   7  25
ENDBRANCH   5   7
ENDBRANCH   4   5
ENDBRANCH   3   4
ENDBRANCH   2   3
ENDBRANCH   1   2
BRANCH   1  39
ATOM     39  C   UNL     1       0.234  -4.395  -0.139  1.00  0.00     0.202 C 
BRANCH  39  40
ATOM     40  C   UNL     1       1.264  -4.110  -1.237  1.00  0.00     0.261 C 
BRANCH  40  41
ATOM     41  O   UNL     1       1.375  -2.687  -1.354  1.00  0.00    -0.460 OA
BRANCH  41  42
ATOM     42  C   UNL     1       0.439  -2.187  -2.193  1.00  0.00     0.338 C 
ATOM     43  O   UNL     1       0.025  -2.704  -3.207  1.00  0.00    -0.246 OA
BRANCH  42  44
ATOM     44  C   UNL     1      -0.186  -1.025  -1.534  1.00  0.00     0.060 A 
ATOM     45  C   UNL     1      -1.569  -0.902  -1.698  1.00  0.00     0.016 A 
ATOM     46  C   UNL     1       0.534  -0.103  -0.764  1.00  0.00     0.016 A 
ATOM     47  C   UNL     1      -2.227   0.197  -1.175  1.00  0.00     0.010 A 
ATOM     48  C   UNL     1      -0.126   1.007  -0.240  1.00  0.00     0.010 A 
ATOM     49  C   UNL     1      -1.494   1.183  -0.505  1.00  0.00    -0.014 A 
BRANCH  49  50
ATOM     50  C   UNL     1      -2.139   2.494  -0.319  1.00  0.00     0.031 A 
ATOM     51  C   UNL     1      -1.886   3.550  -1.357  1.00  0.00     0.074 A 
ATOM     52  C   UNL     1      -3.003   2.683   0.691  1.00  0.00     0.049 A 
ATOM     53  N   UNL     1      -2.419   4.733  -1.479  1.00  0.00    -0.248 NA
ATOM     54  C   UNL     1      -0.903   3.223  -2.407  1.00  0.00     0.031 C 
ATOM     55  C   UNL     1      -3.312   1.701   1.730  1.00  0.00     0.029 A 
ATOM     56  N   UNL     1      -3.775   3.767   1.006  1.00  0.00    -0.354 N 
ATOM     57  C   UNL     1      -1.825   5.299  -2.600  1.00  0.00     0.074 A 
ATOM     58  C   UNL     1      -0.879   4.339  -3.118  1.00  0.00     0.031 C 
ATOM     59  C   UNL     1      -4.203   2.236   2.581  1.00  0.00     0.029 A 
ATOM     60  C   UNL     1      -4.507   3.599   2.155  1.00  0.00     0.049 A 
ATOM     61  H   UNL     1      -3.804   4.586   0.461  1.00  0.00     0.167 HD
ATOM     62  C   UNL     1      -2.060   6.511  -3.153  1.00  0.00     0.034 A 
ATOM     63  C   UNL     1      -5.317   4.466   2.792  1.00  0.00     0.034 A 
ATOM     64  C   UNL     1      -3.011   7.445  -2.620  1.00  0.00     0.049 A 
ATOM     65  C   UNL     1      -5.550   5.814   2.163  1.00  0.00     0.074 A 
ATOM     66  C   UNL     1      -3.364   8.689  -3.107  1.00  0.00     0.029 A 
ATOM     67  N   UNL     1      -3.748   7.241  -1.461  1.00  0.00    -0.354 N 
ATOM     68  N   UNL     1      -5.064   6.298   1.044  1.00  0.00    -0.248 NA
ATOM     69  C   UNL     1      -6.469   6.721   2.862  1.00  0.00     0.031 C 
ATOM     70  C   UNL     1      -4.283   9.255  -2.217  1.00  0.00     0.029 A 
ATOM     71  C   UNL     1      -4.539   8.345  -1.202  1.00  0.00     0.049 A 
ATOM     72  H   UNL     1      -3.712   6.429  -0.905  1.00  0.00     0.167 HD
ATOM     73  C   UNL     1      -5.636   7.554   0.889  1.00  0.00     0.074 A 
ATOM     74  C   UNL     1      -6.530   7.740   2.016  1.00  0.00     0.031 C 
ATOM     75  C   UNL     1      -5.436   8.481  -0.083  1.00  0.00     0.034 A 
BRANCH  62  76
ATOM     76  C   UNL     1      -1.272   6.888  -4.379  1.00  0.00     0.023 A 
ATOM     77  C   UNL     1      -1.530   6.253  -5.612  1.00  0.00     0.012 A 
ATOM     78  C   UNL     1      -0.291   7.896  -4.316  1.00  0.00     0.148 A 
ATOM     79  C   UNL     1      -0.805   6.596  -6.754  1.00  0.00     0.002 A 
ATOM     80  C   UNL     1       0.394   8.266  -5.467  1.00  0.00     0.091 A 
ATOM     81  F   UNL     1      -0.038   8.466  -3.129  1.00  0.00    -0.205 F 
ATOM     82  C   UNL     1       0.148   7.609  -6.683  1.00  0.00     0.022 A 
BRANCH  80  83
ATOM     83  S   UNL     1       1.588   9.607  -5.495  1.00  0.00     0.127 S 
ATOM     84  O   UNL     1       2.834   8.887  -5.759  1.00  0.00    -0.237 OA
ATOM     85  O   UNL     1       1.106  10.420  -6.612  1.00  0.00    -0.237 OA
ATOM     86  O   UNL     1       1.507  10.249  -4.191  1.00  0.00    -0.744 OA
ENDBRANCH  80  83
ENDBRANCH  62  76
BRANCH  63  87
ATOM     87  C   UNL     1      -5.968   4.074   4.072  1.00  0.00     0.023 A 
ATOM     88  C   UNL     1      -7.363   3.901   4.135  1.00  0.00     0.012 A 
ATOM     89  C   UNL     1      -5.195   3.840   5.228  1.00  0.00     0.148 A 
ATOM     90  C   UNL     1      -7.980   3.530   5.331  1.00  0.00     0.002 A 
ATOM     91  C   UNL     1      -5.808   3.413   6.398  1.00  0.00     0.091 A 
ATOM     92  F   UNL     1      -3.870   4.026   5.153  1.00  0.00    -0.205 F 
ATOM     93  C   UNL     1      -7.203   3.274   6.458  1.00  0.00     0.022 A 
BRANCH  91  94
ATOM     94  S   UNL     1      -4.870   2.928   7.851  1.00  0.00     0.127 S 
ATOM     95  O   UNL     1      -5.178   4.010   8.781  1.00  0.00    -0.237 OA
ATOM     96  O   UNL     1      -5.474   1.637   8.183  1.00  0.00    -0.237 OA
ATOM     97  O   UNL     1      -3.483   2.844   7.413  1.00  0.00    -0.744 OA
ENDBRANCH  91  94
ENDBRANCH  63  87
BRANCH  75  98
ATOM     98  C   UNL     1      -6.215   9.764   0.026  1.00  0.00     0.023 A 
ATOM     99  C   UNL     1      -5.898  10.696   1.034  1.00  0.00     0.012 A 
ATOM    100  C   UNL     1      -7.228  10.065  -0.905  1.00  0.00     0.148 A 
ATOM    101  C   UNL     1      -6.612  11.887   1.144  1.00  0.00     0.002 A 
ATOM    102  C   UNL     1      -7.895  11.280  -0.824  1.00  0.00     0.091 A 
ATOM    103  F   UNL     1      -7.523   9.158  -1.847  1.00  0.00    -0.205 F 
ATOM    104  C   UNL     1      -7.601  12.184   0.210  1.00  0.00     0.022 A 
BRANCH 102 105
ATOM    105  S   UNL     1      -9.108  11.790  -2.045  1.00  0.00     0.127 S 
ATOM    106  O   UNL     1     -10.356  11.664  -1.294  1.00  0.00    -0.237 OA
ATOM    107  O   UNL     1      -8.702  13.167  -2.328  1.00  0.00    -0.237 OA
ATOM    108  O   UNL     1      -8.958  10.874  -3.167  1.00  0.00    -0.744 OA
ENDBRANCH 102 105
ENDBRANCH  75  98
ENDBRANCH  49  50
ENDBRANCH  42  44
ENDBRANCH  41  42
ENDBRANCH  40  41
ENDBRANCH  39  40
ENDBRANCH   1  39
TORSDOF 23
